AV-unprocessed.smi:3248|AV-procd|sdf|12415|dock8
  -GOLD-   2272018293D 1   1.00000     0.00000
 Structure written by MMmdl.
 38 39  0  0  0  0  0  0  0  0  1 V2000
  152.4940  139.0343  155.1222 C   0  0  0  0  0  0  0  0  0  0  0  0
  151.3792  138.8294  156.1588 C   0  0  2  0  0  0  0  0  0  0  0  0
  150.0327  138.5009  155.4857 C   0  0  0  0  0  0  0  0  0  0  0  0
  149.4225  139.6701  154.8764 N   0  0  0  0  0  0  0  0  0  0  0  0
  148.1950  139.7697  154.2560 C   0  0  0  0  0  0  0  0  0  0  0  0
  148.0488  141.0655  153.8508 C   0  0  0  0  0  0  0  0  0  0  0  0
  149.2548  141.6907  154.2746 C   0  0  0  0  0  0  0  0  0  0  0  0
  150.0756  140.8529  154.8876 N   0  0  0  0  0  0  0  0  0  0  0  0
  151.2454  140.0269  156.9852 N   0  0  0  0  0  0  0  0  0  0  0  0
  152.1693  140.5016  157.8371 C   0  0  0  0  0  0  0  0  0  0  0  0
  153.2543  139.9468  158.0108 O   0  0  0  0  0  0  0  0  0  0  0  0
  151.7304  141.5582  158.5647 N   0  0  0  0  0  0  0  0  0  0  0  0
  150.8162  142.5533  157.9844 C   0  0  0  0  0  0  0  0  0  0  0  0
  151.6561  143.7320  157.4538 C   0  0  0  0  0  0  0  0  0  0  0  0
  152.4350  144.2889  158.5106 O   0  0  0  0  0  0  0  0  0  0  0  0
  153.2971  143.3425  159.1397 C   0  0  0  0  0  0  0  0  0  0  0  0
  152.4545  142.1758  159.6929 C   0  0  2  0  0  0  0  0  0  0  0  0
  153.2781  141.2067  160.5671 C   0  0  0  0  0  0  0  0  0  0  0  0
  152.6206  138.1462  154.5026 H   0  0  0  0  0  0  0  0  0  0  0  0
  153.4505  139.2352  155.6060 H   0  0  0  0  0  0  0  0  0  0  0  0
  152.2719  139.8725  154.4611 H   0  0  0  0  0  0  0  0  0  0  0  0
  151.6538  137.9813  156.7890 H   0  0  0  0  0  0  0  0  0  0  0  0
  150.1583  137.7252  154.7281 H   0  0  0  0  0  0  0  0  0  0  0  0
  149.3329  138.1046  156.2225 H   0  0  0  0  0  0  0  0  0  0  0  0
  147.5347  138.9204  154.1588 H   0  0  0  0  0  0  0  0  0  0  0  0
  147.2078  141.5013  153.3318 H   0  0  0  0  0  0  0  0  0  0  0  0
  149.5561  142.7210  154.1560 H   0  0  0  0  0  0  0  0  0  0  0  0
  150.3607  140.5113  156.9374 H   0  0  0  0  0  0  0  0  0  0  0  0
  150.2003  142.1551  157.1772 H   0  0  0  0  0  0  0  0  0  0  0  0
  150.1157  142.9002  158.7454 H   0  0  0  0  0  0  0  0  0  0  0  0
  152.3103  143.4093  156.6421 H   0  0  0  0  0  0  0  0  0  0  0  0
  151.0050  144.5074  157.0498 H   0  0  0  0  0  0  0  0  0  0  0  0
  154.0476  142.9877  158.4316 H   0  0  0  0  0  0  0  0  0  0  0  0
  153.8304  143.8442  159.9476 H   0  0  0  0  0  0  0  0  0  0  0  0
  151.7018  142.5967  160.3622 H   0  0  0  0  0  0  0  0  0  0  0  0
  153.6003  141.7026  161.4830 H   0  0  0  0  0  0  0  0  0  0  0  0
  154.1810  140.8567  160.0676 H   0  0  0  0  0  0  0  0  0  0  0  0
  152.6879  140.3373  160.8587 H   0  0  0  0  0  0  0  0  0  0  0  0
  1  2  1  0  0  0  0
  1 19  1  0  0  0  0
  1 20  1  0  0  0  0
  1 21  1  0  0  0  0
  2  3  1  0  0  0  0
  2  9  1  0  0  0  0
  2 22  1  0  0  0  0
  3  4  1  0  0  0  0
  3 23  1  0  0  0  0
  3 24  1  0  0  0  0
  4  8  1  0  0  0  0
  4  5  1  0  0  0  0
  5  6  2  0  0  0  0
  5 25  1  0  0  0  0
  6  7  1  0  0  0  0
  6 26  1  0  0  0  0
  7  8  2  0  0  0  0
  7 27  1  0  0  0  0
  9 10  1  0  0  0  0
  9 28  1  0  0  0  0
 10 11  2  0  0  0  0
 10 12  1  0  0  0  0
 12 17  1  0  0  0  0
 12 13  1  0  0  0  0
 13 14  1  0  0  0  0
 13 29  1  0  0  0  0
 13 30  1  0  0  0  0
 14 15  1  0  0  0  0
 14 31  1  0  0  0  0
 14 32  1  0  0  0  0
 15 16  1  0  0  0  0
 16 17  1  0  0  0  0
 16 33  1  0  0  0  0
 16 34  1  0  0  0  0
 17 18  1  0  0  0  0
 17 35  1  0  0  0  0
 18 36  1  0  0  0  0
 18 37  1  0  0  0  0
 18 38  1  0  0  0  0
M  END
> <s_m_source_file>
AV-unprocessed.smi

> <i_m_source_file_index>
3248

> <i_lp_mmshare_version>
43012

> <i_f3d_flags>
0

> <s_epik_input>
bjFbY0hdW2NIXVtjSF1uMVtDSDJdW0NAQEhdKFtDSDNdKVtOSF1DKD1PKU4yW0NIMl1bQ0gyXU9bQ0gyXVtDQEhdMltDSDNd

> <s_epik_cmdline>
J2VwaWtfcHl0aG9uJywgJy1waCcsICc3LjAnLCAnLXRuJywgJzgnLCAnLW1hJywgJzIwMCcsICctbWV0YWxfYmluZGluZycsICctaW1hZScsICc8aW5maWxlLm1hZT4nLCAnLW9tYWUnLCAnPG91dGZpbGUubWFlPic=

> <r_lp_tautomer_probability>
1

> <r_epik_Ionization_Penalty>
4.45233e-05

> <r_epik_Ionization_Penalty_Charging>
0

> <r_epik_Ionization_Penalty_Neutral>
4.45233e-05

> <r_epik_State_Penalty>
-0

> <r_epik_Charging_Adjusted_Penalty>
0

> <i_epik_Tot_Q>
0

> <i_epik_Tot_abs_Q>
0

> <r_epik_Metal_State_Penalty>
-0

> <b_epik_Metal_Only>
0

> <s_lp_Force_Field>
OPLS_2005

> <r_lp_Energy>
31.9687

> <b_lp_Chiralities_Consistent>
1

> <s_lp_Variant>
AV-unprocessed.smi:3248-3

> <Gold.Version>
5.8.1

> <Gold.Id.Protein>
6NUR|6NUR_protein|mol2

> <Gold.PLP.Fitness>
43.0286

> <Gold.PLP.PLP>
-35.3187

> <Gold.PLP.part.hbond>
-1.9480

> <Gold.PLP.part.metal>
0.0000

> <Gold.PLP.part.buried>
-0.4123

> <Gold.PLP.part.nonpolar>
-32.1065

> <Gold.PLP.part.repulsive>
0.2133

> <Gold.PLP.ligand.clash>
0.0000

> <Gold.PLP.ligand.torsion>
0.3811

> <Gold.PLP.Chemscore.Hbond>
1.6721

> <Gold.PLP.Chemscore.CHOScore>
1.0000

> <Gold.PLP.Chemscore.Metal>
0.0000

> <Gold.Chemscore.Hbonds>
donor molecule, donor type, donor heavy atom, donor atom, acceptor molecule, acceptor atom, score
      P1  H  7989  7998       L1     8  0.60
      P1  H  7997  8008       L1    11  1.00
      L1  C     7    27       P1  8028  0.87

> <Gold.PLP.Chemscore.Internal.Correction>
0.4558

> <Gold.Rescore>
     Score         DG    S(hbond)    S(metal)    S(lipo)     H(rot)  DE(clash)    DE(int)     intcor
     14.10     -15.83       0.95        0.00      92.31       1.42       0.02       1.71       ----

> <Gold.Chemscore.Fitness>
14.0992

> <Gold.Chemscore.DG>
-15.8303

> <Gold.Chemscore.ZeroCoef>
-5.4800

> <Gold.Chemscore.Hbond>
0.9529

> <Gold.Chemscore.Metal>
0.0000

> <Gold.Chemscore.Lipo>
92.3130

> <Gold.Chemscore.Internal_Hbond>
0.0000

> <Gold.Chemscore.DEClash>
0.0233

> <Gold.Chemscore.DEInternal>
1.7079

> <Gold.Chemscore.Rot>
1.4191

> <Gold.Chemscore.Internal.Correction>
   9.000000E+99

> <Gold.Chemscore.Hbonds>
donor molecule, donor type, donor heavy atom, donor atom, acceptor molecule, acceptor atom, score
      P1  H  7989  7998       L1     8  0.10
      P1  H  7997  8008       L1    11  0.98

> <Gold.Chemscore.Hbond.Weighted>
-3.1827

> <Gold.Chemscore.Metal.Weighted>
-0.0000

> <Gold.Chemscore.Lipo.Weighted>
-10.8006

> <Gold.Chemscore.Internal_Hbond.Weighted>
0.0000

> <Gold.Chemscore.DEClash.Weighted>
0.0233

> <Gold.Chemscore.DEInternal.Weighted>
1.7079

> <Gold.Chemscore.Rot.Weighted>
3.6330

> <Gold.Chemscore.Internal.Correction.Weighted>
   9.000000E+99

> <Gold.Protein.RotatedTorsions>
[ 6907 6896 6895 6894 ] final  -13.79 input  -60.11 | X-H torsion
[ 7974 7965 7964 7962 ] final  -85.83 input  175.53 | X-H torsion
[ 8008 7997 7996 7995 ] final  -87.58 input   59.86 | X-H torsion
[ 10167 10162 10161 10158 ] final  -30.95 input  -65.29 | X-H torsion
[ 10718 10713 10712 10709 ] final   92.99 input   66.30 | X-H torsion
[ 10763 10752 10751 10750 ] final -166.45 input  -60.55 | X-H torsion
[ 11005 11000 10999 10996 ] final    4.90 input  -57.11 | X-H torsion

> <Gold.Protein.ActiveResidues>
 VAL166  LYS551  ARG553  GLY616  TRP617  ASP618  TYR619  PRO620  LYS621  CYS622 
 ASP623  PHE694  ASN695  SER759  ASP760  ASP761  ALA762  ILE779  LEU786  VAL792 
 PHE793  MET794  SER795  GLU796  ALA797  LYS798  CYS799  TRP800  GLU811  SER814 

> <Gold.Protein.RotatedAtoms>
  151.3494  135.0881  159.9397 H   0  0  0  0  0  0  0  0  0  0  0  0  # atno 6907 bound_to 6896
  152.5191  133.9367  159.7617 H   0  0  0  0  0  0  0  0  0  0  0  0  # atno 6908 bound_to 6896
  150.9740  133.6261  159.2763 H   0  0  0  0  0  0  0  0  0  0  0  0  # atno 6909 bound_to 6896
  145.4880  140.9554  143.1827 H   0  0  0  0  0  0  0  0  0  0  0  0  # atno 7974 bound_to 7965
  154.6649  140.0564  157.0102 H   0  0  0  0  0  0  0  0  0  0  0  0  # atno 8008 bound_to 7997
  155.1174  140.3244  155.4487 H   0  0  0  0  0  0  0  0  0  0  0  0  # atno 8009 bound_to 7997
  156.2633  140.2003  156.6297 H   0  0  0  0  0  0  0  0  0  0  0  0  # atno 8010 bound_to 7997
  140.7243  143.3809  151.1603 H   0  0  0  0  0  0  0  0  0  0  0  0  # atno 10167 bound_to 10162
  157.6956  131.0462  150.3965 H   0  0  0  0  0  0  0  0  0  0  0  0  # atno 10718 bound_to 10713
  154.6832  135.2958  154.9584 H   0  0  0  0  0  0  0  0  0  0  0  0  # atno 10763 bound_to 10752
  154.0572  135.6636  153.4811 H   0  0  0  0  0  0  0  0  0  0  0  0  # atno 10764 bound_to 10752
  153.0561  135.5144  154.7886 H   0  0  0  0  0  0  0  0  0  0  0  0  # atno 10765 bound_to 10752
  140.5768  134.0050  155.8031 H   0  0  0  0  0  0  0  0  0  0  0  0  # atno 11005 bound_to 11000
  144.7850  139.6446  143.7138 LP  0  0  0  0  0  0  0  0  0  0  0  0  # atno 17320 bound_to 7965
  146.2301  139.5797  142.9561 LP  0  0  0  0  0  0  0  0  0  0  0  0  # atno 17321 bound_to 7965
  139.7397  143.8943  152.3046 LP  0  0  0  0  0  0  0  0  0  0  0  0  # atno 17342 bound_to 10162
  139.8760  144.7043  150.8932 LP  0  0  0  0  0  0  0  0  0  0  0  0  # atno 17343 bound_to 10162
  156.4363  130.3982  149.6727 LP  0  0  0  0  0  0  0  0  0  0  0  0  # atno 17370 bound_to 10713
  156.3926  130.7635  151.2637 LP  0  0  0  0  0  0  0  0  0  0  0  0  # atno 17371 bound_to 10713
  141.1021  133.9751  157.3060 LP  0  0  0  0  0  0  0  0  0  0  0  0  # atno 17394 bound_to 11000
  139.9336  135.0198  156.8482 LP  0  0  0  0  0  0  0  0  0  0  0  0  # atno 17395 bound_to 11000

$$$$
