AV-unprocessed.smi:2602|AV-procd|sdf|10184|dock7
  -GOLD-   2272014193D 1   1.00000     0.00000
 Structure written by MMmdl.
 46 47  0  0  0  0  0  0  0  0  1 V2000
  153.5826  142.4196  162.0249 C   0  0  0  0  0  0  0  0  0  0  0  0
  153.1763  141.9345  160.7482 O   0  0  0  0  0  0  0  0  0  0  0  0
  152.5857  142.7949  159.8861 C   0  0  0  0  0  0  0  0  0  0  0  0
  153.0991  144.0260  159.8959 N   0  0  0  0  0  0  0  0  0  0  0  0
  152.5412  144.9225  159.0562 C   0  0  0  0  0  0  0  0  0  0  0  0
  151.4690  144.5803  158.2076 C   0  0  0  0  0  0  0  0  0  0  0  0
  150.9959  143.2506  158.2683 C   0  0  0  0  0  0  0  0  0  0  0  0
  149.9144  142.9360  157.4038 N   0  0  0  0  0  0  0  0  0  0  0  0
  149.3810  141.7275  157.1545 C   0  0  0  0  0  0  0  0  0  0  0  0
  149.7790  140.6636  157.6295 O   0  0  0  0  0  0  0  0  0  0  0  0
  148.3385  141.8215  156.3158 N   0  0  0  0  0  0  0  0  0  0  0  0
  147.4968  140.7118  155.8664 C   0  0  0  0  0  0  0  0  0  0  0  0
  147.7595  140.3157  154.3801 C   0  0  0  0  0  0  0  0  0  0  0  0
  149.2869  140.1762  154.0615 C   0  0  0  0  0  0  0  0  0  0  0  0
  149.8266  141.0751  153.4110 O   0  0  0  0  0  0  0  0  0  0  0  0
  150.0170  139.0966  154.4537 N   0  0  0  0  0  0  0  0  0  0  0  0
  151.4198  138.9871  154.0399 C   0  0  0  0  0  0  0  0  0  0  0  0
  149.5779  137.9528  155.2596 C   0  0  0  0  0  0  0  0  0  0  0  0
  147.0029  138.9865  154.0991 C   0  0  0  0  0  0  0  0  0  0  0  0
  146.7422  138.9205  152.5910 C   0  0  0  0  0  0  0  0  0  0  0  0
  146.7485  140.3737  152.1131 C   0  0  0  0  0  0  0  0  0  0  0  0
  147.0513  141.2313  153.3498 C   0  0  0  0  0  0  0  0  0  0  0  0
  151.5718  142.3677  159.1204 N   0  0  0  0  0  0  0  0  0  0  0  0
  154.0402  141.6078  162.5902 H   0  0  0  0  0  0  0  0  0  0  0  0
  152.7324  142.7867  162.6022 H   0  0  0  0  0  0  0  0  0  0  0  0
  154.3228  143.2160  161.9331 H   0  0  0  0  0  0  0  0  0  0  0  0
  152.9520  145.9212  159.0604 H   0  0  0  0  0  0  0  0  0  0  0  0
  151.0328  145.3105  157.5420 H   0  0  0  0  0  0  0  0  0  0  0  0
  149.4895  143.7217  156.9343 H   0  0  0  0  0  0  0  0  0  0  0  0
  148.0881  142.7391  155.9772 H   0  0  0  0  0  0  0  0  0  0  0  0
  147.7281  139.8651  156.5131 H   0  0  0  0  0  0  0  0  0  0  0  0
  146.4500  140.9218  156.0717 H   0  0  0  0  0  0  0  0  0  0  0  0
  151.5078  139.0402  152.9534 H   0  0  0  0  0  0  0  0  0  0  0  0
  151.8742  138.0451  154.3503 H   0  0  0  0  0  0  0  0  0  0  0  0
  152.0119  139.7952  154.4719 H   0  0  0  0  0  0  0  0  0  0  0  0
  148.6163  138.0621  155.7487 H   0  0  0  0  0  0  0  0  0  0  0  0
  150.2995  137.7574  156.0537 H   0  0  0  0  0  0  0  0  0  0  0  0
  149.5261  137.0599  154.6362 H   0  0  0  0  0  0  0  0  0  0  0  0
  147.5176  138.0968  154.4648 H   0  0  0  0  0  0  0  0  0  0  0  0
  146.0367  138.9986  154.6060 H   0  0  0  0  0  0  0  0  0  0  0  0
  147.5343  138.3614  152.0915 H   0  0  0  0  0  0  0  0  0  0  0  0
  145.7995  138.4191  152.3694 H   0  0  0  0  0  0  0  0  0  0  0  0
  147.5249  140.5096  151.3591 H   0  0  0  0  0  0  0  0  0  0  0  0
  145.7991  140.6573  151.6578 H   0  0  0  0  0  0  0  0  0  0  0  0
  146.1127  141.5957  153.7695 H   0  0  0  0  0  0  0  0  0  0  0  0
  147.6182  142.1098  153.0496 H   0  0  0  0  0  0  0  0  0  0  0  0
  1  2  1  0  0  0  0
  1 24  1  0  0  0  0
  1 25  1  0  0  0  0
  1 26  1  0  0  0  0
  2  3  1  0  0  0  0
  3 23  1  0  0  0  0
  3  4  2  0  0  0  0
  4  5  1  0  0  0  0
  5  6  2  0  0  0  0
  5 27  1  0  0  0  0
  6  7  1  0  0  0  0
  6 28  1  0  0  0  0
  7  8  1  0  0  0  0
  7 23  2  0  0  0  0
  8  9  1  0  0  0  0
  8 29  1  0  0  0  0
  9 10  2  0  0  0  0
  9 11  1  0  0  0  0
 11 12  1  0  0  0  0
 11 30  1  0  0  0  0
 12 13  1  0  0  0  0
 12 31  1  0  0  0  0
 12 32  1  0  0  0  0
 13 22  1  0  0  0  0
 13 14  1  0  0  0  0
 13 19  1  0  0  0  0
 14 15  2  0  0  0  0
 14 16  1  0  0  0  0
 16 17  1  0  0  0  0
 16 18  1  0  0  0  0
 17 33  1  0  0  0  0
 17 34  1  0  0  0  0
 17 35  1  0  0  0  0
 18 36  1  0  0  0  0
 18 37  1  0  0  0  0
 18 38  1  0  0  0  0
 19 20  1  0  0  0  0
 19 39  1  0  0  0  0
 19 40  1  0  0  0  0
 20 21  1  0  0  0  0
 20 41  1  0  0  0  0
 20 42  1  0  0  0  0
 21 22  1  0  0  0  0
 21 43  1  0  0  0  0
 21 44  1  0  0  0  0
 22 45  1  0  0  0  0
 22 46  1  0  0  0  0
M  END
> <s_m_source_file>
AV-unprocessed.smi

> <i_m_source_file_index>
2602

> <i_lp_mmshare_version>
43012

> <i_f3d_flags>
0

> <s_epik_input>
W0NIM11PYzFuW2NIXVtjSF1jKG4xKVtOSF1DKD1PKVtOSF1bQ0gyXUMyKEMoPU8pTihbQ0gzXSlbQ0gzXSlbQ0gyXVtDSDJdW0NIMl1bQ0gyXTI=

> <s_epik_cmdline>
J2VwaWtfcHl0aG9uJywgJy1waCcsICc3LjAnLCAnLXRuJywgJzgnLCAnLW1hJywgJzIwMCcsICctbWV0YWxfYmluZGluZycsICctaW1hZScsICc8aW5maWxlLm1hZT4nLCAnLW9tYWUnLCAnPG91dGZpbGUubWFlPic=

> <r_lp_tautomer_probability>
1

> <r_epik_Ionization_Penalty>
0.00154328

> <r_epik_Ionization_Penalty_Charging>
0

> <r_epik_Ionization_Penalty_Neutral>
0.00154328

> <r_epik_State_Penalty>
-0

> <r_epik_Charging_Adjusted_Penalty>
0

> <i_epik_Tot_Q>
0

> <i_epik_Tot_abs_Q>
0

> <r_epik_Metal_State_Penalty>
-0

> <b_epik_Metal_Only>
0

> <s_lp_Force_Field>
OPLS_2005

> <r_lp_Energy>
36.1441

> <b_lp_Chiralities_Consistent>
1

> <s_lp_Variant>
AV-unprocessed.smi:2602-1

> <Gold.Version>
5.8.1

> <Gold.Id.Protein>
6NUR|6NUR_protein|mol2

> <Gold.PLP.Fitness>
44.8761

> <Gold.PLP.PLP>
-38.0333

> <Gold.PLP.part.hbond>
-3.8178

> <Gold.PLP.part.metal>
0.0000

> <Gold.PLP.part.buried>
-1.9294

> <Gold.PLP.part.nonpolar>
-34.5743

> <Gold.PLP.part.repulsive>
3.5313

> <Gold.PLP.ligand.clash>
0.0000

> <Gold.PLP.ligand.torsion>
1.2868

> <Gold.PLP.Chemscore.Hbond>
3.0757

> <Gold.PLP.Chemscore.CHOScore>
0.0000

> <Gold.PLP.Chemscore.Metal>
0.0000

> <Gold.Chemscore.Hbonds>
donor molecule, donor type, donor heavy atom, donor atom, acceptor molecule, acceptor atom, score
      L1  H     8    29       P1  8028  1.00
      L1  H    11    30       P1  8028  0.62
      P1  H  7989  7998       L1    15  0.19
      P1  H  8011  8017       L1    15  1.00

> <Gold.PLP.Chemscore.Internal.Correction>
0.1892

> <Gold.Rescore>
     Score         DG    S(hbond)    S(metal)    S(lipo)     H(rot)  DE(clash)    DE(int)     intcor
     13.13     -18.53       2.46        0.00      83.08       1.91       3.14       2.25       ----

> <Gold.Chemscore.Fitness>
13.1350

> <Gold.Chemscore.DG>
-18.5302

> <Gold.Chemscore.ZeroCoef>
-5.4800

> <Gold.Chemscore.Hbond>
2.4589

> <Gold.Chemscore.Metal>
0.0000

> <Gold.Chemscore.Lipo>
83.0766

> <Gold.Chemscore.Internal_Hbond>
0.0000

> <Gold.Chemscore.DEClash>
3.1431

> <Gold.Chemscore.DEInternal>
2.2522

> <Gold.Chemscore.Rot>
1.9072

> <Gold.Chemscore.Internal.Correction>
   9.000000E+99

> <Gold.Chemscore.Hbonds>
donor molecule, donor type, donor heavy atom, donor atom, acceptor molecule, acceptor atom, score
      L1  H     8    29       P1  8028  0.90
      L1  H    11    30       P1  8028  0.50
      P1  H  7989  7998       L1    15  0.15
      P1  H  8011  8017       L1    15  0.96

> <Gold.Chemscore.Hbond.Weighted>
-8.2127

> <Gold.Chemscore.Metal.Weighted>
-0.0000

> <Gold.Chemscore.Lipo.Weighted>
-9.7200

> <Gold.Chemscore.Internal_Hbond.Weighted>
0.0000

> <Gold.Chemscore.DEClash.Weighted>
3.1431

> <Gold.Chemscore.DEInternal.Weighted>
2.2522

> <Gold.Chemscore.Rot.Weighted>
4.8824

> <Gold.Chemscore.Internal.Correction.Weighted>
   9.000000E+99

> <Gold.Protein.RotatedTorsions>
[ 6907 6896 6895 6894 ] final -114.29 input  -60.11 | X-H torsion
[ 7974 7965 7964 7962 ] final  -44.06 input  175.53 | X-H torsion
[ 8008 7997 7996 7995 ] final  -98.79 input   59.86 | X-H torsion
[ 10167 10162 10161 10158 ] final  -26.60 input  -65.29 | X-H torsion
[ 10718 10713 10712 10709 ] final -104.19 input   66.30 | X-H torsion
[ 10763 10752 10751 10750 ] final  -73.93 input  -60.55 | X-H torsion
[ 11005 11000 10999 10996 ] final  -71.65 input  -57.11 | X-H torsion

> <Gold.Protein.ActiveResidues>
 VAL166  LYS551  ARG553  GLY616  TRP617  ASP618  TYR619  PRO620  LYS621  CYS622 
 ASP623  PHE694  ASN695  SER759  ASP760  ASP761  ALA762  ILE779  LEU786  VAL792 
 PHE793  MET794  SER795  GLU796  ALA797  LYS798  CYS799  TRP800  GLU811  SER814 

> <Gold.Protein.RotatedAtoms>
  150.7891  133.8823  159.3289 H   0  0  0  0  0  0  0  0  0  0  0  0  # atno 6907 bound_to 6896
  151.6665  135.0980  160.0199 H   0  0  0  0  0  0  0  0  0  0  0  0  # atno 6908 bound_to 6896
  152.3961  133.6710  159.6313 H   0  0  0  0  0  0  0  0  0  0  0  0  # atno 6909 bound_to 6896
  145.9958  140.7130  142.9294 H   0  0  0  0  0  0  0  0  0  0  0  0  # atno 7974 bound_to 7965
  154.8061  140.0452  157.1308 H   0  0  0  0  0  0  0  0  0  0  0  0  # atno 8008 bound_to 7997
  154.9423  140.3054  155.5095 H   0  0  0  0  0  0  0  0  0  0  0  0  # atno 8009 bound_to 7997
  156.2967  140.2303  156.4493 H   0  0  0  0  0  0  0  0  0  0  0  0  # atno 8010 bound_to 7997
  140.7282  143.4165  151.1021 H   0  0  0  0  0  0  0  0  0  0  0  0  # atno 10167 bound_to 10162
  156.0294  130.5503  150.7360 H   0  0  0  0  0  0  0  0  0  0  0  0  # atno 10718 bound_to 10713
  154.4662  135.5881  153.6290 H   0  0  0  0  0  0  0  0  0  0  0  0  # atno 10763 bound_to 10752
  152.9829  135.6056  154.3424 H   0  0  0  0  0  0  0  0  0  0  0  0  # atno 10764 bound_to 10752
  154.3301  135.2842  155.2455 H   0  0  0  0  0  0  0  0  0  0  0  0  # atno 10765 bound_to 10752
  141.1596  133.6824  156.6939 H   0  0  0  0  0  0  0  0  0  0  0  0  # atno 11005 bound_to 11000
  144.6903  140.3148  143.7242 LP  0  0  0  0  0  0  0  0  0  0  0  0  # atno 17320 bound_to 7965
  145.7562  139.1809  143.2293 LP  0  0  0  0  0  0  0  0  0  0  0  0  # atno 17321 bound_to 7965
  139.7805  143.8362  152.3136 LP  0  0  0  0  0  0  0  0  0  0  0  0  # atno 17342 bound_to 10162
  139.8312  144.7253  150.9448 LP  0  0  0  0  0  0  0  0  0  0  0  0  # atno 17343 bound_to 10162
  157.4941  131.0913  151.0392 LP  0  0  0  0  0  0  0  0  0  0  0  0  # atno 17370 bound_to 10713
  157.0791  130.5895  149.5417 LP  0  0  0  0  0  0  0  0  0  0  0  0  # atno 17371 bound_to 10713
  140.3010  134.8164  157.4097 LP  0  0  0  0  0  0  0  0  0  0  0  0  # atno 17394 bound_to 11000
  140.1262  134.5154  155.8142 LP  0  0  0  0  0  0  0  0  0  0  0  0  # atno 17395 bound_to 11000

$$$$
