AV-unprocessed.smi:1578|AV-procd|sdf|6352|dock5
  -GOLD-   22720 6573D 1   1.00000     0.00000
 Structure written by MMmdl.
 45 46  0  0  0  0  0  0  0  0  2 V2000
  145.9986  140.2198  153.7493 C   0  0  0  0  0  0  0  0  0  0  0  0
  147.2735  139.4392  153.4036 C   0  0  2  0  0  0  0  0  0  0  0  0
  147.3192  138.0728  154.1225 C   0  0  0  0  0  0  0  0  0  0  0  0
  146.9037  136.9495  153.2444 N   0  3  0  0  0  0  0  0  0  0  0  0
  146.5348  135.7264  153.9939 C   0  0  0  0  0  0  0  0  0  0  0  0
  146.2041  134.5858  153.0162 C   0  0  0  0  0  0  0  0  0  0  0  0
  145.1612  134.9941  152.1391 O   0  0  0  0  0  0  0  0  0  0  0  0
  145.5319  136.1228  151.3565 C   0  0  0  0  0  0  0  0  0  0  0  0
  145.8366  137.3125  152.2816 C   0  0  0  0  0  0  0  0  0  0  0  0
  148.4437  140.2390  153.7623 N   0  0  0  0  0  0  0  0  0  0  0  0
  148.6366  140.8978  154.9190 C   0  0  0  0  0  0  0  0  0  0  0  0
  147.8381  140.8545  155.8536 O   0  0  0  0  0  0  0  0  0  0  0  0
  149.8852  141.7869  155.0451 C   0  0  0  0  0  0  0  0  0  0  0  0
  150.6435  141.5945  156.2941 N   0  0  0  0  0  0  0  0  0  0  0  0
  150.8409  142.7388  157.0921 C   0  0  0  0  0  0  0  0  0  0  0  0
  151.5250  142.7156  158.2515 C   0  0  0  0  0  0  0  0  0  0  0  0
  151.7848  143.9840  159.0493 C   0  0  0  0  0  0  0  0  0  0  0  0
  152.4796  143.7217  160.1562 F   0  0  0  0  0  0  0  0  0  0  0  0
  152.4688  144.8723  158.3269 F   0  0  0  0  0  0  0  0  0  0  0  0
  150.6285  144.5411  159.4051 F   0  0  0  0  0  0  0  0  0  0  0  0
  152.0829  141.4366  158.6447 C   0  0  0  0  0  0  0  0  0  0  0  0
  151.9173  140.3360  157.8852 C   0  0  0  0  0  0  0  0  0  0  0  0
  151.1680  140.3773  156.6273 C   0  0  0  0  0  0  0  0  0  0  0  0
  151.0317  139.3851  155.9121 O   0  0  0  0  0  0  0  0  0  0  0  0
  145.1071  139.6546  153.4760 H   0  0  0  0  0  0  0  0  0  0  0  0
  145.9625  141.1691  153.2138 H   0  0  0  0  0  0  0  0  0  0  0  0
  145.9406  140.4375  154.8165 H   0  0  0  0  0  0  0  0  0  0  0  0
  147.2586  139.2680  152.3266 H   0  0  0  0  0  0  0  0  0  0  0  0
  148.3457  137.8995  154.4500 H   0  0  0  0  0  0  0  0  0  0  0  0
  146.7099  138.0867  155.0274 H   0  0  0  0  0  0  0  0  0  0  0  0
  147.3591  135.4246  154.6411 H   0  0  0  0  0  0  0  0  0  0  0  0
  145.6778  135.9337  154.6367 H   0  0  0  0  0  0  0  0  0  0  0  0
  147.0859  134.2985  152.4410 H   0  0  0  0  0  0  0  0  0  0  0  0
  145.8801  133.7015  153.5651 H   0  0  0  0  0  0  0  0  0  0  0  0
  146.3956  135.8829  150.7338 H   0  0  0  0  0  0  0  0  0  0  0  0
  144.7122  136.3711  150.6824 H   0  0  0  0  0  0  0  0  0  0  0  0
  144.9358  137.6051  152.8232 H   0  0  0  0  0  0  0  0  0  0  0  0
  146.1416  138.1698  151.6822 H   0  0  0  0  0  0  0  0  0  0  0  0
  149.1605  140.3237  153.0557 H   0  0  0  0  0  0  0  0  0  0  0  0
  150.5369  141.5845  154.1935 H   0  0  0  0  0  0  0  0  0  0  0  0
  149.5804  142.8273  154.9222 H   0  0  0  0  0  0  0  0  0  0  0  0
  150.4114  143.6446  156.6880 H   0  0  0  0  0  0  0  0  0  0  0  0
  152.6389  141.3571  159.5674 H   0  0  0  0  0  0  0  0  0  0  0  0
  152.3451  139.3990  158.2113 H   0  0  0  0  0  0  0  0  0  0  0  0
  147.7177  136.7059  152.6982 H   0  0  0  0  0  0  0  0  0  0  0  0
  1  2  1  0  0  0  0
  1 25  1  0  0  0  0
  1 26  1  0  0  0  0
  1 27  1  0  0  0  0
  2  3  1  0  0  0  0
  2 10  1  0  0  0  0
  2 28  1  0  0  0  0
  3  4  1  0  0  0  0
  3 29  1  0  0  0  0
  3 30  1  0  0  0  0
  4  9  1  0  0  0  0
  4  5  1  0  0  0  0
  4 45  1  0  0  0  0
  5  6  1  0  0  0  0
  5 31  1  0  0  0  0
  5 32  1  0  0  0  0
  6  7  1  0  0  0  0
  6 33  1  0  0  0  0
  6 34  1  0  0  0  0
  7  8  1  0  0  0  0
  8  9  1  0  0  0  0
  8 35  1  0  0  0  0
  8 36  1  0  0  0  0
  9 37  1  0  0  0  0
  9 38  1  0  0  0  0
 10 11  1  0  0  0  0
 10 39  1  0  0  0  0
 11 12  2  0  0  0  0
 11 13  1  0  0  0  0
 13 14  1  0  0  0  0
 13 40  1  0  0  0  0
 13 41  1  0  0  0  0
 14 23  1  0  0  0  0
 14 15  1  0  0  0  0
 15 16  2  0  0  0  0
 15 42  1  0  0  0  0
 16 17  1  0  0  0  0
 16 21  1  0  0  0  0
 17 18  1  0  0  0  0
 17 19  1  0  0  0  0
 17 20  1  0  0  0  0
 21 22  2  0  0  0  0
 21 43  1  0  0  0  0
 22 23  1  0  0  0  0
 22 44  1  0  0  0  0
 23 24  2  0  0  0  0
M  CHG  1   4   1
M  END
> <s_m_source_file>
AV-unprocessed.smi

> <i_m_source_file_index>
1578

> <i_lp_mmshare_version>
43012

> <i_f3d_flags>
0

> <s_epik_input>
W0NIMl0xW0NIMl1PW0NIMl1bQ0gyXU4xW0NIMl1bQ0BASF0oW0NIM10pW05IXUMoPU8pW0NIMl1uMltjSF1jKEMoRikoRilGKVtjSF1bY0hdYzI9Tw==

> <s_epik_cmdline>
J2VwaWtfcHl0aG9uJywgJy1waCcsICc3LjAnLCAnLXRuJywgJzgnLCAnLW1hJywgJzIwMCcsICctbWV0YWxfYmluZGluZycsICctaW1hZScsICc8aW5maWxlLm1hZT4nLCAnLW9tYWUnLCAnPG91dGZpbGUubWFlPic=

> <r_lp_tautomer_probability>
1

> <r_epik_Ionization_Penalty>
0.656654

> <r_epik_Ionization_Penalty_Charging>
0.656653

> <r_epik_Ionization_Penalty_Neutral>
9.12373e-08

> <r_epik_State_Penalty>
0.675641

> <r_epik_Charging_Adjusted_Penalty>
1.33229

> <i_epik_Tot_Q>
1

> <i_epik_Tot_abs_Q>
1

> <r_epik_Metal_State_Penalty>
0.675695

> <b_epik_Metal_Only>
0

> <s_lp_Force_Field>
OPLS_2005

> <r_lp_Energy>
34.2523

> <b_lp_Chiralities_Consistent>
1

> <s_lp_Variant>
AV-unprocessed.smi:1578-3

> <Gold.Version>
5.8.1

> <Gold.Id.Protein>
6NUR|6NUR_protein|mol2

> <Gold.PLP.Fitness>
50.8081

> <Gold.PLP.PLP>
-41.0638

> <Gold.PLP.part.hbond>
-2.0000

> <Gold.PLP.part.metal>
0.0000

> <Gold.PLP.part.buried>
-1.5449

> <Gold.PLP.part.nonpolar>
-38.8448

> <Gold.PLP.part.repulsive>
0.2693

> <Gold.PLP.ligand.clash>
0.0000

> <Gold.PLP.ligand.torsion>
1.1288

> <Gold.PLP.Chemscore.Hbond>
2.9280

> <Gold.PLP.Chemscore.CHOScore>
1.0000

> <Gold.PLP.Chemscore.Metal>
0.0000

> <Gold.Chemscore.Hbonds>
donor molecule, donor type, donor heavy atom, donor atom, acceptor molecule, acceptor atom, score
      L1  H     4    45       P1  7948  2.00
      L1  H    10    39       P1  7957  0.91
      L1  C    15    42       P1  8028  1.00

> <Gold.PLP.Chemscore.Internal.Correction>
0.2180

> <Gold.Rescore>
     Score         DG    S(hbond)    S(metal)    S(lipo)     H(rot)  DE(clash)    DE(int)     intcor
     11.34     -15.72       1.91        0.00      80.60       2.17       2.04       2.34       ----

> <Gold.Chemscore.Fitness>
11.3373

> <Gold.Chemscore.DG>
-15.7240

> <Gold.Chemscore.ZeroCoef>
-5.4800

> <Gold.Chemscore.Hbond>
1.9081

> <Gold.Chemscore.Metal>
0.0000

> <Gold.Chemscore.Lipo>
80.5995

> <Gold.Chemscore.Internal_Hbond>
0.0000

> <Gold.Chemscore.DEClash>
2.0420

> <Gold.Chemscore.DEInternal>
2.3448

> <Gold.Chemscore.Rot>
2.1716

> <Gold.Chemscore.Internal.Correction>
   9.000000E+99

> <Gold.Chemscore.Hbonds>
donor molecule, donor type, donor heavy atom, donor atom, acceptor molecule, acceptor atom, score
      L1  H     4    45       P1  7948  0.96
      L1  H    10    39       P1  7957  0.87

> <Gold.Chemscore.Hbond.Weighted>
-6.3731

> <Gold.Chemscore.Metal.Weighted>
-0.0000

> <Gold.Chemscore.Lipo.Weighted>
-9.4301

> <Gold.Chemscore.Internal_Hbond.Weighted>
0.0000

> <Gold.Chemscore.DEClash.Weighted>
2.0420

> <Gold.Chemscore.DEInternal.Weighted>
2.3448

> <Gold.Chemscore.Rot.Weighted>
5.5592

> <Gold.Chemscore.Internal.Correction.Weighted>
   9.000000E+99

> <Gold.Protein.RotatedTorsions>
[ 6907 6896 6895 6894 ] final  120.91 input  -60.11 | X-H torsion
[ 7974 7965 7964 7962 ] final  104.81 input  175.53 | X-H torsion
[ 8008 7997 7996 7995 ] final -108.82 input   59.86 | X-H torsion
[ 10167 10162 10161 10158 ] final  -40.34 input  -65.29 | X-H torsion
[ 10718 10713 10712 10709 ] final  -51.78 input   66.30 | X-H torsion
[ 10763 10752 10751 10750 ] final -102.57 input  -60.55 | X-H torsion
[ 11005 11000 10999 10996 ] final   70.95 input  -57.11 | X-H torsion

> <Gold.Protein.ActiveResidues>
 VAL166  LYS551  ARG553  GLY616  TRP617  ASP618  TYR619  PRO620  LYS621  CYS622 
 ASP623  PHE694  ASN695  SER759  ASP760  ASP761  ALA762  ILE779  LEU786  VAL792 
 PHE793  MET794  SER795  GLU796  ALA797  LYS798  CYS799  TRP800  GLU811  SER814 

> <Gold.Protein.RotatedAtoms>
  152.4362  133.7365  159.6616 H   0  0  0  0  0  0  0  0  0  0  0  0  # atno 6907 bound_to 6896
  150.8246  133.8183  159.3130 H   0  0  0  0  0  0  0  0  0  0  0  0  # atno 6908 bound_to 6896
  151.5855  135.1058  160.0079 H   0  0  0  0  0  0  0  0  0  0  0  0  # atno 6909 bound_to 6896
  145.3279  139.2494  143.3676 H   0  0  0  0  0  0  0  0  0  0  0  0  # atno 7974 bound_to 7965
  154.9500  140.0401  157.2139 H   0  0  0  0  0  0  0  0  0  0  0  0  # atno 8008 bound_to 7997
  154.7988  140.2848  155.5915 H   0  0  0  0  0  0  0  0  0  0  0  0  # atno 8009 bound_to 7997
  156.2959  140.2559  156.2851 H   0  0  0  0  0  0  0  0  0  0  0  0  # atno 8010 bound_to 7997
  140.7037  143.3159  151.2911 H   0  0  0  0  0  0  0  0  0  0  0  0  # atno 10167 bound_to 10162
  156.1680  130.4149  149.9691 H   0  0  0  0  0  0  0  0  0  0  0  0  # atno 10718 bound_to 10713
  154.7744  135.4855  153.9714 H   0  0  0  0  0  0  0  0  0  0  0  0  # atno 10763 bound_to 10752
  153.1409  135.6772  153.9036 H   0  0  0  0  0  0  0  0  0  0  0  0  # atno 10764 bound_to 10752
  153.8710  135.3143  155.3420 H   0  0  0  0  0  0  0  0  0  0  0  0  # atno 10765 bound_to 10752
  139.9570  134.7127  156.0731 H   0  0  0  0  0  0  0  0  0  0  0  0  # atno 11005 bound_to 11000
  146.3057  140.3851  142.8688 LP  0  0  0  0  0  0  0  0  0  0  0  0  # atno 17320 bound_to 7965
  144.8887  140.7496  143.5940 LP  0  0  0  0  0  0  0  0  0  0  0  0  # atno 17321 bound_to 7965
  139.6597  144.0211  152.2684 LP  0  0  0  0  0  0  0  0  0  0  0  0  # atno 17342 bound_to 10162
  139.9774  144.6452  150.7932 LP  0  0  0  0  0  0  0  0  0  0  0  0  # atno 17343 bound_to 10162
  156.7500  130.9111  151.3637 LP  0  0  0  0  0  0  0  0  0  0  0  0  # atno 17370 bound_to 10713
  157.6782  130.9114  150.0201 LP  0  0  0  0  0  0  0  0  0  0  0  0  # atno 17371 bound_to 10713
  141.1242  133.6604  156.3294 LP  0  0  0  0  0  0  0  0  0  0  0  0  # atno 17394 bound_to 11000
  140.5587  134.5956  157.5428 LP  0  0  0  0  0  0  0  0  0  0  0  0  # atno 17395 bound_to 11000

$$$$
