AV-unprocessed.smi:2882|AV-procd|sdf|11071|dock1
  -GOLD-   2272015543D 1   1.00000     0.00000
 Structure written by MMmdl.
 28 30  0  0  0  0  0  0  0  0  1 V2000
  153.4002  138.8662  155.8773 N   0  0  0  0  0  0  0  0  0  0  0  0
  152.3866  139.4184  155.7936 C   0  0  0  0  0  0  0  0  0  0  0  0
  151.1103  140.1136  155.6871 C   0  0  0  0  0  0  0  0  0  0  0  0
  150.4554  140.0041  154.5080 N   0  0  0  0  0  0  0  0  0  0  0  0
  149.2732  140.6460  154.3955 C   0  0  0  0  0  0  0  0  0  0  0  0
  148.7396  141.4005  155.4580 C   0  0  0  0  0  0  0  0  0  0  0  0
  149.3858  141.5153  156.6375 N   0  0  0  0  0  0  0  0  0  0  0  0
  150.5754  140.8754  156.7641 C   0  0  0  0  0  0  0  0  0  0  0  0
  151.2592  140.9828  157.9891 N   0  0  0  0  0  0  0  0  0  0  0  0
  151.9580  142.2074  158.3639 C   0  0  2  0  0  0  0  0  0  0  0  0
  152.5189  142.1657  159.7913 C   0  0  0  0  0  0  0  0  0  0  0  0
  151.8716  143.4039  160.4235 C   0  0  1  0  0  0  0  0  0  0  0  0
  152.4247  144.7120  159.8416 C   0  0  0  0  0  0  0  0  0  0  0  0
  151.7830  144.7324  158.4546 C   0  0  0  0  0  0  0  0  0  0  0  0
  151.0031  143.4106  158.4471 C   0  0  2  0  0  0  0  0  0  0  0  0
  150.5977  143.3594  159.8057 O   0  0  0  0  0  0  0  0  0  0  0  0
  148.7509  140.5572  153.4543 H   0  0  0  0  0  0  0  0  0  0  0  0
  147.7931  141.9115  155.3623 H   0  0  0  0  0  0  0  0  0  0  0  0
  151.4622  140.1431  158.5127 H   0  0  0  0  0  0  0  0  0  0  0  0
  152.7411  142.4117  157.6322 H   0  0  0  0  0  0  0  0  0  0  0  0
  152.2038  141.2658  160.3221 H   0  0  0  0  0  0  0  0  0  0  0  0
  153.6084  142.2065  159.8149 H   0  0  0  0  0  0  0  0  0  0  0  0
  151.8436  143.3795  161.5130 H   0  0  0  0  0  0  0  0  0  0  0  0
  152.0947  145.5706  160.4276 H   0  0  0  0  0  0  0  0  0  0  0  0
  153.5146  144.7201  159.8057 H   0  0  0  0  0  0  0  0  0  0  0  0
  151.1046  145.5811  158.3602 H   0  0  0  0  0  0  0  0  0  0  0  0
  152.5155  144.7904  157.6489 H   0  0  0  0  0  0  0  0  0  0  0  0
  150.1849  143.3918  157.7262 H   0  0  0  0  0  0  0  0  0  0  0  0
  1  2  3  0  0  0  0
  2  3  1  0  0  0  0
  3  8  1  0  0  0  0
  3  4  2  0  0  0  0
  4  5  1  0  0  0  0
  5  6  2  0  0  0  0
  5 17  1  0  0  0  0
  6  7  1  0  0  0  0
  6 18  1  0  0  0  0
  7  8  2  0  0  0  0
  8  9  1  0  0  0  0
  9 10  1  0  0  0  0
  9 19  1  0  0  0  0
 10 15  1  0  0  0  0
 10 11  1  0  0  0  0
 10 20  1  0  0  0  0
 11 12  1  0  0  0  0
 11 21  1  0  0  0  0
 11 22  1  0  0  0  0
 12 16  1  0  0  0  0
 12 13  1  0  0  0  0
 12 23  1  0  0  0  0
 13 14  1  0  0  0  0
 13 24  1  0  0  0  0
 13 25  1  0  0  0  0
 14 15  1  0  0  0  0
 14 26  1  0  0  0  0
 14 27  1  0  0  0  0
 15 16  1  0  0  0  0
 15 28  1  0  0  0  0
M  END
> <s_m_source_file>
AV-unprocessed.smi

> <i_m_source_file_index>
2882

> <i_lp_mmshare_version>
43012

> <i_f3d_flags>
0

> <s_epik_input>
TiNDYzFuW2NIXVtjSF1uYzFbTkhdW0NASF0oW0NIMl1bQ0BASF0yMylbQ0BASF0oTzMpW0NIMl1bQ0gyXTI=

> <s_epik_cmdline>
J2VwaWtfcHl0aG9uJywgJy1waCcsICc3LjAnLCAnLXRuJywgJzgnLCAnLW1hJywgJzIwMCcsICctbWV0YWxfYmluZGluZycsICctaW1hZScsICc8aW5maWxlLm1hZT4nLCAnLW9tYWUnLCAnPG91dGZpbGUubWFlPic=

> <r_lp_tautomer_probability>
1

> <r_epik_Ionization_Penalty>
4.95445e-05

> <r_epik_Ionization_Penalty_Charging>
0

> <r_epik_Ionization_Penalty_Neutral>
4.95445e-05

> <r_epik_State_Penalty>
-0

> <r_epik_Charging_Adjusted_Penalty>
0

> <i_epik_Tot_Q>
0

> <i_epik_Tot_abs_Q>
0

> <r_epik_Metal_State_Penalty>
-0

> <b_epik_Metal_Only>
0

> <s_lp_Force_Field>
OPLS_2005

> <r_lp_Energy>
50.0651

> <b_lp_Chiralities_Consistent>
1

> <s_lp_Variant>
AV-unprocessed.smi:2882-1

> <Gold.Version>
5.8.1

> <Gold.Id.Protein>
6NUR|6NUR_protein|mol2

> <Gold.PLP.Fitness>
41.8136

> <Gold.PLP.PLP>
-34.3928

> <Gold.PLP.part.hbond>
-2.9559

> <Gold.PLP.part.metal>
0.0000

> <Gold.PLP.part.buried>
-3.9993

> <Gold.PLP.part.nonpolar>
-27.9158

> <Gold.PLP.part.repulsive>
0.3486

> <Gold.PLP.ligand.clash>
0.0000

> <Gold.PLP.ligand.torsion>
0.7135

> <Gold.PLP.Chemscore.Hbond>
1.9420

> <Gold.PLP.Chemscore.CHOScore>
1.0000

> <Gold.PLP.Chemscore.Metal>
0.0000

> <Gold.Chemscore.Hbonds>
donor molecule, donor type, donor heavy atom, donor atom, acceptor molecule, acceptor atom, score
      P1  H  7989  7998       L1     4  0.90
      P1  H  7997  8010       L1     1  0.99
      L1  C     5    17       P1  7957  1.00

> <Gold.PLP.Chemscore.Internal.Correction>
0.0218

> <Gold.Rescore>
     Score         DG    S(hbond)    S(metal)    S(lipo)     H(rot)  DE(clash)    DE(int)     intcor
     15.34     -16.12       0.94        0.00      85.94       1.00       0.02       0.77       ----

> <Gold.Chemscore.Fitness>
15.3361

> <Gold.Chemscore.DG>
-16.1230

> <Gold.Chemscore.ZeroCoef>
-5.4800

> <Gold.Chemscore.Hbond>
0.9427

> <Gold.Chemscore.Metal>
0.0000

> <Gold.Chemscore.Lipo>
85.9355

> <Gold.Chemscore.Internal_Hbond>
0.0000

> <Gold.Chemscore.DEClash>
0.0158

> <Gold.Chemscore.DEInternal>
0.7711

> <Gold.Chemscore.Rot>
1.0000

> <Gold.Chemscore.Internal.Correction>
   9.000000E+99

> <Gold.Chemscore.Hbonds>
donor molecule, donor type, donor heavy atom, donor atom, acceptor molecule, acceptor atom, score
      P1  H  7989  7998       L1     4  0.11
      P1  H  7997  8010       L1     1  0.24

> <Gold.Chemscore.Hbond.Weighted>
-3.1486

> <Gold.Chemscore.Metal.Weighted>
-0.0000

> <Gold.Chemscore.Lipo.Weighted>
-10.0545

> <Gold.Chemscore.Internal_Hbond.Weighted>
0.0000

> <Gold.Chemscore.DEClash.Weighted>
0.0158

> <Gold.Chemscore.DEInternal.Weighted>
0.7711

> <Gold.Chemscore.Rot.Weighted>
2.5600

> <Gold.Chemscore.Internal.Correction.Weighted>
   9.000000E+99

> <Gold.Protein.RotatedTorsions>
[ 6907 6896 6895 6894 ] final -155.85 input  -60.11 | X-H torsion
[ 7974 7965 7964 7962 ] final  -34.86 input  175.53 | X-H torsion
[ 8008 7997 7996 7995 ] final   83.27 input   59.86 | X-H torsion
[ 10167 10162 10161 10158 ] final -140.81 input  -65.29 | X-H torsion
[ 10718 10713 10712 10709 ] final  168.95 input   66.30 | X-H torsion
[ 10763 10752 10751 10750 ] final   97.21 input  -60.55 | X-H torsion
[ 11005 11000 10999 10996 ] final -116.68 input  -57.11 | X-H torsion

> <Gold.Protein.ActiveResidues>
 VAL166  LYS551  ARG553  GLY616  TRP617  ASP618  TYR619  PRO620  LYS621  CYS622 
 ASP623  PHE694  ASN695  SER759  ASP760  ASP761  ALA762  ILE779  LEU786  VAL792 
 PHE793  MET794  SER795  GLU796  ALA797  LYS798  CYS799  TRP800  GLU811  SER814 

> <Gold.Protein.RotatedAtoms>
  151.2787  133.4220  159.2625 H   0  0  0  0  0  0  0  0  0  0  0  0  # atno 6907 bound_to 6896
  151.0380  134.9587  159.8156 H   0  0  0  0  0  0  0  0  0  0  0  0  # atno 6908 bound_to 6896
  152.5359  134.2746  159.9037 H   0  0  0  0  0  0  0  0  0  0  0  0  # atno 6909 bound_to 6896
  146.0795  140.6089  142.8915 H   0  0  0  0  0  0  0  0  0  0  0  0  # atno 7974 bound_to 7965
  155.9217  140.3421  155.6178 H   0  0  0  0  0  0  0  0  0  0  0  0  # atno 8008 bound_to 7997
  155.7265  140.0790  157.2326 H   0  0  0  0  0  0  0  0  0  0  0  0  # atno 8009 bound_to 7997
  154.4070  140.1596  156.2448 H   0  0  0  0  0  0  0  0  0  0  0  0  # atno 8010 bound_to 7997
  139.8246  143.7528  152.2666 H   0  0  0  0  0  0  0  0  0  0  0  0  # atno 10167 bound_to 10162
  157.0297  131.0256  151.2748 H   0  0  0  0  0  0  0  0  0  0  0  0  # atno 10718 bound_to 10713
  153.2742  135.4191  155.1017 H   0  0  0  0  0  0  0  0  0  0  0  0  # atno 10763 bound_to 10752
  154.8467  135.3479  154.6202 H   0  0  0  0  0  0  0  0  0  0  0  0  # atno 10764 bound_to 10752
  153.6622  135.7048  153.5231 H   0  0  0  0  0  0  0  0  0  0  0  0  # atno 10765 bound_to 10752
  141.0406  133.9842  157.3001 H   0  0  0  0  0  0  0  0  0  0  0  0  # atno 11005 bound_to 11000
  144.7283  140.4595  143.6956 LP  0  0  0  0  0  0  0  0  0  0  0  0  # atno 17320 bound_to 7965
  145.6244  139.1528  143.3004 LP  0  0  0  0  0  0  0  0  0  0  0  0  # atno 17321 bound_to 7965
  139.7717  144.7474  151.0215 LP  0  0  0  0  0  0  0  0  0  0  0  0  # atno 17342 bound_to 10162
  140.7811  143.4638  151.0241 LP  0  0  0  0  0  0  0  0  0  0  0  0  # atno 17343 bound_to 10162
  157.5187  130.7984  149.7785 LP  0  0  0  0  0  0  0  0  0  0  0  0  # atno 17370 bound_to 10713
  156.0074  130.3849  150.2384 LP  0  0  0  0  0  0  0  0  0  0  0  0  # atno 17371 bound_to 10713
  139.9273  135.0201  156.8278 LP  0  0  0  0  0  0  0  0  0  0  0  0  # atno 17394 bound_to 11000
  140.6242  133.9966  155.7632 LP  0  0  0  0  0  0  0  0  0  0  0  0  # atno 17395 bound_to 11000

$$$$
