AV-unprocessed.smi:1125|AV-procd|sdf|4834|dock6
  -GOLD-   22720 3393D 1   1.00000     0.00000
 Structure written by MMmdl.
 46 47  0  0  0  0  0  0  0  0  2 V2000
  143.1426  136.9133  152.8702 C   0  0  0  0  0  0  0  0  0  0  0  0
  144.3041  137.8080  153.0631 N   0  3  2  0  0  0  0  0  0  0  0  0
  145.4807  137.3856  152.2629 C   0  0  0  0  0  0  0  0  0  0  0  0
  146.6305  138.3994  152.3902 C   0  0  0  0  0  0  0  0  0  0  0  0
  147.0200  138.6113  153.8624 C   0  0  1  0  0  0  0  0  0  0  0  0
  148.0664  139.6235  153.9582 N   0  0  0  0  0  0  0  0  0  0  0  0
  148.4936  140.1901  155.0983 C   0  0  0  0  0  0  0  0  0  0  0  0
  148.0050  139.9451  156.2010 O   0  0  0  0  0  0  0  0  0  0  0  0
  149.6496  141.1842  154.9765 C   0  0  0  0  0  0  0  0  0  0  0  0
  150.4459  141.2081  156.2490 C   0  0  0  0  0  0  0  0  0  0  0  0
  151.0443  140.1393  156.8671 C   0  0  0  0  0  0  0  0  0  0  0  0
  151.8895  140.6163  158.3119 S   0  0  0  0  0  0  0  0  0  0  0  0
  151.3901  142.2881  158.0292 C   0  0  0  0  0  0  0  0  0  0  0  0
  151.7353  143.4573  158.9196 C   0  0  0  0  0  0  0  0  0  0  0  0
  150.4472  144.1898  159.3439 C   0  0  0  0  0  0  0  0  0  0  0  0
  152.6285  144.4791  158.1834 C   0  0  0  0  0  0  0  0  0  0  0  0
  152.5107  142.9611  160.1550 C   0  0  0  0  0  0  0  0  0  0  0  0
  150.6439  142.4156  156.9256 N   0  0  0  0  0  0  0  0  0  0  0  0
  145.7741  139.0201  154.6702 C   0  0  0  0  0  0  0  0  0  0  0  0
  144.6426  137.9931  154.4962 C   0  0  0  0  0  0  0  0  0  0  0  0
  143.3624  135.9049  153.2233 H   0  0  0  0  0  0  0  0  0  0  0  0
  142.8719  136.8554  151.8154 H   0  0  0  0  0  0  0  0  0  0  0  0
  142.2745  137.2851  153.4156 H   0  0  0  0  0  0  0  0  0  0  0  0
  145.8123  136.3996  152.5929 H   0  0  0  0  0  0  0  0  0  0  0  0
  145.1945  137.2895  151.2149 H   0  0  0  0  0  0  0  0  0  0  0  0
  147.4931  138.0515  151.8203 H   0  0  0  0  0  0  0  0  0  0  0  0
  146.3283  139.3482  151.9442 H   0  0  0  0  0  0  0  0  0  0  0  0
  147.4056  137.6676  154.2533 H   0  0  0  0  0  0  0  0  0  0  0  0
  148.5306  139.8874  153.1007 H   0  0  0  0  0  0  0  0  0  0  0  0
  150.2745  140.9045  154.1272 H   0  0  0  0  0  0  0  0  0  0  0  0
  149.2538  142.1760  154.7548 H   0  0  0  0  0  0  0  0  0  0  0  0
  151.0453  139.1048  156.5564 H   0  0  0  0  0  0  0  0  0  0  0  0
  150.6689  145.0516  159.9745 H   0  0  0  0  0  0  0  0  0  0  0  0
  149.7833  143.5364  159.9111 H   0  0  0  0  0  0  0  0  0  0  0  0
  149.8919  144.5497  158.4770 H   0  0  0  0  0  0  0  0  0  0  0  0
  152.1341  144.8814  157.2983 H   0  0  0  0  0  0  0  0  0  0  0  0
  153.5724  144.0346  157.8655 H   0  0  0  0  0  0  0  0  0  0  0  0
  152.8742  145.3252  158.8259 H   0  0  0  0  0  0  0  0  0  0  0  0
  152.7870  143.7873  160.8110 H   0  0  0  0  0  0  0  0  0  0  0  0
  153.4290  142.4486  159.8661 H   0  0  0  0  0  0  0  0  0  0  0  0
  151.9168  142.2627  160.7455 H   0  0  0  0  0  0  0  0  0  0  0  0
  146.0220  139.1134  155.7280 H   0  0  0  0  0  0  0  0  0  0  0  0
  145.4268  140.0025  154.3467 H   0  0  0  0  0  0  0  0  0  0  0  0
  143.7595  138.3300  155.0405 H   0  0  0  0  0  0  0  0  0  0  0  0
  144.9359  137.0353  154.9291 H   0  0  0  0  0  0  0  0  0  0  0  0
  144.0278  138.7145  152.7135 H   0  0  0  0  0  0  0  0  0  0  0  0
  1  2  1  0  0  0  0
  1 21  1  0  0  0  0
  1 22  1  0  0  0  0
  1 23  1  0  0  0  0
  2 20  1  0  0  0  0
  2  3  1  0  0  0  0
  2 46  1  0  0  0  0
  3  4  1  0  0  0  0
  3 24  1  0  0  0  0
  3 25  1  0  0  0  0
  4  5  1  0  0  0  0
  4 26  1  0  0  0  0
  4 27  1  0  0  0  0
  5  6  1  0  0  0  0
  5 19  1  0  0  0  0
  5 28  1  0  0  0  0
  6  7  1  0  0  0  0
  6 29  1  0  0  0  0
  7  8  2  0  0  0  0
  7  9  1  0  0  0  0
  9 10  1  0  0  0  0
  9 30  1  0  0  0  0
  9 31  1  0  0  0  0
 10 18  1  0  0  0  0
 10 11  2  0  0  0  0
 11 12  1  0  0  0  0
 11 32  1  0  0  0  0
 12 13  1  0  0  0  0
 13 14  1  0  0  0  0
 13 18  2  0  0  0  0
 14 15  1  0  0  0  0
 14 16  1  0  0  0  0
 14 17  1  0  0  0  0
 15 33  1  0  0  0  0
 15 34  1  0  0  0  0
 15 35  1  0  0  0  0
 16 36  1  0  0  0  0
 16 37  1  0  0  0  0
 16 38  1  0  0  0  0
 17 39  1  0  0  0  0
 17 40  1  0  0  0  0
 17 41  1  0  0  0  0
 19 20  1  0  0  0  0
 19 42  1  0  0  0  0
 19 43  1  0  0  0  0
 20 44  1  0  0  0  0
 20 45  1  0  0  0  0
M  CHG  1   2   1
M  END
> <s_m_source_file>
AV-unprocessed.smi

> <i_m_source_file_index>
1125

> <i_lp_mmshare_version>
43012

> <i_f3d_flags>
0

> <s_epik_input>
W0NIM11OMVtDSDJdW0NIMl1bQ0hdKFtDSDJdW0NIMl0xKVtOSF1DKD1PKVtDSDJdYzJbY0hdc2MobjIpQyhbQ0gzXSkoW0NIM10pW0NIM10=

> <s_epik_cmdline>
J2VwaWtfcHl0aG9uJywgJy1waCcsICc3LjAnLCAnLXRuJywgJzgnLCAnLW1hJywgJzIwMCcsICctbWV0YWxfYmluZGluZycsICctaW1hZScsICc8aW5maWxlLm1hZT4nLCAnLW9tYWUnLCAnPG91dGZpbGUubWFlPic=

> <r_epik_Ionization_Penalty>
0.00829478

> <r_epik_Ionization_Penalty_Charging>
0.0082618

> <r_epik_Ionization_Penalty_Neutral>
3.29858e-05

> <r_epik_State_Penalty>
0.00621662

> <r_epik_Charging_Adjusted_Penalty>
0.0144784

> <i_epik_Tot_Q>
1

> <i_epik_Tot_abs_Q>
1

> <r_epik_Metal_State_Penalty>
0.00621672

> <b_epik_Metal_Only>
0

> <s_lp_Force_Field>
OPLS_2005

> <r_lp_Energy>
7.4161

> <b_lp_Chiralities_Consistent>
1

> <s_lp_Variant>
AV-unprocessed.smi:1125-1

> <Gold.Version>
5.8.1

> <Gold.Id.Protein>
6NUR|6NUR_protein|mol2

> <Gold.PLP.Fitness>
47.3688

> <Gold.PLP.PLP>
-39.5264

> <Gold.PLP.part.hbond>
-2.7731

> <Gold.PLP.part.metal>
0.0000

> <Gold.PLP.part.buried>
-0.2839

> <Gold.PLP.part.nonpolar>
-36.6717

> <Gold.PLP.part.repulsive>
1.0642

> <Gold.PLP.ligand.clash>
0.0000

> <Gold.PLP.ligand.torsion>
0.5761

> <Gold.PLP.Chemscore.Hbond>
2.9920

> <Gold.PLP.Chemscore.CHOScore>
0.0000

> <Gold.PLP.Chemscore.Metal>
0.0000

> <Gold.Chemscore.Hbonds>
donor molecule, donor type, donor heavy atom, donor atom, acceptor molecule, acceptor atom, score
      L1  H     2    46       P1 10175  2.00
      L1  H     6    29       P1  7957  0.52

> <Gold.PLP.Chemscore.Internal.Correction>
0.0185

> <Gold.Rescore>
     Score         DG    S(hbond)    S(metal)    S(lipo)     H(rot)  DE(clash)    DE(int)     intcor
     19.06     -21.42       1.97        0.00     110.79       1.40       0.33       2.03       ----

> <Gold.Chemscore.Fitness>
19.0635

> <Gold.Chemscore.DG>
-21.4235

> <Gold.Chemscore.ZeroCoef>
-5.4800

> <Gold.Chemscore.Hbond>
1.9680

> <Gold.Chemscore.Metal>
0.0000

> <Gold.Chemscore.Lipo>
110.7877

> <Gold.Chemscore.Internal_Hbond>
0.0000

> <Gold.Chemscore.DEClash>
0.3254

> <Gold.Chemscore.DEInternal>
2.0347

> <Gold.Chemscore.Rot>
1.4030

> <Gold.Chemscore.Internal.Correction>
   9.000000E+99

> <Gold.Chemscore.Hbonds>
donor molecule, donor type, donor heavy atom, donor atom, acceptor molecule, acceptor atom, score
      L1  H     2    46       P1 10175  1.00
      L1  H     6    29       P1  7957  0.52

> <Gold.Chemscore.Hbond.Weighted>
-6.5731

> <Gold.Chemscore.Metal.Weighted>
-0.0000

> <Gold.Chemscore.Lipo.Weighted>
-12.9622

> <Gold.Chemscore.Internal_Hbond.Weighted>
0.0000

> <Gold.Chemscore.DEClash.Weighted>
0.3254

> <Gold.Chemscore.DEInternal.Weighted>
2.0347

> <Gold.Chemscore.Rot.Weighted>
3.5917

> <Gold.Chemscore.Internal.Correction.Weighted>
   9.000000E+99

> <Gold.Protein.RotatedTorsions>
[ 6907 6896 6895 6894 ] final -114.05 input  -60.11 | X-H torsion
[ 7974 7965 7964 7962 ] final  176.31 input  175.53 | X-H torsion
[ 8008 7997 7996 7995 ] final   81.14 input   59.86 | X-H torsion
[ 10167 10162 10161 10158 ] final   67.60 input  -65.29 | X-H torsion
[ 10718 10713 10712 10709 ] final -149.34 input   66.30 | X-H torsion
[ 10763 10752 10751 10750 ] final   -8.03 input  -60.55 | X-H torsion
[ 11005 11000 10999 10996 ] final -173.54 input  -57.11 | X-H torsion

> <Gold.Protein.ActiveResidues>
 VAL166  LYS551  ARG553  GLY616  TRP617  ASP618  TYR619  PRO620  LYS621  CYS622 
 ASP623  PHE694  ASN695  SER759  ASP760  ASP761  ALA762  ILE779  LEU786  VAL792 
 PHE793  MET794  SER795  GLU796  ALA797  LYS798  CYS799  TRP800  GLU811  SER814 

> <Gold.Protein.RotatedAtoms>
  150.7874  133.8856  159.3298 H   0  0  0  0  0  0  0  0  0  0  0  0  # atno 6907 bound_to 6896
  151.6703  135.0975  160.0206 H   0  0  0  0  0  0  0  0  0  0  0  0  # atno 6908 bound_to 6896
  152.3941  133.6682  159.6297 H   0  0  0  0  0  0  0  0  0  0  0  0  # atno 6909 bound_to 6896
  144.7186  140.0077  143.6440 H   0  0  0  0  0  0  0  0  0  0  0  0  # atno 7974 bound_to 7965
  155.8931  140.3437  155.5970 H   0  0  0  0  0  0  0  0  0  0  0  0  # atno 8008 bound_to 7997
  155.7588  140.0830  157.2184 H   0  0  0  0  0  0  0  0  0  0  0  0  # atno 8009 bound_to 7997
  154.4035  140.1539  156.2796 H   0  0  0  0  0  0  0  0  0  0  0  0  # atno 8010 bound_to 7997
  140.0878  144.5015  150.7119 H   0  0  0  0  0  0  0  0  0  0  0  0  # atno 10167 bound_to 10162
  156.4318  130.8079  151.2306 H   0  0  0  0  0  0  0  0  0  0  0  0  # atno 10718 bound_to 10713
  153.4347  135.7012  153.6208 H   0  0  0  0  0  0  0  0  0  0  0  0  # atno 10763 bound_to 10752
  153.4608  135.3737  155.2337 H   0  0  0  0  0  0  0  0  0  0  0  0  # atno 10764 bound_to 10752
  154.8726  135.4019  154.3736 H   0  0  0  0  0  0  0  0  0  0  0  0  # atno 10765 bound_to 10752
  140.4846  134.6042  157.4932 H   0  0  0  0  0  0  0  0  0  0  0  0  # atno 11005 bound_to 11000
  146.0283  139.3312  143.0770 LP  0  0  0  0  0  0  0  0  0  0  0  0  # atno 17320 bound_to 7965
  145.8483  140.9543  143.0763 LP  0  0  0  0  0  0  0  0  0  0  0  0  # atno 17321 bound_to 7965
  140.7044  143.2457  151.4769 LP  0  0  0  0  0  0  0  0  0  0  0  0  # atno 17342 bound_to 10162
  139.5742  144.1858  152.1880 LP  0  0  0  0  0  0  0  0  0  0  0  0  # atno 17343 bound_to 10162
  157.7508  131.0196  150.3673 LP  0  0  0  0  0  0  0  0  0  0  0  0  # atno 17370 bound_to 10713
  156.4012  130.3916  149.6958 LP  0  0  0  0  0  0  0  0  0  0  0  0  # atno 17371 bound_to 10713
  139.9805  134.7144  155.9868 LP  0  0  0  0  0  0  0  0  0  0  0  0  # atno 17394 bound_to 11000
  141.1514  133.6548  156.4025 LP  0  0  0  0  0  0  0  0  0  0  0  0  # atno 17395 bound_to 11000

$$$$
