AV-unprocessed.smi:420|AV-procd|sdf|2533|dock8
  -GOLD-   2262022493D 1   1.00000     0.00000
 Structure written by MMmdl.
 36 38  0  0  0  0  0  0  0  0  1 V2000
  153.8393  140.9063  160.0685 C   0  0  0  0  0  0  0  0  0  0  0  0
  152.8892  141.5695  159.1835 N   0  0  0  0  0  0  0  0  0  0  0  0
  152.3594  141.0780  158.0391 C   0  0  0  0  0  0  0  0  0  0  0  0
  152.5922  139.9737  157.5473 O   0  0  0  0  0  0  0  0  0  0  0  0
  151.5203  142.0116  157.5304 N   0  0  0  0  0  0  0  0  0  0  0  0
  150.7325  141.8960  156.3040 C   0  0  0  0  0  0  0  0  0  0  0  0
  149.2671  141.5165  156.5961 C   0  0  1  0  0  0  0  0  0  0  0  0
  148.5864  142.6670  157.0579 O   0  0  0  0  0  0  0  0  0  0  0  0
  148.6004  140.9301  155.3608 C   0  0  0  0  0  0  0  0  0  0  0  0
  147.6280  141.6643  154.6455 C   0  0  0  0  0  0  0  0  0  0  0  0
  147.0254  141.1141  153.4974 C   0  0  0  0  0  0  0  0  0  0  0  0
  147.3943  139.8293  153.0547 C   0  0  0  0  0  0  0  0  0  0  0  0
  146.8168  139.3016  151.9496 F   0  0  0  0  0  0  0  0  0  0  0  0
  148.3661  139.0948  153.7609 C   0  0  0  0  0  0  0  0  0  0  0  0
  148.9678  139.6440  154.9101 C   0  0  0  0  0  0  0  0  0  0  0  0
  151.5069  143.1283  158.3791 C   0  0  0  0  0  0  0  0  0  0  0  0
  150.8003  144.3418  158.3063 C   0  0  0  0  0  0  0  0  0  0  0  0
  151.0132  145.2775  159.3458 C   0  0  0  0  0  0  0  0  0  0  0  0
  151.9043  144.9898  160.4124 C   0  0  0  0  0  0  0  0  0  0  0  0
  152.6000  143.7591  160.4633 C   0  0  0  0  0  0  0  0  0  0  0  0
  152.3700  142.8488  159.4177 C   0  0  0  0  0  0  0  0  0  0  0  0
  154.1326  139.9245  159.6950 H   0  0  0  0  0  0  0  0  0  0  0  0
  153.4014  140.7732  161.0581 H   0  0  0  0  0  0  0  0  0  0  0  0
  154.7411  141.5101  160.1723 H   0  0  0  0  0  0  0  0  0  0  0  0
  150.7931  142.8054  155.7050 H   0  0  0  0  0  0  0  0  0  0  0  0
  151.1933  141.1149  155.6965 H   0  0  0  0  0  0  0  0  0  0  0  0
  149.2263  140.7697  157.3903 H   0  0  0  0  0  0  0  0  0  0  0  0
  148.8442  143.4014  156.5222 H   0  0  0  0  0  0  0  0  0  0  0  0
  147.3420  142.6533  154.9728 H   0  0  0  0  0  0  0  0  0  0  0  0
  146.2813  141.6787  152.9553 H   0  0  0  0  0  0  0  0  0  0  0  0
  148.6515  138.1102  153.4208 H   0  0  0  0  0  0  0  0  0  0  0  0
  149.7151  139.0739  155.4427 H   0  0  0  0  0  0  0  0  0  0  0  0
  150.1198  144.5552  157.4956 H   0  0  0  0  0  0  0  0  0  0  0  0
  150.4901  146.2223  159.3277 H   0  0  0  0  0  0  0  0  0  0  0  0
  152.0519  145.7186  161.1957 H   0  0  0  0  0  0  0  0  0  0  0  0
  153.2779  143.5309  161.2724 H   0  0  0  0  0  0  0  0  0  0  0  0
  1  2  1  0  0  0  0
  1 22  1  0  0  0  0
  1 23  1  0  0  0  0
  1 24  1  0  0  0  0
  2 21  1  0  0  0  0
  2  3  1  0  0  0  0
  3  4  2  0  0  0  0
  3  5  1  0  0  0  0
  5  6  1  0  0  0  0
  5 16  1  0  0  0  0
  6  7  1  0  0  0  0
  6 25  1  0  0  0  0
  6 26  1  0  0  0  0
  7  8  1  0  0  0  0
  7  9  1  0  0  0  0
  7 27  1  0  0  0  0
  8 28  1  0  0  0  0
  9 15  1  0  0  0  0
  9 10  2  0  0  0  0
 10 11  1  0  0  0  0
 10 29  1  0  0  0  0
 11 12  2  0  0  0  0
 11 30  1  0  0  0  0
 12 13  1  0  0  0  0
 12 14  1  0  0  0  0
 14 15  2  0  0  0  0
 14 31  1  0  0  0  0
 15 32  1  0  0  0  0
 16 21  2  0  0  0  0
 16 17  1  0  0  0  0
 17 18  2  0  0  0  0
 17 33  1  0  0  0  0
 18 19  1  0  0  0  0
 18 34  1  0  0  0  0
 19 20  2  0  0  0  0
 19 35  1  0  0  0  0
 20 21  1  0  0  0  0
 20 36  1  0  0  0  0
M  END
> <s_m_source_file>
AV-unprocessed.smi

> <i_m_source_file_index>
420

> <i_lp_mmshare_version>
43012

> <i_f3d_flags>
0

> <s_epik_input>
W2NIXTFbY0hdW2NIXVtjSF1jKGMxMiluKFtDSDNdKWMoPU8pbjJbQ0gyXVtDQEhdKFtPSF0pYzNbY0hdW2NIXWMoRilbY0hdW2NIXTM=

> <s_epik_cmdline>
J2VwaWtfcHl0aG9uJywgJy1waCcsICc3LjAnLCAnLXRuJywgJzgnLCAnLW1hJywgJzIwMCcsICctbWV0YWxfYmluZGluZycsICctaW1hZScsICc8aW5maWxlLm1hZT4nLCAnLW9tYWUnLCAnPG91dGZpbGUubWFlPic=

> <r_lp_tautomer_probability>
1

> <r_epik_Ionization_Penalty>
1.79795e-06

> <r_epik_Ionization_Penalty_Charging>
2.57375e-09

> <r_epik_Ionization_Penalty_Neutral>
1.79538e-06

> <r_epik_State_Penalty>
-0

> <r_epik_Charging_Adjusted_Penalty>
2.57375e-09

> <i_epik_Tot_Q>
0

> <i_epik_Tot_abs_Q>
0

> <r_epik_Metal_State_Penalty>
-0

> <b_epik_Metal_Only>
0

> <s_lp_Force_Field>
OPLS_2005

> <r_lp_Energy>
43.03

> <b_lp_Chiralities_Consistent>
1

> <s_lp_Variant>
AV-unprocessed.smi:420-2

> <Gold.Version>
5.8.1

> <Gold.Id.Protein>
6NUR|6NUR_protein|mol2

> <Gold.PLP.Fitness>
52.3009

> <Gold.PLP.PLP>
-47.7108

> <Gold.PLP.part.hbond>
-2.0000

> <Gold.PLP.part.metal>
0.0000

> <Gold.PLP.part.buried>
-1.4547

> <Gold.PLP.part.nonpolar>
-43.3271

> <Gold.PLP.part.repulsive>
0.0000

> <Gold.PLP.ligand.clash>
0.0000

> <Gold.PLP.ligand.torsion>
0.7101

> <Gold.PLP.Chemscore.Hbond>
2.0000

> <Gold.PLP.Chemscore.CHOScore>
0.0000

> <Gold.PLP.Chemscore.Metal>
0.0000

> <Gold.Chemscore.Hbonds>
donor molecule, donor type, donor heavy atom, donor atom, acceptor molecule, acceptor atom, score
      L1  H     8    28       P1  8028  1.00
      P1  H  7997  8009       L1     4  1.00

> <Gold.PLP.Chemscore.Internal.Correction>
0.0104

> <Gold.Rescore>
     Score         DG    S(hbond)    S(metal)    S(lipo)     H(rot)  DE(clash)    DE(int)     intcor
     19.79     -21.12       1.72        0.00     124.95       1.85       0.74       0.59       ----

> <Gold.Chemscore.Fitness>
19.7883

> <Gold.Chemscore.DG>
-21.1185

> <Gold.Chemscore.ZeroCoef>
-5.4800

> <Gold.Chemscore.Hbond>
1.7204

> <Gold.Chemscore.Metal>
0.0000

> <Gold.Chemscore.Lipo>
124.9521

> <Gold.Chemscore.Internal_Hbond>
0.0000

> <Gold.Chemscore.DEClash>
0.7386

> <Gold.Chemscore.DEInternal>
0.5916

> <Gold.Chemscore.Rot>
1.8465

> <Gold.Chemscore.Internal.Correction>
   9.000000E+99

> <Gold.Chemscore.Hbonds>
donor molecule, donor type, donor heavy atom, donor atom, acceptor molecule, acceptor atom, score
      L1  H     8    28       P1  8028  0.88
      P1  H  7997  8009       L1     4  0.45

> <Gold.Chemscore.Hbond.Weighted>
-5.7462

> <Gold.Chemscore.Metal.Weighted>
-0.0000

> <Gold.Chemscore.Lipo.Weighted>
-14.6194

> <Gold.Chemscore.Internal_Hbond.Weighted>
0.0000

> <Gold.Chemscore.DEClash.Weighted>
0.7386

> <Gold.Chemscore.DEInternal.Weighted>
0.5916

> <Gold.Chemscore.Rot.Weighted>
4.7270

> <Gold.Chemscore.Internal.Correction.Weighted>
   9.000000E+99

> <Gold.Protein.RotatedTorsions>
[ 6907 6896 6895 6894 ] final   -2.14 input  -60.11 | X-H torsion
[ 7974 7965 7964 7962 ] final  -25.13 input  175.53 | X-H torsion
[ 8008 7997 7996 7995 ] final  161.55 input   59.86 | X-H torsion
[ 10167 10162 10161 10158 ] final  107.43 input  -65.29 | X-H torsion
[ 10718 10713 10712 10709 ] final -161.74 input   66.30 | X-H torsion
[ 10763 10752 10751 10750 ] final -128.90 input  -60.55 | X-H torsion
[ 11005 11000 10999 10996 ] final -111.78 input  -57.11 | X-H torsion

> <Gold.Protein.ActiveResidues>
 VAL166  LYS551  ARG553  GLY616  TRP617  ASP618  TYR619  PRO620  LYS621  CYS622 
 ASP623  PHE694  ASN695  SER759  ASP760  ASP761  ALA762  ILE779  LEU786  VAL792 
 PHE793  MET794  SER795  GLU796  ALA797  LYS798  CYS799  TRP800  GLU811  SER814 

> <Gold.Protein.RotatedAtoms>
  151.5348  135.1068  159.9911 H   0  0  0  0  0  0  0  0  0  0  0  0  # atno 6907 bound_to 6896
  152.4562  133.7724  159.6817 H   0  0  0  0  0  0  0  0  0  0  0  0  # atno 6908 bound_to 6896
  150.8507  133.7726  159.3051 H   0  0  0  0  0  0  0  0  0  0  0  0  # atno 6909 bound_to 6896
  146.1510  140.4845  142.8611 H   0  0  0  0  0  0  0  0  0  0  0  0  # atno 7974 bound_to 7965
  156.2095  140.1774  156.7726 H   0  0  0  0  0  0  0  0  0  0  0  0  # atno 8008 bound_to 7997
  154.5702  140.0684  156.8983 H   0  0  0  0  0  0  0  0  0  0  0  0  # atno 8009 bound_to 7997
  155.2686  140.3341  155.4269 H   0  0  0  0  0  0  0  0  0  0  0  0  # atno 8010 bound_to 7997
  139.6928  144.7105  151.1319 H   0  0  0  0  0  0  0  0  0  0  0  0  # atno 10167 bound_to 10162
  156.6005  130.8808  151.2912 H   0  0  0  0  0  0  0  0  0  0  0  0  # atno 10718 bound_to 10713
  154.8757  135.3913  154.3833 H   0  0  0  0  0  0  0  0  0  0  0  0  # atno 10763 bound_to 10752
  153.4577  135.7029  153.6074 H   0  0  0  0  0  0  0  0  0  0  0  0  # atno 10764 bound_to 10752
  153.4587  135.3817  155.2294 H   0  0  0  0  0  0  0  0  0  0  0  0  # atno 10765 bound_to 10752
  141.0714  133.9373  157.2477 H   0  0  0  0  0  0  0  0  0  0  0  0  # atno 11005 bound_to 11000
  144.7905  140.6021  143.6545 LP  0  0  0  0  0  0  0  0  0  0  0  0  # atno 17320 bound_to 7965
  145.4822  139.1494  143.3756 LP  0  0  0  0  0  0  0  0  0  0  0  0  # atno 17321 bound_to 7965
  140.7687  143.5535  150.9178 LP  0  0  0  0  0  0  0  0  0  0  0  0  # atno 17342 bound_to 10162
  139.9213  143.6602  152.3096 LP  0  0  0  0  0  0  0  0  0  0  0  0  # atno 17343 bound_to 10162
  157.7281  130.9652  150.1726 LP  0  0  0  0  0  0  0  0  0  0  0  0  # atno 17370 bound_to 10713
  156.2473  130.3697  149.8271 LP  0  0  0  0  0  0  0  0  0  0  0  0  # atno 17371 bound_to 10713
  139.9527  135.0172  156.9041 LP  0  0  0  0  0  0  0  0  0  0  0  0  # atno 17394 bound_to 11000
  140.5665  134.0484  155.7416 LP  0  0  0  0  0  0  0  0  0  0  0  0  # atno 17395 bound_to 11000

$$$$
