AV-unprocessed.smi:2061|AV-procd|sdf|8387|dock9
  -GOLD-   2272011 73D 1   1.00000     0.00000
 Structure written by MMmdl.
 45 46  0  0  0  0  0  0  0  0  3 V2000
  147.1751  135.3060  163.0965 C   0  0  0  0  0  0  0  0  0  0  0  0
  146.9377  135.9729  161.7846 C   0  0  0  0  0  0  0  0  0  0  0  0
  146.2064  135.6227  160.6849 C   0  0  0  0  0  0  0  0  0  0  0  0
  146.4223  136.7079  159.7921 C   0  0  0  0  0  0  0  0  0  0  0  0
  145.8943  136.8398  158.5653 N   0  5  0  0  0  0  0  0  0  0  0  0
  146.5621  137.5168  157.6037 C   0  0  0  0  0  0  0  0  0  0  0  0
  147.1345  138.6013  157.7318 O   0  0  0  0  0  0  0  0  0  0  0  0
  146.5662  136.8964  156.4169 N   0  0  0  0  0  0  0  0  0  0  0  0
  147.1961  137.3999  155.2015 C   0  0  0  0  0  0  0  0  0  0  0  0
  148.7256  137.1422  155.1842 C   0  0  1  0  0  0  0  0  0  0  0  0
  149.0073  135.6209  155.1182 C   0  0  0  0  0  0  0  0  0  0  0  0
  149.4168  137.8660  154.0613 N   0  3  1  0  0  0  0  0  0  0  0  0
  148.9197  139.2351  153.7551 C   0  0  0  0  0  0  0  0  0  0  0  0
  149.3690  140.2426  154.8340 C   0  0  2  0  0  0  0  0  0  0  0  0
  148.9089  141.6695  154.5178 C   0  0  0  0  0  0  0  0  0  0  0  0
  150.7926  140.2415  154.8932 O   0  0  0  0  0  0  0  0  0  0  0  0
  151.3414  138.9698  155.2272 C   0  0  2  0  0  0  0  0  0  0  0  0
  152.8661  139.1132  155.2881 C   0  0  0  0  0  0  0  0  0  0  0  0
  150.9003  137.9329  154.1704 C   0  0  0  0  0  0  0  0  0  0  0  0
  147.2020  137.6417  160.3106 N   0  0  0  0  0  0  0  0  0  0  0  0
  147.5427  137.1749  161.5856 O   0  0  0  0  0  0  0  0  0  0  0  0
  146.2300  135.0712  163.5864 H   0  0  0  0  0  0  0  0  0  0  0  0
  147.7513  135.9458  163.7651 H   0  0  0  0  0  0  0  0  0  0  0  0
  147.7264  134.3754  162.9608 H   0  0  0  0  0  0  0  0  0  0  0  0
  145.6142  134.7316  160.5404 H   0  0  0  0  0  0  0  0  0  0  0  0
  146.0862  136.0103  156.3557 H   0  0  0  0  0  0  0  0  0  0  0  0
  146.7322  136.9454  154.3243 H   0  0  0  0  0  0  0  0  0  0  0  0
  146.9708  138.4653  155.1787 H   0  0  0  0  0  0  0  0  0  0  0  0
  149.1198  137.5089  156.1315 H   0  0  0  0  0  0  0  0  0  0  0  0
  148.4569  135.0658  155.8772 H   0  0  0  0  0  0  0  0  0  0  0  0
  150.0538  135.3814  155.2976 H   0  0  0  0  0  0  0  0  0  0  0  0
  148.7263  135.2095  154.1484 H   0  0  0  0  0  0  0  0  0  0  0  0
  149.3426  139.5366  152.7955 H   0  0  0  0  0  0  0  0  0  0  0  0
  147.8440  139.2659  153.5963 H   0  0  0  0  0  0  0  0  0  0  0  0
  148.9656  139.9613  155.8078 H   0  0  0  0  0  0  0  0  0  0  0  0
  147.8213  141.7289  154.4690 H   0  0  0  0  0  0  0  0  0  0  0  0
  149.3067  142.0112  153.5617 H   0  0  0  0  0  0  0  0  0  0  0  0
  149.2449  142.3661  155.2862 H   0  0  0  0  0  0  0  0  0  0  0  0
  150.9899  138.6774  156.2173 H   0  0  0  0  0  0  0  0  0  0  0  0
  153.3386  138.1680  155.5564 H   0  0  0  0  0  0  0  0  0  0  0  0
  153.1585  139.8530  156.0337 H   0  0  0  0  0  0  0  0  0  0  0  0
  153.2729  139.4301  154.3273 H   0  0  0  0  0  0  0  0  0  0  0  0
  151.3481  136.9613  154.3655 H   0  0  0  0  0  0  0  0  0  0  0  0
  151.2934  138.2303  153.1970 H   0  0  0  0  0  0  0  0  0  0  0  0
  149.2185  137.3132  153.2393 H   0  0  0  0  0  0  0  0  0  0  0  0
  1  2  1  0  0  0  0
  1 22  1  0  0  0  0
  1 23  1  0  0  0  0
  1 24  1  0  0  0  0
  2 21  1  0  0  0  0
  2  3  2  0  0  0  0
  3  4  1  0  0  0  0
  3 25  1  0  0  0  0
  4  5  1  0  0  0  0
  4 20  2  0  0  0  0
  5  6  1  0  0  0  0
  6  7  2  0  0  0  0
  6  8  1  0  0  0  0
  8  9  1  0  0  0  0
  8 26  1  0  0  0  0
  9 10  1  0  0  0  0
  9 27  1  0  0  0  0
  9 28  1  0  0  0  0
 10 11  1  0  0  0  0
 10 12  1  0  0  0  0
 10 29  1  0  0  0  0
 11 30  1  0  0  0  0
 11 31  1  0  0  0  0
 11 32  1  0  0  0  0
 12 19  1  0  0  0  0
 12 13  1  0  0  0  0
 12 45  1  0  0  0  0
 13 14  1  0  0  0  0
 13 33  1  0  0  0  0
 13 34  1  0  0  0  0
 14 15  1  0  0  0  0
 14 16  1  0  0  0  0
 14 35  1  0  0  0  0
 15 36  1  0  0  0  0
 15 37  1  0  0  0  0
 15 38  1  0  0  0  0
 16 17  1  0  0  0  0
 17 18  1  0  0  0  0
 17 19  1  0  0  0  0
 17 39  1  0  0  0  0
 18 40  1  0  0  0  0
 18 41  1  0  0  0  0
 18 42  1  0  0  0  0
 19 43  1  0  0  0  0
 19 44  1  0  0  0  0
 20 21  1  0  0  0  0
M  CHG  1   5  -1
M  CHG  1  12   1
M  END
> <s_m_source_file>
AV-unprocessed.smi

> <i_m_source_file_index>
2061

> <i_lp_mmshare_version>
43012

> <i_f3d_flags>
0

> <s_epik_input>
W0NIM11jMVtjSF1jKG5vMSlbTkhdQyg9TylbTkhdW0NIMl1bQ0BIXShbQ0gzXSlOMltDSDJdW0NAQEhdKFtDSDNdKU9bQ0BASF0oW0NIM10pW0NIMl0y

> <s_epik_cmdline>
J2VwaWtfcHl0aG9uJywgJy1waCcsICc3LjAnLCAnLXRuJywgJzgnLCAnLW1hJywgJzIwMCcsICctbWV0YWxfYmluZGluZycsICctaW1hZScsICc8aW5maWxlLm1hZT4nLCAnLW9tYWUnLCAnPG91dGZpbGUubWFlPic=

> <r_epik_Ionization_Penalty>
6.73511

> <r_epik_Ionization_Penalty_Charging>
6.73502

> <r_epik_Ionization_Penalty_Neutral>
9.50841e-05

> <r_epik_State_Penalty>
6.93549

> <r_epik_Charging_Adjusted_Penalty>
13.6705

> <i_epik_Tot_Q>
0

> <i_epik_Tot_abs_Q>
2

> <r_epik_Metal_State_Penalty>
2.87211

> <b_epik_Metal_Only>
1

> <s_lp_Force_Field>
OPLS_2005

> <r_lp_Energy>
11.5912

> <b_lp_Chiralities_Consistent>
1

> <s_lp_Variant>
AV-unprocessed.smi:2061-28

> <Gold.Version>
5.8.1

> <Gold.Id.Protein>
6NUR|6NUR_protein|mol2

> <Gold.PLP.Fitness>
41.9825

> <Gold.PLP.PLP>
-30.4329

> <Gold.PLP.part.hbond>
-5.8232

> <Gold.PLP.part.metal>
0.0000

> <Gold.PLP.part.buried>
1.6091

> <Gold.PLP.part.nonpolar>
-25.8987

> <Gold.PLP.part.repulsive>
0.0693

> <Gold.PLP.ligand.clash>
0.0000

> <Gold.PLP.ligand.torsion>
1.0010

> <Gold.PLP.Chemscore.Hbond>
4.4928

> <Gold.PLP.Chemscore.CHOScore>
0.0000

> <Gold.PLP.Chemscore.Metal>
0.0000

> <Gold.Chemscore.Hbonds>
donor molecule, donor type, donor heavy atom, donor atom, acceptor molecule, acceptor atom, score
      L1  H    12    45       P1  7948  2.00
      P1  H  6931  6943       L1    21  0.93
      P1  H  6934  6947       L1    20  0.33
      P1  H  7989  7998       L1    16  1.00

> <Gold.PLP.Chemscore.Internal.Correction>
0.0731

> <Gold.Rescore>
     Score         DG    S(hbond)    S(metal)    S(lipo)     H(rot)  DE(clash)    DE(int)     intcor
     16.02     -18.81       2.61        0.00      73.29       1.56       0.29       2.49       ----

> <Gold.Chemscore.Fitness>
16.0183

> <Gold.Chemscore.DG>
-18.8072

> <Gold.Chemscore.ZeroCoef>
-5.4800

> <Gold.Chemscore.Hbond>
2.6148

> <Gold.Chemscore.Metal>
0.0000

> <Gold.Chemscore.Lipo>
73.2871

> <Gold.Chemscore.Internal_Hbond>
0.0000

> <Gold.Chemscore.DEClash>
0.2946

> <Gold.Chemscore.DEInternal>
2.4942

> <Gold.Chemscore.Rot>
1.5550

> <Gold.Chemscore.Internal.Correction>
   9.000000E+99

> <Gold.Chemscore.Hbonds>
donor molecule, donor type, donor heavy atom, donor atom, acceptor molecule, acceptor atom, score
      L1  H    12    45       P1  7948  0.99
      P1  H  6931  6943       L1    21  0.20
      P1  H  6934  6947       L1    20  0.01
      P1  H  7989  7998       L1    16  0.66

> <Gold.Chemscore.Hbond.Weighted>
-8.7334

> <Gold.Chemscore.Metal.Weighted>
-0.0000

> <Gold.Chemscore.Lipo.Weighted>
-8.5746

> <Gold.Chemscore.Internal_Hbond.Weighted>
0.0000

> <Gold.Chemscore.DEClash.Weighted>
0.2946

> <Gold.Chemscore.DEInternal.Weighted>
2.4942

> <Gold.Chemscore.Rot.Weighted>
3.9809

> <Gold.Chemscore.Internal.Correction.Weighted>
   9.000000E+99

> <Gold.Protein.RotatedTorsions>
[ 6907 6896 6895 6894 ] final  -78.70 input  -60.11 | X-H torsion
[ 7974 7965 7964 7962 ] final  125.31 input  175.53 | X-H torsion
[ 8008 7997 7996 7995 ] final   50.31 input   59.86 | X-H torsion
[ 10167 10162 10161 10158 ] final -152.23 input  -65.29 | X-H torsion
[ 10718 10713 10712 10709 ] final   69.41 input   66.30 | X-H torsion
[ 10763 10752 10751 10750 ] final -160.19 input  -60.55 | X-H torsion
[ 11005 11000 10999 10996 ] final  -16.97 input  -57.11 | X-H torsion

> <Gold.Protein.ActiveResidues>
 VAL166  LYS551  ARG553  GLY616  TRP617  ASP618  TYR619  PRO620  LYS621  CYS622 
 ASP623  PHE694  ASN695  SER759  ASP760  ASP761  ALA762  ILE779  LEU786  VAL792 
 PHE793  MET794  SER795  GLU796  ALA797  LYS798  CYS799  TRP800  GLU811  SER814 

> <Gold.Protein.RotatedAtoms>
  150.6966  134.4232  159.5214 H   0  0  0  0  0  0  0  0  0  0  0  0  # atno 6907 bound_to 6896
  152.1972  134.8617  160.0521 H   0  0  0  0  0  0  0  0  0  0  0  0  # atno 6908 bound_to 6896
  151.9551  133.3643  159.4051 H   0  0  0  0  0  0  0  0  0  0  0  0  # atno 6909 bound_to 6896
  145.0744  139.3705  143.4941 H   0  0  0  0  0  0  0  0  0  0  0  0  # atno 7974 bound_to 7965
  155.4166  140.3444  155.4268 H   0  0  0  0  0  0  0  0  0  0  0  0  # atno 8008 bound_to 7997
  156.1418  140.1544  156.8941 H   0  0  0  0  0  0  0  0  0  0  0  0  # atno 8009 bound_to 7997
  154.4977  140.0823  156.7712 H   0  0  0  0  0  0  0  0  0  0  0  0  # atno 8010 bound_to 7997
  139.7200  143.8973  152.2500 H   0  0  0  0  0  0  0  0  0  0  0  0  # atno 10167 bound_to 10162
  157.6344  130.9424  150.0510 H   0  0  0  0  0  0  0  0  0  0  0  0  # atno 10718 bound_to 10713
  154.7412  135.3069  154.8725 H   0  0  0  0  0  0  0  0  0  0  0  0  # atno 10763 bound_to 10752
  153.9540  135.6760  153.4748 H   0  0  0  0  0  0  0  0  0  0  0  0  # atno 10764 bound_to 10752
  153.1010  135.4912  154.8792 H   0  0  0  0  0  0  0  0  0  0  0  0  # atno 10765 bound_to 10752
  140.8121  133.8132  155.9574 H   0  0  0  0  0  0  0  0  0  0  0  0  # atno 11005 bound_to 11000
  146.3529  140.0504  142.8636 LP  0  0  0  0  0  0  0  0  0  0  0  0  # atno 17320 bound_to 7965
  145.1253  140.9486  143.4576 LP  0  0  0  0  0  0  0  0  0  0  0  0  # atno 17321 bound_to 7965
  139.8866  144.6988  150.8817 LP  0  0  0  0  0  0  0  0  0  0  0  0  # atno 17342 bound_to 10162
  140.7751  143.3619  151.1812 LP  0  0  0  0  0  0  0  0  0  0  0  0  # atno 17343 bound_to 10162
  156.1572  130.3643  149.9352 LP  0  0  0  0  0  0  0  0  0  0  0  0  # atno 17370 bound_to 10713
  156.7359  130.9061  151.3629 LP  0  0  0  0  0  0  0  0  0  0  0  0  # atno 17371 bound_to 10713
  140.9187  134.2169  157.4940 LP  0  0  0  0  0  0  0  0  0  0  0  0  # atno 17394 bound_to 11000
  139.8713  134.9782  156.4990 LP  0  0  0  0  0  0  0  0  0  0  0  0  # atno 17395 bound_to 11000

$$$$
