AV-unprocessed.smi:2952|AV-procd|sdf|11292|dock10
  -GOLD-   2272016183D 1   1.00000     0.00000
 Structure written by MMmdl.
 39 41  0  0  0  0  0  0  0  0  2 V2000
  151.5655  137.3880  158.6402 O   0  0  0  0  0  0  0  0  0  0  0  0
  151.0361  138.6480  158.2837 C   0  0  0  0  0  0  0  0  0  0  0  0
  152.1372  139.7194  158.2336 C   0  0  0  0  0  0  0  0  0  0  0  0
  151.6289  141.0416  157.8318 N   0  0  0  0  0  0  0  0  0  0  0  0
  151.0295  141.4369  156.6711 C   0  0  0  0  0  0  0  0  0  0  0  0
  150.7253  140.5851  155.4786 C   0  0  0  0  0  0  0  0  0  0  0  0
  149.3040  140.5269  155.1465 N   0  0  0  0  0  0  0  0  0  0  0  0
  148.9531  139.3356  154.3768 C   0  0  0  0  0  0  0  0  0  0  0  0
  147.4544  139.3014  154.0307 C   0  0  0  0  0  0  0  0  0  0  0  0
  147.0993  140.4878  153.3277 O   0  0  0  0  0  0  0  0  0  0  0  0
  147.3850  141.6718  154.0658 C   0  0  0  0  0  0  0  0  0  0  0  0
  148.8837  141.7138  154.4109 C   0  0  0  0  0  0  0  0  0  0  0  0
  150.7502  142.7651  156.7924 N   0  3  0  0  0  0  0  0  0  0  0  0
  151.1689  143.2239  158.0417 C   0  0  0  0  0  0  0  0  0  0  0  0
  151.0969  144.4884  158.6174 C   0  0  0  0  0  0  0  0  0  0  0  0
  151.6141  144.6195  159.9227 C   0  0  0  0  0  0  0  0  0  0  0  0
  152.1750  143.5205  160.6060 C   0  0  0  0  0  0  0  0  0  0  0  0
  152.7885  143.7401  162.2032 Cl  0  0  0  0  0  0  0  0  0  0  0  0
  152.2431  142.2441  160.0094 C   0  0  0  0  0  0  0  0  0  0  0  0
  151.7318  142.1218  158.7174 C   0  0  0  0  0  0  0  0  0  0  0  0
  151.6843  136.8789  157.8525 H   0  0  0  0  0  0  0  0  0  0  0  0
  150.5516  138.5637  157.3109 H   0  0  0  0  0  0  0  0  0  0  0  0
  150.2644  138.9249  159.0025 H   0  0  0  0  0  0  0  0  0  0  0  0
  152.6491  139.8017  159.1921 H   0  0  0  0  0  0  0  0  0  0  0  0
  152.9010  139.4273  157.5132 H   0  0  0  0  0  0  0  0  0  0  0  0
  151.2816  140.9914  154.6332 H   0  0  0  0  0  0  0  0  0  0  0  0
  151.1137  139.5796  155.6471 H   0  0  0  0  0  0  0  0  0  0  0  0
  149.5365  139.3054  153.4552 H   0  0  0  0  0  0  0  0  0  0  0  0
  149.2063  138.4355  154.9371 H   0  0  0  0  0  0  0  0  0  0  0  0
  147.2284  138.4361  153.4076 H   0  0  0  0  0  0  0  0  0  0  0  0
  146.8508  139.2119  154.9353 H   0  0  0  0  0  0  0  0  0  0  0  0
  147.1084  142.5409  153.4689 H   0  0  0  0  0  0  0  0  0  0  0  0
  146.7789  141.6990  154.9727 H   0  0  0  0  0  0  0  0  0  0  0  0
  149.0925  142.6078  154.9995 H   0  0  0  0  0  0  0  0  0  0  0  0
  149.4632  141.8039  153.4907 H   0  0  0  0  0  0  0  0  0  0  0  0
  150.6660  145.3322  158.0988 H   0  0  0  0  0  0  0  0  0  0  0  0
  151.5774  145.5829  160.4104 H   0  0  0  0  0  0  0  0  0  0  0  0
  152.6683  141.4078  160.5441 H   0  0  0  0  0  0  0  0  0  0  0  0
  150.3033  143.3153  156.0704 H   0  0  0  0  0  0  0  0  0  0  0  0
  1  2  1  0  0  0  0
  1 21  1  0  0  0  0
  2  3  1  0  0  0  0
  2 22  1  0  0  0  0
  2 23  1  0  0  0  0
  3  4  1  0  0  0  0
  3 24  1  0  0  0  0
  3 25  1  0  0  0  0
  4 20  1  0  0  0  0
  4  5  1  0  0  0  0
  5  6  1  0  0  0  0
  5 13  2  0  0  0  0
  6  7  1  0  0  0  0
  6 26  1  0  0  0  0
  6 27  1  0  0  0  0
  7 12  1  0  0  0  0
  7  8  1  0  0  0  0
  8  9  1  0  0  0  0
  8 28  1  0  0  0  0
  8 29  1  0  0  0  0
  9 10  1  0  0  0  0
  9 30  1  0  0  0  0
  9 31  1  0  0  0  0
 10 11  1  0  0  0  0
 11 12  1  0  0  0  0
 11 32  1  0  0  0  0
 11 33  1  0  0  0  0
 12 34  1  0  0  0  0
 12 35  1  0  0  0  0
 13 14  1  0  0  0  0
 13 39  1  0  0  0  0
 14 20  2  0  0  0  0
 14 15  1  0  0  0  0
 15 16  2  0  0  0  0
 15 36  1  0  0  0  0
 16 17  1  0  0  0  0
 16 37  1  0  0  0  0
 17 18  1  0  0  0  0
 17 19  2  0  0  0  0
 19 20  1  0  0  0  0
 19 38  1  0  0  0  0
M  CHG  1  13   1
M  END
> <s_m_source_file>
AV-unprocessed.smi

> <i_m_source_file_index>
2952

> <i_lp_mmshare_version>
43012

> <i_f3d_flags>
0

> <s_epik_input>
W2NIXTFbY0hdYyhDbClbY0hdYyhjMTIpbihbQ0gyXVtDSDJdW09IXSljKG4yKVtDSDJdTjNbQ0gyXVtDSDJdT1tDSDJdW0NIMl0z

> <s_epik_cmdline>
J2VwaWtfcHl0aG9uJywgJy1waCcsICc3LjAnLCAnLXRuJywgJzgnLCAnLW1hJywgJzIwMCcsICctbWV0YWxfYmluZGluZycsICctaW1hZScsICc8aW5maWxlLm1hZT4nLCAnLW9tYWUnLCAnPG91dGZpbGUubWFlPic=

> <r_epik_Ionization_Penalty>
1.17151

> <r_epik_Ionization_Penalty_Charging>
1.1712

> <r_epik_Ionization_Penalty_Neutral>
0.000312352

> <r_epik_State_Penalty>
1.2343

> <r_epik_Charging_Adjusted_Penalty>
2.4055

> <i_epik_Tot_Q>
1

> <i_epik_Tot_abs_Q>
1

> <r_epik_Metal_State_Penalty>
5.24833

> <b_epik_Metal_Only>
0

> <s_lp_Force_Field>
OPLS_2005

> <r_lp_Energy>
24.7886

> <b_lp_Chiralities_Consistent>
1

> <s_lp_Variant>
AV-unprocessed.smi:2952-2

> <Gold.Version>
5.8.1

> <Gold.Id.Protein>
6NUR|6NUR_protein|mol2

> <Gold.PLP.Fitness>
48.2163

> <Gold.PLP.PLP>
-43.0647

> <Gold.PLP.part.hbond>
-1.0000

> <Gold.PLP.part.metal>
0.0000

> <Gold.PLP.part.buried>
-5.0521

> <Gold.PLP.part.nonpolar>
-36.5371

> <Gold.PLP.part.repulsive>
0.3024

> <Gold.PLP.ligand.clash>
0.0000

> <Gold.PLP.ligand.torsion>
0.2171

> <Gold.PLP.Chemscore.Hbond>
1.8560

> <Gold.PLP.Chemscore.CHOScore>
0.0000

> <Gold.PLP.Chemscore.Metal>
0.0000

> <Gold.Chemscore.Hbonds>
donor molecule, donor type, donor heavy atom, donor atom, acceptor molecule, acceptor atom, score
      L1  H    13    39       P1  8028  1.81

> <Gold.PLP.Chemscore.Internal.Correction>
0.0177

> <Gold.Rescore>
     Score         DG    S(hbond)    S(metal)    S(lipo)     H(rot)  DE(clash)    DE(int)     intcor
     16.08     -16.39       0.92        0.00     114.71       2.18       0.09       0.22       ----

> <Gold.Chemscore.Fitness>
16.0839

> <Gold.Chemscore.DG>
-16.3916

> <Gold.Chemscore.ZeroCoef>
-5.4800

> <Gold.Chemscore.Hbond>
0.9214

> <Gold.Chemscore.Metal>
0.0000

> <Gold.Chemscore.Lipo>
114.7062

> <Gold.Chemscore.Internal_Hbond>
0.0000

> <Gold.Chemscore.DEClash>
0.0877

> <Gold.Chemscore.DEInternal>
0.2200

> <Gold.Chemscore.Rot>
2.1822

> <Gold.Chemscore.Internal.Correction>
   9.000000E+99

> <Gold.Chemscore.Hbonds>
donor molecule, donor type, donor heavy atom, donor atom, acceptor molecule, acceptor atom, score
      L1  H    13    39       P1  8028  0.83

> <Gold.Chemscore.Hbond.Weighted>
-3.0773

> <Gold.Chemscore.Metal.Weighted>
-0.0000

> <Gold.Chemscore.Lipo.Weighted>
-13.4206

> <Gold.Chemscore.Internal_Hbond.Weighted>
0.0000

> <Gold.Chemscore.DEClash.Weighted>
0.0877

> <Gold.Chemscore.DEInternal.Weighted>
0.2200

> <Gold.Chemscore.Rot.Weighted>
5.5863

> <Gold.Chemscore.Internal.Correction.Weighted>
   9.000000E+99

> <Gold.Protein.RotatedTorsions>
[ 6907 6896 6895 6894 ] final  -28.91 input  -60.11 | X-H torsion
[ 7974 7965 7964 7962 ] final   -5.76 input  175.53 | X-H torsion
[ 8008 7997 7996 7995 ] final  -63.06 input   59.86 | X-H torsion
[ 10167 10162 10161 10158 ] final  127.91 input  -65.29 | X-H torsion
[ 10718 10713 10712 10709 ] final  -50.80 input   66.30 | X-H torsion
[ 10763 10752 10751 10750 ] final   -0.76 input  -60.55 | X-H torsion
[ 11005 11000 10999 10996 ] final  -22.91 input  -57.11 | X-H torsion

> <Gold.Protein.ActiveResidues>
 VAL166  LYS551  ARG553  GLY616  TRP617  ASP618  TYR619  PRO620  LYS621  CYS622 
 ASP623  PHE694  ASN695  SER759  ASP760  ASP761  ALA762  ILE779  LEU786  VAL792 
 PHE793  MET794  SER795  GLU796  ALA797  LYS798  CYS799  TRP800  GLU811  SER814 

> <Gold.Protein.RotatedAtoms>
  151.1265  135.0107  159.8562 H   0  0  0  0  0  0  0  0  0  0  0  0  # atno 6907 bound_to 6896
  152.5449  134.1661  159.8587 H   0  0  0  0  0  0  0  0  0  0  0  0  # atno 6908 bound_to 6896
  151.1724  133.4731  159.2627 H   0  0  0  0  0  0  0  0  0  0  0  0  # atno 6909 bound_to 6896
  146.2346  140.2069  142.8334 H   0  0  0  0  0  0  0  0  0  0  0  0  # atno 7974 bound_to 7965
  154.4533  140.0983  156.6683 H   0  0  0  0  0  0  0  0  0  0  0  0  # atno 8008 bound_to 7997
  155.5216  140.3479  155.4389 H   0  0  0  0  0  0  0  0  0  0  0  0  # atno 8009 bound_to 7997
  156.0726  140.1353  156.9798 H   0  0  0  0  0  0  0  0  0  0  0  0  # atno 8010 bound_to 7997
  139.5554  144.6844  151.4198 H   0  0  0  0  0  0  0  0  0  0  0  0  # atno 10167 bound_to 10162
  156.1767  130.4150  149.9566 H   0  0  0  0  0  0  0  0  0  0  0  0  # atno 10718 bound_to 10713
  153.3360  135.6978  153.6907 H   0  0  0  0  0  0  0  0  0  0  0  0  # atno 10763 bound_to 10752
  153.5691  135.3520  155.2831 H   0  0  0  0  0  0  0  0  0  0  0  0  # atno 10764 bound_to 10752
  154.8627  135.4268  154.2561 H   0  0  0  0  0  0  0  0  0  0  0  0  # atno 10765 bound_to 10752
  140.8701  133.7726  156.0177 H   0  0  0  0  0  0  0  0  0  0  0  0  # atno 11005 bound_to 11000
  144.9737  140.8393  143.5439 LP  0  0  0  0  0  0  0  0  0  0  0  0  # atno 17320 bound_to 7965
  145.2054  139.2231  143.5171 LP  0  0  0  0  0  0  0  0  0  0  0  0  # atno 17321 bound_to 7965
  140.6826  143.8048  150.7141 LP  0  0  0  0  0  0  0  0  0  0  0  0  # atno 17342 bound_to 10162
  140.1506  143.4361  152.2134 LP  0  0  0  0  0  0  0  0  0  0  0  0  # atno 17343 bound_to 10162
  156.7350  130.9057  151.3628 LP  0  0  0  0  0  0  0  0  0  0  0  0  # atno 17370 bound_to 10713
  157.6840  130.9168  150.0340 LP  0  0  0  0  0  0  0  0  0  0  0  0  # atno 17371 bound_to 10713
  140.8583  134.2871  157.5246 LP  0  0  0  0  0  0  0  0  0  0  0  0  # atno 17394 bound_to 11000
  139.8711  134.9504  156.4055 LP  0  0  0  0  0  0  0  0  0  0  0  0  # atno 17395 bound_to 11000

$$$$
