#       Name:                AV-unprocessed.smi:1432
#       Creating user name   scv26
#       Creation time:       Fri Mar 27 05:49:36 2020


#       File generated by GOLD software.
#

@<TRIPOS>MOLECULE
AV-unprocessed.smi:1432
    51    52     1
SMALL
NO_CHARGES


@<TRIPOS>ATOM
      1 ****        -0.3095   3.5014  -0.9210 C.3            1 S1                 0.0000
      2 ****        -1.0421   2.3465  -1.6359 C.3            1 S1                 0.0000
      3 ****        -0.0389   1.6398  -2.5776 C.3            1 S1                 0.0000
      4 ****        -0.6648   0.4534  -3.3164 C.3            1 S1                 0.0000
      5 ****        -1.2782  -0.5123  -2.3022 C.3            1 S1                 0.0000
      6 ****        -2.2926   0.2258  -1.4201 C.3            1 S1                 0.0000
      7 ****        -1.6610   1.3611  -0.6903 N.4            1 S1                 1.0000
      8 ****        -2.5998   1.9458   0.3120 C.3            1 S1                 0.0000
      9 ****        -2.7791   1.0657   1.5686 C.3            1 S1                 0.0000
     10 ****        -1.4973   0.7319   2.1850 N.am           1 S1                 0.0000
     11 ****        -0.8165  -0.4087   1.9953 C.2            1 S1                 0.0000
     12 ****        -1.2439  -1.3491   1.3258 O.2            1 S1                 0.0000
     13 ****         0.5671  -0.4934   2.6511 C.3            1 S1                 0.0000
     14 ****         1.5677  -1.1051   1.7599 N.am           1 S1                 0.0000
     15 ****         1.9412  -2.4376   2.0239 C.2            1 S1                 0.0000
     16 ****         2.8282  -3.1131   1.2678 C.2            1 S1                 0.0000
     17 ****         3.2520  -4.5349   1.6023 C.3            1 S1                 0.0000
     18 ****         4.5197  -4.7504   1.2502 F              1 S1                 0.0000
     19 ****         3.1318  -4.7825   2.9072 F              1 S1                 0.0000
     20 ****         2.4857  -5.4020   0.9424 F              1 S1                 0.0000
     21 ****         3.4228  -2.3849   0.1645 C.2            1 S1                 0.0000
     22 ****         3.0811  -1.1085  -0.0990 C.2            1 S1                 0.0000
     23 ****         2.0972  -0.3955   0.7178 C.2            1 S1                 0.0000
     24 ****         1.7648   0.7662   0.4793 O.2            1 S1                 0.0000
     25 ****         0.2853   4.0804  -1.6280 H              1 S1                 0.0000
     26 ****         0.3688   3.1299  -0.1525 H              1 S1                 0.0000
     27 ****        -0.9957   4.2105  -0.4600 H              1 S1                 0.0000
     28 ****        -1.8399   2.7751  -2.2449 H              1 S1                 0.0000
     29 ****         0.3518   2.3493  -3.3081 H              1 S1                 0.0000
     30 ****         0.8207   1.2895  -2.0050 H              1 S1                 0.0000
     31 ****        -1.4325   0.8075  -4.0058 H              1 S1                 0.0000
     32 ****         0.0875  -0.0573  -3.9185 H              1 S1                 0.0000
     33 ****        -1.7647  -1.3390  -2.8210 H              1 S1                 0.0000
     34 ****        -0.4956  -0.9504  -1.6804 H              1 S1                 0.0000
     35 ****        -3.1157   0.6001  -2.0309 H              1 S1                 0.0000
     36 ****        -2.7281  -0.4873  -0.7223 H              1 S1                 0.0000
     37 ****        -2.2394   2.9053   0.6725 H              1 S1                 0.0000
     38 ****        -3.5645   2.1477  -0.1556 H              1 S1                 0.0000
     39 ****        -3.3726   1.6086   2.3044 H              1 S1                 0.0000
     40 ****        -3.3500   0.1647   1.3413 H              1 S1                 0.0000
     41 ****        -1.0750   1.4413   2.7671 H              1 S1                 0.0000
     42 ****         0.9021   0.5016   2.9517 H              1 S1                 0.0000
     43 ****         0.4684  -1.0575   3.5795 H              1 S1                 0.0000
     44 ****         1.4551  -2.8806   2.8811 H              1 S1                 0.0000
     45 ****         4.1517  -2.8735  -0.4653 H              1 S1                 0.0000
     46 ****         3.5423  -0.5982  -0.9317 H              1 S1                 0.0000
     47 ****        -0.8944   0.9734  -0.1583 H              1 S1                 0.0000
     48 ****        -2.1418  -1.2854   0.8902 LP             1 S1                 0.0000
     49 ****        -0.6933  -2.1768   1.2175 LP             1 S1                 0.0000
     50 ****         1.0866   1.2208   1.0567 LP             1 S1                 0.0000
     51 ****         2.1731   1.2548  -0.2918 LP             1 S1                 0.0000
@<TRIPOS>BOND
    1    1    2 1     
    2    1   25 1     
    3    1   26 1     
    4    1   27 1     
    5    2    7 1     
    6    2    3 1     
    7    2   28 1     
    8    3    4 1     
    9    3   29 1     
   10    3   30 1     
   11    4    5 1     
   12    4   31 1     
   13    4   32 1     
   14    5    6 1     
   15    5   33 1     
   16    5   34 1     
   17    6    7 1     
   18    6   35 1     
   19    6   36 1     
   20    7    8 1     
   21    7   47 1     
   22    8    9 1     
   23    8   37 1     
   24    8   38 1     
   25    9   10 1     
   26    9   39 1     
   27    9   40 1     
   28   10   11 am    
   29   10   41 1     
   30   11   12 2     
   31   11   13 1     
   32   13   14 1     
   33   13   42 1     
   34   13   43 1     
   35   14   23 am    
   36   14   15 1     
   37   15   16 2     
   38   15   44 1     
   39   16   17 1     
   40   16   21 1     
   41   17   18 1     
   42   17   19 1     
   43   17   20 1     
   44   21   22 2     
   45   21   45 1     
   46   22   23 1     
   47   22   46 1     
   48   23   24 2     
   49   12   48 1     
   50   12   49 1     
   51   24   50 1     
   52   24   51 1     
@<TRIPOS>SUBSTRUCTURE
      1 S1             1
@<TRIPOS>SET
LONE_PAIRS      STATIC     ATOMS    <user>   **** ""
4 48 49 50 51
DONOR_HYDROGENS      STATIC     ATOMS    <user>   **** ""
2 47 41
ATOM$BLUE        STATIC     ATOMS    COLORGROUP SYSTEM
4 48 49 50 51
ATOM$RED        STATIC     ATOMS    COLORGROUP SYSTEM
2 47 41
