#       Name:                AV-unprocessed.smi:3167
#       Creating user name   scv26
#       Creation time:       Fri Mar 27 17:53:17 2020


#       File generated by GOLD software.
#

@<TRIPOS>MOLECULE
AV-unprocessed.smi:3167
    40    41     1
SMALL
NO_CHARGES


@<TRIPOS>ATOM
      1 ****        -1.6728   1.5028  -0.3764 C.3            1 S1                 0.0000
      2 ****        -0.8704   0.2585  -0.8189 C.3            1 S1                 0.0000
      3 ****         0.6150   0.6255  -1.0752 C.3            1 S1                 0.0000
      4 ****         1.2716   1.1990   0.0957 N.am           1 S1                 0.0000
      5 ****         1.6669   0.4999   1.1692 C.2            1 S1                 0.0000
      6 ****         1.5122  -0.7165   1.2794 O.2            1 S1                 0.0000
      7 ****         2.2414   1.2938   2.0868 N.am           1 S1                 0.0000
      8 ****         2.7508   0.9110   3.3527 C.2            1 S1                 0.0000
      9 ****         2.7561  -0.3728   3.9732 C.2            1 S1                 0.0000
     10 ****         3.3238  -0.3246   5.1701 N.2            1 S1                 0.0000
     11 ****         3.6791   0.9712   5.3194 N.pl3          1 S1                 0.0000
     12 ****         3.3486   1.7575   4.2378 C.2            1 S1                 0.0000
     13 ****        -1.4717  -0.3756  -2.0277 N.4            1 S1                 1.0000
     14 ****        -0.8122  -1.6293  -2.4753 C.3            1 S1                 0.0000
     15 ****        -1.9151  -2.5769  -2.9669 C.3            1 S1                 0.0000
     16 ****        -3.1726  -1.7177  -3.0232 C.3            1 S1                 0.0000
     17 ****        -2.9198  -0.6679  -1.9475 C.3            1 S1                 0.0000
     18 ****         4.1411   1.2990   6.1558 H              1 S1                 0.0000
     19 ****        -1.2333   1.9726   0.5035 H              1 S1                 0.0000
     20 ****        -2.6984   1.2537  -0.1048 H              1 S1                 0.0000
     21 ****        -1.7082   2.2528  -1.1671 H              1 S1                 0.0000
     22 ****        -0.9191  -0.4733  -0.0108 H              1 S1                 0.0000
     23 ****         1.1927  -0.2413  -1.3986 H              1 S1                 0.0000
     24 ****         0.6815   1.3522  -1.8854 H              1 S1                 0.0000
     25 ****         1.4387   2.1950   0.0859 H              1 S1                 0.0000
     26 ****         2.3185   2.2743   1.8599 H              1 S1                 0.0000
     27 ****         2.3785  -1.3184   3.6140 H              1 S1                 0.0000
     28 ****         3.5621   2.8154   4.1961 H              1 S1                 0.0000
     29 ****        -0.1039  -1.3981  -3.2716 H              1 S1                 0.0000
     30 ****        -0.2568  -2.1046  -1.6650 H              1 S1                 0.0000
     31 ****        -1.6795  -3.0311  -3.9299 H              1 S1                 0.0000
     32 ****        -2.0535  -3.3837  -2.2456 H              1 S1                 0.0000
     33 ****        -3.2509  -1.2372  -3.9994 H              1 S1                 0.0000
     34 ****        -4.0857  -2.2890  -2.8534 H              1 S1                 0.0000
     35 ****        -3.1594  -1.0822  -0.9665 H              1 S1                 0.0000
     36 ****        -3.5265   0.2252  -2.1004 H              1 S1                 0.0000
     37 ****        -1.3679   0.2797  -2.7891 H              1 S1                 0.0000
     38 ****         1.0720  -1.2331   0.5450 LP             1 S1                 0.0000
     39 ****         1.8267  -1.1879   2.1033 LP             1 S1                 0.0000
     40 ****         3.4586  -1.0761   5.8159 LP             1 S1                 0.0000
@<TRIPOS>BOND
    1    1    2 1     
    2    1   19 1     
    3    1   20 1     
    4    1   21 1     
    5    2    3 1     
    6    2   13 1     
    7    2   22 1     
    8    3    4 1     
    9    3   23 1     
   10    3   24 1     
   11    4    5 am    
   12    4   25 1     
   13    5    6 2     
   14    5    7 am    
   15    7    8 1     
   16    7   26 1     
   17    8   12 2     
   18    8    9 1     
   19    9   10 2     
   20    9   27 1     
   21   10   11 1     
   22   11   18 1     
   23   11   12 1     
   24   12   28 1     
   25   13   17 1     
   26   13   14 1     
   27   13   37 1     
   28   14   15 1     
   29   14   29 1     
   30   14   30 1     
   31   15   16 1     
   32   15   31 1     
   33   15   32 1     
   34   16   17 1     
   35   16   33 1     
   36   16   34 1     
   37   17   35 1     
   38   17   36 1     
   39    6   38 1     
   40    6   39 1     
   41   10   40 1     
@<TRIPOS>SUBSTRUCTURE
      1 S1             1
@<TRIPOS>SET
LONE_PAIRS      STATIC     ATOMS    <user>   **** ""
3 38 39 40
DONOR_HYDROGENS      STATIC     ATOMS    <user>   **** ""
4 25 26 18 37
ATOM$BLUE        STATIC     ATOMS    COLORGROUP SYSTEM
3 38 39 40
ATOM$RED        STATIC     ATOMS    COLORGROUP SYSTEM
4 25 26 18 37
