AV-unprocessed.smi:1433|AV-procd|sdf|5845|dock3
  -GOLD-   22720 5513D 1   1.00000     0.00000
 Structure written by MMmdl.
 45 46  0  0  0  0  0  0  0  0  2 V2000
  145.6435  131.9693  150.8498 C   0  0  0  0  0  0  0  0  0  0  0  0
  146.0881  133.1228  151.7561 C   0  0  2  0  0  0  0  0  0  0  0  0
  147.4418  132.8388  152.4358 C   0  0  0  0  0  0  0  0  0  0  0  0
  147.8124  133.9369  153.3702 N   0  3  2  0  0  0  0  0  0  0  0  0
  149.1405  133.7996  154.0541 C   0  0  2  0  0  0  0  0  0  0  0  0
  149.2698  132.3858  154.6662 C   0  0  0  0  0  0  0  0  0  0  0  0
  149.4112  134.8925  155.1253 C   0  0  0  0  0  0  0  0  0  0  0  0
  149.7694  136.1787  154.5339 N   0  0  0  0  0  0  0  0  0  0  0  0
  150.6248  137.0696  155.0614 C   0  0  0  0  0  0  0  0  0  0  0  0
  151.1750  136.9190  156.1518 O   0  0  0  0  0  0  0  0  0  0  0  0
  150.9174  138.3158  154.2234 C   0  0  0  0  0  0  0  0  0  0  0  0
  150.6821  139.5321  154.9831 N   0  0  0  0  0  0  0  0  0  0  0  0
  151.0726  139.8267  156.2729 C   0  0  0  0  0  0  0  0  0  0  0  0
  150.6164  141.0813  156.5597 C   0  0  0  0  0  0  0  0  0  0  0  0
  149.9516  141.4804  155.3669 C   0  0  0  0  0  0  0  0  0  0  0  0
  149.9920  140.5516  154.4257 N   0  0  0  0  0  0  0  0  0  0  0  0
  146.6983  134.1644  154.3302 C   0  0  0  0  0  0  0  0  0  0  0  0
  145.3731  134.4235  153.5907 C   0  0  2  0  0  0  0  0  0  0  0  0
  144.1964  134.5997  154.5568 C   0  0  0  0  0  0  0  0  0  0  0  0
  145.0915  133.3117  152.7514 O   0  0  0  0  0  0  0  0  0  0  0  0
  146.3702  131.7897  150.0571 H   0  0  0  0  0  0  0  0  0  0  0  0
  144.6860  132.1909  150.3778 H   0  0  0  0  0  0  0  0  0  0  0  0
  145.5292  131.0440  151.4151 H   0  0  0  0  0  0  0  0  0  0  0  0
  146.1650  134.0271  151.1497 H   0  0  0  0  0  0  0  0  0  0  0  0
  147.4027  131.8938  152.9804 H   0  0  0  0  0  0  0  0  0  0  0  0
  148.1866  132.7345  151.6475 H   0  0  0  0  0  0  0  0  0  0  0  0
  149.9145  133.9110  153.2928 H   0  0  0  0  0  0  0  0  0  0  0  0
  150.2633  132.2132  155.0798 H   0  0  0  0  0  0  0  0  0  0  0  0
  149.1106  131.5940  153.9369 H   0  0  0  0  0  0  0  0  0  0  0  0
  148.5485  132.2407  155.4710 H   0  0  0  0  0  0  0  0  0  0  0  0
  148.5138  135.0827  155.7138 H   0  0  0  0  0  0  0  0  0  0  0  0
  150.1785  134.5571  155.8253 H   0  0  0  0  0  0  0  0  0  0  0  0
  149.3634  136.3941  153.6347 H   0  0  0  0  0  0  0  0  0  0  0  0
  151.9554  138.2995  153.8884 H   0  0  0  0  0  0  0  0  0  0  0  0
  150.2906  138.3271  153.3305 H   0  0  0  0  0  0  0  0  0  0  0  0
  151.6349  139.1263  156.8727 H   0  0  0  0  0  0  0  0  0  0  0  0
  150.7402  141.6317  157.4804 H   0  0  0  0  0  0  0  0  0  0  0  0
  149.4440  142.4107  155.1585 H   0  0  0  0  0  0  0  0  0  0  0  0
  146.5967  133.2927  154.9790 H   0  0  0  0  0  0  0  0  0  0  0  0
  146.9085  135.0136  154.9778 H   0  0  0  0  0  0  0  0  0  0  0  0
  145.4595  135.3253  152.9819 H   0  0  0  0  0  0  0  0  0  0  0  0
  144.3567  135.4498  155.2205 H   0  0  0  0  0  0  0  0  0  0  0  0
  144.0564  133.7131  155.1760 H   0  0  0  0  0  0  0  0  0  0  0  0
  143.2680  134.7747  154.0124 H   0  0  0  0  0  0  0  0  0  0  0  0
  147.8802  134.7668  152.7982 H   0  0  0  0  0  0  0  0  0  0  0  0
  1  2  1  0  0  0  0
  1 21  1  0  0  0  0
  1 22  1  0  0  0  0
  1 23  1  0  0  0  0
  2 20  1  0  0  0  0
  2  3  1  0  0  0  0
  2 24  1  0  0  0  0
  3  4  1  0  0  0  0
  3 25  1  0  0  0  0
  3 26  1  0  0  0  0
  4  5  1  0  0  0  0
  4 17  1  0  0  0  0
  4 45  1  0  0  0  0
  5  6  1  0  0  0  0
  5  7  1  0  0  0  0
  5 27  1  0  0  0  0
  6 28  1  0  0  0  0
  6 29  1  0  0  0  0
  6 30  1  0  0  0  0
  7  8  1  0  0  0  0
  7 31  1  0  0  0  0
  7 32  1  0  0  0  0
  8  9  1  0  0  0  0
  8 33  1  0  0  0  0
  9 10  2  0  0  0  0
  9 11  1  0  0  0  0
 11 12  1  0  0  0  0
 11 34  1  0  0  0  0
 11 35  1  0  0  0  0
 12 16  1  0  0  0  0
 12 13  1  0  0  0  0
 13 14  2  0  0  0  0
 13 36  1  0  0  0  0
 14 15  1  0  0  0  0
 14 37  1  0  0  0  0
 15 16  2  0  0  0  0
 15 38  1  0  0  0  0
 17 18  1  0  0  0  0
 17 39  1  0  0  0  0
 17 40  1  0  0  0  0
 18 19  1  0  0  0  0
 18 20  1  0  0  0  0
 18 41  1  0  0  0  0
 19 42  1  0  0  0  0
 19 43  1  0  0  0  0
 19 44  1  0  0  0  0
M  CHG  1   4   1
M  END
> <s_m_source_file>
AV-unprocessed.smi

> <i_m_source_file_index>
1433

> <i_lp_mmshare_version>
43012

> <i_f3d_flags>
0

> <s_epik_input>
W0NIM11bQ0BASF0xW0NIMl1OKFtDSDJdW0NASF0oTzEpW0NIM10pW0NASF0oW0NIM10pW0NIMl1bTkhdQyg9TylbQ0gyXW4yW2NIXVtjSF1bY0hdbjI=

> <s_epik_cmdline>
J2VwaWtfcHl0aG9uJywgJy1waCcsICc3LjAnLCAnLXRuJywgJzgnLCAnLW1hJywgJzIwMCcsICctbWV0YWxfYmluZGluZycsICctaW1hZScsICc8aW5maWxlLm1hZT4nLCAnLW9tYWUnLCAnPG91dGZpbGUubWFlPic=

> <r_lp_tautomer_probability>
1

> <r_epik_Ionization_Penalty>
0.748405

> <r_epik_Ionization_Penalty_Charging>
0.748396

> <r_epik_Ionization_Penalty_Neutral>
8.54426e-06

> <r_epik_State_Penalty>
0.775162

> <r_epik_Charging_Adjusted_Penalty>
1.52356

> <i_epik_Tot_Q>
1

> <i_epik_Tot_abs_Q>
1

> <r_epik_Metal_State_Penalty>
0.775167

> <b_epik_Metal_Only>
0

> <s_lp_Force_Field>
OPLS_2005

> <r_lp_Energy>
19.9081

> <b_lp_Chiralities_Consistent>
1

> <s_lp_Variant>
AV-unprocessed.smi:1433-11

> <Gold.Version>
5.8.1

> <Gold.Id.Protein>
6NUR|6NUR_protein|mol2

> <Gold.PLP.Fitness>
49.2077

> <Gold.PLP.PLP>
-35.1979

> <Gold.PLP.part.hbond>
-4.8476

> <Gold.PLP.part.metal>
0.0000

> <Gold.PLP.part.buried>
-1.4315

> <Gold.PLP.part.nonpolar>
-27.6851

> <Gold.PLP.part.repulsive>
0.2737

> <Gold.PLP.ligand.clash>
0.0000

> <Gold.PLP.ligand.torsion>
0.7082

> <Gold.PLP.Chemscore.Hbond>
4.9000

> <Gold.PLP.Chemscore.CHOScore>
0.2211

> <Gold.PLP.Chemscore.Metal>
0.0000

> <Gold.Chemscore.Hbonds>
donor molecule, donor type, donor heavy atom, donor atom, acceptor molecule, acceptor atom, score
      L1  H     4    45       P1  7948  2.00
      L1  H     8    33       P1  7948  1.00
      P1  H  7989  7998       L1    16  0.20
      L1  C    15    38       P1  8028  1.00

> <Gold.PLP.Chemscore.Internal.Correction>
0.0630

> <Gold.Rescore>
     Score         DG    S(hbond)    S(metal)    S(lipo)     H(rot)  DE(clash)    DE(int)     intcor
     13.86     -15.98       2.38        0.00      62.48       1.87       0.29       1.83       ----

> <Gold.Chemscore.Fitness>
13.8570

> <Gold.Chemscore.DG>
-15.9770

> <Gold.Chemscore.ZeroCoef>
-5.4800

> <Gold.Chemscore.Hbond>
2.3841

> <Gold.Chemscore.Metal>
0.0000

> <Gold.Chemscore.Lipo>
62.4800

> <Gold.Chemscore.Internal_Hbond>
0.0000

> <Gold.Chemscore.DEClash>
0.2946

> <Gold.Chemscore.DEInternal>
1.8254

> <Gold.Chemscore.Rot>
1.8657

> <Gold.Chemscore.Internal.Correction>
   9.000000E+99

> <Gold.Chemscore.Hbonds>
donor molecule, donor type, donor heavy atom, donor atom, acceptor molecule, acceptor atom, score
      L1  H     4    45       P1  7948  0.80
      L1  H     8    33       P1  7948  0.85

> <Gold.Chemscore.Hbond.Weighted>
-7.9630

> <Gold.Chemscore.Metal.Weighted>
-0.0000

> <Gold.Chemscore.Lipo.Weighted>
-7.3102

> <Gold.Chemscore.Internal_Hbond.Weighted>
0.0000

> <Gold.Chemscore.DEClash.Weighted>
0.2946

> <Gold.Chemscore.DEInternal.Weighted>
1.8254

> <Gold.Chemscore.Rot.Weighted>
4.7761

> <Gold.Chemscore.Internal.Correction.Weighted>
   9.000000E+99

> <Gold.Protein.RotatedTorsions>
[ 6907 6896 6895 6894 ] final  -56.19 input  -60.11 | X-H torsion
[ 7974 7965 7964 7962 ] final  179.90 input  175.53 | X-H torsion
[ 8008 7997 7996 7995 ] final  123.61 input   59.86 | X-H torsion
[ 10167 10162 10161 10158 ] final -167.65 input  -65.29 | X-H torsion
[ 10718 10713 10712 10709 ] final -169.19 input   66.30 | X-H torsion
[ 10763 10752 10751 10750 ] final  -20.05 input  -60.55 | X-H torsion
[ 11005 11000 10999 10996 ] final -142.57 input  -57.11 | X-H torsion

> <Gold.Protein.ActiveResidues>
 VAL166  LYS551  ARG553  GLY616  TRP617  ASP618  TYR619  PRO620  LYS621  CYS622 
 ASP623  PHE694  ASN695  SER759  ASP760  ASP761  ALA762  ILE779  LEU786  VAL792 
 PHE793  MET794  SER795  GLU796  ALA797  LYS798  CYS799  TRP800  GLU811  SER814 

> <Gold.Protein.RotatedAtoms>
  150.8188  134.7384  159.6753 H   0  0  0  0  0  0  0  0  0  0  0  0  # atno 6907 bound_to 6896
  152.4305  134.5783  159.9950 H   0  0  0  0  0  0  0  0  0  0  0  0  # atno 6908 bound_to 6896
  151.5973  133.3322  159.3076 H   0  0  0  0  0  0  0  0  0  0  0  0  # atno 6909 bound_to 6896
  144.7141  140.0617  143.6432 H   0  0  0  0  0  0  0  0  0  0  0  0  # atno 7974 bound_to 7965
  156.2772  140.2759  156.1656 H   0  0  0  0  0  0  0  0  0  0  0  0  # atno 8008 bound_to 7997
  155.0708  140.0387  157.2626 H   0  0  0  0  0  0  0  0  0  0  0  0  # atno 8009 bound_to 7997
  154.7041  140.2655  155.6697 H   0  0  0  0  0  0  0  0  0  0  0  0  # atno 8010 bound_to 7997
  139.6036  144.0960  152.1769 H   0  0  0  0  0  0  0  0  0  0  0  0  # atno 10167 bound_to 10162
  156.7079  130.9222  151.3086 H   0  0  0  0  0  0  0  0  0  0  0  0  # atno 10718 bound_to 10713
  153.6144  135.6995  153.5334 H   0  0  0  0  0  0  0  0  0  0  0  0  # atno 10763 bound_to 10752
  153.2990  135.4134  155.1235 H   0  0  0  0  0  0  0  0  0  0  0  0  # atno 10764 bound_to 10752
  154.8556  135.3644  154.5683 H   0  0  0  0  0  0  0  0  0  0  0  0  # atno 10765 bound_to 10752
  140.8212  134.2629  157.4899 H   0  0  0  0  0  0  0  0  0  0  0  0  # atno 11005 bound_to 11000
  145.9858  139.2976  143.1014 LP  0  0  0  0  0  0  0  0  0  0  0  0  # atno 17320 bound_to 7965
  145.8959  140.9274  143.0528 LP  0  0  0  0  0  0  0  0  0  0  0  0  # atno 17321 bound_to 7965
  140.0562  144.5893  150.7298 LP  0  0  0  0  0  0  0  0  0  0  0  0  # atno 17342 bound_to 10162
  140.7268  143.2645  151.4092 LP  0  0  0  0  0  0  0  0  0  0  0  0  # atno 17343 bound_to 10162
  157.6948  130.9270  150.0613 LP  0  0  0  0  0  0  0  0  0  0  0  0  # atno 17370 bound_to 10713
  156.1682  130.3645  149.9202 LP  0  0  0  0  0  0  0  0  0  0  0  0  # atno 17371 bound_to 10713
  139.8708  134.9536  156.4151 LP  0  0  0  0  0  0  0  0  0  0  0  0  # atno 17394 bound_to 11000
  140.9097  133.7721  155.9777 LP  0  0  0  0  0  0  0  0  0  0  0  0  # atno 17395 bound_to 11000

$$$$
