AV-unprocessed.smi:1202|AV-procd|sdf|5028|dock1
  -GOLD-   22720 4 53D 1   1.00000     0.00000
 Structure written by MMmdl.
 44 45  0  0  0  0  0  0  0  0  1 V2000
  148.5261  134.0827  154.8693 C   0  0  0  0  0  0  0  0  0  0  0  0
  148.3188  135.4615  154.4547 N   0  0  0  0  0  0  0  0  0  0  0  0
  147.9106  136.4416  155.2738 C   0  0  0  0  0  0  0  0  0  0  0  0
  147.6682  136.2673  156.4682 O   0  0  0  0  0  0  0  0  0  0  0  0
  147.7583  137.8367  154.6550 C   0  0  0  0  0  0  0  0  0  0  0  0
  148.6353  138.8720  155.2488 N   0  0  0  0  0  0  0  0  0  0  0  0
  148.0847  139.2841  156.5452 C   0  0  0  0  0  0  0  0  0  0  0  0
  149.0396  140.2577  157.2577 C   0  0  0  0  0  0  0  0  0  0  0  0
  149.2997  141.4952  156.3819 C   0  0  0  0  0  0  0  0  0  0  0  0
  150.1848  142.4740  157.0172 N   0  0  0  0  0  0  0  0  0  0  0  0
  151.3873  142.2557  157.5761 C   0  0  0  0  0  0  0  0  0  0  0  0
  151.9193  141.1470  157.6419 O   0  0  0  0  0  0  0  0  0  0  0  0
  152.0796  143.4914  158.1688 C   0  0  0  0  0  0  0  0  0  0  0  0
  152.4988  143.3096  159.5687 N   0  0  0  0  0  0  0  0  0  0  0  0
  153.2552  142.1588  159.8680 C   0  0  0  0  0  0  0  0  0  0  0  0
  153.6897  141.8984  161.1113 C   0  0  0  0  0  0  0  0  0  0  0  0
  153.3618  142.8357  162.1592 C   0  0  0  0  0  0  0  0  0  0  0  0
  152.6421  143.9415  161.8831 C   0  0  0  0  0  0  0  0  0  0  0  0
  152.1679  144.2317  160.5250 C   0  0  0  0  0  0  0  0  0  0  0  0
  151.5126  145.2410  160.2635 O   0  0  0  0  0  0  0  0  0  0  0  0
  149.7905  141.0477  154.9943 C   0  0  0  0  0  0  0  0  0  0  0  0
  148.8110  140.0382  154.3687 C   0  0  0  0  0  0  0  0  0  0  0  0
  148.8900  133.4919  154.0286 H   0  0  0  0  0  0  0  0  0  0  0  0
  147.5935  133.6392  155.2203 H   0  0  0  0  0  0  0  0  0  0  0  0
  149.2630  134.0244  155.6712 H   0  0  0  0  0  0  0  0  0  0  0  0
  148.4983  135.6862  153.4867 H   0  0  0  0  0  0  0  0  0  0  0  0
  147.9300  137.7841  153.5779 H   0  0  0  0  0  0  0  0  0  0  0  0
  146.7151  138.1281  154.7868 H   0  0  0  0  0  0  0  0  0  0  0  0
  147.1043  139.7452  156.4120 H   0  0  0  0  0  0  0  0  0  0  0  0
  147.9393  138.4093  157.1804 H   0  0  0  0  0  0  0  0  0  0  0  0
  148.6128  140.5594  158.2148 H   0  0  0  0  0  0  0  0  0  0  0  0
  149.9717  139.7388  157.4835 H   0  0  0  0  0  0  0  0  0  0  0  0
  148.3477  142.0102  156.2458 H   0  0  0  0  0  0  0  0  0  0  0  0
  149.8463  143.4253  157.0277 H   0  0  0  0  0  0  0  0  0  0  0  0
  152.9408  143.7566  157.5524 H   0  0  0  0  0  0  0  0  0  0  0  0
  151.3955  144.3366  158.0815 H   0  0  0  0  0  0  0  0  0  0  0  0
  153.4634  141.5128  159.0275 H   0  0  0  0  0  0  0  0  0  0  0  0
  154.2722  141.0134  161.3210 H   0  0  0  0  0  0  0  0  0  0  0  0
  153.6960  142.6500  163.1693 H   0  0  0  0  0  0  0  0  0  0  0  0
  152.4071  144.6317  162.6801 H   0  0  0  0  0  0  0  0  0  0  0  0
  149.8966  141.9127  154.3386 H   0  0  0  0  0  0  0  0  0  0  0  0
  150.7768  140.5873  155.0610 H   0  0  0  0  0  0  0  0  0  0  0  0
  149.2115  139.7398  153.4000 H   0  0  0  0  0  0  0  0  0  0  0  0
  147.8469  140.5130  154.1784 H   0  0  0  0  0  0  0  0  0  0  0  0
  1  2  1  0  0  0  0
  1 23  1  0  0  0  0
  1 24  1  0  0  0  0
  1 25  1  0  0  0  0
  2  3  1  0  0  0  0
  2 26  1  0  0  0  0
  3  4  2  0  0  0  0
  3  5  1  0  0  0  0
  5  6  1  0  0  0  0
  5 27  1  0  0  0  0
  5 28  1  0  0  0  0
  6 22  1  0  0  0  0
  6  7  1  0  0  0  0
  7  8  1  0  0  0  0
  7 29  1  0  0  0  0
  7 30  1  0  0  0  0
  8  9  1  0  0  0  0
  8 31  1  0  0  0  0
  8 32  1  0  0  0  0
  9 10  1  0  0  0  0
  9 21  1  0  0  0  0
  9 33  1  0  0  0  0
 10 11  1  0  0  0  0
 10 34  1  0  0  0  0
 11 12  2  0  0  0  0
 11 13  1  0  0  0  0
 13 14  1  0  0  0  0
 13 35  1  0  0  0  0
 13 36  1  0  0  0  0
 14 19  1  0  0  0  0
 14 15  1  0  0  0  0
 15 16  2  0  0  0  0
 15 37  1  0  0  0  0
 16 17  1  0  0  0  0
 16 38  1  0  0  0  0
 17 18  2  0  0  0  0
 17 39  1  0  0  0  0
 18 19  1  0  0  0  0
 18 40  1  0  0  0  0
 19 20  2  0  0  0  0
 21 22  1  0  0  0  0
 21 41  1  0  0  0  0
 21 42  1  0  0  0  0
 22 43  1  0  0  0  0
 22 44  1  0  0  0  0
M  END
> <s_m_source_file>
AV-unprocessed.smi

> <i_m_source_file_index>
1202

> <i_lp_mmshare_version>
43012

> <i_f3d_flags>
0

> <s_epik_input>
W0NIM11bTkhdQyg9TylbQ0gyXU4xW0NIMl1bQ0gyXVtDSF0oW0NIMl1bQ0gyXTEpW05IXUMoPU8pW0NIMl1uMltjSF1bY0hdW2NIXVtjSF1jMj1P

> <s_epik_cmdline>
J2VwaWtfcHl0aG9uJywgJy1waCcsICc3LjAnLCAnLXRuJywgJzgnLCAnLW1hJywgJzIwMCcsICctbWV0YWxfYmluZGluZycsICctaW1hZScsICc8aW5maWxlLm1hZT4nLCAnLW9tYWUnLCAnPG91dGZpbGUubWFlPic=

> <r_lp_tautomer_probability>
1

> <r_epik_Ionization_Penalty>
0.12485

> <r_epik_Ionization_Penalty_Charging>
3.59605e-07

> <r_epik_Ionization_Penalty_Neutral>
0.12485

> <r_epik_State_Penalty>
0.114323

> <r_epik_Charging_Adjusted_Penalty>
0.114323

> <i_epik_Tot_Q>
0

> <i_epik_Tot_abs_Q>
0

> <r_epik_Metal_State_Penalty>
0.117995

> <b_epik_Metal_Only>
0

> <s_lp_Force_Field>
OPLS_2005

> <r_lp_Energy>
24.2751

> <b_lp_Chiralities_Consistent>
1

> <s_lp_Variant>
AV-unprocessed.smi:1202-1

> <Gold.Version>
5.8.1

> <Gold.Id.Protein>
6NUR|6NUR_protein|mol2

> <Gold.PLP.Fitness>
46.5772

> <Gold.PLP.PLP>
-42.2560

> <Gold.PLP.part.hbond>
-2.0000

> <Gold.PLP.part.metal>
0.0000

> <Gold.PLP.part.buried>
-4.1297

> <Gold.PLP.part.nonpolar>
-36.1452

> <Gold.PLP.part.repulsive>
0.3144

> <Gold.PLP.ligand.clash>
0.0000

> <Gold.PLP.ligand.torsion>
0.4173

> <Gold.PLP.Chemscore.Hbond>
1.6880

> <Gold.PLP.Chemscore.CHOScore>
0.0000

> <Gold.PLP.Chemscore.Metal>
0.0000

> <Gold.Chemscore.Hbonds>
donor molecule, donor type, donor heavy atom, donor atom, acceptor molecule, acceptor atom, score
      L1  H     2    26       P1  7948  1.00
      L1  H    10    34       P1  8028  0.60

> <Gold.PLP.Chemscore.Internal.Correction>
0.0917

> <Gold.Rescore>
     Score         DG    S(hbond)    S(metal)    S(lipo)     H(rot)  DE(clash)    DE(int)     intcor
     13.47     -16.05       1.71        0.00      89.31       2.19       0.20       2.37       ----

> <Gold.Chemscore.Fitness>
13.4734

> <Gold.Chemscore.DG>
-16.0464

> <Gold.Chemscore.ZeroCoef>
-5.4800

> <Gold.Chemscore.Hbond>
1.7119

> <Gold.Chemscore.Metal>
0.0000

> <Gold.Chemscore.Lipo>
89.3076

> <Gold.Chemscore.Internal_Hbond>
0.0000

> <Gold.Chemscore.DEClash>
0.1998

> <Gold.Chemscore.DEInternal>
2.3732

> <Gold.Chemscore.Rot>
2.1877

> <Gold.Chemscore.Internal.Correction>
   9.000000E+99

> <Gold.Chemscore.Hbonds>
donor molecule, donor type, donor heavy atom, donor atom, acceptor molecule, acceptor atom, score
      L1  H     2    26       P1  7948  1.00
      L1  H    10    34       P1  8028  0.59

> <Gold.Chemscore.Hbond.Weighted>
-5.7179

> <Gold.Chemscore.Metal.Weighted>
-0.0000

> <Gold.Chemscore.Lipo.Weighted>
-10.4490

> <Gold.Chemscore.Internal_Hbond.Weighted>
0.0000

> <Gold.Chemscore.DEClash.Weighted>
0.1998

> <Gold.Chemscore.DEInternal.Weighted>
2.3732

> <Gold.Chemscore.Rot.Weighted>
5.6005

> <Gold.Chemscore.Internal.Correction.Weighted>
   9.000000E+99

> <Gold.Protein.RotatedTorsions>
[ 6907 6896 6895 6894 ] final  157.33 input  -60.11 | X-H torsion
[ 7974 7965 7964 7962 ] final -135.43 input  175.53 | X-H torsion
[ 8008 7997 7996 7995 ] final    2.58 input   59.86 | X-H torsion
[ 10167 10162 10161 10158 ] final   51.35 input  -65.29 | X-H torsion
[ 10718 10713 10712 10709 ] final  -96.13 input   66.30 | X-H torsion
[ 10763 10752 10751 10750 ] final -119.92 input  -60.55 | X-H torsion
[ 11005 11000 10999 10996 ] final  124.75 input  -57.11 | X-H torsion

> <Gold.Protein.ActiveResidues>
 VAL166  LYS551  ARG553  GLY616  TRP617  ASP618  TYR619  PRO620  LYS621  CYS622 
 ASP623  PHE694  ASN695  SER759  ASP760  ASP761  ALA762  ILE779  LEU786  VAL792 
 PHE793  MET794  SER795  GLU796  ALA797  LYS798  CYS799  TRP800  GLU811  SER814 

> <Gold.Protein.RotatedAtoms>
  152.0167  133.3882  159.4241 H   0  0  0  0  0  0  0  0  0  0  0  0  # atno 6907 bound_to 6896
  150.6894  134.3671  159.4985 H   0  0  0  0  0  0  0  0  0  0  0  0  # atno 6908 bound_to 6896
  152.1439  134.9040  160.0603 H   0  0  0  0  0  0  0  0  0  0  0  0  # atno 6909 bound_to 6896
  144.9015  140.6777  143.5082 H   0  0  0  0  0  0  0  0  0  0  0  0  # atno 7974 bound_to 7965
  154.6933  140.2658  155.6791 H   0  0  0  0  0  0  0  0  0  0  0  0  # atno 8008 bound_to 7997
  156.2740  140.2786  156.1442 H   0  0  0  0  0  0  0  0  0  0  0  0  # atno 8009 bound_to 7997
  155.0866  140.0373  157.2645 H   0  0  0  0  0  0  0  0  0  0  0  0  # atno 8010 bound_to 7997
  140.2629  144.3353  150.6313 H   0  0  0  0  0  0  0  0  0  0  0  0  # atno 10167 bound_to 10162
  156.0056  130.5138  150.6179 H   0  0  0  0  0  0  0  0  0  0  0  0  # atno 10718 bound_to 10713
  154.8630  135.4221  154.2377 H   0  0  0  0  0  0  0  0  0  0  0  0  # atno 10763 bound_to 10752
  153.3349  135.6990  153.6922 H   0  0  0  0  0  0  0  0  0  0  0  0  # atno 10764 bound_to 10752
  153.5924  135.3552  155.2889 H   0  0  0  0  0  0  0  0  0  0  0  0  # atno 10765 bound_to 10752
  139.9373  134.9638  156.8455 H   0  0  0  0  0  0  0  0  0  0  0  0  # atno 11005 bound_to 11000
  145.3609  139.1682  143.4384 LP  0  0  0  0  0  0  0  0  0  0  0  0  # atno 17320 bound_to 7965
  146.3111  140.3671  142.8670 LP  0  0  0  0  0  0  0  0  0  0  0  0  # atno 17321 bound_to 7965
  140.5952  143.2167  151.7178 LP  0  0  0  0  0  0  0  0  0  0  0  0  # atno 17342 bound_to 10162
  139.5011  144.3879  152.0310 LP  0  0  0  0  0  0  0  0  0  0  0  0  # atno 17343 bound_to 10162
  157.4000  131.0808  151.1317 LP  0  0  0  0  0  0  0  0  0  0  0  0  # atno 17370 bound_to 10713
  157.1981  130.6382  149.5729 LP  0  0  0  0  0  0  0  0  0  0  0  0  # atno 17371 bound_to 10713
  140.6042  134.0143  155.7549 LP  0  0  0  0  0  0  0  0  0  0  0  0  # atno 17394 bound_to 11000
  141.0993  133.9794  157.3107 LP  0  0  0  0  0  0  0  0  0  0  0  0  # atno 17395 bound_to 11000

$$$$
