AV-unprocessed.smi:109|AV-procd|sdf|1061|dock3
  -GOLD-   2262018133D 1   1.00000     0.00000
 Structure written by MMmdl.
 58 61  0  0  0  0  0  0  0  0  1 V2000
  150.6563  136.4374  159.5977 O   0  0  0  0  0  0  0  0  0  0  0  0
  150.1080  137.1775  158.5284 C   0  0  0  0  0  0  0  0  0  0  0  0
  148.5884  137.3227  158.7204 C   0  0  0  0  0  0  0  0  0  0  0  0
  147.8287  135.9750  158.7726 C   0  0  2  0  0  0  0  0  0  0  0  0
  146.4150  136.2061  158.4651 N   0  0  0  0  0  0  0  0  0  0  0  0
  145.7336  135.4455  157.5789 C   0  0  0  0  0  0  0  0  0  0  0  0
  144.4654  135.0272  157.8267 N   0  0  0  0  0  0  0  0  0  0  0  0
  143.8206  134.2766  156.9290 C   0  0  0  0  0  0  0  0  0  0  0  0
  144.2516  133.8393  155.7441 N   0  0  0  0  0  0  0  0  0  0  0  0
  145.5266  134.2531  155.4903 C   0  0  0  0  0  0  0  0  0  0  0  0
  146.3273  135.0548  156.3508 C   0  0  0  0  0  0  0  0  0  0  0  0
  147.5668  135.2791  155.7662 N   0  0  0  0  0  0  0  0  0  0  0  0
  147.4996  134.6405  154.6289 C   0  0  0  0  0  0  0  0  0  0  0  0
  146.3068  133.9984  154.3806 N   0  0  0  0  0  0  0  0  0  0  0  0
  145.9443  133.1885  153.1792 C   0  0  1  0  0  0  0  0  0  0  0  0
  144.8188  133.7636  152.5969 O   0  0  0  0  0  0  0  0  0  0  0  0
  144.8509  133.6135  151.1757 C   0  0  1  0  0  0  0  0  0  0  0  0
  144.6575  134.9980  150.5339 C   0  0  0  0  0  0  0  0  0  0  0  0
  143.9482  134.8769  149.3194 O   0  0  0  0  0  0  0  0  0  0  0  0
  146.2273  132.9989  150.8529 C   0  0  2  0  0  0  0  0  0  0  0  0
  146.0519  131.6215  150.5631 O   0  0  0  0  0  0  0  0  0  0  0  0
  147.0422  133.2321  152.1223 C   0  0  2  0  0  0  0  0  0  0  0  0
  148.0398  132.2453  152.3066 O   0  0  0  0  0  0  0  0  0  0  0  0
  147.9480  135.2403  160.1386 C   0  0  0  0  0  0  0  0  0  0  0  0
  147.1707  133.9005  160.1822 C   0  0  0  0  0  0  0  0  0  0  0  0
  147.2605  133.2117  161.5539 C   0  0  0  0  0  0  0  0  0  0  0  0
  146.7766  134.1345  162.6786 C   0  0  0  0  0  0  0  0  0  0  0  0
  147.5594  135.4527  162.6679 C   0  0  0  0  0  0  0  0  0  0  0  0
  147.4607  136.1448  161.2996 C   0  0  0  0  0  0  0  0  0  0  0  0
  145.7169  132.1849  153.5423 H   0  0  0  0  0  0  0  0  0  0  0  0
  144.0473  132.9469  150.8569 H   0  0  0  0  0  0  0  0  0  0  0  0
  146.7028  133.4608  149.9870 H   0  0  0  0  0  0  0  0  0  0  0  0
  147.4901  134.2259  152.0941 H   0  0  0  0  0  0  0  0  0  0  0  0
  151.5254  136.7639  159.7744 H   0  0  0  0  0  0  0  0  0  0  0  0
  150.5982  138.1503  158.4953 H   0  0  0  0  0  0  0  0  0  0  0  0
  150.3305  136.6659  157.5916 H   0  0  0  0  0  0  0  0  0  0  0  0
  148.4414  137.8666  159.6520 H   0  0  0  0  0  0  0  0  0  0  0  0
  148.1744  137.9486  157.9286 H   0  0  0  0  0  0  0  0  0  0  0  0
  148.2864  135.3205  158.0317 H   0  0  0  0  0  0  0  0  0  0  0  0
  146.0086  137.0220  158.8998 H   0  0  0  0  0  0  0  0  0  0  0  0
  142.8160  133.9853  157.1980 H   0  0  0  0  0  0  0  0  0  0  0  0
  148.3261  134.6215  153.9332 H   0  0  0  0  0  0  0  0  0  0  0  0
  144.1476  135.6873  151.2052 H   0  0  0  0  0  0  0  0  0  0  0  0
  145.6255  135.4404  150.2964 H   0  0  0  0  0  0  0  0  0  0  0  0
  143.0237  134.8484  149.5132 H   0  0  0  0  0  0  0  0  0  0  0  0
  146.8654  131.2787  150.2268 H   0  0  0  0  0  0  0  0  0  0  0  0
  148.2438  131.8656  151.4657 H   0  0  0  0  0  0  0  0  0  0  0  0
  149.0019  135.0139  160.3091 H   0  0  0  0  0  0  0  0  0  0  0  0
  146.1242  134.0739  159.9282 H   0  0  0  0  0  0  0  0  0  0  0  0
  147.5601  133.2021  159.4430 H   0  0  0  0  0  0  0  0  0  0  0  0
  146.6705  132.2949  161.5475 H   0  0  0  0  0  0  0  0  0  0  0  0
  148.2921  132.9131  161.7450 H   0  0  0  0  0  0  0  0  0  0  0  0
  145.7118  134.3372  162.5557 H   0  0  0  0  0  0  0  0  0  0  0  0
  146.8898  133.6395  163.6433 H   0  0  0  0  0  0  0  0  0  0  0  0
  147.1806  136.1148  163.4470 H   0  0  0  0  0  0  0  0  0  0  0  0
  148.6063  135.2611  162.9068 H   0  0  0  0  0  0  0  0  0  0  0  0
  148.0403  137.0670  161.3412 H   0  0  0  0  0  0  0  0  0  0  0  0
  146.4271  136.4442  161.1201 H   0  0  0  0  0  0  0  0  0  0  0  0
  1  2  1  0  0  0  0
  1 34  1  0  0  0  0
  2  3  1  0  0  0  0
  2 35  1  0  0  0  0
  2 36  1  0  0  0  0
  3  4  1  0  0  0  0
  3 37  1  0  0  0  0
  3 38  1  0  0  0  0
  4  5  1  0  0  0  0
  4 24  1  0  0  0  0
  4 39  1  0  0  0  0
  5  6  1  0  0  0  0
  5 40  1  0  0  0  0
  6 11  1  0  0  0  0
  6  7  2  0  0  0  0
  7  8  1  0  0  0  0
  8  9  2  0  0  0  0
  8 41  1  0  0  0  0
  9 10  1  0  0  0  0
 10 14  1  0  0  0  0
 10 11  2  0  0  0  0
 11 12  1  0  0  0  0
 12 13  2  0  0  0  0
 13 14  1  0  0  0  0
 13 42  1  0  0  0  0
 14 15  1  0  0  0  0
 15 30  1  0  0  0  0
 15 22  1  0  0  0  0
 15 16  1  0  0  0  0
 16 17  1  0  0  0  0
 17 31  1  0  0  0  0
 17 18  1  0  0  0  0
 17 20  1  0  0  0  0
 18 19  1  0  0  0  0
 18 43  1  0  0  0  0
 18 44  1  0  0  0  0
 19 45  1  0  0  0  0
 20 32  1  0  0  0  0
 20 21  1  0  0  0  0
 20 22  1  0  0  0  0
 21 46  1  0  0  0  0
 22 33  1  0  0  0  0
 22 23  1  0  0  0  0
 23 47  1  0  0  0  0
 24 29  1  0  0  0  0
 24 25  1  0  0  0  0
 24 48  1  0  0  0  0
 25 26  1  0  0  0  0
 25 49  1  0  0  0  0
 25 50  1  0  0  0  0
 26 27  1  0  0  0  0
 26 51  1  0  0  0  0
 26 52  1  0  0  0  0
 27 28  1  0  0  0  0
 27 53  1  0  0  0  0
 27 54  1  0  0  0  0
 28 29  1  0  0  0  0
 28 55  1  0  0  0  0
 28 56  1  0  0  0  0
 29 57  1  0  0  0  0
 29 58  1  0  0  0  0
M  END
> <s_m_source_file>
AV-unprocessed.smi

> <i_m_source_file_index>
109

> <i_lp_mmshare_version>
43012

> <i_f3d_flags>
0

> <s_epik_input>
W0NIMl0xW0NIMl1bQ0gyXVtDSDJdW0NIMl1bQ0hdMVtDQEhdKFtDSDJdW0NIMl1bT0hdKVtOSF1jKG5bY0hdbjIpYyhjMjMpbltjSF1uM1tDQEBIXTRPW0NASF0oW0NIMl1bT0hdKVtDQEBIXShbT0hdKVtDQEhdNFtPSF0=

> <s_epik_cmdline>
J2VwaWtfcHl0aG9uJywgJy1waCcsICc3LjAnLCAnLXRuJywgJzgnLCAnLW1hJywgJzIwMCcsICctbWV0YWxfYmluZGluZycsICctaW1hZScsICc8aW5maWxlLm1hZT4nLCAnLW9tYWUnLCAnPG91dGZpbGUubWFlPic=

> <r_lp_tautomer_probability>
1

> <r_epik_Ionization_Penalty>
0.000793976

> <r_epik_Ionization_Penalty_Charging>
0

> <r_epik_Ionization_Penalty_Neutral>
0.000793976

> <r_epik_State_Penalty>
-0

> <r_epik_Charging_Adjusted_Penalty>
0

> <i_epik_Tot_Q>
0

> <i_epik_Tot_abs_Q>
0

> <r_epik_Metal_State_Penalty>
-0

> <b_epik_Metal_Only>
0

> <s_epik_Chemistry_Notes>
This compound contains an acetal/aminal-like group ( X-CH(R)-Y where X, Y are N, S, or O) that may be acid/base labile, releasing an aldehyde.

> <s_lp_Force_Field>
OPLS_2005

> <r_lp_Energy>
56.6401

> <b_lp_Chiralities_Consistent>
1

> <s_lp_Variant>
AV-unprocessed.smi:109-31

> <Gold.Version>
5.8.1

> <Gold.Id.Protein>
6NUR|6NUR_protein|mol2

> <Gold.PLP.Fitness>
54.4563

> <Gold.PLP.PLP>
-38.9609

> <Gold.PLP.part.hbond>
-5.0000

> <Gold.PLP.part.metal>
0.0000

> <Gold.PLP.part.buried>
-7.3937

> <Gold.PLP.part.nonpolar>
-28.8667

> <Gold.PLP.part.repulsive>
1.5656

> <Gold.PLP.ligand.clash>
0.0000

> <Gold.PLP.ligand.torsion>
1.2127

> <Gold.PLP.Chemscore.Hbond>
3.9920

> <Gold.PLP.Chemscore.CHOScore>
1.8603

> <Gold.PLP.Chemscore.Metal>
0.0000

> <Gold.Chemscore.Hbonds>
donor molecule, donor type, donor heavy atom, donor atom, acceptor molecule, acceptor atom, score
      L1  H    19    45       P1 10186  0.96
      L1  H    21    46       P1 10747  0.71
      L1  H    23    47       P1 10747  1.00
      P1  H  6896  6909       L1     1  0.93
      L1  C     8    41       P1 11000  1.00
      L1  C    13    42       P1  7948  0.65

> <Gold.PLP.Chemscore.Internal.Correction>
0.3638

> <Gold.Rescore>
     Score         DG    S(hbond)    S(metal)    S(lipo)     H(rot)  DE(clash)    DE(int)     intcor
     10.04     -11.96       3.34        0.00      79.62       5.47       0.45       1.47       ----

> <Gold.Chemscore.Fitness>
10.0412

> <Gold.Chemscore.DG>
-11.9650

> <Gold.Chemscore.ZeroCoef>
-5.4800

> <Gold.Chemscore.Hbond>
3.3423

> <Gold.Chemscore.Metal>
0.0000

> <Gold.Chemscore.Lipo>
79.6185

> <Gold.Chemscore.Internal_Hbond>
0.0000

> <Gold.Chemscore.DEClash>
0.4492

> <Gold.Chemscore.DEInternal>
1.4746

> <Gold.Chemscore.Rot>
5.4662

> <Gold.Chemscore.Internal.Correction>
   9.000000E+99

> <Gold.Chemscore.Hbonds>
donor molecule, donor type, donor heavy atom, donor atom, acceptor molecule, acceptor atom, score
      L1  H    19    45       P1 10186  0.78
      L1  H    21    46       P1 10747  0.70
      L1  H    23    47       P1 10747  1.00
      P1  H  6896  6909       L1     1  0.19

> <Gold.Chemscore.Hbond.Weighted>
-11.1631

> <Gold.Chemscore.Metal.Weighted>
-0.0000

> <Gold.Chemscore.Lipo.Weighted>
-9.3154

> <Gold.Chemscore.Internal_Hbond.Weighted>
0.0000

> <Gold.Chemscore.DEClash.Weighted>
0.4492

> <Gold.Chemscore.DEInternal.Weighted>
1.4746

> <Gold.Chemscore.Rot.Weighted>
13.9935

> <Gold.Chemscore.Internal.Correction.Weighted>
   9.000000E+99

> <Gold.Protein.RotatedTorsions>
[ 6907 6896 6895 6894 ] final   76.10 input  -60.11 | X-H torsion
[ 7974 7965 7964 7962 ] final  120.34 input  175.53 | X-H torsion
[ 8008 7997 7996 7995 ] final  -44.03 input   59.86 | X-H torsion
[ 10167 10162 10161 10158 ] final   13.85 input  -65.29 | X-H torsion
[ 10718 10713 10712 10709 ] final -170.29 input   66.30 | X-H torsion
[ 10763 10752 10751 10750 ] final  -99.24 input  -60.55 | X-H torsion
[ 11005 11000 10999 10996 ] final  125.48 input  -57.11 | X-H torsion

> <Gold.Protein.ActiveResidues>
 VAL166  LYS551  ARG553  GLY616  TRP617  ASP618  TYR619  PRO620  LYS621  CYS622 
 ASP623  PHE694  ASN695  SER759  ASP760  ASP761  ALA762  ILE779  LEU786  VAL792 
 PHE793  MET794  SER795  GLU796  ALA797  LYS798  CYS799  TRP800  GLU811  SER814 

> <Gold.Protein.RotatedAtoms>
  152.5057  134.4020  159.9419 H   0  0  0  0  0  0  0  0  0  0  0  0  # atno 6907 bound_to 6896
  151.3984  133.3759  159.2737 H   0  0  0  0  0  0  0  0  0  0  0  0  # atno 6908 bound_to 6896
  150.9380  134.8812  159.7653 H   0  0  0  0  0  0  0  0  0  0  0  0  # atno 6909 bound_to 6896
  145.1323  139.3320  143.4659 H   0  0  0  0  0  0  0  0  0  0  0  0  # atno 7974 bound_to 7965
  154.3997  140.1432  156.3616 H   0  0  0  0  0  0  0  0  0  0  0  0  # atno 8008 bound_to 7997
  155.8176  140.3470  155.5474 H   0  0  0  0  0  0  0  0  0  0  0  0  # atno 8009 bound_to 7997
  155.8322  140.0914  157.1776 H   0  0  0  0  0  0  0  0  0  0  0  0  # atno 8010 bound_to 7997
  140.5975  143.8672  150.6932 H   0  0  0  0  0  0  0  0  0  0  0  0  # atno 10167 bound_to 10162
  156.7241  130.9281  151.3099 H   0  0  0  0  0  0  0  0  0  0  0  0  # atno 10718 bound_to 10713
  154.7482  135.4979  153.9241 H   0  0  0  0  0  0  0  0  0  0  0  0  # atno 10763 bound_to 10752
  153.1114  135.6710  153.9501 H   0  0  0  0  0  0  0  0  0  0  0  0  # atno 10764 bound_to 10752
  153.9260  135.3083  155.3426 H   0  0  0  0  0  0  0  0  0  0  0  0  # atno 10765 bound_to 10752
  139.9408  134.9635  156.8564 H   0  0  0  0  0  0  0  0  0  0  0  0  # atno 11005 bound_to 11000
  146.3513  140.1327  142.8596 LP  0  0  0  0  0  0  0  0  0  0  0  0  # atno 17320 bound_to 7965
  145.0622  140.9096  143.4932 LP  0  0  0  0  0  0  0  0  0  0  0  0  # atno 17321 bound_to 7965
  140.2210  143.3809  152.1643 LP  0  0  0  0  0  0  0  0  0  0  0  0  # atno 17342 bound_to 10162
  139.5268  144.7112  151.5200 LP  0  0  0  0  0  0  0  0  0  0  0  0  # atno 17343 bound_to 10162
  157.6886  130.9210  150.0452 LP  0  0  0  0  0  0  0  0  0  0  0  0  # atno 17370 bound_to 10713
  156.1574  130.3643  149.9349 LP  0  0  0  0  0  0  0  0  0  0  0  0  # atno 17371 bound_to 10713
  140.5956  134.0220  155.7516 LP  0  0  0  0  0  0  0  0  0  0  0  0  # atno 17394 bound_to 11000
  141.1042  133.9720  157.3026 LP  0  0  0  0  0  0  0  0  0  0  0  0  # atno 17395 bound_to 11000

$$$$
