AV-unprocessed.smi:102|AV-procd|sdf|972|dock9
  -GOLD-   2262017523D 1   1.00000     0.00000
 Structure written by MMmdl.
 43 44  0  0  0  0  0  0  0  0  2 V2000
  147.8625  135.3715  161.7509 C   0  0  0  0  0  0  0  0  0  0  0  0
  147.6345  134.3213  160.6721 C   0  0  0  0  0  0  0  0  0  0  0  0
  147.2812  133.1766  160.9551 O   0  0  0  0  0  0  0  0  0  0  0  0
  147.8609  134.8004  159.4353 O   0  0  0  0  0  0  0  0  0  0  0  0
  147.6415  133.9822  158.2939 C   0  0  0  0  0  0  0  0  0  0  0  0
  148.4408  134.5051  157.0914 C   0  0  1  0  0  0  0  0  0  0  0  0
  149.7393  134.9188  157.4924 O   0  0  0  0  0  0  0  0  0  0  0  0
  150.5607  134.9532  156.3711 C   0  0  2  0  0  0  0  0  0  0  0  0
  150.4675  136.3429  155.7557 N   0  0  0  0  0  0  0  0  0  0  0  0
  149.2641  136.8737  155.3117 C   0  0  0  0  0  0  0  0  0  0  0  0
  149.1807  138.1324  154.8358 C   0  0  0  0  0  0  0  0  0  0  0  0
  147.9974  138.6118  154.4158 F   0  0  0  0  0  0  0  0  0  0  0  0
  150.3747  138.9718  154.8004 C   0  0  0  0  0  0  0  0  0  0  0  0
  150.3001  140.1088  154.3372 O   0  0  0  0  0  0  0  0  0  0  0  0
  151.5322  138.4506  155.2981 N   0  5  0  0  0  0  0  0  0  0  0  0
  151.6171  137.1825  155.7970 C   0  0  0  0  0  0  0  0  0  0  0  0
  152.6518  136.7286  156.2856 O   0  0  0  0  0  0  0  0  0  0  0  0
  150.0803  133.8256  155.4391 C   0  0  1  0  0  0  0  0  0  0  0  0
  150.9701  132.7177  155.4938 O   0  0  0  0  0  0  0  0  0  0  0  0
  151.2155  132.1017  156.6631 C   0  0  0  0  0  0  0  0  0  0  0  0
  152.2530  130.9954  156.5279 C   0  0  0  0  0  0  0  0  0  0  0  0
  150.6887  132.3607  157.7452 O   0  0  0  0  0  0  0  0  0  0  0  0
  148.7314  133.4256  156.0409 C   0  0  2  0  0  0  0  0  0  0  0  0
  147.7176  133.4193  155.0442 O   0  0  0  0  0  0  0  0  0  0  0  0
  147.8729  132.6912  153.9251 C   0  0  0  0  0  0  0  0  0  0  0  0
  146.7572  132.9325  152.9171 C   0  0  0  0  0  0  0  0  0  0  0  0
  148.7957  131.9112  153.6890 O   0  0  0  0  0  0  0  0  0  0  0  0
  147.2377  136.2456  161.5676 H   0  0  0  0  0  0  0  0  0  0  0  0
  148.9064  135.6853  161.7570 H   0  0  0  0  0  0  0  0  0  0  0  0
  147.6168  134.9701  162.7343 H   0  0  0  0  0  0  0  0  0  0  0  0
  147.8641  132.9328  158.4930 H   0  0  0  0  0  0  0  0  0  0  0  0
  146.5773  134.0348  158.0638 H   0  0  0  0  0  0  0  0  0  0  0  0
  147.9205  135.3470  156.6321 H   0  0  0  0  0  0  0  0  0  0  0  0
  151.6079  134.8251  156.6481 H   0  0  0  0  0  0  0  0  0  0  0  0
  148.3552  136.2949  155.3541 H   0  0  0  0  0  0  0  0  0  0  0  0
  149.9863  134.1737  154.4110 H   0  0  0  0  0  0  0  0  0  0  0  0
  153.1677  131.3869  156.0828 H   0  0  0  0  0  0  0  0  0  0  0  0
  151.8719  130.1956  155.8927 H   0  0  0  0  0  0  0  0  0  0  0  0
  152.4960  130.5757  157.5044 H   0  0  0  0  0  0  0  0  0  0  0  0
  148.8093  132.4555  156.5352 H   0  0  0  0  0  0  0  0  0  0  0  0
  145.7835  132.8437  153.3989 H   0  0  0  0  0  0  0  0  0  0  0  0
  146.8093  132.2057  152.1062 H   0  0  0  0  0  0  0  0  0  0  0  0
  146.8443  133.9324  152.4919 H   0  0  0  0  0  0  0  0  0  0  0  0
  1  2  1  0  0  0  0
  1 28  1  0  0  0  0
  1 29  1  0  0  0  0
  1 30  1  0  0  0  0
  2  3  2  0  0  0  0
  2  4  1  0  0  0  0
  4  5  1  0  0  0  0
  5  6  1  0  0  0  0
  5 31  1  0  0  0  0
  5 32  1  0  0  0  0
  6 23  1  0  0  0  0
  6  7  1  0  0  0  0
  6 33  1  0  0  0  0
  7  8  1  0  0  0  0
  8  9  1  0  0  0  0
  8 18  1  0  0  0  0
  8 34  1  0  0  0  0
  9 16  1  0  0  0  0
  9 10  1  0  0  0  0
 10 11  2  0  0  0  0
 10 35  1  0  0  0  0
 11 12  1  0  0  0  0
 11 13  1  0  0  0  0
 13 14  2  0  0  0  0
 13 15  1  0  0  0  0
 15 16  1  0  0  0  0
 16 17  2  0  0  0  0
 18 19  1  0  0  0  0
 18 23  1  0  0  0  0
 18 36  1  0  0  0  0
 19 20  1  0  0  0  0
 20 21  1  0  0  0  0
 20 22  2  0  0  0  0
 21 37  1  0  0  0  0
 21 38  1  0  0  0  0
 21 39  1  0  0  0  0
 23 24  1  0  0  0  0
 23 40  1  0  0  0  0
 24 25  1  0  0  0  0
 25 26  1  0  0  0  0
 25 27  2  0  0  0  0
 26 41  1  0  0  0  0
 26 42  1  0  0  0  0
 26 43  1  0  0  0  0
M  CHG  1  15  -1
M  END
> <s_m_source_file>
AV-unprocessed.smi

> <i_m_source_file_index>
102

> <i_lp_mmshare_version>
43012

> <i_f3d_flags>
0

> <s_epik_input>
W0NIM11DKD1PKU9bQ0gyXVtDQEBIXTFPW0NASF0oW0NAQEhdKE9DKD1PKVtDSDNdKVtDQEhdMU9DKD1PKVtDSDNdKW4yW2NIXWMoRiljKD1PKVtuSF1jMj1P

> <s_epik_cmdline>
J2VwaWtfcHl0aG9uJywgJy1waCcsICc3LjAnLCAnLXRuJywgJzgnLCAnLW1hJywgJzIwMCcsICctbWV0YWxfYmluZGluZycsICctaW1hZScsICc8aW5maWxlLm1hZT4nLCAnLW9tYWUnLCAnPG91dGZpbGUubWFlPic=

> <r_epik_Ionization_Penalty>
1.40304

> <r_epik_Ionization_Penalty_Charging>
1.43915e-08

> <r_epik_Ionization_Penalty_Neutral>
1.40304

> <r_epik_State_Penalty>
1.48536

> <r_epik_Charging_Adjusted_Penalty>
1.48536

> <i_epik_Tot_Q>
-1

> <i_epik_Tot_abs_Q>
1

> <r_epik_Metal_State_Penalty>
0.00663881

> <b_epik_Metal_Only>
0

> <s_epik_Chemistry_Notes>
This compound has an ester and may undergo hydrolysis at high or low pH. This compound contains an acetal/aminal-like group ( X-CH(R)-Y where X, Y are N, S, or O) that may be acid/base labile, releasing an aldehyde.

> <s_lp_Force_Field>
OPLS_2005

> <r_lp_Energy>
19.0054

> <b_lp_Chiralities_Consistent>
1

> <s_lp_Variant>
AV-unprocessed.smi:102-28

> <Gold.Version>
5.8.1

> <Gold.Id.Protein>
6NUR|6NUR_protein|mol2

> <Gold.PLP.Fitness>
37.7001

> <Gold.PLP.PLP>
-29.5453

> <Gold.PLP.part.hbond>
-4.0000

> <Gold.PLP.part.metal>
0.0000

> <Gold.PLP.part.buried>
-5.6966

> <Gold.PLP.part.nonpolar>
-20.9750

> <Gold.PLP.part.repulsive>
0.2435

> <Gold.PLP.ligand.clash>
0.0000

> <Gold.PLP.ligand.torsion>
0.4854

> <Gold.PLP.Chemscore.Hbond>
2.9920

> <Gold.PLP.Chemscore.CHOScore>
0.0000

> <Gold.PLP.Chemscore.Metal>
0.0000

> <Gold.Chemscore.Hbonds>
donor molecule, donor type, donor heavy atom, donor atom, acceptor molecule, acceptor atom, score
      P1  H  6896  6907       L1    22  1.00
      P1  H  7989  7998       L1    14  1.00
      P1  H 10752 10764       L1    17  0.96

> <Gold.PLP.Chemscore.Internal.Correction>
0.1495

> <Gold.Rescore>
     Score         DG    S(hbond)    S(metal)    S(lipo)     H(rot)  DE(clash)    DE(int)     intcor
      3.63      -8.93       2.84        0.00      35.84       4.00       0.00       5.30       ----

> <Gold.Chemscore.Fitness>
3.6298

> <Gold.Chemscore.DG>
-8.9304

> <Gold.Chemscore.ZeroCoef>
-5.4800

> <Gold.Chemscore.Hbond>
2.8396

> <Gold.Chemscore.Metal>
0.0000

> <Gold.Chemscore.Lipo>
35.8427

> <Gold.Chemscore.Internal_Hbond>
0.0000

> <Gold.Chemscore.DEClash>
0.0029

> <Gold.Chemscore.DEInternal>
5.2977

> <Gold.Chemscore.Rot>
3.9951

> <Gold.Chemscore.Internal.Correction>
   9.000000E+99

> <Gold.Chemscore.Hbonds>
donor molecule, donor type, donor heavy atom, donor atom, acceptor molecule, acceptor atom, score
      P1  H  6896  6907       L1    22  1.00
      P1  H  7989  7998       L1    14  0.97
      P1  H 10752 10764       L1    17  0.72

> <Gold.Chemscore.Hbond.Weighted>
-9.4843

> <Gold.Chemscore.Metal.Weighted>
-0.0000

> <Gold.Chemscore.Lipo.Weighted>
-4.1936

> <Gold.Chemscore.Internal_Hbond.Weighted>
0.0000

> <Gold.Chemscore.DEClash.Weighted>
0.0029

> <Gold.Chemscore.DEInternal.Weighted>
5.2977

> <Gold.Chemscore.Rot.Weighted>
10.2274

> <Gold.Chemscore.Internal.Correction.Weighted>
   9.000000E+99

> <Gold.Protein.RotatedTorsions>
[ 6907 6896 6895 6894 ] final -153.03 input  -60.11 | X-H torsion
[ 7974 7965 7964 7962 ] final  -98.86 input  175.53 | X-H torsion
[ 8008 7997 7996 7995 ] final   39.56 input   59.86 | X-H torsion
[ 10167 10162 10161 10158 ] final  -22.10 input  -65.29 | X-H torsion
[ 10718 10713 10712 10709 ] final -119.19 input   66.30 | X-H torsion
[ 10763 10752 10751 10750 ] final  -14.25 input  -60.55 | X-H torsion
[ 11005 11000 10999 10996 ] final  -31.95 input  -57.11 | X-H torsion

> <Gold.Protein.ActiveResidues>
 VAL166  LYS551  ARG553  GLY616  TRP617  ASP618  TYR619  PRO620  LYS621  CYS622 
 ASP623  PHE694  ASN695  SER759  ASP760  ASP761  ALA762  ILE779  LEU786  VAL792 
 PHE793  MET794  SER795  GLU796  ALA797  LYS798  CYS799  TRP800  GLU811  SER814 

> <Gold.Protein.RotatedAtoms>
  151.2365  133.4422  159.2605 H   0  0  0  0  0  0  0  0  0  0  0  0  # atno 6907 bound_to 6896
  151.0745  134.9819  159.8335 H   0  0  0  0  0  0  0  0  0  0  0  0  # atno 6908 bound_to 6896
  152.5416  134.2309  159.8877 H   0  0  0  0  0  0  0  0  0  0  0  0  # atno 6909 bound_to 6896
  145.3152  140.9409  143.2747 H   0  0  0  0  0  0  0  0  0  0  0  0  # atno 7974 bound_to 7965
  155.2386  140.3343  155.4295 H   0  0  0  0  0  0  0  0  0  0  0  0  # atno 8008 bound_to 7997
  156.2265  140.1831  156.7395 H   0  0  0  0  0  0  0  0  0  0  0  0  # atno 8009 bound_to 7997
  154.5908  140.0638  156.9220 H   0  0  0  0  0  0  0  0  0  0  0  0  # atno 8010 bound_to 7997
  140.7285  143.4566  151.0439 H   0  0  0  0  0  0  0  0  0  0  0  0  # atno 10167 bound_to 10162
  156.1162  130.6288  150.9385 H   0  0  0  0  0  0  0  0  0  0  0  0  # atno 10718 bound_to 10713
  153.5255  135.7015  153.5710 H   0  0  0  0  0  0  0  0  0  0  0  0  # atno 10763 bound_to 10752
  153.3740  135.3937  155.1809 H   0  0  0  0  0  0  0  0  0  0  0  0  # atno 10764 bound_to 10752
  154.8690  135.3819  154.4747 H   0  0  0  0  0  0  0  0  0  0  0  0  # atno 10765 bound_to 10752
  140.9511  133.7220  156.1221 H   0  0  0  0  0  0  0  0  0  0  0  0  # atno 11005 bound_to 11000
  144.8984  139.4682  143.6644 LP  0  0  0  0  0  0  0  0  0  0  0  0  # atno 17320 bound_to 7965
  146.3103  139.7723  142.9025 LP  0  0  0  0  0  0  0  0  0  0  0  0  # atno 17321 bound_to 7965
  139.8247  143.7772  152.3178 LP  0  0  0  0  0  0  0  0  0  0  0  0  # atno 17342 bound_to 10162
  139.7867  144.7425  151.0012 LP  0  0  0  0  0  0  0  0  0  0  0  0  # atno 17343 bound_to 10162
  157.6346  131.0917  150.8375 LP  0  0  0  0  0  0  0  0  0  0  0  0  # atno 17370 bound_to 10713
  156.8478  130.5070  149.5315 LP  0  0  0  0  0  0  0  0  0  0  0  0  # atno 17371 bound_to 10713
  140.7601  134.3948  157.5527 LP  0  0  0  0  0  0  0  0  0  0  0  0  # atno 17394 bound_to 11000
  139.8848  134.8956  156.2683 LP  0  0  0  0  0  0  0  0  0  0  0  0  # atno 17395 bound_to 11000

$$$$
