AV-unprocessed.smi:2941|AV-procd|sdf|11264|dock10
  -GOLD-   2272016153D 1   1.00000     0.00000
 Structure written by MMmdl.
 36 37  0  0  0  0  0  0  0  0  1 V2000
  151.6632  138.5938  154.7822 C   0  0  0  0  0  0  0  0  0  0  0  0
  151.1572  139.7469  154.1328 O   0  0  0  0  0  0  0  0  0  0  0  0
  149.8254  140.0460  154.5147 C   0  0  0  0  0  0  0  0  0  0  0  0
  149.8467  140.7167  155.8964 C   0  0  0  0  0  0  0  0  0  0  0  0
  150.3980  139.8212  156.9223 N   0  0  0  0  0  0  0  0  0  0  0  0
  151.5404  140.2708  157.6124 C   0  0  0  0  0  0  0  0  0  0  0  0
  152.1258  139.5420  158.5811 C   0  0  0  0  0  0  0  0  0  0  0  0
  153.3254  140.0528  159.2867 C   0  0  0  0  0  0  0  0  0  0  0  0
  154.4301  139.5350  159.1165 O   0  0  0  0  0  0  0  0  0  0  0  0
  153.1664  141.1997  160.2284 C   0  0  0  0  0  0  0  0  0  0  0  0
  152.4371  142.3246  159.7805 C   0  0  0  0  0  0  0  0  0  0  0  0
  152.2573  143.4438  160.6151 C   0  0  0  0  0  0  0  0  0  0  0  0
  151.5622  144.5164  160.1685 F   0  0  0  0  0  0  0  0  0  0  0  0
  152.8005  143.4482  161.9121 C   0  0  0  0  0  0  0  0  0  0  0  0
  153.5164  142.3294  162.3759 C   0  0  0  0  0  0  0  0  0  0  0  0
  153.6993  141.2039  161.5467 C   0  0  0  0  0  0  0  0  0  0  0  0
  154.3683  140.1281  162.0614 O   0  0  0  0  0  0  0  0  0  0  0  0
  151.5510  138.2477  158.8910 C   0  0  0  0  0  0  0  0  0  0  0  0
  150.4635  137.8080  158.2276 C   0  0  0  0  0  0  0  0  0  0  0  0
  149.8828  136.5387  158.5166 C   0  0  0  0  0  0  0  0  0  0  0  0
  149.4324  135.5021  158.7658 N   0  0  0  0  0  0  0  0  0  0  0  0
  149.8212  138.6069  157.1744 C   0  0  0  0  0  0  0  0  0  0  0  0
  148.8316  138.2154  156.5535 O   0  0  0  0  0  0  0  0  0  0  0  0
  152.6899  138.4147  154.4632 H   0  0  0  0  0  0  0  0  0  0  0  0
  151.0746  137.7105  154.5317 H   0  0  0  0  0  0  0  0  0  0  0  0
  151.6644  138.7188  155.8658 H   0  0  0  0  0  0  0  0  0  0  0  0
  149.3669  140.7073  153.7778 H   0  0  0  0  0  0  0  0  0  0  0  0
  149.2337  139.1298  154.5502 H   0  0  0  0  0  0  0  0  0  0  0  0
  150.4325  141.6357  155.8451 H   0  0  0  0  0  0  0  0  0  0  0  0
  148.8402  141.0396  156.1681 H   0  0  0  0  0  0  0  0  0  0  0  0
  151.8992  141.2428  157.3036 H   0  0  0  0  0  0  0  0  0  0  0  0
  152.0166  142.3413  158.7851 H   0  0  0  0  0  0  0  0  0  0  0  0
  152.6630  144.3062  162.5536 H   0  0  0  0  0  0  0  0  0  0  0  0
  153.9189  142.3348  163.3785 H   0  0  0  0  0  0  0  0  0  0  0  0
  154.7644  139.5846  161.3973 H   0  0  0  0  0  0  0  0  0  0  0  0
  151.9922  137.6208  159.6527 H   0  0  0  0  0  0  0  0  0  0  0  0
  1  2  1  0  0  0  0
  1 24  1  0  0  0  0
  1 25  1  0  0  0  0
  1 26  1  0  0  0  0
  2  3  1  0  0  0  0
  3  4  1  0  0  0  0
  3 27  1  0  0  0  0
  3 28  1  0  0  0  0
  4  5  1  0  0  0  0
  4 29  1  0  0  0  0
  4 30  1  0  0  0  0
  5 22  1  0  0  0  0
  5  6  1  0  0  0  0
  6  7  2  0  0  0  0
  6 31  1  0  0  0  0
  7  8  1  0  0  0  0
  7 18  1  0  0  0  0
  8  9  2  0  0  0  0
  8 10  1  0  0  0  0
 10 16  1  0  0  0  0
 10 11  2  0  0  0  0
 11 12  1  0  0  0  0
 11 32  1  0  0  0  0
 12 13  1  0  0  0  0
 12 14  2  0  0  0  0
 14 15  1  0  0  0  0
 14 33  1  0  0  0  0
 15 16  2  0  0  0  0
 15 34  1  0  0  0  0
 16 17  1  0  0  0  0
 17 35  1  0  0  0  0
 18 19  2  0  0  0  0
 18 36  1  0  0  0  0
 19 20  1  0  0  0  0
 19 22  1  0  0  0  0
 20 21  3  0  0  0  0
 22 23  2  0  0  0  0
M  END
> <s_m_source_file>
AV-unprocessed.smi

> <i_m_source_file_index>
2941

> <i_lp_mmshare_version>
43012

> <i_f3d_flags>
0

> <s_epik_input>
W0NIM11PW0NIMl1bQ0gyXW4xW2NIXWMoW2NIXWMoQyNOKWMxPU8pQyg9TyljMltjSF1jKEYpW2NIXVtjSF1jMltPSF0=

> <s_epik_cmdline>
J2VwaWtfcHl0aG9uJywgJy1waCcsICc3LjAnLCAnLXRuJywgJzgnLCAnLW1hJywgJzIwMCcsICctbWV0YWxfYmluZGluZycsICctaW1hZScsICc8aW5maWxlLm1hZT4nLCAnLW9tYWUnLCAnPG91dGZpbGUubWFlPic=

> <r_epik_Ionization_Penalty>
0.27579

> <r_epik_Ionization_Penalty_Charging>
5.62591e-11

> <r_epik_Ionization_Penalty_Neutral>
0.27579

> <r_epik_State_Penalty>
0.26814

> <r_epik_Charging_Adjusted_Penalty>
0.26814

> <i_epik_Tot_Q>
0

> <i_epik_Tot_abs_Q>
0

> <r_epik_Metal_State_Penalty>
0.26814

> <b_epik_Metal_Only>
0

> <s_lp_Force_Field>
OPLS_2005

> <r_lp_Energy>
22.041

> <b_lp_Chiralities_Consistent>
1

> <s_lp_Variant>
AV-unprocessed.smi:2941-1

> <Gold.Version>
5.8.1

> <Gold.Id.Protein>
6NUR|6NUR_protein|mol2

> <Gold.PLP.Fitness>
52.8765

> <Gold.PLP.PLP>
-46.8115

> <Gold.PLP.part.hbond>
-2.8396

> <Gold.PLP.part.metal>
0.0000

> <Gold.PLP.part.buried>
-7.8455

> <Gold.PLP.part.nonpolar>
-37.4184

> <Gold.PLP.part.repulsive>
0.1119

> <Gold.PLP.ligand.clash>
0.0000

> <Gold.PLP.ligand.torsion>
2.2316

> <Gold.PLP.Chemscore.Hbond>
2.9345

> <Gold.PLP.Chemscore.CHOScore>
0.0000

> <Gold.PLP.Chemscore.Metal>
0.0000

> <Gold.Chemscore.Hbonds>
donor molecule, donor type, donor heavy atom, donor atom, acceptor molecule, acceptor atom, score
      P1  H  6896  6907       L1    21  1.00
      P1  H  7989  7998       L1     2  0.60
      P1  H  7997  8010       L1     9  1.00

> <Gold.PLP.Chemscore.Internal.Correction>
1.7248

> <Gold.Rescore>
     Score         DG    S(hbond)    S(metal)    S(lipo)     H(rot)  DE(clash)    DE(int)     intcor
     17.30     -21.31       2.69        0.00     102.93       2.04       0.08       3.93       ----

> <Gold.Chemscore.Fitness>
17.3035

> <Gold.Chemscore.DG>
-21.3135

> <Gold.Chemscore.ZeroCoef>
-5.4800

> <Gold.Chemscore.Hbond>
2.6950

> <Gold.Chemscore.Metal>
0.0000

> <Gold.Chemscore.Lipo>
102.9257

> <Gold.Chemscore.Internal_Hbond>
0.0000

> <Gold.Chemscore.DEClash>
0.0835

> <Gold.Chemscore.DEInternal>
3.9265

> <Gold.Chemscore.Rot>
2.0351

> <Gold.Chemscore.Internal.Correction>
   9.000000E+99

> <Gold.Chemscore.Hbonds>
donor molecule, donor type, donor heavy atom, donor atom, acceptor molecule, acceptor atom, score
      P1  H  6896  6907       L1    21  0.81
      P1  H  7989  7998       L1     2  0.35
      P1  H  7997  8010       L1     9  0.73

> <Gold.Chemscore.Hbond.Weighted>
-9.0011

> <Gold.Chemscore.Metal.Weighted>
-0.0000

> <Gold.Chemscore.Lipo.Weighted>
-12.0423

> <Gold.Chemscore.Internal_Hbond.Weighted>
0.0000

> <Gold.Chemscore.DEClash.Weighted>
0.0835

> <Gold.Chemscore.DEInternal.Weighted>
3.9265

> <Gold.Chemscore.Rot.Weighted>
5.2099

> <Gold.Chemscore.Internal.Correction.Weighted>
   9.000000E+99

> <Gold.Protein.RotatedTorsions>
[ 6907 6896 6895 6894 ] final  -87.08 input  -60.11 | X-H torsion
[ 7974 7965 7964 7962 ] final  150.70 input  175.53 | X-H torsion
[ 8008 7997 7996 7995 ] final   -1.50 input   59.86 | X-H torsion
[ 10167 10162 10161 10158 ] final -159.33 input  -65.29 | X-H torsion
[ 10718 10713 10712 10709 ] final   91.13 input   66.30 | X-H torsion
[ 10763 10752 10751 10750 ] final    0.01 input  -60.55 | X-H torsion
[ 11005 11000 10999 10996 ] final   30.99 input  -57.11 | X-H torsion

> <Gold.Protein.ActiveResidues>
 VAL166  LYS551  ARG553  GLY616  TRP617  ASP618  TYR619  PRO620  LYS621  CYS622 
 ASP623  PHE694  ASN695  SER759  ASP760  ASP761  ALA762  ILE779  LEU786  VAL792 
 PHE793  MET794  SER795  GLU796  ALA797  LYS798  CYS799  TRP800  GLU811  SER814 

> <Gold.Protein.RotatedAtoms>
  150.6866  134.2951  159.4682 H   0  0  0  0  0  0  0  0  0  0  0  0  # atno 6907 bound_to 6896
  152.0852  134.9441  160.0582 H   0  0  0  0  0  0  0  0  0  0  0  0  # atno 6908 bound_to 6896
  152.0779  133.4103  159.4525 H   0  0  0  0  0  0  0  0  0  0  0  0  # atno 6909 bound_to 6896
  144.8345  139.6443  143.6044 H   0  0  0  0  0  0  0  0  0  0  0  0  # atno 7974 bound_to 7965
  154.6461  140.2558  155.7267 H   0  0  0  0  0  0  0  0  0  0  0  0  # atno 8008 bound_to 7997
  156.2552  140.2877  156.0795 H   0  0  0  0  0  0  0  0  0  0  0  0  # atno 8009 bound_to 7997
  155.1522  140.0382  157.2814 H   0  0  0  0  0  0  0  0  0  0  0  0  # atno 8010 bound_to 7997
  139.6623  143.9890  152.2233 H   0  0  0  0  0  0  0  0  0  0  0  0  # atno 10167 bound_to 10162
  157.6960  131.0396  150.3683 H   0  0  0  0  0  0  0  0  0  0  0  0  # atno 10718 bound_to 10713
  153.3261  135.6972  153.6988 H   0  0  0  0  0  0  0  0  0  0  0  0  # atno 10763 bound_to 10752
  153.5808  135.3498  155.2875 H   0  0  0  0  0  0  0  0  0  0  0  0  # atno 10764 bound_to 10752
  154.8608  135.4294  154.2438 H   0  0  0  0  0  0  0  0  0  0  0  0  # atno 10765 bound_to 10752
  140.2886  134.2890  155.7782 H   0  0  0  0  0  0  0  0  0  0  0  0  # atno 11005 bound_to 11000
  146.2645  139.6487  142.9339 LP  0  0  0  0  0  0  0  0  0  0  0  0  # atno 17320 bound_to 7965
  145.4825  141.0438  143.2638 LP  0  0  0  0  0  0  0  0  0  0  0  0  # atno 17321 bound_to 7965
  139.9632  144.6543  150.8059 LP  0  0  0  0  0  0  0  0  0  0  0  0  # atno 17342 bound_to 10162
  140.7585  143.3109  151.2848 LP  0  0  0  0  0  0  0  0  0  0  0  0  # atno 17343 bound_to 10162
  156.4111  130.3934  149.6891 LP  0  0  0  0  0  0  0  0  0  0  0  0  # atno 17370 bound_to 10713
  156.4174  130.7752  151.2768 LP  0  0  0  0  0  0  0  0  0  0  0  0  # atno 17371 bound_to 10713
  141.2150  133.7571  156.9590 LP  0  0  0  0  0  0  0  0  0  0  0  0  # atno 17394 bound_to 11000
  140.1216  134.9413  157.2212 LP  0  0  0  0  0  0  0  0  0  0  0  0  # atno 17395 bound_to 11000

$$$$
