AV-unprocessed.smi:686|AV-procd|sdf|3348|dock4
  -GOLD-   22720 0323D 1   1.00000     0.00000
 Structure written by MMmdl.
 40 41  0  0  0  0  0  0  0  0  3 V2000
  147.9391  140.9647  153.7604 C   0  0  0  0  0  0  0  0  0  0  0  0
  147.2059  139.6093  153.8414 C   0  0  1  0  0  0  0  0  0  0  0  0
  146.7465  139.0402  152.4882 C   0  0  0  0  0  0  0  0  0  0  0  0
  146.8027  137.5600  152.6043 N   0  3  2  0  0  0  0  0  0  0  0  0
  145.6449  136.8273  152.0188 C   0  0  0  0  0  0  0  0  0  0  0  0
  144.3374  137.1231  152.7785 C   0  0  0  0  0  0  0  0  0  0  0  0
  145.9011  135.3085  152.0101 C   0  0  0  0  0  0  0  0  0  0  0  0
  147.1184  137.2494  154.0188 C   0  0  0  0  0  0  0  0  0  0  0  0
  147.9367  138.4411  154.5266 C   0  0  1  0  0  0  0  0  0  0  0  0
  149.3181  138.3321  154.0579 N   0  5  0  0  0  0  0  0  0  0  0  0
  150.5520  138.0894  155.0907 S   0  0  0  0  0  0  0  0  0  0  0  0
  150.1258  137.8505  156.4803 O   0  0  0  0  0  0  0  0  0  0  0  0
  151.5231  137.1380  154.5296 O   0  0  0  0  0  0  0  0  0  0  0  0
  151.4037  139.7321  155.0743 C   0  0  0  0  0  0  0  0  0  0  0  0
  151.7837  140.1267  156.4737 C   0  0  0  0  0  0  0  0  0  0  0  0
  150.9943  140.7935  157.4516 C   0  0  0  0  0  0  0  0  0  0  0  0
  151.8311  140.8911  158.5254 C   0  0  0  0  0  0  0  0  0  0  0  0
  153.0320  140.3258  158.2447 O   0  0  0  0  0  0  0  0  0  0  0  0
  152.9912  139.8377  156.9338 N   0  0  0  0  0  0  0  0  0  0  0  0
  148.8384  140.9148  153.1443 H   0  0  0  0  0  0  0  0  0  0  0  0
  148.2291  141.3289  154.7475 H   0  0  0  0  0  0  0  0  0  0  0  0
  147.2906  141.7205  153.3168 H   0  0  0  0  0  0  0  0  0  0  0  0
  146.3018  139.7820  154.4283 H   0  0  0  0  0  0  0  0  0  0  0  0
  145.7428  139.4000  152.2564 H   0  0  0  0  0  0  0  0  0  0  0  0
  147.4029  139.3501  151.6730 H   0  0  0  0  0  0  0  0  0  0  0  0
  145.5189  137.1624  150.9881 H   0  0  0  0  0  0  0  0  0  0  0  0
  143.5099  136.5396  152.3733 H   0  0  0  0  0  0  0  0  0  0  0  0
  144.0479  138.1714  152.7032 H   0  0  0  0  0  0  0  0  0  0  0  0
  144.4285  136.8751  153.8365 H   0  0  0  0  0  0  0  0  0  0  0  0
  145.0468  134.7711  151.5974 H   0  0  0  0  0  0  0  0  0  0  0  0
  146.0715  134.9312  153.0190 H   0  0  0  0  0  0  0  0  0  0  0  0
  146.7666  135.0397  151.4047 H   0  0  0  0  0  0  0  0  0  0  0  0
  146.1914  137.1795  154.5903 H   0  0  0  0  0  0  0  0  0  0  0  0
  147.6391  136.2963  154.1173 H   0  0  0  0  0  0  0  0  0  0  0  0
  147.8741  138.5314  155.6113 H   0  0  0  0  0  0  0  0  0  0  0  0
  152.2865  139.6525  154.4403 H   0  0  0  0  0  0  0  0  0  0  0  0
  150.7393  140.4707  154.6261 H   0  0  0  0  0  0  0  0  0  0  0  0
  149.9783  141.1505  157.3723 H   0  0  0  0  0  0  0  0  0  0  0  0
  151.7239  141.3126  159.5137 H   0  0  0  0  0  0  0  0  0  0  0  0
  147.6238  137.2796  152.0866 H   0  0  0  0  0  0  0  0  0  0  0  0
  1  2  1  0  0  0  0
  1 20  1  0  0  0  0
  1 21  1  0  0  0  0
  1 22  1  0  0  0  0
  2  9  1  0  0  0  0
  2  3  1  0  0  0  0
  2 23  1  0  0  0  0
  3  4  1  0  0  0  0
  3 24  1  0  0  0  0
  3 25  1  0  0  0  0
  4  5  1  0  0  0  0
  4  8  1  0  0  0  0
  4 40  1  0  0  0  0
  5  6  1  0  0  0  0
  5  7  1  0  0  0  0
  5 26  1  0  0  0  0
  6 27  1  0  0  0  0
  6 28  1  0  0  0  0
  6 29  1  0  0  0  0
  7 30  1  0  0  0  0
  7 31  1  0  0  0  0
  7 32  1  0  0  0  0
  8  9  1  0  0  0  0
  8 33  1  0  0  0  0
  8 34  1  0  0  0  0
  9 10  1  0  0  0  0
  9 35  1  0  0  0  0
 10 11  1  0  0  0  0
 11 12  2  0  0  0  0
 11 13  2  0  0  0  0
 11 14  1  0  0  0  0
 14 15  1  0  0  0  0
 14 36  1  0  0  0  0
 14 37  1  0  0  0  0
 15 19  2  0  0  0  0
 15 16  1  0  0  0  0
 16 17  2  0  0  0  0
 16 38  1  0  0  0  0
 17 18  1  0  0  0  0
 17 39  1  0  0  0  0
 18 19  1  0  0  0  0
M  CHG  1   4   1
M  CHG  1  10  -1
M  END
> <s_m_source_file>
AV-unprocessed.smi

> <i_m_source_file_index>
686

> <i_lp_mmshare_version>
43012

> <i_f3d_flags>
0

> <s_epik_input>
W0NIM11bQ0BASF0xW0NIMl1OKFtDSF0oW0NIM10pW0NIM10pW0NIMl1bQ0BIXTFbTkhdUyg9TykoPU8pW0NIMl1jMltjSF1bY0hdb24y

> <s_epik_cmdline>
J2VwaWtfcHl0aG9uJywgJy1waCcsICc3LjAnLCAnLXRuJywgJzgnLCAnLW1hJywgJzIwMCcsICctbWV0YWxfYmluZGluZycsICctaW1hZScsICc8aW5maWxlLm1hZT4nLCAnLW9tYWUnLCAnPG91dGZpbGUubWFlPic=

> <r_epik_Ionization_Penalty>
3.62478

> <r_epik_Ionization_Penalty_Charging>
3.62478

> <r_epik_Ionization_Penalty_Neutral>
2.03645e-10

> <r_epik_State_Penalty>
3.6247

> <r_epik_Charging_Adjusted_Penalty>
7.24949

> <i_epik_Tot_Q>
0

> <i_epik_Tot_abs_Q>
2

> <r_epik_Metal_State_Penalty>
0.530836

> <b_epik_Metal_Only>
1

> <s_lp_Force_Field>
OPLS_2005

> <r_lp_Energy>
18.5921

> <b_lp_Chiralities_Consistent>
1

> <s_lp_Variant>
AV-unprocessed.smi:686-12

> <Gold.Version>
5.8.1

> <Gold.Id.Protein>
6NUR|6NUR_protein|mol2

> <Gold.PLP.Fitness>
37.1111

> <Gold.PLP.PLP>
-26.6002

> <Gold.PLP.part.hbond>
-4.0000

> <Gold.PLP.part.metal>
0.0000

> <Gold.PLP.part.buried>
-0.2982

> <Gold.PLP.part.nonpolar>
-23.1846

> <Gold.PLP.part.repulsive>
1.0404

> <Gold.PLP.ligand.clash>
0.0000

> <Gold.PLP.ligand.torsion>
1.3009

> <Gold.PLP.Chemscore.Hbond>
4.0000

> <Gold.PLP.Chemscore.CHOScore>
0.0000

> <Gold.PLP.Chemscore.Metal>
0.0000

> <Gold.Chemscore.Hbonds>
donor molecule, donor type, donor heavy atom, donor atom, acceptor molecule, acceptor atom, score
      L1  H     4    40       P1  7948  2.00
      P1  H  7997  8008       L1    19  0.69
      P1  H 10752 10763       L1    13  0.86

> <Gold.PLP.Chemscore.Internal.Correction>
1.1127

> <Gold.Rescore>
     Score         DG    S(hbond)    S(metal)    S(lipo)     H(rot)  DE(clash)    DE(int)     intcor
     16.98     -18.19       2.87        0.00      62.02       1.61       0.17       1.04       ----

> <Gold.Chemscore.Fitness>
16.9795

> <Gold.Chemscore.DG>
-18.1897

> <Gold.Chemscore.ZeroCoef>
-5.4800

> <Gold.Chemscore.Hbond>
2.8704

> <Gold.Chemscore.Metal>
0.0000

> <Gold.Chemscore.Lipo>
62.0225

> <Gold.Chemscore.Internal_Hbond>
0.0000

> <Gold.Chemscore.DEClash>
0.1703

> <Gold.Chemscore.DEInternal>
1.0399

> <Gold.Chemscore.Rot>
1.6149

> <Gold.Chemscore.Internal.Correction>
   9.000000E+99

> <Gold.Chemscore.Hbonds>
donor molecule, donor type, donor heavy atom, donor atom, acceptor molecule, acceptor atom, score
      L1  H     4    40       P1  7948  0.96
      P1  H  7997  8008       L1    19  0.13
      P1  H 10752 10763       L1    13  0.81

> <Gold.Chemscore.Hbond.Weighted>
-9.5872

> <Gold.Chemscore.Metal.Weighted>
-0.0000

> <Gold.Chemscore.Lipo.Weighted>
-7.2566

> <Gold.Chemscore.Internal_Hbond.Weighted>
0.0000

> <Gold.Chemscore.DEClash.Weighted>
0.1703

> <Gold.Chemscore.DEInternal.Weighted>
1.0399

> <Gold.Chemscore.Rot.Weighted>
4.1341

> <Gold.Chemscore.Internal.Correction.Weighted>
   9.000000E+99

> <Gold.Protein.RotatedTorsions>
[ 6907 6896 6895 6894 ] final  157.51 input  -60.11 | X-H torsion
[ 7974 7965 7964 7962 ] final  104.22 input  175.53 | X-H torsion
[ 8008 7997 7996 7995 ] final  -57.18 input   59.86 | X-H torsion
[ 10167 10162 10161 10158 ] final  139.06 input  -65.29 | X-H torsion
[ 10718 10713 10712 10709 ] final   80.43 input   66.30 | X-H torsion
[ 10763 10752 10751 10750 ] final   59.63 input  -60.55 | X-H torsion
[ 11005 11000 10999 10996 ] final  111.81 input  -57.11 | X-H torsion

> <Gold.Protein.ActiveResidues>
 VAL166  LYS551  ARG553  GLY616  TRP617  ASP618  TYR619  PRO620  LYS621  CYS622 
 ASP623  PHE694  ASN695  SER759  ASP760  ASP761  ALA762  ILE779  LEU786  VAL792 
 PHE793  MET794  SER795  GLU796  ALA797  LYS798  CYS799  TRP800  GLU811  SER814 

> <Gold.Protein.RotatedAtoms>
  152.0141  133.3872  159.4231 H   0  0  0  0  0  0  0  0  0  0  0  0  # atno 6907 bound_to 6896
  150.6896  134.3698  159.4996 H   0  0  0  0  0  0  0  0  0  0  0  0  # atno 6908 bound_to 6896
  152.1463  134.9023  160.0601 H   0  0  0  0  0  0  0  0  0  0  0  0  # atno 6909 bound_to 6896
  145.3356  139.2475  143.3637 H   0  0  0  0  0  0  0  0  0  0  0  0  # atno 7974 bound_to 7965
  154.4258  140.1112  156.5756 H   0  0  0  0  0  0  0  0  0  0  0  0  # atno 8008 bound_to 7997
  155.6166  140.3494  155.4620 H   0  0  0  0  0  0  0  0  0  0  0  0  # atno 8009 bound_to 7997
  156.0057  140.1208  157.0493 H   0  0  0  0  0  0  0  0  0  0  0  0  # atno 8010 bound_to 7997
  139.5091  144.6317  151.5801 H   0  0  0  0  0  0  0  0  0  0  0  0  # atno 10167 bound_to 10162
  157.6805  130.9959  150.2077 H   0  0  0  0  0  0  0  0  0  0  0  0  # atno 10718 bound_to 10713
  152.9899  135.5565  154.5744 H   0  0  0  0  0  0  0  0  0  0  0  0  # atno 10763 bound_to 10752
  154.5138  135.2804  155.1323 H   0  0  0  0  0  0  0  0  0  0  0  0  # atno 10764 bound_to 10752
  154.2704  135.6364  153.5361 H   0  0  0  0  0  0  0  0  0  0  0  0  # atno 10765 bound_to 10752
  139.8912  134.9516  156.6489 H   0  0  0  0  0  0  0  0  0  0  0  0  # atno 11005 bound_to 11000
  146.3028  140.3943  142.8698 LP  0  0  0  0  0  0  0  0  0  0  0  0  # atno 17320 bound_to 7965
  144.8830  140.7425  143.5975 LP  0  0  0  0  0  0  0  0  0  0  0  0  # atno 17321 bound_to 7965
  140.6052  143.9538  150.6413 LP  0  0  0  0  0  0  0  0  0  0  0  0  # atno 17342 bound_to 10162
  140.2762  143.3421  152.1193 LP  0  0  0  0  0  0  0  0  0  0  0  0  # atno 17343 bound_to 10162
  156.2755  130.3727  149.7988 LP  0  0  0  0  0  0  0  0  0  0  0  0  # atno 17370 bound_to 10713
  156.5692  130.8417  151.3351 LP  0  0  0  0  0  0  0  0  0  0  0  0  # atno 17371 bound_to 10713
  140.7536  133.8877  155.8365 LP  0  0  0  0  0  0  0  0  0  0  0  0  # atno 17394 bound_to 11000
  140.9980  134.1188  157.4344 LP  0  0  0  0  0  0  0  0  0  0  0  0  # atno 17395 bound_to 11000

$$$$
