AV-unprocessed.smi:170|AV-procd|sdf|1406|dock2
  -GOLD-   2262019163D 1   1.00000     0.00000
 Structure written by MMmdl.
 57 61  0  0  0  0  0  0  0  0  1 V2000
  151.1526  141.4241  159.4299 O   0  0  0  0  0  0  0  0  0  0  0  0
  150.2759  142.2276  158.6626 C   0  0  2  0  0  0  0  0  0  0  0  0
  150.0807  141.5855  157.2750 C   0  0  0  0  0  0  0  0  0  0  0  0
  149.4013  140.3034  157.3423 N   0  0  0  0  0  0  0  0  0  0  0  0
  148.1637  139.9966  156.8246 C   0  0  0  0  0  0  0  0  0  0  0  0
  147.7677  138.7690  157.0234 N   0  0  0  0  0  0  0  0  0  0  0  0
  148.8099  138.1863  157.7351 C   0  0  0  0  0  0  0  0  0  0  0  0
  149.0453  136.8919  158.2819 C   0  0  0  0  0  0  0  0  0  0  0  0
  148.1837  135.8512  158.2186 N   0  0  0  0  0  0  0  0  0  0  0  0
  147.6643  135.6895  156.8660 C   0  0  0  0  0  0  0  0  0  0  0  0
  146.8504  134.3928  156.7621 C   0  0  0  0  0  0  0  0  0  0  0  0
  145.8130  134.4185  157.7334 O   0  0  0  0  0  0  0  0  0  0  0  0
  146.3268  134.4817  159.0593 C   0  0  0  0  0  0  0  0  0  0  0  0
  147.1509  135.7753  159.2601 C   0  0  1  0  0  0  0  0  0  0  0  0
  147.7491  135.8533  160.6899 C   0  0  0  0  0  0  0  0  0  0  0  0
  146.7155  136.0394  161.8033 C   0  0  0  0  0  0  0  0  0  0  0  0
  145.5217  135.0724  161.8896 C   0  0  0  0  0  0  0  0  0  0  0  0
  144.6700  136.1262  161.1798 C   0  0  0  0  0  0  0  0  0  0  0  0
  145.6837  137.1691  161.6553 C   0  0  0  0  0  0  0  0  0  0  0  0
  150.2226  136.6754  158.9184 N   0  0  0  0  0  0  0  0  0  0  0  0
  151.1124  137.6659  159.0335 C   0  0  0  0  0  0  0  0  0  0  0  0
  151.0263  138.9225  158.5908 N   0  0  0  0  0  0  0  0  0  0  0  0
  149.8479  139.1383  157.9389 C   0  0  0  0  0  0  0  0  0  0  0  0
  150.8171  143.6688  158.5597 C   0  0  2  0  0  0  0  0  0  0  0  0
  152.2841  143.8407  158.1516 C   0  0  0  0  0  0  0  0  0  0  0  0
  152.5857  145.2102  158.7171 C   0  0  0  0  0  0  0  0  0  0  0  0
  151.8072  145.1841  160.0304 C   0  0  0  0  0  0  0  0  0  0  0  0
  150.6639  144.3660  159.7932 O   0  0  0  0  0  0  0  0  0  0  0  0
  150.9928  140.5186  159.2111 H   0  0  0  0  0  0  0  0  0  0  0  0
  149.3121  142.2543  159.1727 H   0  0  0  0  0  0  0  0  0  0  0  0
  149.4953  142.2444  156.6326 H   0  0  0  0  0  0  0  0  0  0  0  0
  151.0426  141.4434  156.7808 H   0  0  0  0  0  0  0  0  0  0  0  0
  147.5607  140.7160  156.2898 H   0  0  0  0  0  0  0  0  0  0  0  0
  147.0359  136.5445  156.6113 H   0  0  0  0  0  0  0  0  0  0  0  0
  148.4852  135.6671  156.1476 H   0  0  0  0  0  0  0  0  0  0  0  0
  146.4078  134.3035  155.7700 H   0  0  0  0  0  0  0  0  0  0  0  0
  147.4861  133.5184  156.9104 H   0  0  0  0  0  0  0  0  0  0  0  0
  145.4778  134.4536  159.7412 H   0  0  0  0  0  0  0  0  0  0  0  0
  146.9312  133.5966  159.2658 H   0  0  0  0  0  0  0  0  0  0  0  0
  146.4715  136.6147  159.1169 H   0  0  0  0  0  0  0  0  0  0  0  0
  148.3325  134.9521  160.8813 H   0  0  0  0  0  0  0  0  0  0  0  0
  148.4619  136.6752  160.7510 H   0  0  0  0  0  0  0  0  0  0  0  0
  147.1969  136.1238  162.7777 H   0  0  0  0  0  0  0  0  0  0  0  0
  145.6321  134.1402  161.3353 H   0  0  0  0  0  0  0  0  0  0  0  0
  145.1979  134.8914  162.9160 H   0  0  0  0  0  0  0  0  0  0  0  0
  144.6640  136.0037  160.0954 H   0  0  0  0  0  0  0  0  0  0  0  0
  143.6637  136.2484  161.5811 H   0  0  0  0  0  0  0  0  0  0  0  0
  145.4077  137.6192  162.6105 H   0  0  0  0  0  0  0  0  0  0  0  0
  145.9350  137.9271  160.9125 H   0  0  0  0  0  0  0  0  0  0  0  0
  152.0226  137.4167  159.5588 H   0  0  0  0  0  0  0  0  0  0  0  0
  150.2025  144.2176  157.8440 H   0  0  0  0  0  0  0  0  0  0  0  0
  152.9280  143.1010  158.6278 H   0  0  0  0  0  0  0  0  0  0  0  0
  152.4354  143.7810  157.0735 H   0  0  0  0  0  0  0  0  0  0  0  0
  153.6514  145.3938  158.8568 H   0  0  0  0  0  0  0  0  0  0  0  0
  152.1876  145.9834  158.0585 H   0  0  0  0  0  0  0  0  0  0  0  0
  152.4053  144.7200  160.8153 H   0  0  0  0  0  0  0  0  0  0  0  0
  151.5234  146.1814  160.3667 H   0  0  0  0  0  0  0  0  0  0  0  0
  1  2  1  0  0  0  0
  1 29  1  0  0  0  0
  2  3  1  0  0  0  0
  2 24  1  0  0  0  0
  2 30  1  0  0  0  0
  3  4  1  0  0  0  0
  3 31  1  0  0  0  0
  3 32  1  0  0  0  0
  4 23  1  0  0  0  0
  4  5  1  0  0  0  0
  5  6  2  0  0  0  0
  5 33  1  0  0  0  0
  6  7  1  0  0  0  0
  7 23  2  0  0  0  0
  7  8  1  0  0  0  0
  8  9  1  0  0  0  0
  8 20  2  0  0  0  0
  9 14  1  0  0  0  0
  9 10  1  0  0  0  0
 10 11  1  0  0  0  0
 10 34  1  0  0  0  0
 10 35  1  0  0  0  0
 11 12  1  0  0  0  0
 11 36  1  0  0  0  0
 11 37  1  0  0  0  0
 12 13  1  0  0  0  0
 13 14  1  0  0  0  0
 13 38  1  0  0  0  0
 13 39  1  0  0  0  0
 14 15  1  0  0  0  0
 14 40  1  0  0  0  0
 15 16  1  0  0  0  0
 15 41  1  0  0  0  0
 15 42  1  0  0  0  0
 16 19  1  0  0  0  0
 16 17  1  0  0  0  0
 16 43  1  0  0  0  0
 17 18  1  0  0  0  0
 17 44  1  0  0  0  0
 17 45  1  0  0  0  0
 18 19  1  0  0  0  0
 18 46  1  0  0  0  0
 18 47  1  0  0  0  0
 19 48  1  0  0  0  0
 19 49  1  0  0  0  0
 20 21  1  0  0  0  0
 21 22  2  0  0  0  0
 21 50  1  0  0  0  0
 22 23  1  0  0  0  0
 24 28  1  0  0  0  0
 24 25  1  0  0  0  0
 24 51  1  0  0  0  0
 25 26  1  0  0  0  0
 25 52  1  0  0  0  0
 25 53  1  0  0  0  0
 26 27  1  0  0  0  0
 26 54  1  0  0  0  0
 26 55  1  0  0  0  0
 27 28  1  0  0  0  0
 27 56  1  0  0  0  0
 27 57  1  0  0  0  0
M  END
> <s_m_source_file>
AV-unprocessed.smi

> <i_m_source_file_index>
170

> <i_lp_mmshare_version>
43012

> <i_f3d_flags>
0

> <s_epik_input>
TzFbQ0gyXVtDSDJdW0NIMl1bQ0BIXTFbQ0BIXShbT0hdKVtDSDJdbihbY0hdbjIpYyhjMjMpbltjSF1uYzNONFtDSDJdW0NIMl1PW0NIMl1bQ0BIXTRbQ0gyXVtDSF01W0NIMl1bQ0gyXVtDSDJdNQ==

> <s_epik_cmdline>
J2VwaWtfcHl0aG9uJywgJy1waCcsICc3LjAnLCAnLXRuJywgJzgnLCAnLW1hJywgJzIwMCcsICctbWV0YWxfYmluZGluZycsICctaW1hZScsICc8aW5maWxlLm1hZT4nLCAnLW9tYWUnLCAnPG91dGZpbGUubWFlPic=

> <r_lp_tautomer_probability>
1

> <r_epik_Ionization_Penalty>
4.98275e-05

> <r_epik_Ionization_Penalty_Charging>
0

> <r_epik_Ionization_Penalty_Neutral>
4.98275e-05

> <r_epik_State_Penalty>
-0

> <r_epik_Charging_Adjusted_Penalty>
0

> <i_epik_Tot_Q>
0

> <i_epik_Tot_abs_Q>
0

> <r_epik_Metal_State_Penalty>
-0

> <b_epik_Metal_Only>
0

> <s_lp_Force_Field>
OPLS_2005

> <r_lp_Energy>
54.7181

> <b_lp_Chiralities_Consistent>
1

> <s_lp_Variant>
AV-unprocessed.smi:170-1

> <Gold.Version>
5.8.1

> <Gold.Id.Protein>
6NUR|6NUR_protein|mol2

> <Gold.PLP.Fitness>
43.3611

> <Gold.PLP.PLP>
-41.5513

> <Gold.PLP.part.hbond>
-1.5942

> <Gold.PLP.part.metal>
0.0000

> <Gold.PLP.part.buried>
-8.4249

> <Gold.PLP.part.nonpolar>
-31.4772

> <Gold.PLP.part.repulsive>
0.1300

> <Gold.PLP.ligand.clash>
0.0000

> <Gold.PLP.ligand.torsion>
0.7976

> <Gold.PLP.Chemscore.Hbond>
1.0000

> <Gold.PLP.Chemscore.CHOScore>
0.0000

> <Gold.PLP.Chemscore.Metal>
0.0000

> <Gold.Chemscore.Hbonds>
donor molecule, donor type, donor heavy atom, donor atom, acceptor molecule, acceptor atom, score
      P1  H  6896  6909       L1    20  0.96

> <Gold.PLP.Chemscore.Internal.Correction>
0.4049

> <Gold.Rescore>
     Score         DG    S(hbond)    S(metal)    S(lipo)     H(rot)  DE(clash)    DE(int)     intcor
     11.44     -14.52       0.95        0.00     107.53       2.61       0.41       2.67       ----

> <Gold.Chemscore.Fitness>
11.4426

> <Gold.Chemscore.DG>
-14.5246

> <Gold.Chemscore.ZeroCoef>
-5.4800

> <Gold.Chemscore.Hbond>
0.9451

> <Gold.Chemscore.Metal>
0.0000

> <Gold.Chemscore.Lipo>
107.5284

> <Gold.Chemscore.Internal_Hbond>
0.0000

> <Gold.Chemscore.DEClash>
0.4143

> <Gold.Chemscore.DEInternal>
2.6677

> <Gold.Chemscore.Rot>
2.6144

> <Gold.Chemscore.Internal.Correction>
   9.000000E+99

> <Gold.Chemscore.Hbonds>
donor molecule, donor type, donor heavy atom, donor atom, acceptor molecule, acceptor atom, score
      P1  H  6896  6909       L1    20  0.77

> <Gold.Chemscore.Hbond.Weighted>
-3.1567

> <Gold.Chemscore.Metal.Weighted>
-0.0000

> <Gold.Chemscore.Lipo.Weighted>
-12.5808

> <Gold.Chemscore.Internal_Hbond.Weighted>
0.0000

> <Gold.Chemscore.DEClash.Weighted>
0.4143

> <Gold.Chemscore.DEInternal.Weighted>
2.6677

> <Gold.Chemscore.Rot.Weighted>
6.6929

> <Gold.Chemscore.Internal.Correction.Weighted>
   9.000000E+99

> <Gold.Protein.RotatedTorsions>
[ 6907 6896 6895 6894 ] final   73.81 input  -60.11 | X-H torsion
[ 7974 7965 7964 7962 ] final  -65.85 input  175.53 | X-H torsion
[ 8008 7997 7996 7995 ] final  -85.59 input   59.86 | X-H torsion
[ 10167 10162 10161 10158 ] final  125.64 input  -65.29 | X-H torsion
[ 10718 10713 10712 10709 ] final -133.22 input   66.30 | X-H torsion
[ 10763 10752 10751 10750 ] final -167.82 input  -60.55 | X-H torsion
[ 11005 11000 10999 10996 ] final   84.80 input  -57.11 | X-H torsion

> <Gold.Protein.ActiveResidues>
 VAL166  LYS551  ARG553  GLY616  TRP617  ASP618  TYR619  PRO620  LYS621  CYS622 
 ASP623  PHE694  ASN695  SER759  ASP760  ASP761  ALA762  ILE779  LEU786  VAL792 
 PHE793  MET794  SER795  GLU796  ALA797  LYS798  CYS799  TRP800  GLU811  SER814 

> <Gold.Protein.RotatedAtoms>
  152.4943  134.4366  159.9529 H   0  0  0  0  0  0  0  0  0  0  0  0  # atno 6907 bound_to 6896
  151.4348  133.3654  159.2781 H   0  0  0  0  0  0  0  0  0  0  0  0  # atno 6908 bound_to 6896
  150.9129  134.8570  159.7497 H   0  0  0  0  0  0  0  0  0  0  0  0  # atno 6909 bound_to 6896
  145.7491  140.8917  143.0489 H   0  0  0  0  0  0  0  0  0  0  0  0  # atno 7974 bound_to 7965
  154.6424  140.0589  156.9861 H   0  0  0  0  0  0  0  0  0  0  0  0  # atno 8008 bound_to 7997
  155.1496  140.3273  155.4415 H   0  0  0  0  0  0  0  0  0  0  0  0  # atno 8009 bound_to 7997
  156.2537  140.1949  156.6609 H   0  0  0  0  0  0  0  0  0  0  0  0  # atno 8010 bound_to 7997
  139.5675  144.6919  151.3871 H   0  0  0  0  0  0  0  0  0  0  0  0  # atno 10167 bound_to 10162
  156.2426  130.7105  151.0973 H   0  0  0  0  0  0  0  0  0  0  0  0  # atno 10718 bound_to 10713
  154.6692  135.2936  154.9764 H   0  0  0  0  0  0  0  0  0  0  0  0  # atno 10763 bound_to 10752
  154.0797  135.6606  153.4840 H   0  0  0  0  0  0  0  0  0  0  0  0  # atno 10764 bound_to 10752
  153.0476  135.5194  154.7680 H   0  0  0  0  0  0  0  0  0  0  0  0  # atno 10765 bound_to 10752
  139.8989  134.8242  156.2495 H   0  0  0  0  0  0  0  0  0  0  0  0  # atno 11005 bound_to 11000
  144.6853  139.9567  143.7479 LP  0  0  0  0  0  0  0  0  0  0  0  0  # atno 17320 bound_to 7965
  146.0374  139.3390  143.0718 LP  0  0  0  0  0  0  0  0  0  0  0  0  # atno 17321 bound_to 7965
  140.6958  143.7751  150.7325 LP  0  0  0  0  0  0  0  0  0  0  0  0  # atno 17342 bound_to 10162
  140.1247  143.4580  152.2291 LP  0  0  0  0  0  0  0  0  0  0  0  0  # atno 17343 bound_to 10162
  157.7182  131.0697  150.6244 LP  0  0  0  0  0  0  0  0  0  0  0  0  # atno 17370 bound_to 10713
  156.6318  130.4434  149.5784 LP  0  0  0  0  0  0  0  0  0  0  0  0  # atno 17371 bound_to 10713
  141.0233  133.7029  156.1305 LP  0  0  0  0  0  0  0  0  0  0  0  0  # atno 17394 bound_to 11000
  140.7202  134.4366  157.5575 LP  0  0  0  0  0  0  0  0  0  0  0  0  # atno 17395 bound_to 11000

$$$$
