AV-unprocessed.smi:3181|AV-procd|sdf|12142|dock4
  -GOLD-   2272017583D 1   1.00000     0.00000
 Structure written by MMmdl.
 42 43  0  0  0  0  0  0  0  0  2 V2000
  147.9708  141.2616  155.6309 C   0  0  0  0  0  0  0  0  0  0  0  0
  149.4833  141.0212  155.7693 C   0  0  1  0  0  0  0  0  0  0  0  0
  150.1179  140.4871  154.4665 C   0  0  0  0  0  0  0  0  0  0  0  0
  150.9464  139.3143  154.6788 N   0  0  0  0  0  0  0  0  0  0  0  0
  150.8961  138.1023  154.1235 C   0  0  0  0  0  0  0  0  0  0  0  0
  151.8331  137.2739  154.5623 N   0  0  0  0  0  0  0  0  0  0  0  0
  152.4755  138.0996  155.4410 C   0  0  0  0  0  0  0  0  0  0  0  0
  151.9856  139.3353  155.5456 N   0  0  0  0  0  0  0  0  0  0  0  0
  150.1471  142.2798  156.1788 N   0  3  0  0  0  0  0  0  0  0  0  0
  150.5189  142.3896  157.6083 C   0  0  1  0  0  0  0  0  0  0  0  0
  151.4754  141.2633  158.0425 C   0  0  0  0  0  0  0  0  0  0  0  0
  151.8931  141.4273  159.5106 C   0  0  0  0  0  0  0  0  0  0  0  0
  152.5394  142.8005  159.7843 C   0  0  2  0  0  0  0  0  0  0  0  0
  152.9459  142.9015  161.2655 C   0  0  0  0  0  0  0  0  0  0  0  0
  151.5932  143.9461  159.3379 C   0  0  1  0  0  0  0  0  0  0  0  0
  152.2104  145.3434  159.5290 C   0  0  0  0  0  0  0  0  0  0  0  0
  151.1699  143.7591  157.8663 C   0  0  0  0  0  0  0  0  0  0  0  0
  147.4365  140.3372  155.4105 H   0  0  0  0  0  0  0  0  0  0  0  0
  147.7521  141.9713  154.8323 H   0  0  0  0  0  0  0  0  0  0  0  0
  147.5520  141.6616  156.5551 H   0  0  0  0  0  0  0  0  0  0  0  0
  149.6187  140.2762  156.5550 H   0  0  0  0  0  0  0  0  0  0  0  0
  149.3387  140.2286  153.7480 H   0  0  0  0  0  0  0  0  0  0  0  0
  150.7329  141.2525  153.9925 H   0  0  0  0  0  0  0  0  0  0  0  0
  150.1588  137.8181  153.3869 H   0  0  0  0  0  0  0  0  0  0  0  0
  153.3296  137.7807  156.0199 H   0  0  0  0  0  0  0  0  0  0  0  0
  150.9688  142.4229  155.6090 H   0  0  0  0  0  0  0  0  0  0  0  0
  149.6045  142.3334  158.2016 H   0  0  0  0  0  0  0  0  0  0  0  0
  151.0018  140.2892  157.9184 H   0  0  0  0  0  0  0  0  0  0  0  0
  152.3627  141.2611  157.4078 H   0  0  0  0  0  0  0  0  0  0  0  0
  151.0188  141.2983  160.1505 H   0  0  0  0  0  0  0  0  0  0  0  0
  152.5874  140.6296  159.7779 H   0  0  0  0  0  0  0  0  0  0  0  0
  153.4519  142.8619  159.1891 H   0  0  0  0  0  0  0  0  0  0  0  0
  152.0719  142.9140  161.9174 H   0  0  0  0  0  0  0  0  0  0  0  0
  153.5277  143.8008  161.4660 H   0  0  0  0  0  0  0  0  0  0  0  0
  153.5655  142.0538  161.5596 H   0  0  0  0  0  0  0  0  0  0  0  0
  150.6914  143.9002  159.9505 H   0  0  0  0  0  0  0  0  0  0  0  0
  153.1607  145.4335  159.0016 H   0  0  0  0  0  0  0  0  0  0  0  0
  152.3872  145.5684  160.5803 H   0  0  0  0  0  0  0  0  0  0  0  0
  151.5462  146.1203  159.1488 H   0  0  0  0  0  0  0  0  0  0  0  0
  152.0419  143.8771  157.2208 H   0  0  0  0  0  0  0  0  0  0  0  0
  150.4726  144.5495  157.5848 H   0  0  0  0  0  0  0  0  0  0  0  0
  149.4979  143.0295  155.9878 H   0  0  0  0  0  0  0  0  0  0  0  0
  1  2  1  0  0  0  0
  1 18  1  0  0  0  0
  1 19  1  0  0  0  0
  1 20  1  0  0  0  0
  2  3  1  0  0  0  0
  2  9  1  0  0  0  0
  2 21  1  0  0  0  0
  3  4  1  0  0  0  0
  3 22  1  0  0  0  0
  3 23  1  0  0  0  0
  4  8  1  0  0  0  0
  4  5  1  0  0  0  0
  5  6  2  0  0  0  0
  5 24  1  0  0  0  0
  6  7  1  0  0  0  0
  7  8  2  0  0  0  0
  7 25  1  0  0  0  0
  9 10  1  0  0  0  0
  9 26  1  0  0  0  0
  9 42  1  0  0  0  0
 10 17  1  0  0  0  0
 10 11  1  0  0  0  0
 10 27  1  0  0  0  0
 11 12  1  0  0  0  0
 11 28  1  0  0  0  0
 11 29  1  0  0  0  0
 12 13  1  0  0  0  0
 12 30  1  0  0  0  0
 12 31  1  0  0  0  0
 13 14  1  0  0  0  0
 13 15  1  0  0  0  0
 13 32  1  0  0  0  0
 14 33  1  0  0  0  0
 14 34  1  0  0  0  0
 14 35  1  0  0  0  0
 15 16  1  0  0  0  0
 15 17  1  0  0  0  0
 15 36  1  0  0  0  0
 16 37  1  0  0  0  0
 16 38  1  0  0  0  0
 16 39  1  0  0  0  0
 17 40  1  0  0  0  0
 17 41  1  0  0  0  0
M  CHG  1   9   1
M  END
> <s_m_source_file>
AV-unprocessed.smi

> <i_m_source_file_index>
3181

> <i_lp_mmshare_version>
43012

> <i_f3d_flags>
0

> <s_epik_input>
bjFbY0hdbltjSF1uMVtDSDJdW0NAQEhdKFtDSDNdKVtOSF1bQ0BASF0yW0NIMl1bQ0gyXVtDQEBIXShbQ0gzXSlbQ0BASF0oW0NIM10pW0NIMl0y

> <s_epik_cmdline>
J2VwaWtfcHl0aG9uJywgJy1waCcsICc3LjAnLCAnLXRuJywgJzgnLCAnLW1hJywgJzIwMCcsICctbWV0YWxfYmluZGluZycsICctaW1hZScsICc8aW5maWxlLm1hZT4nLCAnLW9tYWUnLCAnPG91dGZpbGUubWFlPic=

> <r_lp_tautomer_probability>
1

> <r_epik_Ionization_Penalty>
0.000617007

> <r_epik_Ionization_Penalty_Charging>
0.000616215

> <r_epik_Ionization_Penalty_Neutral>
7.92544e-07

> <r_epik_State_Penalty>
0.000388807

> <r_epik_Charging_Adjusted_Penalty>
0.00100502

> <i_epik_Tot_Q>
1

> <i_epik_Tot_abs_Q>
1

> <r_epik_Metal_State_Penalty>
-0

> <b_epik_Metal_Only>
0

> <s_lp_Force_Field>
OPLS_2005

> <r_lp_Energy>
19.8676

> <b_lp_Chiralities_Consistent>
1

> <s_lp_Variant>
AV-unprocessed.smi:3181-8

> <Gold.Version>
5.8.1

> <Gold.Id.Protein>
6NUR|6NUR_protein|mol2

> <Gold.PLP.Fitness>
48.8651

> <Gold.PLP.PLP>
-39.3084

> <Gold.PLP.part.hbond>
-2.0000

> <Gold.PLP.part.metal>
0.0000

> <Gold.PLP.part.buried>
-1.8408

> <Gold.PLP.part.nonpolar>
-35.2210

> <Gold.PLP.part.repulsive>
0.2381

> <Gold.PLP.ligand.clash>
0.0000

> <Gold.PLP.ligand.torsion>
1.3234

> <Gold.PLP.Chemscore.Hbond>
2.9920

> <Gold.PLP.Chemscore.CHOScore>
1.0610

> <Gold.PLP.Chemscore.Metal>
0.0000

> <Gold.Chemscore.Hbonds>
donor molecule, donor type, donor heavy atom, donor atom, acceptor molecule, acceptor atom, score
      L1  H     9    42       P1  8028  2.00
      P1  H 10752 10765       L1     6  1.00
      L1  C     5    24       P1  7948  1.00
      L1  C     5    24       P1  7949  0.05

> <Gold.PLP.Chemscore.Internal.Correction>
0.0445

> <Gold.Rescore>
     Score         DG    S(hbond)    S(metal)    S(lipo)     H(rot)  DE(clash)    DE(int)     intcor
     15.57     -18.56       1.85        0.00     104.99       2.11       1.54       1.44       ----

> <Gold.Chemscore.Fitness>
15.5730

> <Gold.Chemscore.DG>
-18.5582

> <Gold.Chemscore.ZeroCoef>
-5.4800

> <Gold.Chemscore.Hbond>
1.8547

> <Gold.Chemscore.Metal>
0.0000

> <Gold.Chemscore.Lipo>
104.9912

> <Gold.Chemscore.Internal_Hbond>
0.0000

> <Gold.Chemscore.DEClash>
1.5429

> <Gold.Chemscore.DEInternal>
1.4423

> <Gold.Chemscore.Rot>
2.1095

> <Gold.Chemscore.Internal.Correction>
   9.000000E+99

> <Gold.Chemscore.Hbonds>
donor molecule, donor type, donor heavy atom, donor atom, acceptor molecule, acceptor atom, score
      L1  H     9    42       P1  8028  0.99
      P1  H 10752 10765       L1     6  0.61

> <Gold.Chemscore.Hbond.Weighted>
-6.1945

> <Gold.Chemscore.Metal.Weighted>
-0.0000

> <Gold.Chemscore.Lipo.Weighted>
-12.2840

> <Gold.Chemscore.Internal_Hbond.Weighted>
0.0000

> <Gold.Chemscore.DEClash.Weighted>
1.5429

> <Gold.Chemscore.DEInternal.Weighted>
1.4423

> <Gold.Chemscore.Rot.Weighted>
5.4003

> <Gold.Chemscore.Internal.Correction.Weighted>
   9.000000E+99

> <Gold.Protein.RotatedTorsions>
[ 6907 6896 6895 6894 ] final  150.95 input  -60.11 | X-H torsion
[ 7974 7965 7964 7962 ] final  -64.41 input  175.53 | X-H torsion
[ 8008 7997 7996 7995 ] final  -14.53 input   59.86 | X-H torsion
[ 10167 10162 10161 10158 ] final  -68.32 input  -65.29 | X-H torsion
[ 10718 10713 10712 10709 ] final -174.58 input   66.30 | X-H torsion
[ 10763 10752 10751 10750 ] final  162.19 input  -60.55 | X-H torsion
[ 11005 11000 10999 10996 ] final   60.66 input  -57.11 | X-H torsion

> <Gold.Protein.ActiveResidues>
 VAL166  LYS551  ARG553  GLY616  TRP617  ASP618  TYR619  PRO620  LYS621  CYS622 
 ASP623  PHE694  ASN695  SER759  ASP760  ASP761  ALA762  ILE779  LEU786  VAL792 
 PHE793  MET794  SER795  GLU796  ALA797  LYS798  CYS799  TRP800  GLU811  SER814 

> <Gold.Protein.RotatedAtoms>
  152.1074  133.4282  159.4614 H   0  0  0  0  0  0  0  0  0  0  0  0  # atno 6907 bound_to 6896
  150.6866  134.2689  159.4589 H   0  0  0  0  0  0  0  0  0  0  0  0  # atno 6908 bound_to 6896
  152.0555  134.9627  160.0625 H   0  0  0  0  0  0  0  0  0  0  0  0  # atno 6909 bound_to 6896
  145.7671  140.8832  143.0400 H   0  0  0  0  0  0  0  0  0  0  0  0  # atno 7974 bound_to 7965
  154.5203  140.2220  155.8988 H   0  0  0  0  0  0  0  0  0  0  0  0  # atno 8008 bound_to 7997
  156.1654  140.3133  155.8845 H   0  0  0  0  0  0  0  0  0  0  0  0  # atno 8009 bound_to 7997
  155.3667  140.0464  157.3036 H   0  0  0  0  0  0  0  0  0  0  0  0  # atno 8010 bound_to 7997
  140.5516  143.2312  151.6900 H   0  0  0  0  0  0  0  0  0  0  0  0  # atno 10167 bound_to 10162
  156.7872  130.9505  151.3120 H   0  0  0  0  0  0  0  0  0  0  0  0  # atno 10718 bound_to 10713
  154.2745  135.2765  155.2724 H   0  0  0  0  0  0  0  0  0  0  0  0  # atno 10763 bound_to 10752
  154.5273  135.5739  153.6733 H   0  0  0  0  0  0  0  0  0  0  0  0  # atno 10764 bound_to 10752
  152.9939  135.6219  154.2901 H   0  0  0  0  0  0  0  0  0  0  0  0  # atno 10765 bound_to 10752
  140.0216  134.6144  155.9631 H   0  0  0  0  0  0  0  0  0  0  0  0  # atno 11005 bound_to 11000
  144.6819  139.9803  143.7483 LP  0  0  0  0  0  0  0  0  0  0  0  0  # atno 17320 bound_to 7965
  146.0207  139.3248  143.0814 LP  0  0  0  0  0  0  0  0  0  0  0  0  # atno 17321 bound_to 7965
  139.5030  144.3809  152.0377 LP  0  0  0  0  0  0  0  0  0  0  0  0  # atno 17342 bound_to 10162
  140.2926  144.3736  150.6084 LP  0  0  0  0  0  0  0  0  0  0  0  0  # atno 17343 bound_to 10162
  157.6618  130.8973  149.9846 LP  0  0  0  0  0  0  0  0  0  0  0  0  # atno 17370 bound_to 10713
  156.1181  130.3647  149.9933 LP  0  0  0  0  0  0  0  0  0  0  0  0  # atno 17371 bound_to 10713
  141.1777  133.6542  156.4895 LP  0  0  0  0  0  0  0  0  0  0  0  0  # atno 17394 bound_to 11000
  140.4377  134.7044  157.4975 LP  0  0  0  0  0  0  0  0  0  0  0  0  # atno 17395 bound_to 11000

$$$$
