AV-unprocessed.smi:1846|AV-procd|sdf|7514|dock10
  -GOLD-   22720 9223D 1   1.00000     0.00000
 Structure written by MMmdl.
 37 38  0  0  0  0  0  0  0  0  1 V2000
  152.5586  143.2070  161.8647 C   0  0  0  0  0  0  0  0  0  0  0  0
  153.1636  142.5386  160.6215 C   0  0  0  0  0  0  0  0  0  0  0  0
  152.4944  142.9737  159.3870 N   0  0  0  0  0  0  0  0  0  0  0  0
  152.5431  144.4227  159.1464 C   0  0  0  0  0  0  0  0  0  0  0  0
  151.1378  145.0443  159.1360 C   0  0  0  0  0  0  0  0  0  0  0  0
  151.8997  142.0783  158.5579 C   0  0  0  0  0  0  0  0  0  0  0  0
  151.8778  140.8723  158.8148 O   0  0  0  0  0  0  0  0  0  0  0  0
  151.2583  142.5780  157.2466 C   0  0  0  0  0  0  0  0  0  0  0  0
  150.9543  141.4511  156.2990 C   0  0  0  0  0  0  0  0  0  0  0  0
  151.7897  140.4185  155.9486 C   0  0  0  0  0  0  0  0  0  0  0  0
  151.0351  139.3196  154.8269 S   0  0  0  0  0  0  0  0  0  0  0  0
  149.5858  140.3281  154.8664 C   0  0  0  0  0  0  0  0  0  0  0  0
  148.3757  140.1005  154.1465 N   0  0  0  0  0  0  0  0  0  0  0  0
  148.0758  138.8070  153.5407 C   0  0  0  0  0  0  0  0  0  0  0  0
  146.7082  139.0127  152.8972 C   0  0  0  0  0  0  0  0  0  0  0  0
  146.4254  140.3917  153.2187 N   0  0  0  0  0  0  0  0  0  0  0  0
  147.3866  140.9892  153.9265 C   0  0  0  0  0  0  0  0  0  0  0  0
  147.3397  142.1606  154.2967 O   0  0  0  0  0  0  0  0  0  0  0  0
  149.7077  141.3919  155.6672 N   0  0  0  0  0  0  0  0  0  0  0  0
  153.0580  142.8617  162.7698 H   0  0  0  0  0  0  0  0  0  0  0  0
  151.4984  142.9712  161.9604 H   0  0  0  0  0  0  0  0  0  0  0  0
  152.6589  144.2919  161.8266 H   0  0  0  0  0  0  0  0  0  0  0  0
  154.2322  142.7540  160.5686 H   0  0  0  0  0  0  0  0  0  0  0  0
  153.0985  141.4547  160.7261 H   0  0  0  0  0  0  0  0  0  0  0  0
  153.1426  144.9044  159.9204 H   0  0  0  0  0  0  0  0  0  0  0  0
  153.0627  144.6515  158.2159 H   0  0  0  0  0  0  0  0  0  0  0  0
  151.1931  146.1179  158.9548 H   0  0  0  0  0  0  0  0  0  0  0  0
  150.6372  144.8971  160.0933 H   0  0  0  0  0  0  0  0  0  0  0  0
  150.5040  144.6117  158.3628 H   0  0  0  0  0  0  0  0  0  0  0  0
  150.3405  143.1249  157.4575 H   0  0  0  0  0  0  0  0  0  0  0  0
  151.9414  143.2867  156.7774 H   0  0  0  0  0  0  0  0  0  0  0  0
  152.7980  140.2340  156.2881 H   0  0  0  0  0  0  0  0  0  0  0  0
  148.8304  138.5449  152.7976 H   0  0  0  0  0  0  0  0  0  0  0  0
  148.0462  138.0232  154.2988 H   0  0  0  0  0  0  0  0  0  0  0  0
  146.7373  138.8677  151.8168 H   0  0  0  0  0  0  0  0  0  0  0  0
  145.9503  138.3554  153.3250 H   0  0  0  0  0  0  0  0  0  0  0  0
  145.5756  140.8521  152.9262 H   0  0  0  0  0  0  0  0  0  0  0  0
  1  2  1  0  0  0  0
  1 20  1  0  0  0  0
  1 21  1  0  0  0  0
  1 22  1  0  0  0  0
  2  3  1  0  0  0  0
  2 23  1  0  0  0  0
  2 24  1  0  0  0  0
  3  4  1  0  0  0  0
  3  6  1  0  0  0  0
  4  5  1  0  0  0  0
  4 25  1  0  0  0  0
  4 26  1  0  0  0  0
  5 27  1  0  0  0  0
  5 28  1  0  0  0  0
  5 29  1  0  0  0  0
  6  7  2  0  0  0  0
  6  8  1  0  0  0  0
  8  9  1  0  0  0  0
  8 30  1  0  0  0  0
  8 31  1  0  0  0  0
  9 19  1  0  0  0  0
  9 10  2  0  0  0  0
 10 11  1  0  0  0  0
 10 32  1  0  0  0  0
 11 12  1  0  0  0  0
 12 13  1  0  0  0  0
 12 19  2  0  0  0  0
 13 17  1  0  0  0  0
 13 14  1  0  0  0  0
 14 15  1  0  0  0  0
 14 33  1  0  0  0  0
 14 34  1  0  0  0  0
 15 16  1  0  0  0  0
 15 35  1  0  0  0  0
 15 36  1  0  0  0  0
 16 17  1  0  0  0  0
 16 37  1  0  0  0  0
 17 18  2  0  0  0  0
M  END
> <s_m_source_file>
AV-unprocessed.smi

> <i_m_source_file_index>
1846

> <i_lp_mmshare_version>
43012

> <i_f3d_flags>
0

> <s_epik_input>
W0NIM11bQ0gyXU4oW0NIMl1bQ0gzXSlDKD1PKVtDSDJdYzFbY0hdc2MobjEpTjJbQ0gyXVtDSDJdW05IXUMyPU8=

> <s_epik_cmdline>
J2VwaWtfcHl0aG9uJywgJy1waCcsICc3LjAnLCAnLXRuJywgJzgnLCAnLW1hJywgJzIwMCcsICctbWV0YWxfYmluZGluZycsICctaW1hZScsICc8aW5maWxlLm1hZT4nLCAnLW9tYWUnLCAnPG91dGZpbGUubWFlPic=

> <r_lp_tautomer_probability>
1

> <r_epik_Ionization_Penalty>
0.000125664

> <r_epik_Ionization_Penalty_Charging>
0

> <r_epik_Ionization_Penalty_Neutral>
0.000125664

> <r_epik_State_Penalty>
-0

> <r_epik_Charging_Adjusted_Penalty>
0

> <i_epik_Tot_Q>
0

> <i_epik_Tot_abs_Q>
0

> <r_epik_Metal_State_Penalty>
-0

> <b_epik_Metal_Only>
0

> <s_lp_Force_Field>
OPLS_2005

> <r_lp_Energy>
40.7708

> <b_lp_Chiralities_Consistent>
1

> <s_lp_Variant>
AV-unprocessed.smi:1846-1

> <Gold.Version>
5.8.1

> <Gold.Id.Protein>
6NUR|6NUR_protein|mol2

> <Gold.PLP.Fitness>
47.9165

> <Gold.PLP.PLP>
-46.4077

> <Gold.PLP.part.hbond>
-1.0000

> <Gold.PLP.part.metal>
0.0000

> <Gold.PLP.part.buried>
-3.3151

> <Gold.PLP.part.nonpolar>
-41.6296

> <Gold.PLP.part.repulsive>
0.2758

> <Gold.PLP.ligand.clash>
0.0000

> <Gold.PLP.ligand.torsion>
0.4334

> <Gold.PLP.Chemscore.Hbond>
0.7840

> <Gold.PLP.Chemscore.CHOScore>
0.0000

> <Gold.PLP.Chemscore.Metal>
0.0000

> <Gold.Chemscore.Hbonds>
donor molecule, donor type, donor heavy atom, donor atom, acceptor molecule, acceptor atom, score
      L1  H    16    37       P1 10175  0.85

> <Gold.PLP.Chemscore.Internal.Correction>
0.0236

> <Gold.Rescore>
     Score         DG    S(hbond)    S(metal)    S(lipo)     H(rot)  DE(clash)    DE(int)     intcor
     12.52     -15.44       0.99        0.00      93.13       1.66       0.08       2.85       ----

> <Gold.Chemscore.Fitness>
12.5170

> <Gold.Chemscore.DG>
-15.4420

> <Gold.Chemscore.ZeroCoef>
-5.4800

> <Gold.Chemscore.Hbond>
0.9910

> <Gold.Chemscore.Metal>
0.0000

> <Gold.Chemscore.Lipo>
93.1344

> <Gold.Chemscore.Internal_Hbond>
0.0000

> <Gold.Chemscore.DEClash>
0.0790

> <Gold.Chemscore.DEInternal>
2.8461

> <Gold.Chemscore.Rot>
1.6581

> <Gold.Chemscore.Internal.Correction>
   9.000000E+99

> <Gold.Chemscore.Hbonds>
donor molecule, donor type, donor heavy atom, donor atom, acceptor molecule, acceptor atom, score
      L1  H    16    37       P1 10175  0.33

> <Gold.Chemscore.Hbond.Weighted>
-3.3100

> <Gold.Chemscore.Metal.Weighted>
-0.0000

> <Gold.Chemscore.Lipo.Weighted>
-10.8967

> <Gold.Chemscore.Internal_Hbond.Weighted>
0.0000

> <Gold.Chemscore.DEClash.Weighted>
0.0790

> <Gold.Chemscore.DEInternal.Weighted>
2.8461

> <Gold.Chemscore.Rot.Weighted>
4.2447

> <Gold.Chemscore.Internal.Correction.Weighted>
   9.000000E+99

> <Gold.Protein.RotatedTorsions>
[ 6907 6896 6895 6894 ] final   41.21 input  -60.11 | X-H torsion
[ 7974 7965 7964 7962 ] final    3.40 input  175.53 | X-H torsion
[ 8008 7997 7996 7995 ] final  -79.44 input   59.86 | X-H torsion
[ 10167 10162 10161 10158 ] final -164.92 input  -65.29 | X-H torsion
[ 10718 10713 10712 10709 ] final   58.30 input   66.30 | X-H torsion
[ 10763 10752 10751 10750 ] final   31.55 input  -60.55 | X-H torsion
[ 11005 11000 10999 10996 ] final   88.86 input  -57.11 | X-H torsion

> <Gold.Protein.ActiveResidues>
 VAL166  LYS551  ARG553  GLY616  TRP617  ASP618  TYR619  PRO620  LYS621  CYS622 
 ASP623  PHE694  ASN695  SER759  ASP760  ASP761  ALA762  ILE779  LEU786  VAL792 
 PHE793  MET794  SER795  GLU796  ALA797  LYS798  CYS799  TRP800  GLU811  SER814 

> <Gold.Protein.RotatedAtoms>
  152.1924  134.8660  160.0516 H   0  0  0  0  0  0  0  0  0  0  0  0  # atno 6907 bound_to 6896
  151.9544  133.3671  159.4020 H   0  0  0  0  0  0  0  0  0  0  0  0  # atno 6908 bound_to 6896
  150.6938  134.4230  159.5257 H   0  0  0  0  0  0  0  0  0  0  0  0  # atno 6909 bound_to 6896
  146.2445  140.0690  142.8363 H   0  0  0  0  0  0  0  0  0  0  0  0  # atno 7974 bound_to 7965
  154.5786  140.0678  156.9070 H   0  0  0  0  0  0  0  0  0  0  0  0  # atno 8008 bound_to 7997
  155.2504  140.3351  155.4264 H   0  0  0  0  0  0  0  0  0  0  0  0  # atno 8009 bound_to 7997
  156.2172  140.1783  156.7546 H   0  0  0  0  0  0  0  0  0  0  0  0  # atno 8010 bound_to 7997
  139.6218  144.0610  152.1939 H   0  0  0  0  0  0  0  0  0  0  0  0  # atno 10167 bound_to 10162
  157.5585  130.8818  149.9073 H   0  0  0  0  0  0  0  0  0  0  0  0  # atno 10718 bound_to 10713
  153.0309  135.6436  154.1217 H   0  0  0  0  0  0  0  0  0  0  0  0  # atno 10763 bound_to 10752
  154.0939  135.2864  155.3267 H   0  0  0  0  0  0  0  0  0  0  0  0  # atno 10764 bound_to 10752
  154.6445  135.5448  153.7892 H   0  0  0  0  0  0  0  0  0  0  0  0  # atno 10765 bound_to 10752
  139.8887  134.8515  156.3060 H   0  0  0  0  0  0  0  0  0  0  0  0  # atno 11005 bound_to 11000
  145.0832  140.9235  143.4813 LP  0  0  0  0  0  0  0  0  0  0  0  0  # atno 17320 bound_to 7965
  145.0848  139.2933  143.5765 LP  0  0  0  0  0  0  0  0  0  0  0  0  # atno 17321 bound_to 7965
  140.0254  144.6121  150.7532 LP  0  0  0  0  0  0  0  0  0  0  0  0  # atno 17342 bound_to 10162
  140.7386  143.2781  151.3681 LP  0  0  0  0  0  0  0  0  0  0  0  0  # atno 17343 bound_to 10162
  156.0640  130.3695  150.0918 LP  0  0  0  0  0  0  0  0  0  0  0  0  # atno 17370 bound_to 10713
  156.9085  130.9644  151.3566 LP  0  0  0  0  0  0  0  0  0  0  0  0  # atno 17371 bound_to 10713
  140.9881  133.7225  156.0773 LP  0  0  0  0  0  0  0  0  0  0  0  0  # atno 17394 bound_to 11000
  140.7661  134.3885  157.5517 LP  0  0  0  0  0  0  0  0  0  0  0  0  # atno 17395 bound_to 11000

$$$$
