AV-unprocessed.smi:1933|AV-procd|sdf|7821|dock7
  -GOLD-   22720 9563D 1   1.00000     0.00000
 Structure written by MMmdl.
 48 50  0  0  0  0  0  0  0  0  2 V2000
  144.8036  136.3924  153.3377 O   0  0  0  0  0  0  0  0  0  0  0  0
  145.9599  136.3634  152.9157 C   0  0  0  0  0  0  0  0  0  0  0  0
  146.8846  137.2779  153.2379 N   0  0  0  0  0  0  0  0  0  0  0  0
  146.6591  138.4104  154.1274 C   0  0  0  0  0  0  0  0  0  0  0  0
  147.1028  139.7582  153.4993 C   0  0  2  0  0  0  0  0  0  0  0  0
  148.5474  140.1902  153.8826 C   0  0  1  0  0  0  0  0  0  0  0  0
  148.7228  140.8126  155.2589 C   0  0  0  0  0  0  0  0  0  0  0  0
  150.2183  140.6490  155.5120 C   0  0  0  0  0  0  0  0  0  0  0  0
  150.6083  139.4784  154.8041 O   0  0  0  0  0  0  0  0  0  0  0  0
  149.5303  139.0190  153.9985 C   0  0  0  0  0  0  0  0  0  0  0  0
  146.1485  140.8613  153.8243 N   0  3  0  0  0  0  0  0  0  0  0  0
  145.6073  140.8067  155.2041 C   0  0  0  0  0  0  0  0  0  0  0  0
  144.4938  141.8539  155.3746 C   0  0  0  0  0  0  0  0  0  0  0  0
  144.9979  143.1466  155.0595 O   0  0  0  0  0  0  0  0  0  0  0  0
  145.4487  143.2328  153.7127 C   0  0  0  0  0  0  0  0  0  0  0  0
  146.5989  142.2369  153.4909 C   0  0  0  0  0  0  0  0  0  0  0  0
  146.4646  135.4337  152.0857 N   0  0  0  0  0  0  0  0  0  0  0  0
  145.8100  134.2986  151.5374 C   0  0  0  0  0  0  0  0  0  0  0  0
  146.6675  133.3285  150.9707 C   0  0  0  0  0  0  0  0  0  0  0  0
  146.1157  132.1645  150.4014 C   0  0  0  0  0  0  0  0  0  0  0  0
  144.7192  132.0001  150.4142 C   0  0  0  0  0  0  0  0  0  0  0  0
  143.9376  133.0129  150.9993 C   0  0  0  0  0  0  0  0  0  0  0  0
  144.4642  134.1294  151.5453 N   0  0  0  0  0  0  0  0  0  0  0  0
  147.8085  137.1821  152.8426 H   0  0  0  0  0  0  0  0  0  0  0  0
  145.5957  138.4261  154.3666 H   0  0  0  0  0  0  0  0  0  0  0  0
  147.1920  138.2460  155.0654 H   0  0  0  0  0  0  0  0  0  0  0  0
  147.0882  139.6400  152.4146 H   0  0  0  0  0  0  0  0  0  0  0  0
  148.9330  140.8954  153.1452 H   0  0  0  0  0  0  0  0  0  0  0  0
  148.4200  141.8588  155.3052 H   0  0  0  0  0  0  0  0  0  0  0  0
  148.1548  140.2567  156.0061 H   0  0  0  0  0  0  0  0  0  0  0  0
  150.7687  141.4982  155.1052 H   0  0  0  0  0  0  0  0  0  0  0  0
  150.4535  140.5703  156.5737 H   0  0  0  0  0  0  0  0  0  0  0  0
  149.0636  138.1721  154.5036 H   0  0  0  0  0  0  0  0  0  0  0  0
  149.8889  138.6752  153.0279 H   0  0  0  0  0  0  0  0  0  0  0  0
  145.2067  139.8138  155.4108 H   0  0  0  0  0  0  0  0  0  0  0  0
  146.4012  140.9904  155.9285 H   0  0  0  0  0  0  0  0  0  0  0  0
  143.6388  141.6195  154.7382 H   0  0  0  0  0  0  0  0  0  0  0  0
  144.1338  141.8557  156.4035 H   0  0  0  0  0  0  0  0  0  0  0  0
  144.6240  143.0361  153.0255 H   0  0  0  0  0  0  0  0  0  0  0  0
  145.7896  144.2499  153.5187 H   0  0  0  0  0  0  0  0  0  0  0  0
  147.4445  142.5226  154.1176 H   0  0  0  0  0  0  0  0  0  0  0  0
  146.9315  142.2909  152.4548 H   0  0  0  0  0  0  0  0  0  0  0  0
  147.4301  135.5484  151.8157 H   0  0  0  0  0  0  0  0  0  0  0  0
  147.7384  133.4707  150.9688 H   0  0  0  0  0  0  0  0  0  0  0  0
  146.7536  131.4115  149.9628 H   0  0  0  0  0  0  0  0  0  0  0  0
  144.2591  131.1211  149.9873 H   0  0  0  0  0  0  0  0  0  0  0  0
  142.8617  132.9250  151.0304 H   0  0  0  0  0  0  0  0  0  0  0  0
  145.3495  140.6888  153.2309 H   0  0  0  0  0  0  0  0  0  0  0  0
  1  2  2  0  0  0  0
  2  3  1  0  0  0  0
  2 17  1  0  0  0  0
  3  4  1  0  0  0  0
  3 24  1  0  0  0  0
  4  5  1  0  0  0  0
  4 25  1  0  0  0  0
  4 26  1  0  0  0  0
  5  6  1  0  0  0  0
  5 11  1  0  0  0  0
  5 27  1  0  0  0  0
  6 10  1  0  0  0  0
  6  7  1  0  0  0  0
  6 28  1  0  0  0  0
  7  8  1  0  0  0  0
  7 29  1  0  0  0  0
  7 30  1  0  0  0  0
  8  9  1  0  0  0  0
  8 31  1  0  0  0  0
  8 32  1  0  0  0  0
  9 10  1  0  0  0  0
 10 33  1  0  0  0  0
 10 34  1  0  0  0  0
 11 16  1  0  0  0  0
 11 12  1  0  0  0  0
 11 48  1  0  0  0  0
 12 13  1  0  0  0  0
 12 35  1  0  0  0  0
 12 36  1  0  0  0  0
 13 14  1  0  0  0  0
 13 37  1  0  0  0  0
 13 38  1  0  0  0  0
 14 15  1  0  0  0  0
 15 16  1  0  0  0  0
 15 39  1  0  0  0  0
 15 40  1  0  0  0  0
 16 41  1  0  0  0  0
 16 42  1  0  0  0  0
 17 18  1  0  0  0  0
 17 43  1  0  0  0  0
 18 23  1  0  0  0  0
 18 19  2  0  0  0  0
 19 20  1  0  0  0  0
 19 44  1  0  0  0  0
 20 21  2  0  0  0  0
 20 45  1  0  0  0  0
 21 22  1  0  0  0  0
 21 46  1  0  0  0  0
 22 23  2  0  0  0  0
 22 47  1  0  0  0  0
M  CHG  1  11   1
M  END
> <s_m_source_file>
AV-unprocessed.smi

> <i_m_source_file_index>
1933

> <i_lp_mmshare_version>
43012

> <i_f3d_flags>
0

> <s_epik_input>
bjFbY0hdW2NIXVtjSF1bY0hdYzFbTkhdQyg9TylbTkhdW0NIMl1bQ0BIXShbQ0BASF0yW0NIMl1bQ0gyXU9bQ0gyXTIpTjNbQ0gyXVtDSDJdT1tDSDJdW0NIMl0z

> <s_epik_cmdline>
J2VwaWtfcHl0aG9uJywgJy1waCcsICc3LjAnLCAnLXRuJywgJzgnLCAnLW1hJywgJzIwMCcsICctbWV0YWxfYmluZGluZycsICctaW1hZScsICc8aW5maWxlLm1hZT4nLCAnLW9tYWUnLCAnPG91dGZpbGUubWFlPic=

> <r_epik_Ionization_Penalty>
0.983294

> <r_epik_Ionization_Penalty_Charging>
0.98326

> <r_epik_Ionization_Penalty_Neutral>
3.39688e-05

> <r_epik_State_Penalty>
1.0303

> <r_epik_Charging_Adjusted_Penalty>
2.01356

> <i_epik_Tot_Q>
1

> <i_epik_Tot_abs_Q>
1

> <r_epik_Metal_State_Penalty>
1.0303

> <b_epik_Metal_Only>
0

> <s_lp_Force_Field>
OPLS_2005

> <r_lp_Energy>
40.8927

> <b_lp_Chiralities_Consistent>
1

> <s_lp_Variant>
AV-unprocessed.smi:1933-7

> <Gold.Version>
5.8.1

> <Gold.Id.Protein>
6NUR|6NUR_protein|mol2

> <Gold.PLP.Fitness>
49.7890

> <Gold.PLP.PLP>
-37.0754

> <Gold.PLP.part.hbond>
-3.0000

> <Gold.PLP.part.metal>
0.0000

> <Gold.PLP.part.buried>
-5.7554

> <Gold.PLP.part.nonpolar>
-29.1396

> <Gold.PLP.part.repulsive>
0.5481

> <Gold.PLP.ligand.clash>
0.0000

> <Gold.PLP.ligand.torsion>
1.3111

> <Gold.PLP.Chemscore.Hbond>
4.0425

> <Gold.PLP.Chemscore.CHOScore>
0.9942

> <Gold.PLP.Chemscore.Metal>
0.0000

> <Gold.Chemscore.Hbonds>
donor molecule, donor type, donor heavy atom, donor atom, acceptor molecule, acceptor atom, score
      L1  H     3    24       P1  7948  0.98
      L1  H    11    48       P1 10175  2.00
      L1  H    17    43       P1  7948  1.00
      P1  H  7989  7998       L1     9  0.17
      L1  C    22    47       P1 10186  0.31

> <Gold.PLP.Chemscore.Internal.Correction>
0.2259

> <Gold.Rescore>
     Score         DG    S(hbond)    S(metal)    S(lipo)     H(rot)  DE(clash)    DE(int)     intcor
     18.24     -20.32       2.86        0.00      83.91       1.77       0.01       2.06       ----

> <Gold.Chemscore.Fitness>
18.2426

> <Gold.Chemscore.DG>
-20.3171

> <Gold.Chemscore.ZeroCoef>
-5.4800

> <Gold.Chemscore.Hbond>
2.8573

> <Gold.Chemscore.Metal>
0.0000

> <Gold.Chemscore.Lipo>
83.9100

> <Gold.Chemscore.Internal_Hbond>
0.0000

> <Gold.Chemscore.DEClash>
0.0112

> <Gold.Chemscore.DEInternal>
2.0633

> <Gold.Chemscore.Rot>
1.7671

> <Gold.Chemscore.Internal.Correction>
   9.000000E+99

> <Gold.Chemscore.Hbonds>
donor molecule, donor type, donor heavy atom, donor atom, acceptor molecule, acceptor atom, score
      L1  H     3    24       P1  7948  0.93
      L1  H    11    48       P1 10175  0.82
      L1  H    17    43       P1  7948  0.98

> <Gold.Chemscore.Hbond.Weighted>
-9.5434

> <Gold.Chemscore.Metal.Weighted>
-0.0000

> <Gold.Chemscore.Lipo.Weighted>
-9.8175

> <Gold.Chemscore.Internal_Hbond.Weighted>
0.0000

> <Gold.Chemscore.DEClash.Weighted>
0.0112

> <Gold.Chemscore.DEInternal.Weighted>
2.0633

> <Gold.Chemscore.Rot.Weighted>
4.5238

> <Gold.Chemscore.Internal.Correction.Weighted>
   9.000000E+99

> <Gold.Protein.RotatedTorsions>
[ 6907 6896 6895 6894 ] final  -58.12 input  -60.11 | X-H torsion
[ 7974 7965 7964 7962 ] final   17.02 input  175.53 | X-H torsion
[ 8008 7997 7996 7995 ] final  -65.71 input   59.86 | X-H torsion
[ 10167 10162 10161 10158 ] final -154.17 input  -65.29 | X-H torsion
[ 10718 10713 10712 10709 ] final -158.87 input   66.30 | X-H torsion
[ 10763 10752 10751 10750 ] final   61.67 input  -60.55 | X-H torsion
[ 11005 11000 10999 10996 ] final    9.04 input  -57.11 | X-H torsion

> <Gold.Protein.ActiveResidues>
 VAL166  LYS551  ARG553  GLY616  TRP617  ASP618  TYR619  PRO620  LYS621  CYS622 
 ASP623  PHE694  ASN695  SER759  ASP760  ASP761  ALA762  ILE779  LEU786  VAL792 
 PHE793  MET794  SER795  GLU796  ALA797  LYS798  CYS799  TRP800  GLU811  SER814 

> <Gold.Protein.RotatedAtoms>
  150.8031  134.7139  159.6618 H   0  0  0  0  0  0  0  0  0  0  0  0  # atno 6907 bound_to 6896
  152.4149  134.6055  160.0021 H   0  0  0  0  0  0  0  0  0  0  0  0  # atno 6908 bound_to 6896
  151.6287  133.3296  159.3140 H   0  0  0  0  0  0  0  0  0  0  0  0  # atno 6909 bound_to 6896
  146.2231  139.8663  142.8595 H   0  0  0  0  0  0  0  0  0  0  0  0  # atno 7974 bound_to 7965
  154.4688  140.0927  156.7092 H   0  0  0  0  0  0  0  0  0  0  0  0  # atno 8008 bound_to 7997
  155.4781  140.3466  155.4317 H   0  0  0  0  0  0  0  0  0  0  0  0  # atno 8009 bound_to 7997
  156.1004  140.1420  156.9464 H   0  0  0  0  0  0  0  0  0  0  0  0  # atno 8010 bound_to 7997
  139.7036  143.9223  152.2439 H   0  0  0  0  0  0  0  0  0  0  0  0  # atno 10167 bound_to 10162
  156.5601  130.8643  151.2807 H   0  0  0  0  0  0  0  0  0  0  0  0  # atno 10718 bound_to 10713
  152.9958  135.5492  154.6070 H   0  0  0  0  0  0  0  0  0  0  0  0  # atno 10763 bound_to 10752
  154.5399  135.2819  155.1107 H   0  0  0  0  0  0  0  0  0  0  0  0  # atno 10764 bound_to 10752
  154.2388  135.6420  153.5253 H   0  0  0  0  0  0  0  0  0  0  0  0  # atno 10765 bound_to 10752
  140.5302  134.0474  155.7871 H   0  0  0  0  0  0  0  0  0  0  0  0  # atno 11005 bound_to 11000
  145.2654  141.0091  143.3802 LP  0  0  0  0  0  0  0  0  0  0  0  0  # atno 17320 bound_to 7965
  144.9266  139.4348  143.6515 LP  0  0  0  0  0  0  0  0  0  0  0  0  # atno 17321 bound_to 7965
  139.9072  144.6877  150.8601 LP  0  0  0  0  0  0  0  0  0  0  0  0  # atno 17342 bound_to 10162
  140.7716  143.3470  151.2092 LP  0  0  0  0  0  0  0  0  0  0  0  0  # atno 17343 bound_to 10162
  157.7370  130.9788  150.2169 LP  0  0  0  0  0  0  0  0  0  0  0  0  # atno 17370 bound_to 10713
  156.2806  130.3733  149.7939 LP  0  0  0  0  0  0  0  0  0  0  0  0  # atno 17371 bound_to 10713
  141.1286  133.9341  157.2584 LP  0  0  0  0  0  0  0  0  0  0  0  0  # atno 17394 bound_to 11000
  139.9558  135.0166  156.9125 LP  0  0  0  0  0  0  0  0  0  0  0  0  # atno 17395 bound_to 11000

$$$$
