AV-unprocessed.smi:703|AV-procd|sdf|3436|dock3
  -GOLD-   22720 0423D 1   1.00000     0.00000
 Structure written by MMmdl.
 37 38  0  0  0  0  0  0  0  0  3 V2000
  146.1789  138.2561  152.8812 C   0  0  0  0  0  0  0  0  0  0  0  0
  147.4526  139.0707  153.1435 C   0  0  0  0  0  0  0  0  0  0  0  0
  148.4665  138.2976  153.8999 N   0  3  1  0  0  0  0  0  0  0  0  0
  149.7817  138.9730  154.0272 C   0  0  0  0  0  0  0  0  0  0  0  0
  150.2146  138.8447  155.4983 C   0  0  2  0  0  0  0  0  0  0  0  0
  151.7370  138.6814  155.6749 C   0  0  0  0  0  0  0  0  0  0  0  0
  149.3557  137.6843  156.0214 C   0  0  1  0  0  0  0  0  0  0  0  0
  149.1447  137.7647  157.4580 N   0  5  0  0  0  0  0  0  0  0  0  0
  149.4103  136.4514  158.3704 S   0  0  0  0  0  0  0  0  0  0  0  0
  149.9078  135.3135  157.5801 O   0  0  0  0  0  0  0  0  0  0  0  0
  150.1311  136.7647  159.6150 O   0  0  0  0  0  0  0  0  0  0  0  0
  147.6875  136.0218  158.8669 C   0  0  0  0  0  0  0  0  0  0  0  0
  147.5488  136.0921  160.3621 C   0  0  0  0  0  0  0  0  0  0  0  0
  147.3013  135.0331  161.2796 C   0  0  0  0  0  0  0  0  0  0  0  0
  147.2702  135.6610  162.4911 C   0  0  0  0  0  0  0  0  0  0  0  0
  147.4700  136.9947  162.3406 O   0  0  0  0  0  0  0  0  0  0  0  0
  147.6436  137.2609  160.9777 N   0  0  0  0  0  0  0  0  0  0  0  0
  148.0498  137.8690  155.2527 C   0  0  0  0  0  0  0  0  0  0  0  0
  145.4752  138.8269  152.2749 H   0  0  0  0  0  0  0  0  0  0  0  0
  145.6714  137.9921  153.8093 H   0  0  0  0  0  0  0  0  0  0  0  0
  146.4043  137.3330  152.3463 H   0  0  0  0  0  0  0  0  0  0  0  0
  147.8825  139.3643  152.1851 H   0  0  0  0  0  0  0  0  0  0  0  0
  147.2132  139.9919  153.6768 H   0  0  0  0  0  0  0  0  0  0  0  0
  150.4852  138.4818  153.3522 H   0  0  0  0  0  0  0  0  0  0  0  0
  149.7352  140.0234  153.7343 H   0  0  0  0  0  0  0  0  0  0  0  0
  149.9076  139.7600  156.0085 H   0  0  0  0  0  0  0  0  0  0  0  0
  152.1188  137.7875  155.1780 H   0  0  0  0  0  0  0  0  0  0  0  0
  152.0191  138.6237  156.7277 H   0  0  0  0  0  0  0  0  0  0  0  0
  152.2636  139.5366  155.2508 H   0  0  0  0  0  0  0  0  0  0  0  0
  149.8065  136.7411  155.7077 H   0  0  0  0  0  0  0  0  0  0  0  0
  147.0076  136.7157  158.3718 H   0  0  0  0  0  0  0  0  0  0  0  0
  147.4644  135.0199  158.5009 H   0  0  0  0  0  0  0  0  0  0  0  0
  147.1752  133.9796  161.0789 H   0  0  0  0  0  0  0  0  0  0  0  0
  147.1216  135.3145  163.5031 H   0  0  0  0  0  0  0  0  0  0  0  0
  147.4426  138.6516  155.7126 H   0  0  0  0  0  0  0  0  0  0  0  0
  147.4557  136.9551  155.2202 H   0  0  0  0  0  0  0  0  0  0  0  0
  148.6470  137.4501  153.3810 H   0  0  0  0  0  0  0  0  0  0  0  0
  1  2  1  0  0  0  0
  1 19  1  0  0  0  0
  1 20  1  0  0  0  0
  1 21  1  0  0  0  0
  2  3  1  0  0  0  0
  2 22  1  0  0  0  0
  2 23  1  0  0  0  0
  3 18  1  0  0  0  0
  3  4  1  0  0  0  0
  3 37  1  0  0  0  0
  4  5  1  0  0  0  0
  4 24  1  0  0  0  0
  4 25  1  0  0  0  0
  5  6  1  0  0  0  0
  5  7  1  0  0  0  0
  5 26  1  0  0  0  0
  6 27  1  0  0  0  0
  6 28  1  0  0  0  0
  6 29  1  0  0  0  0
  7  8  1  0  0  0  0
  7 18  1  0  0  0  0
  7 30  1  0  0  0  0
  8  9  1  0  0  0  0
  9 10  2  0  0  0  0
  9 11  2  0  0  0  0
  9 12  1  0  0  0  0
 12 13  1  0  0  0  0
 12 31  1  0  0  0  0
 12 32  1  0  0  0  0
 13 17  2  0  0  0  0
 13 14  1  0  0  0  0
 14 15  2  0  0  0  0
 14 33  1  0  0  0  0
 15 16  1  0  0  0  0
 15 34  1  0  0  0  0
 16 17  1  0  0  0  0
 18 35  1  0  0  0  0
 18 36  1  0  0  0  0
M  CHG  1   3   1
M  CHG  1   8  -1
M  END
> <s_m_source_file>
AV-unprocessed.smi

> <i_m_source_file_index>
703

> <i_lp_mmshare_version>
43012

> <i_f3d_flags>
0

> <s_epik_input>
W0NIM11bQ0gyXU4xW0NIMl1bQ0BASF0oW0NIM10pW0NASF0oW0NIMl0xKVtOSF1TKD1PKSg9TylbQ0gyXWMyW2NIXVtjSF1vbjI=

> <s_epik_cmdline>
J2VwaWtfcHl0aG9uJywgJy1waCcsICc3LjAnLCAnLXRuJywgJzgnLCAnLW1hJywgJzIwMCcsICctbWV0YWxfYmluZGluZycsICctaW1hZScsICc8aW5maWxlLm1hZT4nLCAnLW9tYWUnLCAnPG91dGZpbGUubWFlPic=

> <r_epik_Ionization_Penalty>
3.62494

> <r_epik_Ionization_Penalty_Charging>
3.62494

> <r_epik_Ionization_Penalty_Neutral>
2.0321e-10

> <r_epik_State_Penalty>
3.62558

> <r_epik_Charging_Adjusted_Penalty>
7.25052

> <i_epik_Tot_Q>
0

> <i_epik_Tot_abs_Q>
2

> <r_epik_Metal_State_Penalty>
0.530836

> <b_epik_Metal_Only>
1

> <s_lp_Force_Field>
OPLS_2005

> <r_lp_Energy>
15.7231

> <b_lp_Chiralities_Consistent>
1

> <s_lp_Variant>
AV-unprocessed.smi:703-11

> <Gold.Version>
5.8.1

> <Gold.Id.Protein>
6NUR|6NUR_protein|mol2

> <Gold.PLP.Fitness>
38.7503

> <Gold.PLP.PLP>
-27.4649

> <Gold.PLP.part.hbond>
-6.1550

> <Gold.PLP.part.metal>
0.0000

> <Gold.PLP.part.buried>
-2.5190

> <Gold.PLP.part.nonpolar>
-18.9731

> <Gold.PLP.part.repulsive>
0.0051

> <Gold.PLP.ligand.clash>
0.0000

> <Gold.PLP.ligand.torsion>
0.6414

> <Gold.PLP.Chemscore.Hbond>
3.8480

> <Gold.PLP.Chemscore.CHOScore>
0.0000

> <Gold.PLP.Chemscore.Metal>
0.0000

> <Gold.Chemscore.Hbonds>
donor molecule, donor type, donor heavy atom, donor atom, acceptor molecule, acceptor atom, score
      L1  H     3    37       P1  7948  2.00
      P1  H  6896  6907       L1    11  1.00
      P1  H  6934  6947       L1    17  0.91

> <Gold.PLP.Chemscore.Internal.Correction>
1.0243

> <Gold.Rescore>
     Score         DG    S(hbond)    S(metal)    S(lipo)     H(rot)  DE(clash)    DE(int)     intcor
     14.36     -16.66       2.51        0.00      59.55       1.63       0.21       2.09       ----

> <Gold.Chemscore.Fitness>
14.3607

> <Gold.Chemscore.DG>
-16.6633

> <Gold.Chemscore.ZeroCoef>
-5.4800

> <Gold.Chemscore.Hbond>
2.5144

> <Gold.Chemscore.Metal>
0.0000

> <Gold.Chemscore.Lipo>
59.5533

> <Gold.Chemscore.Internal_Hbond>
0.0000

> <Gold.Chemscore.DEClash>
0.2140

> <Gold.Chemscore.DEInternal>
2.0885

> <Gold.Chemscore.Rot>
1.6338

> <Gold.Chemscore.Internal.Correction>
   9.000000E+99

> <Gold.Chemscore.Hbonds>
donor molecule, donor type, donor heavy atom, donor atom, acceptor molecule, acceptor atom, score
      L1  H     3    37       P1  7948  0.98
      P1  H  6896  6907       L1    11  0.38
      P1  H  6934  6947       L1    17  0.23

> <Gold.Chemscore.Hbond.Weighted>
-8.3981

> <Gold.Chemscore.Metal.Weighted>
-0.0000

> <Gold.Chemscore.Lipo.Weighted>
-6.9677

> <Gold.Chemscore.Internal_Hbond.Weighted>
0.0000

> <Gold.Chemscore.DEClash.Weighted>
0.2140

> <Gold.Chemscore.DEInternal.Weighted>
2.0885

> <Gold.Chemscore.Rot.Weighted>
4.1825

> <Gold.Chemscore.Internal.Correction.Weighted>
   9.000000E+99

> <Gold.Protein.RotatedTorsions>
[ 6907 6896 6895 6894 ] final  -18.22 input  -60.11 | X-H torsion
[ 7974 7965 7964 7962 ] final   67.71 input  175.53 | X-H torsion
[ 8008 7997 7996 7995 ] final -126.87 input   59.86 | X-H torsion
[ 10167 10162 10161 10158 ] final  121.61 input  -65.29 | X-H torsion
[ 10718 10713 10712 10709 ] final -133.80 input   66.30 | X-H torsion
[ 10763 10752 10751 10750 ] final  139.68 input  -60.55 | X-H torsion
[ 11005 11000 10999 10996 ] final  -62.58 input  -57.11 | X-H torsion

> <Gold.Protein.ActiveResidues>
 VAL166  LYS551  ARG553  GLY616  TRP617  ASP618  TYR619  PRO620  LYS621  CYS622 
 ASP623  PHE694  ASN695  SER759  ASP760  ASP761  ALA762  ILE779  LEU786  VAL792 
 PHE793  MET794  SER795  GLU796  ALA797  LYS798  CYS799  TRP800  GLU811  SER814 

> <Gold.Protein.RotatedAtoms>
  151.2815  135.0715  159.9170 H   0  0  0  0  0  0  0  0  0  0  0  0  # atno 6907 bound_to 6896
  152.5333  134.0025  159.7912 H   0  0  0  0  0  0  0  0  0  0  0  0  # atno 6908 bound_to 6896
  151.0280  133.5765  159.2694 H   0  0  0  0  0  0  0  0  0  0  0  0  # atno 6909 bound_to 6896
  145.8114  139.3034  143.1097 H   0  0  0  0  0  0  0  0  0  0  0  0  # atno 7974 bound_to 7965
  155.2369  140.0427  157.2970 H   0  0  0  0  0  0  0  0  0  0  0  0  # atno 8008 bound_to 7997
  154.5853  140.2412  155.7966 H   0  0  0  0  0  0  0  0  0  0  0  0  # atno 8009 bound_to 7997
  156.2222  140.2966  155.9988 H   0  0  0  0  0  0  0  0  0  0  0  0  # atno 8010 bound_to 7997
  139.5909  144.7024  151.3293 H   0  0  0  0  0  0  0  0  0  0  0  0  # atno 10167 bound_to 10162
  156.2487  130.7140  151.1031 H   0  0  0  0  0  0  0  0  0  0  0  0  # atno 10718 bound_to 10713
  153.9101  135.3012  155.3448 H   0  0  0  0  0  0  0  0  0  0  0  0  # atno 10763 bound_to 10752
  154.7627  135.4926  153.9499 H   0  0  0  0  0  0  0  0  0  0  0  0  # atno 10764 bound_to 10752
  153.1197  135.6779  153.9458 H   0  0  0  0  0  0  0  0  0  0  0  0  # atno 10765 bound_to 10752
  141.1364  133.6641  156.5549 H   0  0  0  0  0  0  0  0  0  0  0  0  # atno 11005 bound_to 11000
  145.9773  140.8711  143.0132 LP  0  0  0  0  0  0  0  0  0  0  0  0  # atno 17320 bound_to 7965
  144.6757  140.2030  143.7385 LP  0  0  0  0  0  0  0  0  0  0  0  0  # atno 17321 bound_to 7965
  140.7172  143.7235  150.7678 LP  0  0  0  0  0  0  0  0  0  0  0  0  # atno 17342 bound_to 10162
  140.0790  143.4987  152.2540 LP  0  0  0  0  0  0  0  0  0  0  0  0  # atno 17343 bound_to 10162
  157.7206  131.0684  150.6152 LP  0  0  0  0  0  0  0  0  0  0  0  0  # atno 17370 bound_to 10713
  156.6230  130.4411  149.5815 LP  0  0  0  0  0  0  0  0  0  0  0  0  # atno 17371 bound_to 10713
  140.4034  134.7336  157.4793 LP  0  0  0  0  0  0  0  0  0  0  0  0  # atno 17394 bound_to 11000
  140.0479  134.6172  155.8898 LP  0  0  0  0  0  0  0  0  0  0  0  0  # atno 17395 bound_to 11000

$$$$
