AV-unprocessed.smi:2032|AV-procd|sdf|8238|dock4
  -GOLD-   2272010503D 1   1.00000     0.00000
 Structure written by MMmdl.
 43 44  0  0  0  0  0  0  0  0  2 V2000
  148.7234  141.5869  154.5233 C   0  0  0  0  0  0  0  0  0  0  0  0
  149.2518  140.1838  154.8413 C   0  0  1  0  0  0  0  0  0  0  0  0
  148.7443  139.1325  153.8277 C   0  0  0  0  0  0  0  0  0  0  0  0
  149.3508  137.7937  154.0692 N   0  3  2  0  0  0  0  0  0  0  0  0
  148.7468  137.0366  155.2176 C   0  0  2  0  0  0  0  0  0  0  0  0
  149.5756  135.7961  155.6307 C   0  0  0  0  0  0  0  0  0  0  0  0
  147.2893  136.6121  154.8858 C   0  0  0  0  0  0  0  0  0  0  0  0
  147.1777  135.8715  153.6322 N   0  0  0  0  0  0  0  0  0  0  0  0
  146.0612  135.2697  153.1970 C   0  0  0  0  0  0  0  0  0  0  0  0
  144.9961  135.2954  153.8151 O   0  0  0  0  0  0  0  0  0  0  0  0
  146.2666  134.6464  152.0237 N   0  0  0  0  0  0  0  0  0  0  0  0
  145.3529  133.8536  151.2809 C   0  0  0  0  0  0  0  0  0  0  0  0
  145.6697  133.1787  150.1695 N   0  0  0  0  0  0  0  0  0  0  0  0
  144.5729  132.4913  149.6435 C   0  0  0  0  0  0  0  0  0  0  0  0
  143.4205  132.6575  150.3707 C   0  0  0  0  0  0  0  0  0  0  0  0
  143.6687  133.6880  151.7549 S   0  0  0  0  0  0  0  0  0  0  0  0
  150.8314  137.9440  154.0706 C   0  0  0  0  0  0  0  0  0  0  0  0
  151.2826  138.9827  155.1170 C   0  0  1  0  0  0  0  0  0  0  0  0
  152.8027  139.1783  155.1157 C   0  0  0  0  0  0  0  0  0  0  0  0
  150.6747  140.2311  154.8027 O   0  0  0  0  0  0  0  0  0  0  0  0
  147.6338  141.6129  154.5543 H   0  0  0  0  0  0  0  0  0  0  0  0
  149.0378  141.9128  153.5314 H   0  0  0  0  0  0  0  0  0  0  0  0
  149.0927  142.3153  155.2457 H   0  0  0  0  0  0  0  0  0  0  0  0
  148.9321  139.9253  155.8514 H   0  0  0  0  0  0  0  0  0  0  0  0
  147.6573  139.0983  153.8321 H   0  0  0  0  0  0  0  0  0  0  0  0
  149.0197  139.4466  152.8198 H   0  0  0  0  0  0  0  0  0  0  0  0
  148.7278  137.6966  156.0839 H   0  0  0  0  0  0  0  0  0  0  0  0
  149.0905  135.2293  156.4248 H   0  0  0  0  0  0  0  0  0  0  0  0
  150.5529  136.0702  156.0274 H   0  0  0  0  0  0  0  0  0  0  0  0
  149.7235  135.1178  154.7899 H   0  0  0  0  0  0  0  0  0  0  0  0
  146.8494  135.9953  155.6676 H   0  0  0  0  0  0  0  0  0  0  0  0
  146.6566  137.4969  154.8094 H   0  0  0  0  0  0  0  0  0  0  0  0
  148.0092  135.8073  153.0626 H   0  0  0  0  0  0  0  0  0  0  0  0
  147.1903  134.7287  151.6250 H   0  0  0  0  0  0  0  0  0  0  0  0
  144.7014  131.9065  148.7446 H   0  0  0  0  0  0  0  0  0  0  0  0
  142.4446  132.2381  150.1761 H   0  0  0  0  0  0  0  0  0  0  0  0
  151.3468  136.9932  154.1968 H   0  0  0  0  0  0  0  0  0  0  0  0
  151.1326  138.2890  153.0802 H   0  0  0  0  0  0  0  0  0  0  0  0
  150.9768  138.6721  156.1175 H   0  0  0  0  0  0  0  0  0  0  0  0
  153.3175  138.2484  155.3593 H   0  0  0  0  0  0  0  0  0  0  0  0
  153.0998  139.9246  155.8527 H   0  0  0  0  0  0  0  0  0  0  0  0
  153.1583  139.5126  154.1406 H   0  0  0  0  0  0  0  0  0  0  0  0
  149.1407  137.2344  153.2548 H   0  0  0  0  0  0  0  0  0  0  0  0
  1  2  1  0  0  0  0
  1 21  1  0  0  0  0
  1 22  1  0  0  0  0
  1 23  1  0  0  0  0
  2 20  1  0  0  0  0
  2  3  1  0  0  0  0
  2 24  1  0  0  0  0
  3  4  1  0  0  0  0
  3 25  1  0  0  0  0
  3 26  1  0  0  0  0
  4  5  1  0  0  0  0
  4 17  1  0  0  0  0
  4 43  1  0  0  0  0
  5  6  1  0  0  0  0
  5  7  1  0  0  0  0
  5 27  1  0  0  0  0
  6 28  1  0  0  0  0
  6 29  1  0  0  0  0
  6 30  1  0  0  0  0
  7  8  1  0  0  0  0
  7 31  1  0  0  0  0
  7 32  1  0  0  0  0
  8  9  1  0  0  0  0
  8 33  1  0  0  0  0
  9 10  2  0  0  0  0
  9 11  1  0  0  0  0
 11 12  1  0  0  0  0
 11 34  1  0  0  0  0
 12 16  1  0  0  0  0
 12 13  2  0  0  0  0
 13 14  1  0  0  0  0
 14 15  2  0  0  0  0
 14 35  1  0  0  0  0
 15 16  1  0  0  0  0
 15 36  1  0  0  0  0
 17 18  1  0  0  0  0
 17 37  1  0  0  0  0
 17 38  1  0  0  0  0
 18 19  1  0  0  0  0
 18 20  1  0  0  0  0
 18 39  1  0  0  0  0
 19 40  1  0  0  0  0
 19 41  1  0  0  0  0
 19 42  1  0  0  0  0
M  CHG  1   4   1
M  END
> <s_m_source_file>
AV-unprocessed.smi

> <i_m_source_file_index>
2032

> <i_lp_mmshare_version>
43012

> <i_f3d_flags>
0

> <s_epik_input>
W0NIM11bQ0BASF0xW0NIMl1OKFtDSDJdW0NASF0oTzEpW0NIM10pW0NASF0oW0NIM10pW0NIMl1bTkhdQyg9TylbTkhdYzJuW2NIXVtjSF1zMg==

> <s_epik_cmdline>
J2VwaWtfcHl0aG9uJywgJy1waCcsICc3LjAnLCAnLXRuJywgJzgnLCAnLW1hJywgJzIwMCcsICctbWV0YWxfYmluZGluZycsICctaW1hZScsICc8aW5maWxlLm1hZT4nLCAnLW9tYWUnLCAnPG91dGZpbGUubWFlPic=

> <r_lp_tautomer_probability>
0.999

> <r_epik_Ionization_Penalty>
0.695838

> <r_epik_Ionization_Penalty_Charging>
0.695697

> <r_epik_Ionization_Penalty_Neutral>
0.000141198

> <r_epik_State_Penalty>
0.717972

> <r_epik_Charging_Adjusted_Penalty>
1.41367

> <i_epik_Tot_Q>
1

> <i_epik_Tot_abs_Q>
1

> <r_epik_Metal_State_Penalty>
0.756405

> <b_epik_Metal_Only>
0

> <s_lp_Force_Field>
OPLS_2005

> <r_lp_Energy>
19.2739

> <b_lp_Chiralities_Consistent>
1

> <s_lp_Variant>
AV-unprocessed.smi:2032-8

> <Gold.Version>
5.8.1

> <Gold.Id.Protein>
6NUR|6NUR_protein|mol2

> <Gold.PLP.Fitness>
49.0241

> <Gold.PLP.PLP>
-33.6005

> <Gold.PLP.part.hbond>
-3.8085

> <Gold.PLP.part.metal>
0.0000

> <Gold.PLP.part.buried>
-2.2763

> <Gold.PLP.part.nonpolar>
-28.2491

> <Gold.PLP.part.repulsive>
0.3568

> <Gold.PLP.ligand.clash>
0.0000

> <Gold.PLP.ligand.torsion>
0.2914

> <Gold.PLP.Chemscore.Hbond>
4.3466

> <Gold.PLP.Chemscore.CHOScore>
0.9699

> <Gold.PLP.Chemscore.Metal>
0.0000

> <Gold.Chemscore.Hbonds>
donor molecule, donor type, donor heavy atom, donor atom, acceptor molecule, acceptor atom, score
      L1  H     4    43       P1  7948  2.00
      L1  H     8    33       P1  7948  1.00
      L1  H    11    34       P1  7948  0.29
      P1  H  7989  7998       L1    20  1.00
      L1  C    15    36       P1 10186  0.29
      L1  C    15    36       P1 10952  0.93

> <Gold.PLP.Chemscore.Internal.Correction>
0.0571

> <Gold.Rescore>
     Score         DG    S(hbond)    S(metal)    S(lipo)     H(rot)  DE(clash)    DE(int)     intcor
     18.82     -20.63       3.11        0.00      75.88       1.61       0.10       1.71       ----

> <Gold.Chemscore.Fitness>
18.8214

> <Gold.Chemscore.DG>
-20.6271

> <Gold.Chemscore.ZeroCoef>
-5.4800

> <Gold.Chemscore.Hbond>
3.1119

> <Gold.Chemscore.Metal>
0.0000

> <Gold.Chemscore.Lipo>
75.8769

> <Gold.Chemscore.Internal_Hbond>
0.0000

> <Gold.Chemscore.DEClash>
0.0994

> <Gold.Chemscore.DEInternal>
1.7063

> <Gold.Chemscore.Rot>
1.6110

> <Gold.Chemscore.Internal.Correction>
   9.000000E+99

> <Gold.Chemscore.Hbonds>
donor molecule, donor type, donor heavy atom, donor atom, acceptor molecule, acceptor atom, score
      L1  H     4    43       P1  7948  1.00
      L1  H     8    33       P1  7948  0.95
      L1  H    11    34       P1  7948  0.20
      P1  H  7989  7998       L1    20  0.50

> <Gold.Chemscore.Hbond.Weighted>
-10.3937

> <Gold.Chemscore.Metal.Weighted>
-0.0000

> <Gold.Chemscore.Lipo.Weighted>
-8.8776

> <Gold.Chemscore.Internal_Hbond.Weighted>
0.0000

> <Gold.Chemscore.DEClash.Weighted>
0.0994

> <Gold.Chemscore.DEInternal.Weighted>
1.7063

> <Gold.Chemscore.Rot.Weighted>
4.1242

> <Gold.Chemscore.Internal.Correction.Weighted>
   9.000000E+99

> <Gold.Protein.RotatedTorsions>
[ 6907 6896 6895 6894 ] final   45.21 input  -60.11 | X-H torsion
[ 7974 7965 7964 7962 ] final  -37.22 input  175.53 | X-H torsion
[ 8008 7997 7996 7995 ] final  137.45 input   59.86 | X-H torsion
[ 10167 10162 10161 10158 ] final  -95.13 input  -65.29 | X-H torsion
[ 10718 10713 10712 10709 ] final  173.75 input   66.30 | X-H torsion
[ 10763 10752 10751 10750 ] final  127.57 input  -60.55 | X-H torsion
[ 11005 11000 10999 10996 ] final   72.63 input  -57.11 | X-H torsion

> <Gold.Protein.ActiveResidues>
 VAL166  LYS551  ARG553  GLY616  TRP617  ASP618  TYR619  PRO620  LYS621  CYS622 
 ASP623  PHE694  ASN695  SER759  ASP760  ASP761  ALA762  ILE779  LEU786  VAL792 
 PHE793  MET794  SER795  GLU796  ALA797  LYS798  CYS799  TRP800  GLU811  SER814 

> <Gold.Protein.RotatedAtoms>
  152.2418  134.8221  160.0458 H   0  0  0  0  0  0  0  0  0  0  0  0  # atno 6907 bound_to 6896
  151.8933  133.3516  159.3814 H   0  0  0  0  0  0  0  0  0  0  0  0  # atno 6908 bound_to 6896
  150.7056  134.4828  159.5522 H   0  0  0  0  0  0  0  0  0  0  0  0  # atno 6909 bound_to 6896
  146.0594  140.6370  142.9004 H   0  0  0  0  0  0  0  0  0  0  0  0  # atno 7974 bound_to 7965
  156.3002  140.2419  156.3912 H   0  0  0  0  0  0  0  0  0  0  0  0  # atno 8008 bound_to 7997
  154.8612  140.0420  157.1686 H   0  0  0  0  0  0  0  0  0  0  0  0  # atno 8009 bound_to 7997
  154.8894  140.2961  155.5383 H   0  0  0  0  0  0  0  0  0  0  0  0  # atno 8010 bound_to 7997
  140.3074  143.3126  152.0185 H   0  0  0  0  0  0  0  0  0  0  0  0  # atno 10167 bound_to 10162
  156.9597  131.0057  151.2930 H   0  0  0  0  0  0  0  0  0  0  0  0  # atno 10718 bound_to 10713
  153.7116  135.3267  155.3247 H   0  0  0  0  0  0  0  0  0  0  0  0  # atno 10763 bound_to 10752
  154.8383  135.4478  154.1308 H   0  0  0  0  0  0  0  0  0  0  0  0  # atno 10764 bound_to 10752
  153.2404  135.6970  153.7869 H   0  0  0  0  0  0  0  0  0  0  0  0  # atno 10765 bound_to 10752
  139.9481  134.7276  156.0929 H   0  0  0  0  0  0  0  0  0  0  0  0  # atno 11005 bound_to 11000
  144.7166  140.4231  143.7040 LP  0  0  0  0  0  0  0  0  0  0  0  0  # atno 17320 bound_to 7965
  145.6587  139.1577  143.2820 LP  0  0  0  0  0  0  0  0  0  0  0  0  # atno 17321 bound_to 7965
  139.4901  144.6411  151.6876 LP  0  0  0  0  0  0  0  0  0  0  0  0  # atno 17342 bound_to 10162
  140.5598  144.0287  150.6164 LP  0  0  0  0  0  0  0  0  0  0  0  0  # atno 17343 bound_to 10162
  157.5666  130.8282  149.8335 LP  0  0  0  0  0  0  0  0  0  0  0  0  # atno 17370 bound_to 10713
  156.0327  130.3760  150.1643 LP  0  0  0  0  0  0  0  0  0  0  0  0  # atno 17371 bound_to 10713
  141.1137  133.6635  156.3041 LP  0  0  0  0  0  0  0  0  0  0  0  0  # atno 17394 bound_to 11000
  140.5785  134.5769  157.5474 LP  0  0  0  0  0  0  0  0  0  0  0  0  # atno 17395 bound_to 11000

$$$$
