AV-unprocessed.smi:980|AV-procd|sdf|4312|dock2
  -GOLD-   22720 2213D 1   1.00000     0.00000
 Structure written by MMmdl.
 44 45  0  0  0  0  0  0  0  0  1 V2000
  151.1229  139.7515  155.3256 C   0  0  0  0  0  0  0  0  0  0  0  0
  149.8814  140.3844  155.9898 C   0  0  0  0  0  0  0  0  0  0  0  0
  149.3864  139.4214  157.0869 C   0  0  0  0  0  0  0  0  0  0  0  0
  150.3109  141.7233  156.6217 C   0  0  0  0  0  0  0  0  0  0  0  0
  148.7803  140.6231  154.9754 C   0  0  0  0  0  0  0  0  0  0  0  0
  148.0650  141.7783  154.7541 C   0  0  0  0  0  0  0  0  0  0  0  0
  146.8763  141.5910  153.4947 S   0  0  0  0  0  0  0  0  0  0  0  0
  147.4051  139.9288  153.2878 C   0  0  0  0  0  0  0  0  0  0  0  0
  146.7805  138.9869  152.3145 C   0  0  0  0  0  0  0  0  0  0  0  0
  146.2012  137.7395  153.0014 C   0  0  0  0  0  0  0  0  0  0  0  0
  146.1667  136.5911  152.1035 N   0  0  0  0  0  0  0  0  0  0  0  0
  145.0758  135.8620  151.8217 C   0  0  0  0  0  0  0  0  0  0  0  0
  143.9693  136.0849  152.3140 O   0  0  0  0  0  0  0  0  0  0  0  0
  145.2626  134.7085  150.8267 C   0  0  1  0  0  0  0  0  0  0  0  0
  146.4863  133.8398  151.1973 C   0  0  0  0  0  0  0  0  0  0  0  0
  146.5454  132.5589  150.3832 C   0  0  0  0  0  0  0  0  0  0  0  0
  145.5011  132.0754  149.6886 C   0  0  0  0  0  0  0  0  0  0  0  0
  144.1418  132.7507  149.6444 C   0  0  0  0  0  0  0  0  0  0  0  0
  143.9946  133.8360  150.7279 C   0  0  0  0  0  0  0  0  0  0  0  0
  148.3810  139.5799  154.1289 N   0  0  0  0  0  0  0  0  0  0  0  0
  151.9167  139.5766  156.0528 H   0  0  0  0  0  0  0  0  0  0  0  0
  151.5343  140.3965  154.5481 H   0  0  0  0  0  0  0  0  0  0  0  0
  150.8859  138.7897  154.8691 H   0  0  0  0  0  0  0  0  0  0  0  0
  149.0781  138.4643  156.6642 H   0  0  0  0  0  0  0  0  0  0  0  0
  148.5324  139.8315  157.6273 H   0  0  0  0  0  0  0  0  0  0  0  0
  150.1669  139.2206  157.8216 H   0  0  0  0  0  0  0  0  0  0  0  0
  151.1139  141.5823  157.3459 H   0  0  0  0  0  0  0  0  0  0  0  0
  149.4841  142.2047  157.1449 H   0  0  0  0  0  0  0  0  0  0  0  0
  150.6703  142.4211  155.8644 H   0  0  0  0  0  0  0  0  0  0  0  0
  148.1567  142.7291  155.2573 H   0  0  0  0  0  0  0  0  0  0  0  0
  145.9948  139.5175  151.7755 H   0  0  0  0  0  0  0  0  0  0  0  0
  147.5304  138.7039  151.5746 H   0  0  0  0  0  0  0  0  0  0  0  0
  146.7743  137.4956  153.8976 H   0  0  0  0  0  0  0  0  0  0  0  0
  145.1808  137.9385  153.3300 H   0  0  0  0  0  0  0  0  0  0  0  0
  147.0343  136.3387  151.6531 H   0  0  0  0  0  0  0  0  0  0  0  0
  145.4420  135.1382  149.8392 H   0  0  0  0  0  0  0  0  0  0  0  0
  147.4039  134.4033  151.0245 H   0  0  0  0  0  0  0  0  0  0  0  0
  146.4756  133.5673  152.2537 H   0  0  0  0  0  0  0  0  0  0  0  0
  147.4824  132.0215  150.3872 H   0  0  0  0  0  0  0  0  0  0  0  0
  145.6118  131.1661  149.1162 H   0  0  0  0  0  0  0  0  0  0  0  0
  144.0143  133.1880  148.6538 H   0  0  0  0  0  0  0  0  0  0  0  0
  143.3615  131.9986  149.7631 H   0  0  0  0  0  0  0  0  0  0  0  0
  143.8081  133.3548  151.6896 H   0  0  0  0  0  0  0  0  0  0  0  0
  143.1171  134.4486  150.5160 H   0  0  0  0  0  0  0  0  0  0  0  0
  1  2  1  0  0  0  0
  1 21  1  0  0  0  0
  1 22  1  0  0  0  0
  1 23  1  0  0  0  0
  2  3  1  0  0  0  0
  2  4  1  0  0  0  0
  2  5  1  0  0  0  0
  3 24  1  0  0  0  0
  3 25  1  0  0  0  0
  3 26  1  0  0  0  0
  4 27  1  0  0  0  0
  4 28  1  0  0  0  0
  4 29  1  0  0  0  0
  5 20  1  0  0  0  0
  5  6  2  0  0  0  0
  6  7  1  0  0  0  0
  6 30  1  0  0  0  0
  7  8  1  0  0  0  0
  8  9  1  0  0  0  0
  8 20  2  0  0  0  0
  9 10  1  0  0  0  0
  9 31  1  0  0  0  0
  9 32  1  0  0  0  0
 10 11  1  0  0  0  0
 10 33  1  0  0  0  0
 10 34  1  0  0  0  0
 11 12  1  0  0  0  0
 11 35  1  0  0  0  0
 12 13  2  0  0  0  0
 12 14  1  0  0  0  0
 14 19  1  0  0  0  0
 14 15  1  0  0  0  0
 14 36  1  0  0  0  0
 15 16  1  0  0  0  0
 15 37  1  0  0  0  0
 15 38  1  0  0  0  0
 16 17  2  0  0  0  0
 16 39  1  0  0  0  0
 17 18  1  0  0  0  0
 17 40  1  0  0  0  0
 18 19  1  0  0  0  0
 18 41  1  0  0  0  0
 18 42  1  0  0  0  0
 19 43  1  0  0  0  0
 19 44  1  0  0  0  0
M  END
> <s_m_source_file>
AV-unprocessed.smi

> <i_m_source_file_index>
980

> <i_lp_mmshare_version>
43012

> <i_f3d_flags>
0

> <s_epik_input>
W0NIM11DKFtDSDNdKShbQ0gzXSljMVtjSF1zYyhuMSlbQ0gyXVtDSDJdW05IXUMoPU8pW0NAQEhdMltDSDJdW0NIXT1bQ0hdW0NIMl1bQ0gyXTI=

> <s_epik_cmdline>
J2VwaWtfcHl0aG9uJywgJy1waCcsICc3LjAnLCAnLXRuJywgJzgnLCAnLW1hJywgJzIwMCcsICctbWV0YWxfYmluZGluZycsICctaW1hZScsICc8aW5maWxlLm1hZT4nLCAnLW9tYWUnLCAnPG91dGZpbGUubWFlPic=

> <r_epik_Ionization_Penalty>
0.000809238

> <r_epik_Ionization_Penalty_Charging>
0

> <r_epik_Ionization_Penalty_Neutral>
0.000809238

> <r_epik_State_Penalty>
0.000520038

> <r_epik_Charging_Adjusted_Penalty>
0.000520038

> <i_epik_Tot_Q>
0

> <i_epik_Tot_abs_Q>
0

> <r_epik_Metal_State_Penalty>
-0

> <b_epik_Metal_Only>
0

> <s_lp_Force_Field>
OPLS_2005

> <r_lp_Energy>
-0.741004

> <b_lp_Chiralities_Consistent>
1

> <s_lp_Variant>
AV-unprocessed.smi:980-2

> <Gold.Version>
5.8.1

> <Gold.Id.Protein>
6NUR|6NUR_protein|mol2

> <Gold.PLP.Fitness>
44.5595

> <Gold.PLP.PLP>
-40.1588

> <Gold.PLP.part.hbond>
-1.0000

> <Gold.PLP.part.metal>
0.0000

> <Gold.PLP.part.buried>
-0.1971

> <Gold.PLP.part.nonpolar>
-38.3333

> <Gold.PLP.part.repulsive>
0.3279

> <Gold.PLP.ligand.clash>
0.0000

> <Gold.PLP.ligand.torsion>
0.6148

> <Gold.PLP.Chemscore.Hbond>
0.8640

> <Gold.PLP.Chemscore.CHOScore>
1.0000

> <Gold.PLP.Chemscore.Metal>
0.0000

> <Gold.Chemscore.Hbonds>
donor molecule, donor type, donor heavy atom, donor atom, acceptor molecule, acceptor atom, score
      L1  H    11    35       P1  7948  0.93
      L1  C     6    30       P1  8028  1.00

> <Gold.PLP.Chemscore.Internal.Correction>
0.0382

> <Gold.Rescore>
     Score         DG    S(hbond)    S(metal)    S(lipo)     H(rot)  DE(clash)    DE(int)     intcor
     17.57     -18.02       0.92        0.00     111.74       1.41       0.18       0.28       ----

> <Gold.Chemscore.Fitness>
17.5665

> <Gold.Chemscore.DG>
-18.0242

> <Gold.Chemscore.ZeroCoef>
-5.4800

> <Gold.Chemscore.Hbond>
0.9221

> <Gold.Chemscore.Metal>
0.0000

> <Gold.Chemscore.Lipo>
111.7374

> <Gold.Chemscore.Internal_Hbond>
0.0000

> <Gold.Chemscore.DEClash>
0.1796

> <Gold.Chemscore.DEInternal>
0.2782

> <Gold.Chemscore.Rot>
1.4097

> <Gold.Chemscore.Internal.Correction>
   9.000000E+99

> <Gold.Chemscore.Hbonds>
donor molecule, donor type, donor heavy atom, donor atom, acceptor molecule, acceptor atom, score
      L1  H    11    35       P1  7948  0.91

> <Gold.Chemscore.Hbond.Weighted>
-3.0797

> <Gold.Chemscore.Metal.Weighted>
-0.0000

> <Gold.Chemscore.Lipo.Weighted>
-13.0733

> <Gold.Chemscore.Internal_Hbond.Weighted>
0.0000

> <Gold.Chemscore.DEClash.Weighted>
0.1796

> <Gold.Chemscore.DEInternal.Weighted>
0.2782

> <Gold.Chemscore.Rot.Weighted>
3.6087

> <Gold.Chemscore.Internal.Correction.Weighted>
   9.000000E+99

> <Gold.Protein.RotatedTorsions>
[ 6907 6896 6895 6894 ] final  125.10 input  -60.11 | X-H torsion
[ 7974 7965 7964 7962 ] final -104.87 input  175.53 | X-H torsion
[ 8008 7997 7996 7995 ] final   41.20 input   59.86 | X-H torsion
[ 10167 10162 10161 10158 ] final -170.07 input  -65.29 | X-H torsion
[ 10718 10713 10712 10709 ] final  123.24 input   66.30 | X-H torsion
[ 10763 10752 10751 10750 ] final  156.88 input  -60.55 | X-H torsion
[ 11005 11000 10999 10996 ] final  144.90 input  -57.11 | X-H torsion

> <Gold.Protein.ActiveResidues>
 VAL166  LYS551  ARG553  GLY616  TRP617  ASP618  TYR619  PRO620  LYS621  CYS622 
 ASP623  PHE694  ASN695  SER759  ASP760  ASP761  ALA762  ILE779  LEU786  VAL792 
 PHE793  MET794  SER795  GLU796  ALA797  LYS798  CYS799  TRP800  GLU811  SER814 

> <Gold.Protein.RotatedAtoms>
  152.4021  133.6834  159.6325 H   0  0  0  0  0  0  0  0  0  0  0  0  # atno 6907 bound_to 6896
  150.7911  133.8773  159.3284 H   0  0  0  0  0  0  0  0  0  0  0  0  # atno 6908 bound_to 6896
  151.6536  135.1000  160.0217 H   0  0  0  0  0  0  0  0  0  0  0  0  # atno 6909 bound_to 6896
  145.2376  140.9193  143.3168 H   0  0  0  0  0  0  0  0  0  0  0  0  # atno 7974 bound_to 7965
  155.2657  140.3362  155.4269 H   0  0  0  0  0  0  0  0  0  0  0  0  # atno 8008 bound_to 7997
  156.2155  140.1787  156.7641 H   0  0  0  0  0  0  0  0  0  0  0  0  # atno 8009 bound_to 7997
  154.5747  140.0664  156.9001 H   0  0  0  0  0  0  0  0  0  0  0  0  # atno 8010 bound_to 7997
  139.5884  144.1268  152.1604 H   0  0  0  0  0  0  0  0  0  0  0  0  # atno 10167 bound_to 10162
  157.5680  131.1085  150.8419 H   0  0  0  0  0  0  0  0  0  0  0  0  # atno 10718 bound_to 10713
  154.1914  135.2794  155.3020 H   0  0  0  0  0  0  0  0  0  0  0  0  # atno 10763 bound_to 10752
  154.5926  135.5555  153.7296 H   0  0  0  0  0  0  0  0  0  0  0  0  # atno 10764 bound_to 10752
  153.0111  135.6372  154.2053 H   0  0  0  0  0  0  0  0  0  0  0  0  # atno 10765 bound_to 10752
  140.0669  134.9173  157.1279 H   0  0  0  0  0  0  0  0  0  0  0  0  # atno 11005 bound_to 11000
  144.9618  139.3972  143.6352 LP  0  0  0  0  0  0  0  0  0  0  0  0  # atno 17320 bound_to 7965
  146.3337  139.8675  142.8845 LP  0  0  0  0  0  0  0  0  0  0  0  0  # atno 17321 bound_to 7965
  140.0837  144.5679  150.7104 LP  0  0  0  0  0  0  0  0  0  0  0  0  # atno 17342 bound_to 10162
  140.7151  143.2538  151.4458 LP  0  0  0  0  0  0  0  0  0  0  0  0  # atno 17343 bound_to 10162
  156.8899  130.5209  149.5287 LP  0  0  0  0  0  0  0  0  0  0  0  0  # atno 17370 bound_to 10713
  156.0727  130.5756  150.9414 LP  0  0  0  0  0  0  0  0  0  0  0  0  # atno 17371 bound_to 10713
  140.3685  134.2416  155.7180 LP  0  0  0  0  0  0  0  0  0  0  0  0  # atno 17394 bound_to 11000
  141.1996  133.8007  157.0527 LP  0  0  0  0  0  0  0  0  0  0  0  0  # atno 17395 bound_to 11000

$$$$
