AV-unprocessed.smi:1593|AV-procd|sdf|6410|dock3
  -GOLD-   22720 7 43D 1   1.00000     0.00000
 Structure written by MMmdl.
 37 38  0  0  0  0  0  0  0  0  2 V2000
  140.2182  138.5266  153.3134 C   0  0  0  0  0  0  0  0  0  0  0  0
  140.6296  137.0946  153.3420 C   0  0  0  0  0  0  0  0  0  0  0  0
  141.8477  136.4754  153.3226 C   0  0  0  0  0  0  0  0  0  0  0  0
  141.5064  135.0977  153.3731 C   0  0  0  0  0  0  0  0  0  0  0  0
  142.5124  134.0979  153.3724 N   0  0  0  0  0  0  0  0  0  0  0  0
  143.5829  134.0169  152.5640 C   0  0  0  0  0  0  0  0  0  0  0  0
  143.8700  134.8263  151.6816 O   0  0  0  0  0  0  0  0  0  0  0  0
  144.3181  132.9277  152.8312 N   0  0  0  0  0  0  0  0  0  0  0  0
  145.5456  132.5634  152.1331 C   0  0  0  0  0  0  0  0  0  0  0  0
  145.4111  131.2026  151.4226 C   0  0  0  0  0  0  0  0  0  0  0  0
  146.4011  130.2103  151.9095 N   0  3  0  0  0  0  0  0  0  0  0  0
  146.4340  130.1273  153.3894 C   0  0  0  0  0  0  0  0  0  0  0  0
  147.5025  129.1221  153.8513 C   0  0  0  0  0  0  0  0  0  0  0  0
  147.2448  127.8505  153.2697 O   0  0  0  0  0  0  0  0  0  0  0  0
  147.2991  127.8952  151.8494 C   0  0  0  0  0  0  0  0  0  0  0  0
  146.2234  128.8591  151.3208 C   0  0  0  0  0  0  0  0  0  0  0  0
  140.1988  134.8942  153.4188 N   0  0  0  0  0  0  0  0  0  0  0  0
  139.6300  136.1731  153.3989 O   0  0  0  0  0  0  0  0  0  0  0  0
  141.0879  139.1814  153.2565 H   0  0  0  0  0  0  0  0  0  0  0  0
  139.6586  138.7850  154.2124 H   0  0  0  0  0  0  0  0  0  0  0  0
  139.5847  138.7290  152.4496 H   0  0  0  0  0  0  0  0  0  0  0  0
  142.8233  136.9366  153.2797 H   0  0  0  0  0  0  0  0  0  0  0  0
  142.4002  133.3644  154.0564 H   0  0  0  0  0  0  0  0  0  0  0  0
  144.0131  132.3144  153.5733 H   0  0  0  0  0  0  0  0  0  0  0  0
  145.8046  133.3572  151.4320 H   0  0  0  0  0  0  0  0  0  0  0  0
  146.3519  132.5217  152.8657 H   0  0  0  0  0  0  0  0  0  0  0  0
  144.4047  130.8236  151.6075 H   0  0  0  0  0  0  0  0  0  0  0  0
  145.5049  131.3094  150.3409 H   0  0  0  0  0  0  0  0  0  0  0  0
  146.6505  131.1093  153.8117 H   0  0  0  0  0  0  0  0  0  0  0  0
  145.4529  129.8267  153.7606 H   0  0  0  0  0  0  0  0  0  0  0  0
  148.5030  129.4642  153.5814 H   0  0  0  0  0  0  0  0  0  0  0  0
  147.4814  129.0249  154.9368 H   0  0  0  0  0  0  0  0  0  0  0  0
  148.2935  128.2017  151.5205 H   0  0  0  0  0  0  0  0  0  0  0  0
  147.1298  126.8919  151.4576 H   0  0  0  0  0  0  0  0  0  0  0  0
  145.2311  128.4787  151.5686 H   0  0  0  0  0  0  0  0  0  0  0  0
  146.2849  128.9029  150.2339 H   0  0  0  0  0  0  0  0  0  0  0  0
  147.3111  130.5428  151.6240 H   0  0  0  0  0  0  0  0  0  0  0  0
  1  2  1  0  0  0  0
  1 19  1  0  0  0  0
  1 20  1  0  0  0  0
  1 21  1  0  0  0  0
  2 18  1  0  0  0  0
  2  3  2  0  0  0  0
  3  4  1  0  0  0  0
  3 22  1  0  0  0  0
  4  5  1  0  0  0  0
  4 17  2  0  0  0  0
  5  6  1  0  0  0  0
  5 23  1  0  0  0  0
  6  7  2  0  0  0  0
  6  8  1  0  0  0  0
  8  9  1  0  0  0  0
  8 24  1  0  0  0  0
  9 10  1  0  0  0  0
  9 25  1  0  0  0  0
  9 26  1  0  0  0  0
 10 11  1  0  0  0  0
 10 27  1  0  0  0  0
 10 28  1  0  0  0  0
 11 16  1  0  0  0  0
 11 12  1  0  0  0  0
 11 37  1  0  0  0  0
 12 13  1  0  0  0  0
 12 29  1  0  0  0  0
 12 30  1  0  0  0  0
 13 14  1  0  0  0  0
 13 31  1  0  0  0  0
 13 32  1  0  0  0  0
 14 15  1  0  0  0  0
 15 16  1  0  0  0  0
 15 33  1  0  0  0  0
 15 34  1  0  0  0  0
 16 35  1  0  0  0  0
 16 36  1  0  0  0  0
 17 18  1  0  0  0  0
M  CHG  1  11   1
M  END
> <s_m_source_file>
AV-unprocessed.smi

> <i_m_source_file_index>
1593

> <i_lp_mmshare_version>
43012

> <i_f3d_flags>
0

> <s_epik_input>
W0NIM11jMVtjSF1jKG5vMSlbTkhdQyg9TylbTkhdW0NIMl1bQ0gyXU4yW0NIMl1bQ0gyXU9bQ0gyXVtDSDJdMg==

> <s_epik_cmdline>
J2VwaWtfcHl0aG9uJywgJy1waCcsICc3LjAnLCAnLXRuJywgJzgnLCAnLW1hJywgJzIwMCcsICctbWV0YWxfYmluZGluZycsICctaW1hZScsICc8aW5maWxlLm1hZT4nLCAnLW9tYWUnLCAnPG91dGZpbGUubWFlPic=

> <r_epik_Ionization_Penalty>
0.707076

> <r_epik_Ionization_Penalty_Charging>
0.707039

> <r_epik_Ionization_Penalty_Neutral>
3.67886e-05

> <r_epik_State_Penalty>
0.730276

> <r_epik_Charging_Adjusted_Penalty>
1.43732

> <i_epik_Tot_Q>
1

> <i_epik_Tot_abs_Q>
1

> <r_epik_Metal_State_Penalty>
0.743216

> <b_epik_Metal_Only>
0

> <s_lp_Force_Field>
OPLS_2005

> <r_lp_Energy>
12.0314

> <b_lp_Chiralities_Consistent>
1

> <s_lp_Variant>
AV-unprocessed.smi:1593-2

> <Gold.Version>
5.8.1

> <Gold.Id.Protein>
6NUR|6NUR_protein|mol2

> <Gold.PLP.Fitness>
40.2169

> <Gold.PLP.PLP>
-31.6512

> <Gold.PLP.part.hbond>
-4.8441

> <Gold.PLP.part.metal>
0.0000

> <Gold.PLP.part.buried>
-8.0733

> <Gold.PLP.part.nonpolar>
-20.2457

> <Gold.PLP.part.repulsive>
0.6455

> <Gold.PLP.ligand.clash>
0.0000

> <Gold.PLP.ligand.torsion>
0.8080

> <Gold.PLP.Chemscore.Hbond>
3.3900

> <Gold.PLP.Chemscore.CHOScore>
0.0000

> <Gold.PLP.Chemscore.Metal>
0.0000

> <Gold.Chemscore.Hbonds>
donor molecule, donor type, donor heavy atom, donor atom, acceptor molecule, acceptor atom, score
      L1  H     5    23       P1 10957  1.00
      L1  H     8    24       P1 10957  0.85
      L1  H    11    37       P1 10747  0.68
      P1  H 10995 11001       L1    17  0.06
      P1  H 11000 11005       L1    17  0.07

> <Gold.PLP.Chemscore.Internal.Correction>
0.0117

> <Gold.Rescore>
     Score         DG    S(hbond)    S(metal)    S(lipo)     H(rot)  DE(clash)    DE(int)     intcor
     15.61     -17.05       2.71        0.00      57.73       1.65       0.01       1.42       ----

> <Gold.Chemscore.Fitness>
15.6111

> <Gold.Chemscore.DG>
-17.0458

> <Gold.Chemscore.ZeroCoef>
-5.4800

> <Gold.Chemscore.Hbond>
2.7063

> <Gold.Chemscore.Metal>
0.0000

> <Gold.Chemscore.Lipo>
57.7341

> <Gold.Chemscore.Internal_Hbond>
0.0000

> <Gold.Chemscore.DEClash>
0.0149

> <Gold.Chemscore.DEInternal>
1.4199

> <Gold.Chemscore.Rot>
1.6516

> <Gold.Chemscore.Internal.Correction>
   9.000000E+99

> <Gold.Chemscore.Hbonds>
donor molecule, donor type, donor heavy atom, donor atom, acceptor molecule, acceptor atom, score
      L1  H     5    23       P1 10957  0.99
      L1  H     8    24       P1 10957  0.14
      L1  H    11    37       P1 10747  0.68
      P1  H 10995 11001       L1    17  0.06

> <Gold.Chemscore.Hbond.Weighted>
-9.0390

> <Gold.Chemscore.Metal.Weighted>
-0.0000

> <Gold.Chemscore.Lipo.Weighted>
-6.7549

> <Gold.Chemscore.Internal_Hbond.Weighted>
0.0000

> <Gold.Chemscore.DEClash.Weighted>
0.0149

> <Gold.Chemscore.DEInternal.Weighted>
1.4199

> <Gold.Chemscore.Rot.Weighted>
4.2281

> <Gold.Chemscore.Internal.Correction.Weighted>
   9.000000E+99

> <Gold.Protein.RotatedTorsions>
[ 6907 6896 6895 6894 ] final   -6.25 input  -60.11 | X-H torsion
[ 7974 7965 7964 7962 ] final  -51.31 input  175.53 | X-H torsion
[ 8008 7997 7996 7995 ] final   17.61 input   59.86 | X-H torsion
[ 10167 10162 10161 10158 ] final  156.45 input  -65.29 | X-H torsion
[ 10718 10713 10712 10709 ] final  105.38 input   66.30 | X-H torsion
[ 10763 10752 10751 10750 ] final  -48.89 input  -60.55 | X-H torsion
[ 11005 11000 10999 10996 ] final   24.83 input  -57.11 | X-H torsion

> <Gold.Protein.ActiveResidues>
 VAL166  LYS551  ARG553  GLY616  TRP617  ASP618  TYR619  PRO620  LYS621  CYS622 
 ASP623  PHE694  ASN695  SER759  ASP760  ASP761  ALA762  ILE779  LEU786  VAL792 
 PHE793  MET794  SER795  GLU796  ALA797  LYS798  CYS799  TRP800  GLU811  SER814 

> <Gold.Protein.RotatedAtoms>
  151.4685  135.1044  159.9744 H   0  0  0  0  0  0  0  0  0  0  0  0  # atno 6907 bound_to 6896
  152.4826  133.8287  159.7102 H   0  0  0  0  0  0  0  0  0  0  0  0  # atno 6908 bound_to 6896
  150.8909  133.7184  159.2932 H   0  0  0  0  0  0  0  0  0  0  0  0  # atno 6909 bound_to 6896
  145.9203  140.7839  142.9650 H   0  0  0  0  0  0  0  0  0  0  0  0  # atno 7974 bound_to 7965
  154.8940  140.2991  155.5355 H   0  0  0  0  0  0  0  0  0  0  0  0  # atno 8008 bound_to 7997
  156.3020  140.2419  156.3893 H   0  0  0  0  0  0  0  0  0  0  0  0  # atno 8009 bound_to 7997
  154.8590  140.0406  157.1641 H   0  0  0  0  0  0  0  0  0  0  0  0  # atno 8010 bound_to 7997
  139.4821  144.5007  151.8172 H   0  0  0  0  0  0  0  0  0  0  0  0  # atno 10167 bound_to 10162
  157.6707  131.0826  150.5849 H   0  0  0  0  0  0  0  0  0  0  0  0  # atno 10718 bound_to 10713
  154.0851  135.6585  153.4844 H   0  0  0  0  0  0  0  0  0  0  0  0  # atno 10763 bound_to 10752
  153.0342  135.5189  154.7436 H   0  0  0  0  0  0  0  0  0  0  0  0  # atno 10764 bound_to 10752
  154.6542  135.3005  154.9916 H   0  0  0  0  0  0  0  0  0  0  0  0  # atno 10765 bound_to 10752
  140.3545  134.2193  155.7677 H   0  0  0  0  0  0  0  0  0  0  0  0  # atno 11005 bound_to 11000
  144.6752  140.1966  143.7391 LP  0  0  0  0  0  0  0  0  0  0  0  0  # atno 17320 bound_to 7965
  145.8558  139.2198  143.1745 LP  0  0  0  0  0  0  0  0  0  0  0  0  # atno 17321 bound_to 7965
  140.4500  144.1868  150.5897 LP  0  0  0  0  0  0  0  0  0  0  0  0  # atno 17342 bound_to 10162
  140.4594  143.2454  151.9240 LP  0  0  0  0  0  0  0  0  0  0  0  0  # atno 17343 bound_to 10162
  156.6149  130.4390  149.5844 LP  0  0  0  0  0  0  0  0  0  0  0  0  # atno 17370 bound_to 10713
  156.2401  130.6846  151.1547 LP  0  0  0  0  0  0  0  0  0  0  0  0  # atno 17371 bound_to 10713
  141.2002  133.7992  157.0498 LP  0  0  0  0  0  0  0  0  0  0  0  0  # atno 17394 bound_to 11000
  140.0676  134.9720  157.1413 LP  0  0  0  0  0  0  0  0  0  0  0  0  # atno 17395 bound_to 11000

$$$$
