AV-unprocessed.smi:893|AV-procd|sdf|4067|dock1
  -GOLD-   22720 1553D 1   1.00000     0.00000
 Structure written by MMmdl.
 27 28  0  0  0  0  0  0  0  0  1 V2000
  145.8580  142.2284  155.0833 C   0  0  0  0  0  0  0  0  0  0  0  0
  146.4798  141.9600  153.7038 C   0  0  0  0  0  0  0  0  0  0  0  0
  147.2495  140.6210  153.6092 C   0  0  2  0  0  0  0  0  0  0  0  0
  148.5773  140.6548  154.3434 C   0  0  0  0  0  0  0  0  0  0  0  0
  149.6780  139.7541  154.2300 C   0  0  0  0  0  0  0  0  0  0  0  0
  150.6933  140.0720  155.0157 N   0  0  0  0  0  0  0  0  0  0  0  0
  150.2835  141.1830  155.6590 N   0  0  0  0  0  0  0  0  0  0  0  0
  151.1614  141.8162  156.6194 C   0  0  0  0  0  0  0  0  0  0  0  0
  149.0155  141.5586  155.2732 C   0  0  0  0  0  0  0  0  0  0  0  0
  147.3881  140.1901  152.2247 N   0  0  0  0  0  0  0  0  0  0  0  0
  146.8060  139.0075  151.9843 C   0  0  0  0  0  0  0  0  0  0  0  0
  146.7919  138.4144  150.9085 O   0  0  0  0  0  0  0  0  0  0  0  0
  146.2378  138.5920  153.1201 N   0  0  0  0  0  0  0  0  0  0  0  0
  146.4129  139.4533  154.1209 C   0  0  0  0  0  0  0  0  0  0  0  0
  145.9813  139.3443  155.2680 O   0  0  0  0  0  0  0  0  0  0  0  0
  145.3334  143.1838  155.0898 H   0  0  0  0  0  0  0  0  0  0  0  0
  146.6191  142.2659  155.8627 H   0  0  0  0  0  0  0  0  0  0  0  0
  145.1375  141.4565  155.3544 H   0  0  0  0  0  0  0  0  0  0  0  0
  145.6888  141.9834  152.9528 H   0  0  0  0  0  0  0  0  0  0  0  0
  147.1467  142.7881  153.4575 H   0  0  0  0  0  0  0  0  0  0  0  0
  149.7690  138.8807  153.6011 H   0  0  0  0  0  0  0  0  0  0  0  0
  150.6607  142.6687  157.0796 H   0  0  0  0  0  0  0  0  0  0  0  0
  152.0662  142.1634  156.1196 H   0  0  0  0  0  0  0  0  0  0  0  0
  151.4330  141.1027  157.3982 H   0  0  0  0  0  0  0  0  0  0  0  0
  148.5293  142.4292  155.6885 H   0  0  0  0  0  0  0  0  0  0  0  0
  147.8879  140.7290  151.5324 H   0  0  0  0  0  0  0  0  0  0  0  0
  145.7227  137.7280  153.2062 H   0  0  0  0  0  0  0  0  0  0  0  0
  1  2  1  0  0  0  0
  1 16  1  0  0  0  0
  1 17  1  0  0  0  0
  1 18  1  0  0  0  0
  2  3  1  0  0  0  0
  2 19  1  0  0  0  0
  2 20  1  0  0  0  0
  3 14  1  0  0  0  0
  3  4  1  0  0  0  0
  3 10  1  0  0  0  0
  4  9  2  0  0  0  0
  4  5  1  0  0  0  0
  5  6  2  0  0  0  0
  5 21  1  0  0  0  0
  6  7  1  0  0  0  0
  7  8  1  0  0  0  0
  7  9  1  0  0  0  0
  8 22  1  0  0  0  0
  8 23  1  0  0  0  0
  8 24  1  0  0  0  0
  9 25  1  0  0  0  0
 10 11  1  0  0  0  0
 10 26  1  0  0  0  0
 11 12  2  0  0  0  0
 11 13  1  0  0  0  0
 13 14  1  0  0  0  0
 13 27  1  0  0  0  0
 14 15  2  0  0  0  0
M  END
> <s_m_source_file>
AV-unprocessed.smi

> <i_m_source_file_index>
893

> <i_lp_mmshare_version>
43012

> <i_f3d_flags>
0

> <s_epik_input>
Tz1DMVtOSF1DKD1PKVtOSF1bQ0BAXTEoW0NIMl1bQ0gzXSljMltjSF1ubihbQ0gzXSlbY0hdMg==

> <s_epik_cmdline>
J2VwaWtfcHl0aG9uJywgJy1waCcsICc3LjAnLCAnLXRuJywgJzgnLCAnLW1hJywgJzIwMCcsICctbWV0YWxfYmluZGluZycsICctaW1hZScsICc8aW5maWxlLm1hZT4nLCAnLW9tYWUnLCAnPG91dGZpbGUubWFlPic=

> <r_lp_tautomer_probability>
1

> <r_epik_Ionization_Penalty>
0.0236181

> <r_epik_Ionization_Penalty_Charging>
0

> <r_epik_Ionization_Penalty_Neutral>
0.0236181

> <r_epik_State_Penalty>
0.0189572

> <r_epik_Charging_Adjusted_Penalty>
0.0189572

> <i_epik_Tot_Q>
0

> <i_epik_Tot_abs_Q>
0

> <r_epik_Metal_State_Penalty>
0.411796

> <b_epik_Metal_Only>
0

> <s_lp_Force_Field>
OPLS_2005

> <r_lp_Energy>
15.567

> <b_lp_Chiralities_Consistent>
1

> <s_lp_Variant>
AV-unprocessed.smi:893-2

> <Gold.Version>
5.8.1

> <Gold.Id.Protein>
6NUR|6NUR_protein|mol2

> <Gold.PLP.Fitness>
36.0308

> <Gold.PLP.PLP>
-28.1626

> <Gold.PLP.part.hbond>
-2.9531

> <Gold.PLP.part.metal>
0.0000

> <Gold.PLP.part.buried>
-1.8230

> <Gold.PLP.part.nonpolar>
-23.2170

> <Gold.PLP.part.repulsive>
0.7140

> <Gold.PLP.ligand.clash>
0.0000

> <Gold.PLP.ligand.torsion>
0.7893

> <Gold.PLP.Chemscore.Hbond>
1.8380

> <Gold.PLP.Chemscore.CHOScore>
1.2537

> <Gold.PLP.Chemscore.Metal>
0.0000

> <Gold.Chemscore.Hbonds>
donor molecule, donor type, donor heavy atom, donor atom, acceptor molecule, acceptor atom, score
      L1  H    10    26       P1  7957  0.29
      P1  H  7954  7966       L1    12  1.00
      P1  H  7989  7998       L1     6  0.50
      L1  C     5    21       P1  7957  0.24
      L1  C     9    25       P1  8028  1.00

> <Gold.PLP.Chemscore.Internal.Correction>
0.1718

> <Gold.Rescore>
     Score         DG    S(hbond)    S(metal)    S(lipo)     H(rot)  DE(clash)    DE(int)     intcor
     10.36     -13.01       1.61        0.00      46.60       1.30       0.58       2.07       ----

> <Gold.Chemscore.Fitness>
10.3610

> <Gold.Chemscore.DG>
-13.0053

> <Gold.Chemscore.ZeroCoef>
-5.4800

> <Gold.Chemscore.Hbond>
1.6136

> <Gold.Chemscore.Metal>
0.0000

> <Gold.Chemscore.Lipo>
46.6000

> <Gold.Chemscore.Internal_Hbond>
0.0000

> <Gold.Chemscore.DEClash>
0.5760

> <Gold.Chemscore.DEInternal>
2.0683

> <Gold.Chemscore.Rot>
1.2955

> <Gold.Chemscore.Internal.Correction>
   9.000000E+99

> <Gold.Chemscore.Hbonds>
donor molecule, donor type, donor heavy atom, donor atom, acceptor molecule, acceptor atom, score
      L1  H    10    26       P1  7957  0.28
      P1  H  7954  7966       L1    12  0.96
      P1  H  7989  7998       L1     6  0.01

> <Gold.Chemscore.Hbond.Weighted>
-5.3895

> <Gold.Chemscore.Metal.Weighted>
-0.0000

> <Gold.Chemscore.Lipo.Weighted>
-5.4522

> <Gold.Chemscore.Internal_Hbond.Weighted>
0.0000

> <Gold.Chemscore.DEClash.Weighted>
0.5760

> <Gold.Chemscore.DEInternal.Weighted>
2.0683

> <Gold.Chemscore.Rot.Weighted>
3.3164

> <Gold.Chemscore.Internal.Correction.Weighted>
   9.000000E+99

> <Gold.Protein.RotatedTorsions>
[ 6907 6896 6895 6894 ] final   20.59 input  -60.11 | X-H torsion
[ 7974 7965 7964 7962 ] final   72.40 input  175.53 | X-H torsion
[ 8008 7997 7996 7995 ] final  113.39 input   59.86 | X-H torsion
[ 10167 10162 10161 10158 ] final   54.12 input  -65.29 | X-H torsion
[ 10718 10713 10712 10709 ] final  -45.51 input   66.30 | X-H torsion
[ 10763 10752 10751 10750 ] final    0.42 input  -60.55 | X-H torsion
[ 11005 11000 10999 10996 ] final   32.82 input  -57.11 | X-H torsion

> <Gold.Protein.ActiveResidues>
 VAL166  LYS551  ARG553  GLY616  TRP617  ASP618  TYR619  PRO620  LYS621  CYS622 
 ASP623  PHE694  ASN695  SER759  ASP760  ASP761  ALA762  ILE779  LEU786  VAL792 
 PHE793  MET794  SER795  GLU796  ALA797  LYS798  CYS799  TRP800  GLU811  SER814 

> <Gold.Protein.RotatedAtoms>
  151.8987  135.0387  160.0504 H   0  0  0  0  0  0  0  0  0  0  0  0  # atno 6907 bound_to 6896
  152.2376  133.5104  159.5260 H   0  0  0  0  0  0  0  0  0  0  0  0  # atno 6908 bound_to 6896
  150.7044  134.1049  159.4021 H   0  0  0  0  0  0  0  0  0  0  0  0  # atno 6909 bound_to 6896
  145.7538  139.2771  143.1416 H   0  0  0  0  0  0  0  0  0  0  0  0  # atno 7974 bound_to 7965
  156.2254  140.2980  156.0055 H   0  0  0  0  0  0  0  0  0  0  0  0  # atno 8008 bound_to 7997
  155.2369  140.0421  157.2987 H   0  0  0  0  0  0  0  0  0  0  0  0  # atno 8009 bound_to 7997
  154.5908  140.2401  155.7932 H   0  0  0  0  0  0  0  0  0  0  0  0  # atno 8010 bound_to 7997
  140.2335  144.3661  150.6406 H   0  0  0  0  0  0  0  0  0  0  0  0  # atno 10167 bound_to 10162
  156.2276  130.4170  149.8915 H   0  0  0  0  0  0  0  0  0  0  0  0  # atno 10718 bound_to 10713
  153.3208  135.6969  153.7032 H   0  0  0  0  0  0  0  0  0  0  0  0  # atno 10763 bound_to 10752
  153.5872  135.3486  155.2898 H   0  0  0  0  0  0  0  0  0  0  0  0  # atno 10764 bound_to 10752
  154.8597  135.4309  154.2372 H   0  0  0  0  0  0  0  0  0  0  0  0  # atno 10765 bound_to 10752
  140.2695  134.3098  155.7832 H   0  0  0  0  0  0  0  0  0  0  0  0  # atno 11005 bound_to 11000
  146.0331  140.8239  142.9866 LP  0  0  0  0  0  0  0  0  0  0  0  0  # atno 17320 bound_to 7965
  144.6844  140.2798  143.7294 LP  0  0  0  0  0  0  0  0  0  0  0  0  # atno 17321 bound_to 7965
  140.6167  143.2173  151.6777 LP  0  0  0  0  0  0  0  0  0  0  0  0  # atno 17342 bound_to 10162
  139.5102  144.3552  152.0615 LP  0  0  0  0  0  0  0  0  0  0  0  0  # atno 17343 bound_to 10162
  156.6540  130.8755  151.3536 LP  0  0  0  0  0  0  0  0  0  0  0  0  # atno 17370 bound_to 10713
  157.7118  130.9449  150.1114 LP  0  0  0  0  0  0  0  0  0  0  0  0  # atno 17371 bound_to 10713
  141.2179  133.7458  156.9312 LP  0  0  0  0  0  0  0  0  0  0  0  0  # atno 17394 bound_to 11000
  140.1387  134.9308  157.2437 LP  0  0  0  0  0  0  0  0  0  0  0  0  # atno 17395 bound_to 11000

$$$$
