AV-unprocessed.smi:3303|AV-procd|sdf|12684|dock1
  -GOLD-   2272019 23D 1   1.00000     0.00000
 Structure written by MMmdl.
 44 45  0  0  0  0  0  0  0  0  2 V2000
  152.0546  138.1635  154.9263 C   0  0  0  0  0  0  0  0  0  0  0  0
  151.0089  139.2324  154.5621 C   0  0  1  0  0  0  0  0  0  0  0  0
  149.6307  138.6195  154.2462 C   0  0  0  0  0  0  0  0  0  0  0  0
  148.6741  139.6598  153.7931 N   0  3  1  0  0  0  0  0  0  0  0  0
  147.4206  139.0895  153.2493 C   0  0  0  0  0  0  0  0  0  0  0  0
  148.4682  140.7508  154.7878 C   0  0  1  0  0  0  0  0  0  0  0  0
  147.6203  140.3262  156.0070 C   0  0  0  0  0  0  0  0  0  0  0  0
  149.8198  141.3904  155.1808 C   0  0  0  0  0  0  0  0  0  0  0  0
  150.9064  140.3721  155.6022 C   0  0  1  0  0  0  0  0  0  0  0  0
  150.6881  139.8383  156.9444 N   0  0  0  0  0  0  0  0  0  0  0  0
  150.5736  140.8861  157.9490 C   0  0  0  0  0  0  0  0  0  0  0  0
  151.9756  141.3091  158.4066 C   0  0  0  0  0  0  0  0  0  0  0  0
  151.9654  142.6613  159.0936 C   0  0  0  0  0  0  0  0  0  0  0  0
  151.9722  143.8528  158.3375 C   0  0  0  0  0  0  0  0  0  0  0  0
  151.9721  145.0826  159.0238 C   0  0  0  0  0  0  0  0  0  0  0  0
  151.9665  145.0735  160.4320 C   0  0  0  0  0  0  0  0  0  0  0  0
  151.9620  143.8295  161.0942 C   0  0  0  0  0  0  0  0  0  0  0  0
  151.9624  142.6447  160.4457 N   0  0  0  0  0  0  0  0  0  0  0  0
  151.7596  137.5906  155.8059 H   0  0  0  0  0  0  0  0  0  0  0  0
  153.0245  138.6171  155.1322 H   0  0  0  0  0  0  0  0  0  0  0  0
  152.1908  137.4568  154.1073 H   0  0  0  0  0  0  0  0  0  0  0  0
  151.3619  139.6932  153.6379 H   0  0  0  0  0  0  0  0  0  0  0  0
  149.7433  137.8764  153.4555 H   0  0  0  0  0  0  0  0  0  0  0  0
  149.2331  138.0898  155.1124 H   0  0  0  0  0  0  0  0  0  0  0  0
  146.8986  138.4880  153.9941 H   0  0  0  0  0  0  0  0  0  0  0  0
  147.6359  138.4487  152.3938 H   0  0  0  0  0  0  0  0  0  0  0  0
  146.7498  139.8795  152.9099 H   0  0  0  0  0  0  0  0  0  0  0  0
  147.8989  141.5295  154.2783 H   0  0  0  0  0  0  0  0  0  0  0  0
  147.5421  141.1431  156.7249 H   0  0  0  0  0  0  0  0  0  0  0  0
  148.0406  139.4710  156.5338 H   0  0  0  0  0  0  0  0  0  0  0  0
  146.6029  140.0649  155.7168 H   0  0  0  0  0  0  0  0  0  0  0  0
  150.1977  141.9240  154.3077 H   0  0  0  0  0  0  0  0  0  0  0  0
  149.6704  142.1632  155.9340 H   0  0  0  0  0  0  0  0  0  0  0  0
  151.8704  140.8834  155.6155 H   0  0  0  0  0  0  0  0  0  0  0  0
  151.4687  139.2465  157.1923 H   0  0  0  0  0  0  0  0  0  0  0  0
  150.0459  141.7430  157.5286 H   0  0  0  0  0  0  0  0  0  0  0  0
  150.0016  140.5356  158.8072 H   0  0  0  0  0  0  0  0  0  0  0  0
  152.3872  140.5643  159.0892 H   0  0  0  0  0  0  0  0  0  0  0  0
  152.6538  141.3523  157.5531 H   0  0  0  0  0  0  0  0  0  0  0  0
  151.9790  143.8277  157.2577 H   0  0  0  0  0  0  0  0  0  0  0  0
  151.9770  146.0157  158.4799 H   0  0  0  0  0  0  0  0  0  0  0  0
  151.9661  145.9972  160.9915 H   0  0  0  0  0  0  0  0  0  0  0  0
  151.9587  143.7851  162.1732 H   0  0  0  0  0  0  0  0  0  0  0  0
  149.1235  140.1059  153.0061 H   0  0  0  0  0  0  0  0  0  0  0  0
  1  2  1  0  0  0  0
  1 19  1  0  0  0  0
  1 20  1  0  0  0  0
  1 21  1  0  0  0  0
  2  9  1  0  0  0  0
  2  3  1  0  0  0  0
  2 22  1  0  0  0  0
  3  4  1  0  0  0  0
  3 23  1  0  0  0  0
  3 24  1  0  0  0  0
  4  5  1  0  0  0  0
  4  6  1  0  0  0  0
  4 44  1  0  0  0  0
  5 25  1  0  0  0  0
  5 26  1  0  0  0  0
  5 27  1  0  0  0  0
  6  7  1  0  0  0  0
  6  8  1  0  0  0  0
  6 28  1  0  0  0  0
  7 29  1  0  0  0  0
  7 30  1  0  0  0  0
  7 31  1  0  0  0  0
  8  9  1  0  0  0  0
  8 32  1  0  0  0  0
  8 33  1  0  0  0  0
  9 10  1  0  0  0  0
  9 34  1  0  0  0  0
 10 11  1  0  0  0  0
 10 35  1  0  0  0  0
 11 12  1  0  0  0  0
 11 36  1  0  0  0  0
 11 37  1  0  0  0  0
 12 13  1  0  0  0  0
 12 38  1  0  0  0  0
 12 39  1  0  0  0  0
 13 18  1  0  0  0  0
 13 14  2  0  0  0  0
 14 15  1  0  0  0  0
 14 40  1  0  0  0  0
 15 16  2  0  0  0  0
 15 41  1  0  0  0  0
 16 17  1  0  0  0  0
 16 42  1  0  0  0  0
 17 18  2  0  0  0  0
 17 43  1  0  0  0  0
M  CHG  1   4   1
M  END
> <s_m_source_file>
AV-unprocessed.smi

> <i_m_source_file_index>
3303

> <i_lp_mmshare_version>
43012

> <i_f3d_flags>
0

> <s_epik_input>
W0NIM11bQ0BASF0xW0NIMl1OKFtDSDNdKVtDQEBIXShbQ0gzXSlbQ0gyXVtDQEhdMVtOSF1bQ0gyXVtDSDJdYzJbY0hdW2NIXVtjSF1bY0hdbjI=

> <s_epik_cmdline>
J2VwaWtfcHl0aG9uJywgJy1waCcsICc3LjAnLCAnLXRuJywgJzgnLCAnLW1hJywgJzIwMCcsICctbWV0YWxfYmluZGluZycsICctaW1hZScsICc8aW5maWxlLm1hZT4nLCAnLW9tYWUnLCAnPG91dGZpbGUubWFlPic=

> <r_epik_Ionization_Penalty>
2.31085

> <r_epik_Ionization_Penalty_Charging>
0.000313057

> <r_epik_Ionization_Penalty_Neutral>
2.31054

> <r_epik_State_Penalty>
2.4087

> <r_epik_Charging_Adjusted_Penalty>
2.40902

> <i_epik_Tot_Q>
1

> <i_epik_Tot_abs_Q>
1

> <r_epik_Metal_State_Penalty>
2.30979

> <b_epik_Metal_Only>
0

> <s_lp_Force_Field>
OPLS_2005

> <r_lp_Energy>
26.6876

> <b_lp_Chiralities_Consistent>
1

> <s_lp_Variant>
AV-unprocessed.smi:3303-28

> <Gold.Version>
5.8.1

> <Gold.Id.Protein>
6NUR|6NUR_protein|mol2

> <Gold.PLP.Fitness>
45.4119

> <Gold.PLP.PLP>
-43.4545

> <Gold.PLP.part.hbond>
-1.2615

> <Gold.PLP.part.metal>
0.0000

> <Gold.PLP.part.buried>
-3.6226

> <Gold.PLP.part.nonpolar>
-38.4161

> <Gold.PLP.part.repulsive>
0.1191

> <Gold.PLP.ligand.clash>
0.0000

> <Gold.PLP.ligand.torsion>
0.5244

> <Gold.PLP.Chemscore.Hbond>
0.9920

> <Gold.PLP.Chemscore.CHOScore>
0.0000

> <Gold.PLP.Chemscore.Metal>
0.0000

> <Gold.Chemscore.Hbonds>
donor molecule, donor type, donor heavy atom, donor atom, acceptor molecule, acceptor atom, score
      L1  H     4    44       P1  7957  0.96

> <Gold.PLP.Chemscore.Internal.Correction>
0.0301

> <Gold.Rescore>
     Score         DG    S(hbond)    S(metal)    S(lipo)     H(rot)  DE(clash)    DE(int)     intcor
     19.55     -19.98       0.99        0.00     124.86       1.33       0.27       0.17       ----

> <Gold.Chemscore.Fitness>
19.5493

> <Gold.Chemscore.DG>
-19.9811

> <Gold.Chemscore.ZeroCoef>
-5.4800

> <Gold.Chemscore.Hbond>
0.9850

> <Gold.Chemscore.Metal>
0.0000

> <Gold.Chemscore.Lipo>
124.8603

> <Gold.Chemscore.Internal_Hbond>
0.0000

> <Gold.Chemscore.DEClash>
0.2667

> <Gold.Chemscore.DEInternal>
0.1651

> <Gold.Chemscore.Rot>
1.3272

> <Gold.Chemscore.Internal.Correction>
   9.000000E+99

> <Gold.Chemscore.Hbonds>
donor molecule, donor type, donor heavy atom, donor atom, acceptor molecule, acceptor atom, score
      L1  H     4    44       P1  7957  0.92

> <Gold.Chemscore.Hbond.Weighted>
-3.2901

> <Gold.Chemscore.Metal.Weighted>
-0.0000

> <Gold.Chemscore.Lipo.Weighted>
-14.6087

> <Gold.Chemscore.Internal_Hbond.Weighted>
0.0000

> <Gold.Chemscore.DEClash.Weighted>
0.2667

> <Gold.Chemscore.DEInternal.Weighted>
0.1651

> <Gold.Chemscore.Rot.Weighted>
3.3976

> <Gold.Chemscore.Internal.Correction.Weighted>
   9.000000E+99

> <Gold.Protein.RotatedTorsions>
[ 6907 6896 6895 6894 ] final   12.47 input  -60.11 | X-H torsion
[ 7974 7965 7964 7962 ] final   83.63 input  175.53 | X-H torsion
[ 8008 7997 7996 7995 ] final   68.45 input   59.86 | X-H torsion
[ 10167 10162 10161 10158 ] final  -16.56 input  -65.29 | X-H torsion
[ 10718 10713 10712 10709 ] final   43.61 input   66.30 | X-H torsion
[ 10763 10752 10751 10750 ] final -158.66 input  -60.55 | X-H torsion
[ 11005 11000 10999 10996 ] final  137.58 input  -57.11 | X-H torsion

> <Gold.Protein.ActiveResidues>
 VAL166  LYS551  ARG553  GLY616  TRP617  ASP618  TYR619  PRO620  LYS621  CYS622 
 ASP623  PHE694  ASN695  SER759  ASP760  ASP761  ALA762  ILE779  LEU786  VAL792 
 PHE793  MET794  SER795  GLU796  ALA797  LYS798  CYS799  TRP800  GLU811  SER814 

> <Gold.Protein.RotatedAtoms>
  151.7709  135.0786  160.0359 H   0  0  0  0  0  0  0  0  0  0  0  0  # atno 6907 bound_to 6896
  152.3289  133.5932  159.5804 H   0  0  0  0  0  0  0  0  0  0  0  0  # atno 6908 bound_to 6896
  150.7411  133.9813  159.3619 H   0  0  0  0  0  0  0  0  0  0  0  0  # atno 6909 bound_to 6896
  145.6093  139.2365  143.2201 H   0  0  0  0  0  0  0  0  0  0  0  0  # atno 7974 bound_to 7965
  155.7084  140.3494  155.4963 H   0  0  0  0  0  0  0  0  0  0  0  0  # atno 8008 bound_to 7997
  155.9378  140.1096  157.1102 H   0  0  0  0  0  0  0  0  0  0  0  0  # atno 8009 bound_to 7997
  154.4097  140.1218  156.4873 H   0  0  0  0  0  0  0  0  0  0  0  0  # atno 8010 bound_to 7997
  140.7235  143.5103  150.9758 H   0  0  0  0  0  0  0  0  0  0  0  0  # atno 10167 bound_to 10162
  157.4178  130.7951  149.7488 H   0  0  0  0  0  0  0  0  0  0  0  0  # atno 10718 bound_to 10713
  154.7539  135.3099  154.8507 H   0  0  0  0  0  0  0  0  0  0  0  0  # atno 10763 bound_to 10752
  153.9286  135.6788  153.4750 H   0  0  0  0  0  0  0  0  0  0  0  0  # atno 10764 bound_to 10752
  153.1135  135.4855  154.9005 H   0  0  0  0  0  0  0  0  0  0  0  0  # atno 10765 bound_to 10752
  140.0124  134.9433  157.0305 H   0  0  0  0  0  0  0  0  0  0  0  0  # atno 11005 bound_to 11000
  146.1516  140.6917  142.9319 LP  0  0  0  0  0  0  0  0  0  0  0  0  # atno 17320 bound_to 7965
  144.7276  140.4574  143.6961 LP  0  0  0  0  0  0  0  0  0  0  0  0  # atno 17321 bound_to 7965
  139.8817  143.7064  152.3156 LP  0  0  0  0  0  0  0  0  0  0  0  0  # atno 17342 bound_to 10162
  139.7348  144.7574  151.0744 LP  0  0  0  0  0  0  0  0  0  0  0  0  # atno 17343 bound_to 10162
  155.9871  130.3970  150.3182 LP  0  0  0  0  0  0  0  0  0  0  0  0  # atno 17370 bound_to 10713
  157.1327  131.0276  151.2962 LP  0  0  0  0  0  0  0  0  0  0  0  0  # atno 17371 bound_to 10713
  140.4531  134.1561  155.7183 LP  0  0  0  0  0  0  0  0  0  0  0  0  # atno 17394 bound_to 11000
  141.1720  133.8590  157.1542 LP  0  0  0  0  0  0  0  0  0  0  0  0  # atno 17395 bound_to 11000

$$$$
