AV-unprocessed.smi:48|AV-procd|sdf|451|dock4
  -GOLD-   2262016323D 1   1.00000     0.00000
 Structure written by MMmdl.
 30 32  0  0  0  0  0  0  0  0  1 V2000
  148.7319  141.1393  153.1304 O   0  0  0  0  0  0  0  0  0  0  0  0
  148.5124  140.2381  154.1946 C   0  0  0  0  0  0  0  0  0  0  0  0
  149.8527  139.6902  154.7083 C   0  0  1  0  0  0  0  0  0  0  0  0
  150.6334  140.7522  155.2375 O   0  0  0  0  0  0  0  0  0  0  0  0
  151.5430  140.2506  156.1651 C   0  0  1  0  0  0  0  0  0  0  0  0
  151.6017  141.2219  157.3031 N   0  0  0  0  0  0  0  0  0  0  0  0
  150.8191  142.3014  157.5050 C   0  0  0  0  0  0  0  0  0  0  0  0
  151.0475  143.0292  158.5976 N   0  0  0  0  0  0  0  0  0  0  0  0
  152.0981  142.3364  159.1768 C   0  0  0  0  0  0  0  0  0  0  0  0
  152.8469  142.5420  160.3610 C   0  0  0  0  0  0  0  0  0  0  0  0
  152.5120  143.8752  161.4040 Cl  0  0  0  0  0  0  0  0  0  0  0  0
  153.8356  141.6656  160.6596 N   0  0  0  0  0  0  0  0  0  0  0  0
  154.0737  140.6392  159.8336 C   0  0  0  0  0  0  0  0  0  0  0  0
  153.4562  140.3193  158.6908 N   0  0  0  0  0  0  0  0  0  0  0  0
  152.4596  141.2049  158.3916 C   0  0  0  0  0  0  0  0  0  0  0  0
  151.0592  138.8453  156.5898 C   0  0  1  0  0  0  0  0  0  0  0  0
  150.9304  138.6595  157.9886 O   0  0  0  0  0  0  0  0  0  0  0  0
  149.7058  138.7389  155.8993 C   0  0  2  0  0  0  0  0  0  0  0  0
  149.4772  137.4175  155.4526 O   0  0  0  0  0  0  0  0  0  0  0  0
  150.4158  139.2008  153.9104 H   0  0  0  0  0  0  0  0  0  0  0  0
  152.5515  140.2442  155.7493 H   0  0  0  0  0  0  0  0  0  0  0  0
  151.7644  138.1181  156.1840 H   0  0  0  0  0  0  0  0  0  0  0  0
  148.9007  139.0705  156.5572 H   0  0  0  0  0  0  0  0  0  0  0  0
  147.9449  141.1862  152.6094 H   0  0  0  0  0  0  0  0  0  0  0  0
  147.9492  140.7216  154.9935 H   0  0  0  0  0  0  0  0  0  0  0  0
  147.8969  139.4240  153.8107 H   0  0  0  0  0  0  0  0  0  0  0  0
  150.0386  142.5709  156.8084 H   0  0  0  0  0  0  0  0  0  0  0  0
  154.8742  139.9780  160.1308 H   0  0  0  0  0  0  0  0  0  0  0  0
  150.0123  138.5825  158.1983 H   0  0  0  0  0  0  0  0  0  0  0  0
  149.2628  137.4478  154.5325 H   0  0  0  0  0  0  0  0  0  0  0  0
  1  2  1  0  0  0  0
  1 24  1  0  0  0  0
  2  3  1  0  0  0  0
  2 25  1  0  0  0  0
  2 26  1  0  0  0  0
  3 20  1  0  0  0  0
  3 18  1  0  0  0  0
  3  4  1  0  0  0  0
  4  5  1  0  0  0  0
  5 21  1  0  0  0  0
  5  6  1  0  0  0  0
  5 16  1  0  0  0  0
  6 15  1  0  0  0  0
  6  7  1  0  0  0  0
  7  8  2  0  0  0  0
  7 27  1  0  0  0  0
  8  9  1  0  0  0  0
  9 15  2  0  0  0  0
  9 10  1  0  0  0  0
 10 11  1  0  0  0  0
 10 12  2  0  0  0  0
 12 13  1  0  0  0  0
 13 14  2  0  0  0  0
 13 28  1  0  0  0  0
 14 15  1  0  0  0  0
 16 22  1  0  0  0  0
 16 17  1  0  0  0  0
 16 18  1  0  0  0  0
 17 29  1  0  0  0  0
 18 23  1  0  0  0  0
 18 19  1  0  0  0  0
 19 30  1  0  0  0  0
M  END
> <s_m_source_file>
AV-unprocessed.smi

> <i_m_source_file_index>
48

> <i_lp_mmshare_version>
43012

> <i_f3d_flags>
0

> <s_epik_input>
W09IXVtDSDJdW0NASF0xT1tDQEhdKFtDQEhdKFtPSF0pW0NAQEhdMVtPSF0pbihbY0hdbjIpYyhjMjMpbltjSF1uYzNDbA==

> <s_epik_cmdline>
J2VwaWtfcHl0aG9uJywgJy1waCcsICc3LjAnLCAnLXRuJywgJzgnLCAnLW1hJywgJzIwMCcsICctbWV0YWxfYmluZGluZycsICctaW1hZScsICc8aW5maWxlLm1hZT4nLCAnLW9tYWUnLCAnPG91dGZpbGUubWFlPic=

> <r_lp_tautomer_probability>
1

> <r_epik_Ionization_Penalty>
3.45505e-06

> <r_epik_Ionization_Penalty_Charging>
0

> <r_epik_Ionization_Penalty_Neutral>
3.45505e-06

> <r_epik_State_Penalty>
-0

> <r_epik_Charging_Adjusted_Penalty>
0

> <i_epik_Tot_Q>
0

> <i_epik_Tot_abs_Q>
0

> <r_epik_Metal_State_Penalty>
-0

> <b_epik_Metal_Only>
0

> <s_epik_Chemistry_Notes>
This compound contains an acetal/aminal-like group ( X-CH(R)-Y where X, Y are N, S, or O) that may be acid/base labile, releasing an aldehyde.

> <s_lp_Force_Field>
OPLS_2005

> <r_lp_Energy>
37.1345

> <b_lp_Chiralities_Consistent>
1

> <s_lp_Variant>
AV-unprocessed.smi:48-5

> <Gold.Version>
5.8.1

> <Gold.Id.Protein>
6NUR|6NUR_protein|mol2

> <Gold.PLP.Fitness>
40.3136

> <Gold.PLP.PLP>
-32.4360

> <Gold.PLP.part.hbond>
-3.7822

> <Gold.PLP.part.metal>
0.0000

> <Gold.PLP.part.buried>
-3.5748

> <Gold.PLP.part.nonpolar>
-23.5355

> <Gold.PLP.part.repulsive>
0.1376

> <Gold.PLP.ligand.clash>
0.1096

> <Gold.PLP.ligand.torsion>
0.1161

> <Gold.PLP.Chemscore.Hbond>
2.2848

> <Gold.PLP.Chemscore.CHOScore>
0.4517

> <Gold.PLP.Chemscore.Metal>
0.0000

> <Gold.Chemscore.Hbonds>
donor molecule, donor type, donor heavy atom, donor atom, acceptor molecule, acceptor atom, score
      P1  H  7989  7998       L1     4  0.43
      P1  H  7997  8009       L1    14  0.88
      P1  H  8011  8017       L1     1  1.00
      L1  C     7    27       P1  8028  0.59

> <Gold.PLP.Chemscore.Internal.Correction>
0.0097

> <Gold.Rescore>
     Score         DG    S(hbond)    S(metal)    S(lipo)     H(rot)  DE(clash)    DE(int)     intcor
      5.65      -6.94       1.40        0.00      55.67       3.80       0.02       1.26       ----

> <Gold.Chemscore.Fitness>
5.6543

> <Gold.Chemscore.DG>
-6.9363

> <Gold.Chemscore.ZeroCoef>
-5.4800

> <Gold.Chemscore.Hbond>
1.3997

> <Gold.Chemscore.Metal>
0.0000

> <Gold.Chemscore.Lipo>
55.6716

> <Gold.Chemscore.Internal_Hbond>
0.0000

> <Gold.Chemscore.DEClash>
0.0211

> <Gold.Chemscore.DEInternal>
1.2609

> <Gold.Chemscore.Rot>
3.8017

> <Gold.Chemscore.Internal.Correction>
   9.000000E+99

> <Gold.Chemscore.Hbonds>
donor molecule, donor type, donor heavy atom, donor atom, acceptor molecule, acceptor atom, score
      P1  H  7989  7998       L1     4  0.01
      P1  H  7997  8009       L1    14  0.58
      P1  H  8011  8017       L1     1  0.29

> <Gold.Chemscore.Hbond.Weighted>
-4.6751

> <Gold.Chemscore.Metal.Weighted>
-0.0000

> <Gold.Chemscore.Lipo.Weighted>
-6.5136

> <Gold.Chemscore.Internal_Hbond.Weighted>
0.0000

> <Gold.Chemscore.DEClash.Weighted>
0.0211

> <Gold.Chemscore.DEInternal.Weighted>
1.2609

> <Gold.Chemscore.Rot.Weighted>
9.7324

> <Gold.Chemscore.Internal.Correction.Weighted>
   9.000000E+99

> <Gold.Protein.RotatedTorsions>
[ 6907 6896 6895 6894 ] final  -33.27 input  -60.11 | X-H torsion
[ 7974 7965 7964 7962 ] final   60.47 input  175.53 | X-H torsion
[ 8008 7997 7996 7995 ] final  144.12 input   59.86 | X-H torsion
[ 10167 10162 10161 10158 ] final  111.39 input  -65.29 | X-H torsion
[ 10718 10713 10712 10709 ] final -154.95 input   66.30 | X-H torsion
[ 10763 10752 10751 10750 ] final   91.80 input  -60.55 | X-H torsion
[ 11005 11000 10999 10996 ] final -168.56 input  -57.11 | X-H torsion

> <Gold.Protein.ActiveResidues>
 VAL166  LYS551  ARG553  GLY616  TRP617  ASP618  TYR619  PRO620  LYS621  CYS622 
 ASP623  PHE694  ASN695  SER759  ASP760  ASP761  ALA762  ILE779  LEU786  VAL792 
 PHE793  MET794  SER795  GLU796  ALA797  LYS798  CYS799  TRP800  GLU811  SER814 

> <Gold.Protein.RotatedAtoms>
  151.0677  134.9778  159.8292 H   0  0  0  0  0  0  0  0  0  0  0  0  # atno 6907 bound_to 6896
  152.5404  134.2338  159.8845 H   0  0  0  0  0  0  0  0  0  0  0  0  # atno 6908 bound_to 6896
  151.2361  133.4381  159.2639 H   0  0  0  0  0  0  0  0  0  0  0  0  # atno 6909 bound_to 6896
  145.8957  139.3544  143.0623 H   0  0  0  0  0  0  0  0  0  0  0  0  # atno 7974 bound_to 7965
  156.2915  140.2244  156.5001 H   0  0  0  0  0  0  0  0  0  0  0  0  # atno 8008 bound_to 7997
  154.7697  140.0467  157.1062 H   0  0  0  0  0  0  0  0  0  0  0  0  # atno 8009 bound_to 7997
  154.9889  140.3087  155.4918 H   0  0  0  0  0  0  0  0  0  0  0  0  # atno 8010 bound_to 7997
  139.6615  144.7128  151.1856 H   0  0  0  0  0  0  0  0  0  0  0  0  # atno 10167 bound_to 10162
  156.5062  130.8414  151.2629 H   0  0  0  0  0  0  0  0  0  0  0  0  # atno 10718 bound_to 10713
  153.2122  135.4384  155.0393 H   0  0  0  0  0  0  0  0  0  0  0  0  # atno 10763 bound_to 10752
  154.8206  135.3336  154.7052 H   0  0  0  0  0  0  0  0  0  0  0  0  # atno 10764 bound_to 10752
  153.7489  135.6999  153.5006 H   0  0  0  0  0  0  0  0  0  0  0  0  # atno 10765 bound_to 10752
  140.5406  134.5526  157.5098 H   0  0  0  0  0  0  0  0  0  0  0  0  # atno 11005 bound_to 11000
  145.8853  140.9337  143.0580 LP  0  0  0  0  0  0  0  0  0  0  0  0  # atno 17320 bound_to 7965
  144.6733  140.0834  143.7468 LP  0  0  0  0  0  0  0  0  0  0  0  0  # atno 17321 bound_to 7965
  140.7582  143.5987  150.8722 LP  0  0  0  0  0  0  0  0  0  0  0  0  # atno 17342 bound_to 10162
  139.9645  143.6127  152.2992 LP  0  0  0  0  0  0  0  0  0  0  0  0  # atno 17343 bound_to 10162
  157.7456  130.9965  150.2781 LP  0  0  0  0  0  0  0  0  0  0  0  0  # atno 17370 bound_to 10713
  156.3284  130.3796  149.7512 LP  0  0  0  0  0  0  0  0  0  0  0  0  # atno 17371 bound_to 10713
  139.9506  134.7624  156.0458 LP  0  0  0  0  0  0  0  0  0  0  0  0  # atno 17394 bound_to 11000
  141.1229  133.6607  156.3262 LP  0  0  0  0  0  0  0  0  0  0  0  0  # atno 17395 bound_to 11000

$$$$
