AV-unprocessed.smi:1196|AV-procd|sdf|5000|dock2
  -GOLD-   22720 4 03D 1   1.00000     0.00000
 Structure written by MMmdl.
 36 37  0  0  0  0  0  0  0  0  2 V2000
  151.5328  139.3437  156.6478 C   0  0  0  0  0  0  0  0  0  0  0  0
  151.4264  140.8658  156.8291 C   0  0  2  0  0  0  0  0  0  0  0  0
  151.3822  141.2534  158.3202 C   0  0  0  0  0  0  0  0  0  0  0  0
  151.4624  142.6891  158.5226 N   0  0  0  0  0  0  0  0  0  0  0  0
  152.4880  143.4201  159.0847 C   0  0  0  0  0  0  0  0  0  0  0  0
  152.1092  144.7316  159.0669 C   0  0  0  0  0  0  0  0  0  0  0  0
  150.8199  144.7024  158.4660 C   0  0  0  0  0  0  0  0  0  0  0  0
  150.4363  143.4790  158.1390 N   0  0  0  0  0  0  0  0  0  0  0  0
  150.2346  141.3658  156.1462 N   0  0  0  0  0  0  0  0  0  0  0  0
  149.8057  140.9740  154.9366 C   0  0  0  0  0  0  0  0  0  0  0  0
  150.3813  140.1240  154.2567 O   0  0  0  0  0  0  0  0  0  0  0  0
  148.5374  141.6525  154.4142 C   0  0  0  0  0  0  0  0  0  0  0  0
  147.3973  141.6474  155.4503 C   0  0  0  0  0  0  0  0  0  0  0  0
  146.0044  141.8334  154.8124 C   0  0  2  0  0  0  0  0  0  0  0  0
  146.0690  142.6664  153.6235 N   0  5  0  0  0  0  0  0  0  0  0  0
  145.2630  143.7390  153.8065 C   0  0  0  0  0  0  0  0  0  0  0  0
  145.0470  144.6595  153.0215 O   0  0  0  0  0  0  0  0  0  0  0  0
  144.6869  143.6977  155.0124 N   0  0  0  0  0  0  0  0  0  0  0  0
  145.0632  142.6248  155.7005 C   0  0  0  0  0  0  0  0  0  0  0  0
  144.7242  142.3112  156.8408 O   0  0  0  0  0  0  0  0  0  0  0  0
  152.4244  138.9526  157.1385 H   0  0  0  0  0  0  0  0  0  0  0  0
  151.5958  139.0746  155.5929 H   0  0  0  0  0  0  0  0  0  0  0  0
  150.6679  138.8322  157.0713 H   0  0  0  0  0  0  0  0  0  0  0  0
  152.3142  141.3216  156.3866 H   0  0  0  0  0  0  0  0  0  0  0  0
  150.4676  140.8841  158.7867 H   0  0  0  0  0  0  0  0  0  0  0  0
  152.2123  140.7893  158.8548 H   0  0  0  0  0  0  0  0  0  0  0  0
  153.3898  142.9508  159.4493 H   0  0  0  0  0  0  0  0  0  0  0  0
  152.6674  145.5820  159.4294 H   0  0  0  0  0  0  0  0  0  0  0  0
  150.1559  145.5284  158.2584 H   0  0  0  0  0  0  0  0  0  0  0  0
  149.6928  142.0673  156.6301 H   0  0  0  0  0  0  0  0  0  0  0  0
  148.7680  142.6777  154.1206 H   0  0  0  0  0  0  0  0  0  0  0  0
  148.2192  141.1349  153.5089 H   0  0  0  0  0  0  0  0  0  0  0  0
  147.4163  140.6995  155.9909 H   0  0  0  0  0  0  0  0  0  0  0  0
  147.5727  142.4234  156.1983 H   0  0  0  0  0  0  0  0  0  0  0  0
  145.5511  140.8607  154.6164 H   0  0  0  0  0  0  0  0  0  0  0  0
  144.0533  144.4015  155.3604 H   0  0  0  0  0  0  0  0  0  0  0  0
  1  2  1  0  0  0  0
  1 21  1  0  0  0  0
  1 22  1  0  0  0  0
  1 23  1  0  0  0  0
  2  3  1  0  0  0  0
  2  9  1  0  0  0  0
  2 24  1  0  0  0  0
  3  4  1  0  0  0  0
  3 25  1  0  0  0  0
  3 26  1  0  0  0  0
  4  8  1  0  0  0  0
  4  5  1  0  0  0  0
  5  6  2  0  0  0  0
  5 27  1  0  0  0  0
  6  7  1  0  0  0  0
  6 28  1  0  0  0  0
  7  8  2  0  0  0  0
  7 29  1  0  0  0  0
  9 10  1  0  0  0  0
  9 30  1  0  0  0  0
 10 11  2  0  0  0  0
 10 12  1  0  0  0  0
 12 13  1  0  0  0  0
 12 31  1  0  0  0  0
 12 32  1  0  0  0  0
 13 14  1  0  0  0  0
 13 33  1  0  0  0  0
 13 34  1  0  0  0  0
 14 19  1  0  0  0  0
 14 15  1  0  0  0  0
 14 35  1  0  0  0  0
 15 16  1  0  0  0  0
 16 17  2  0  0  0  0
 16 18  1  0  0  0  0
 18 19  1  0  0  0  0
 18 36  1  0  0  0  0
 19 20  2  0  0  0  0
M  CHG  1  15  -1
M  END
> <s_m_source_file>
AV-unprocessed.smi

> <i_m_source_file_index>
1196

> <i_lp_mmshare_version>
43012

> <i_f3d_flags>
0

> <s_epik_input>
bjFbY0hdW2NIXVtjSF1uMVtDSDJdW0NAQEhdKFtDSDNdKVtOSF1DKD1PKVtDSDJdW0NIMl1bQ0BASF0yW05IXUMoPU8pW05IXUMyPU8=

> <s_epik_cmdline>
J2VwaWtfcHl0aG9uJywgJy1waCcsICc3LjAnLCAnLXRuJywgJzgnLCAnLW1hJywgJzIwMCcsICctbWV0YWxfYmluZGluZycsICctaW1hZScsICc8aW5maWxlLm1hZT4nLCAnLW9tYWUnLCAnPG91dGZpbGUubWFlPic=

> <r_lp_tautomer_probability>
1

> <r_epik_Ionization_Penalty>
5.79547

> <r_epik_Ionization_Penalty_Charging>
5.79516

> <r_epik_Ionization_Penalty_Neutral>
0.000313087

> <r_epik_State_Penalty>
5.80096

> <r_epik_Charging_Adjusted_Penalty>
11.5961

> <i_epik_Tot_Q>
-1

> <i_epik_Tot_abs_Q>
1

> <r_epik_Metal_State_Penalty>
2.14443

> <b_epik_Metal_Only>
1

> <s_lp_Force_Field>
OPLS_2005

> <r_lp_Energy>
13.4847

> <b_lp_Chiralities_Consistent>
1

> <s_lp_Variant>
AV-unprocessed.smi:1196-5

> <Gold.Version>
5.8.1

> <Gold.Id.Protein>
6NUR|6NUR_protein|mol2

> <Gold.PLP.Fitness>
40.9925

> <Gold.PLP.PLP>
-36.6866

> <Gold.PLP.part.hbond>
-1.0000

> <Gold.PLP.part.metal>
0.0000

> <Gold.PLP.part.buried>
-5.8927

> <Gold.PLP.part.nonpolar>
-31.5788

> <Gold.PLP.part.repulsive>
0.8126

> <Gold.PLP.ligand.clash>
0.0000

> <Gold.PLP.ligand.torsion>
0.9214

> <Gold.PLP.Chemscore.Hbond>
1.0000

> <Gold.PLP.Chemscore.CHOScore>
1.0000

> <Gold.PLP.Chemscore.Metal>
0.0000

> <Gold.Chemscore.Hbonds>
donor molecule, donor type, donor heavy atom, donor atom, acceptor molecule, acceptor atom, score
      P1  H  7989  7998       L1    11  1.00
      L1  C     7    29       P1  8029  1.00

> <Gold.PLP.Chemscore.Internal.Correction>
0.1485

> <Gold.Rescore>
     Score         DG    S(hbond)    S(metal)    S(lipo)     H(rot)  DE(clash)    DE(int)     intcor
      6.98      -9.30       0.79        0.00      73.32       2.89       0.18       2.14       ----

> <Gold.Chemscore.Fitness>
6.9834

> <Gold.Chemscore.DG>
-9.3016

> <Gold.Chemscore.ZeroCoef>
-5.4800

> <Gold.Chemscore.Hbond>
0.7943

> <Gold.Chemscore.Metal>
0.0000

> <Gold.Chemscore.Lipo>
73.3229

> <Gold.Chemscore.Internal_Hbond>
0.0000

> <Gold.Chemscore.DEClash>
0.1787

> <Gold.Chemscore.DEInternal>
2.1395

> <Gold.Chemscore.Rot>
2.8946

> <Gold.Chemscore.Internal.Correction>
   9.000000E+99

> <Gold.Chemscore.Hbonds>
donor molecule, donor type, donor heavy atom, donor atom, acceptor molecule, acceptor atom, score
      P1  H  7989  7998       L1    11  0.59

> <Gold.Chemscore.Hbond.Weighted>
-2.6529

> <Gold.Chemscore.Metal.Weighted>
-0.0000

> <Gold.Chemscore.Lipo.Weighted>
-8.5788

> <Gold.Chemscore.Internal_Hbond.Weighted>
0.0000

> <Gold.Chemscore.DEClash.Weighted>
0.1787

> <Gold.Chemscore.DEInternal.Weighted>
2.1395

> <Gold.Chemscore.Rot.Weighted>
7.4101

> <Gold.Chemscore.Internal.Correction.Weighted>
   9.000000E+99

> <Gold.Protein.RotatedTorsions>
[ 6907 6896 6895 6894 ] final -113.55 input  -60.11 | X-H torsion
[ 7974 7965 7964 7962 ] final  158.32 input  175.53 | X-H torsion
[ 8008 7997 7996 7995 ] final -152.60 input   59.86 | X-H torsion
[ 10167 10162 10161 10158 ] final  -47.92 input  -65.29 | X-H torsion
[ 10718 10713 10712 10709 ] final  116.32 input   66.30 | X-H torsion
[ 10763 10752 10751 10750 ] final -170.12 input  -60.55 | X-H torsion
[ 11005 11000 10999 10996 ] final  -58.45 input  -57.11 | X-H torsion

> <Gold.Protein.ActiveResidues>
 VAL166  LYS551  ARG553  GLY616  TRP617  ASP618  TYR619  PRO620  LYS621  CYS622 
 ASP623  PHE694  ASN695  SER759  ASP760  ASP761  ALA762  ILE779  LEU786  VAL792 
 PHE793  MET794  SER795  GLU796  ALA797  LYS798  CYS799  TRP800  GLU811  SER814 

> <Gold.Protein.RotatedAtoms>
  150.7837  133.8929  159.3318 H   0  0  0  0  0  0  0  0  0  0  0  0  # atno 6907 bound_to 6896
  151.6785  135.0963  160.0221 H   0  0  0  0  0  0  0  0  0  0  0  0  # atno 6908 bound_to 6896
  152.3896  133.6621  159.6262 H   0  0  0  0  0  0  0  0  0  0  0  0  # atno 6909 bound_to 6896
  144.7852  139.7462  143.6243 H   0  0  0  0  0  0  0  0  0  0  0  0  # atno 7974 bound_to 7965
  155.6576  140.0719  157.2565 H   0  0  0  0  0  0  0  0  0  0  0  0  # atno 8008 bound_to 7997
  154.4149  140.1722  156.1792 H   0  0  0  0  0  0  0  0  0  0  0  0  # atno 8009 bound_to 7997
  155.9724  140.3361  155.6591 H   0  0  0  0  0  0  0  0  0  0  0  0  # atno 8010 bound_to 7997
  140.6754  143.2763  151.3996 H   0  0  0  0  0  0  0  0  0  0  0  0  # atno 10167 bound_to 10162
  157.6168  131.1024  150.7455 H   0  0  0  0  0  0  0  0  0  0  0  0  # atno 10718 bound_to 10713
  154.6449  135.2903  155.0058 H   0  0  0  0  0  0  0  0  0  0  0  0  # atno 10763 bound_to 10752
  154.1171  135.6554  153.4900 H   0  0  0  0  0  0  0  0  0  0  0  0  # atno 10764 bound_to 10752
  153.0346  135.5279  154.7332 H   0  0  0  0  0  0  0  0  0  0  0  0  # atno 10765 bound_to 10752
  141.1208  133.6612  156.4922 H   0  0  0  0  0  0  0  0  0  0  0  0  # atno 11005 bound_to 11000
  146.2081  139.5418  142.9699 LP  0  0  0  0  0  0  0  0  0  0  0  0  # atno 17320 bound_to 7965
  145.5940  141.0365  143.2054 LP  0  0  0  0  0  0  0  0  0  0  0  0  # atno 17321 bound_to 7965
  139.6043  144.1229  152.2232 LP  0  0  0  0  0  0  0  0  0  0  0  0  # atno 17342 bound_to 10162
  140.0623  144.5846  150.7253 LP  0  0  0  0  0  0  0  0  0  0  0  0  # atno 17343 bound_to 10162
  156.7821  130.4862  149.5399 LP  0  0  0  0  0  0  0  0  0  0  0  0  # atno 17370 bound_to 10713
  156.1294  130.6167  151.0311 LP  0  0  0  0  0  0  0  0  0  0  0  0  # atno 17371 bound_to 10713
  140.4514  134.6925  157.5041 LP  0  0  0  0  0  0  0  0  0  0  0  0  # atno 17394 bound_to 11000
  140.0163  134.6614  155.9304 LP  0  0  0  0  0  0  0  0  0  0  0  0  # atno 17395 bound_to 11000

$$$$
