AV-unprocessed.smi:1599|AV-procd|sdf|6425|dock1
  -GOLD-   22720 7 63D 1   1.00000     0.00000
 Structure written by MMmdl.
 39 40  0  0  0  0  0  0  0  0  1 V2000
  152.1176  145.5615  159.3971 C   0  0  0  0  0  0  0  0  0  0  0  0
  152.3762  144.1121  158.9607 C   0  0  2  0  0  0  0  0  0  0  0  0
  151.4378  143.7701  157.8926 N   0  0  0  0  0  0  0  0  0  0  0  0
  151.2631  142.5519  157.3600 C   0  0  0  0  0  0  0  0  0  0  0  0
  151.8865  141.5526  157.7183 O   0  0  0  0  0  0  0  0  0  0  0  0
  150.3228  142.5708  156.4012 N   0  0  0  0  0  0  0  0  0  0  0  0
  149.8536  141.4737  155.6355 C   0  0  0  0  0  0  0  0  0  0  0  0
  150.4584  140.1904  155.6018 C   0  0  0  0  0  0  0  0  0  0  0  0
  149.8004  139.3718  154.7951 N   0  0  0  0  0  0  0  0  0  0  0  0
  148.7733  140.1102  154.3039 N   0  0  0  0  0  0  0  0  0  0  0  0
  147.8391  139.5119  153.3662 C   0  0  0  0  0  0  0  0  0  0  0  0
  146.9769  138.4408  154.0384 C   0  0  0  0  0  0  0  0  0  0  0  0
  147.1024  137.1861  153.5964 N   0  0  0  0  0  0  0  0  0  0  0  0
  146.1994  138.7433  154.9408 O   0  0  0  0  0  0  0  0  0  0  0  0
  148.7757  141.3995  154.7996 C   0  0  0  0  0  0  0  0  0  0  0  0
  152.2388  143.1261  160.1398 C   0  0  1  0  0  0  0  0  0  0  0  0
  153.4122  142.1608  160.3223 C   0  0  0  0  0  0  0  0  0  0  0  0
  153.2719  141.7853  161.7792 C   0  0  0  0  0  0  0  0  0  0  0  0
  152.8507  143.1125  162.4024 C   0  0  0  0  0  0  0  0  0  0  0  0
  152.1674  143.8305  161.3775 O   0  0  0  0  0  0  0  0  0  0  0  0
  152.8194  145.8716  160.1719 H   0  0  0  0  0  0  0  0  0  0  0  0
  151.1095  145.6838  159.7946 H   0  0  0  0  0  0  0  0  0  0  0  0
  152.2317  146.2503  158.5594 H   0  0  0  0  0  0  0  0  0  0  0  0
  153.3995  144.0610  158.5844 H   0  0  0  0  0  0  0  0  0  0  0  0
  150.8749  144.5265  157.5318 H   0  0  0  0  0  0  0  0  0  0  0  0
  149.8884  143.4609  156.2070 H   0  0  0  0  0  0  0  0  0  0  0  0
  151.3345  139.8328  156.1225 H   0  0  0  0  0  0  0  0  0  0  0  0
  147.2046  140.2916  152.9416 H   0  0  0  0  0  0  0  0  0  0  0  0
  148.4000  139.0727  152.5403 H   0  0  0  0  0  0  0  0  0  0  0  0
  146.5501  136.4472  154.0066 H   0  0  0  0  0  0  0  0  0  0  0  0
  147.7483  136.9827  152.8473 H   0  0  0  0  0  0  0  0  0  0  0  0
  148.0278  142.1238  154.5131 H   0  0  0  0  0  0  0  0  0  0  0  0
  151.3194  142.5468  160.0372 H   0  0  0  0  0  0  0  0  0  0  0  0
  153.3678  141.3011  159.6532 H   0  0  0  0  0  0  0  0  0  0  0  0
  154.3618  142.6731  160.1605 H   0  0  0  0  0  0  0  0  0  0  0  0
  152.4802  141.0447  161.8997 H   0  0  0  0  0  0  0  0  0  0  0  0
  154.1882  141.3819  162.2111 H   0  0  0  0  0  0  0  0  0  0  0  0
  152.2201  142.9750  163.2809 H   0  0  0  0  0  0  0  0  0  0  0  0
  153.7266  143.6894  162.7010 H   0  0  0  0  0  0  0  0  0  0  0  0
  1  2  1  0  0  0  0
  1 21  1  0  0  0  0
  1 22  1  0  0  0  0
  1 23  1  0  0  0  0
  2  3  1  0  0  0  0
  2 16  1  0  0  0  0
  2 24  1  0  0  0  0
  3  4  1  0  0  0  0
  3 25  1  0  0  0  0
  4  5  2  0  0  0  0
  4  6  1  0  0  0  0
  6  7  1  0  0  0  0
  6 26  1  0  0  0  0
  7 15  2  0  0  0  0
  7  8  1  0  0  0  0
  8  9  2  0  0  0  0
  8 27  1  0  0  0  0
  9 10  1  0  0  0  0
 10 11  1  0  0  0  0
 10 15  1  0  0  0  0
 11 12  1  0  0  0  0
 11 28  1  0  0  0  0
 11 29  1  0  0  0  0
 12 13  1  0  0  0  0
 12 14  2  0  0  0  0
 13 30  1  0  0  0  0
 13 31  1  0  0  0  0
 15 32  1  0  0  0  0
 16 20  1  0  0  0  0
 16 17  1  0  0  0  0
 16 33  1  0  0  0  0
 17 18  1  0  0  0  0
 17 34  1  0  0  0  0
 17 35  1  0  0  0  0
 18 19  1  0  0  0  0
 18 36  1  0  0  0  0
 18 37  1  0  0  0  0
 19 20  1  0  0  0  0
 19 38  1  0  0  0  0
 19 39  1  0  0  0  0
M  END
> <s_m_source_file>
AV-unprocessed.smi

> <i_m_source_file_index>
1599

> <i_lp_mmshare_version>
43012

> <i_f3d_flags>
0

> <s_epik_input>
TzFbQ0gyXVtDSDJdW0NIMl1bQ0BIXTFbQ0BIXShbQ0gzXSlbTkhdQyg9TylbTkhdYzJbY0hdbm4oW2NIXTIpW0NIMl1DKD1PKVtOSDJd

> <s_epik_cmdline>
J2VwaWtfcHl0aG9uJywgJy1waCcsICc3LjAnLCAnLXRuJywgJzgnLCAnLW1hJywgJzIwMCcsICctbWV0YWxfYmluZGluZycsICctaW1hZScsICc8aW5maWxlLm1hZT4nLCAnLW9tYWUnLCAnPG91dGZpbGUubWFlPic=

> <r_lp_tautomer_probability>
1

> <r_epik_Ionization_Penalty>
4.15391e-05

> <r_epik_Ionization_Penalty_Charging>
0

> <r_epik_Ionization_Penalty_Neutral>
4.15391e-05

> <r_epik_State_Penalty>
-0

> <r_epik_Charging_Adjusted_Penalty>
0

> <i_epik_Tot_Q>
0

> <i_epik_Tot_abs_Q>
0

> <r_epik_Metal_State_Penalty>
-0

> <b_epik_Metal_Only>
0

> <s_lp_Force_Field>
OPLS_2005

> <r_lp_Energy>
20.4971

> <b_lp_Chiralities_Consistent>
1

> <s_lp_Variant>
AV-unprocessed.smi:1599-3

> <Gold.Version>
5.8.1

> <Gold.Id.Protein>
6NUR|6NUR_protein|mol2

> <Gold.PLP.Fitness>
46.0006

> <Gold.PLP.PLP>
-43.0405

> <Gold.PLP.part.hbond>
-1.8940

> <Gold.PLP.part.metal>
0.0000

> <Gold.PLP.part.buried>
-3.6952

> <Gold.PLP.part.nonpolar>
-38.1308

> <Gold.PLP.part.repulsive>
0.4143

> <Gold.PLP.ligand.clash>
0.0000

> <Gold.PLP.ligand.torsion>
1.5659

> <Gold.PLP.Chemscore.Hbond>
2.0000

> <Gold.PLP.Chemscore.CHOScore>
0.0000

> <Gold.PLP.Chemscore.Metal>
0.0000

> <Gold.Chemscore.Hbonds>
donor molecule, donor type, donor heavy atom, donor atom, acceptor molecule, acceptor atom, score
      L1  H     6    26       P1  8028  1.00
      L1  H    13    31       P1  7948  1.00

> <Gold.PLP.Chemscore.Internal.Correction>
0.0919

> <Gold.Rescore>
     Score         DG    S(hbond)    S(metal)    S(lipo)     H(rot)  DE(clash)    DE(int)     intcor
     15.05     -17.82       2.00        0.00      98.40       2.28       0.19       2.58       ----

> <Gold.Chemscore.Fitness>
15.0479

> <Gold.Chemscore.DG>
-17.8235

> <Gold.Chemscore.ZeroCoef>
-5.4800

> <Gold.Chemscore.Hbond>
1.9979

> <Gold.Chemscore.Metal>
0.0000

> <Gold.Chemscore.Lipo>
98.4048

> <Gold.Chemscore.Internal_Hbond>
0.0000

> <Gold.Chemscore.DEClash>
0.1917

> <Gold.Chemscore.DEInternal>
2.5839

> <Gold.Chemscore.Rot>
2.2823

> <Gold.Chemscore.Internal.Correction>
   9.000000E+99

> <Gold.Chemscore.Hbonds>
donor molecule, donor type, donor heavy atom, donor atom, acceptor molecule, acceptor atom, score
      L1  H     6    26       P1  8028  1.00
      L1  H    13    31       P1  7948  1.00

> <Gold.Chemscore.Hbond.Weighted>
-6.6728

> <Gold.Chemscore.Metal.Weighted>
-0.0000

> <Gold.Chemscore.Lipo.Weighted>
-11.5134

> <Gold.Chemscore.Internal_Hbond.Weighted>
0.0000

> <Gold.Chemscore.DEClash.Weighted>
0.1917

> <Gold.Chemscore.DEInternal.Weighted>
2.5839

> <Gold.Chemscore.Rot.Weighted>
5.8427

> <Gold.Chemscore.Internal.Correction.Weighted>
   9.000000E+99

> <Gold.Protein.RotatedTorsions>
[ 6907 6896 6895 6894 ] final   12.93 input  -60.11 | X-H torsion
[ 7974 7965 7964 7962 ] final   -1.24 input  175.53 | X-H torsion
[ 8008 7997 7996 7995 ] final  149.63 input   59.86 | X-H torsion
[ 10167 10162 10161 10158 ] final -134.64 input  -65.29 | X-H torsion
[ 10718 10713 10712 10709 ] final   -3.21 input   66.30 | X-H torsion
[ 10763 10752 10751 10750 ] final   75.37 input  -60.55 | X-H torsion
[ 11005 11000 10999 10996 ] final -158.00 input  -57.11 | X-H torsion

> <Gold.Protein.ActiveResidues>
 VAL166  LYS551  ARG553  GLY616  TRP617  ASP618  TYR619  PRO620  LYS621  CYS622 
 ASP623  PHE694  ASN695  SER759  ASP760  ASP761  ALA762  ILE779  LEU786  VAL792 
 PHE793  MET794  SER795  GLU796  ALA797  LYS798  CYS799  TRP800  GLU811  SER814 

> <Gold.Protein.RotatedAtoms>
  151.7782  135.0768  160.0369 H   0  0  0  0  0  0  0  0  0  0  0  0  # atno 6907 bound_to 6896
  152.3241  133.5881  159.5773 H   0  0  0  0  0  0  0  0  0  0  0  0  # atno 6908 bound_to 6896
  150.7386  133.9883  159.3640 H   0  0  0  0  0  0  0  0  0  0  0  0  # atno 6909 bound_to 6896
  146.2419  140.1390  142.8336 H   0  0  0  0  0  0  0  0  0  0  0  0  # atno 7974 bound_to 7965
  156.2747  140.2096  156.5889 H   0  0  0  0  0  0  0  0  0  0  0  0  # atno 8008 bound_to 7997
  154.6999  140.0522  157.0471 H   0  0  0  0  0  0  0  0  0  0  0  0  # atno 8009 bound_to 7997
  155.0750  140.3180  155.4622 H   0  0  0  0  0  0  0  0  0  0  0  0  # atno 8010 bound_to 7997
  139.8860  143.6781  152.2620 H   0  0  0  0  0  0  0  0  0  0  0  0  # atno 10167 bound_to 10162
  156.7795  130.5326  149.5753 H   0  0  0  0  0  0  0  0  0  0  0  0  # atno 10718 bound_to 10713
  153.0650  135.4991  154.8180 H   0  0  0  0  0  0  0  0  0  0  0  0  # atno 10763 bound_to 10752
  154.6940  135.2989  154.9440 H   0  0  0  0  0  0  0  0  0  0  0  0  # atno 10764 bound_to 10752
  154.0186  135.6745  153.4823 H   0  0  0  0  0  0  0  0  0  0  0  0  # atno 10765 bound_to 10752
  140.6584  134.4376  157.5234 H   0  0  0  0  0  0  0  0  0  0  0  0  # atno 11005 bound_to 11000
  145.0262  140.8834  143.5137 LP  0  0  0  0  0  0  0  0  0  0  0  0  # atno 17320 bound_to 7965
  145.1447  139.2551  143.5472 LP  0  0  0  0  0  0  0  0  0  0  0  0  # atno 17321 bound_to 7965
  139.7153  144.7613  151.1045 LP  0  0  0  0  0  0  0  0  0  0  0  0  # atno 17342 bound_to 10162
  140.7736  143.5278  150.9459 LP  0  0  0  0  0  0  0  0  0  0  0  0  # atno 17343 bound_to 10162
  156.1227  130.6121  151.0218 LP  0  0  0  0  0  0  0  0  0  0  0  0  # atno 17370 bound_to 10713
  157.6653  131.0873  150.7743 LP  0  0  0  0  0  0  0  0  0  0  0  0  # atno 17371 bound_to 10713
  139.9021  134.8531  156.1851 LP  0  0  0  0  0  0  0  0  0  0  0  0  # atno 17394 bound_to 11000
  141.0484  133.6901  156.1726 LP  0  0  0  0  0  0  0  0  0  0  0  0  # atno 17395 bound_to 11000

$$$$
