AV-unprocessed.smi:2704|AV-procd|sdf|10442|dock3
  -GOLD-   2272014483D 1   1.00000     0.00000
 Structure written by MMmdl.
 43 44  0  0  0  0  0  0  0  0  1 V2000
  145.9758  134.3125  160.5109 C   0  0  0  0  0  0  0  0  0  0  0  0
  146.8781  135.3462  161.2011 C   0  0  0  0  0  0  0  0  0  0  0  0
  146.1427  136.1572  162.2776 C   0  0  0  0  0  0  0  0  0  0  0  0
  147.5672  136.2307  160.2068 C   0  0  0  0  0  0  0  0  0  0  0  0
  147.4140  137.5496  160.2382 N   0  0  0  0  0  0  0  0  0  0  0  0
  148.2218  137.9968  159.1833 O   0  0  0  0  0  0  0  0  0  0  0  0
  148.7803  136.8851  158.6484 C   0  0  0  0  0  0  0  0  0  0  0  0
  149.6767  137.0306  157.4611 C   0  0  0  0  0  0  0  0  0  0  0  0
  151.0702  137.5993  157.7877 C   0  0  0  0  0  0  0  0  0  0  0  0
  151.0171  138.9806  158.2590 N   0  0  0  0  0  0  0  0  0  0  0  0
  151.7884  139.9920  157.8222 C   0  0  0  0  0  0  0  0  0  0  0  0
  152.6437  139.8382  156.9492 O   0  0  0  0  0  0  0  0  0  0  0  0
  151.5898  141.3866  158.4600 C   0  0  0  0  0  0  0  0  0  0  0  0
  150.4863  141.3693  159.3549 O   0  0  0  0  0  0  0  0  0  0  0  0
  152.8567  141.7761  159.2611 C   0  0  0  0  0  0  0  0  0  0  0  0
  152.8120  143.2205  159.7912 C   0  0  0  0  0  0  0  0  0  0  0  0
  152.5529  144.2233  158.6582 C   0  0  0  0  0  0  0  0  0  0  0  0
  151.2623  143.8779  157.9018 C   0  0  0  0  0  0  0  0  0  0  0  0
  151.3008  142.4379  157.3582 C   0  0  0  0  0  0  0  0  0  0  0  0
  148.3958  135.7539  159.2353 N   0  0  0  0  0  0  0  0  0  0  0  0
  146.5458  133.7009  159.8107 H   0  0  0  0  0  0  0  0  0  0  0  0
  145.1715  134.7947  159.9544 H   0  0  0  0  0  0  0  0  0  0  0  0
  145.5194  133.6417  161.2391 H   0  0  0  0  0  0  0  0  0  0  0  0
  147.6523  134.7794  161.7212 H   0  0  0  0  0  0  0  0  0  0  0  0
  146.8262  136.8291  162.7973 H   0  0  0  0  0  0  0  0  0  0  0  0
  145.6937  135.5019  163.0242 H   0  0  0  0  0  0  0  0  0  0  0  0
  145.3443  136.7595  161.8435 H   0  0  0  0  0  0  0  0  0  0  0  0
  149.7835  136.0521  156.9921 H   0  0  0  0  0  0  0  0  0  0  0  0
  149.1806  137.6687  156.7288 H   0  0  0  0  0  0  0  0  0  0  0  0
  151.5750  136.9620  158.5154 H   0  0  0  0  0  0  0  0  0  0  0  0
  151.6870  137.5786  156.8891 H   0  0  0  0  0  0  0  0  0  0  0  0
  150.3424  139.1919  158.9804 H   0  0  0  0  0  0  0  0  0  0  0  0
  149.7521  141.7841  158.9283 H   0  0  0  0  0  0  0  0  0  0  0  0
  152.9986  141.0863  160.0940 H   0  0  0  0  0  0  0  0  0  0  0  0
  153.7405  141.6729  158.6295 H   0  0  0  0  0  0  0  0  0  0  0  0
  152.0339  143.3145  160.5496 H   0  0  0  0  0  0  0  0  0  0  0  0
  153.7528  143.4594  160.2878 H   0  0  0  0  0  0  0  0  0  0  0  0
  152.4882  145.2338  159.0628 H   0  0  0  0  0  0  0  0  0  0  0  0
  153.3956  144.2198  157.9656 H   0  0  0  0  0  0  0  0  0  0  0  0
  150.4046  144.0024  158.5636 H   0  0  0  0  0  0  0  0  0  0  0  0
  151.1171  144.5785  157.0791 H   0  0  0  0  0  0  0  0  0  0  0  0
  152.0694  142.3880  156.5848 H   0  0  0  0  0  0  0  0  0  0  0  0
  150.3576  142.2113  156.8588 H   0  0  0  0  0  0  0  0  0  0  0  0
  1  2  1  0  0  0  0
  1 21  1  0  0  0  0
  1 22  1  0  0  0  0
  1 23  1  0  0  0  0
  2  3  1  0  0  0  0
  2  4  1  0  0  0  0
  2 24  1  0  0  0  0
  3 25  1  0  0  0  0
  3 26  1  0  0  0  0
  3 27  1  0  0  0  0
  4 20  1  0  0  0  0
  4  5  2  0  0  0  0
  5  6  1  0  0  0  0
  6  7  1  0  0  0  0
  7  8  1  0  0  0  0
  7 20  2  0  0  0  0
  8  9  1  0  0  0  0
  8 28  1  0  0  0  0
  8 29  1  0  0  0  0
  9 10  1  0  0  0  0
  9 30  1  0  0  0  0
  9 31  1  0  0  0  0
 10 11  1  0  0  0  0
 10 32  1  0  0  0  0
 11 12  2  0  0  0  0
 11 13  1  0  0  0  0
 13 19  1  0  0  0  0
 13 14  1  0  0  0  0
 13 15  1  0  0  0  0
 14 33  1  0  0  0  0
 15 16  1  0  0  0  0
 15 34  1  0  0  0  0
 15 35  1  0  0  0  0
 16 17  1  0  0  0  0
 16 36  1  0  0  0  0
 16 37  1  0  0  0  0
 17 18  1  0  0  0  0
 17 38  1  0  0  0  0
 17 39  1  0  0  0  0
 18 19  1  0  0  0  0
 18 40  1  0  0  0  0
 18 41  1  0  0  0  0
 19 42  1  0  0  0  0
 19 43  1  0  0  0  0
M  END
> <s_m_source_file>
AV-unprocessed.smi

> <i_m_source_file_index>
2704

> <i_lp_mmshare_version>
43012

> <i_f3d_flags>
0

> <s_epik_input>
W0NIM11bQ0hdKFtDSDNdKWMxbm9jKG4xKVtDSDJdW0NIMl1bTkhdQyg9TylDMihbT0hdKVtDSDJdW0NIMl1bQ0gyXVtDSDJdW0NIMl0y

> <s_epik_cmdline>
J2VwaWtfcHl0aG9uJywgJy1waCcsICc3LjAnLCAnLXRuJywgJzgnLCAnLW1hJywgJzIwMCcsICctbWV0YWxfYmluZGluZycsICctaW1hZScsICc8aW5maWxlLm1hZT4nLCAnLW9tYWUnLCAnPG91dGZpbGUubWFlPic=

> <r_lp_tautomer_probability>
1

> <r_epik_Ionization_Penalty>
7.72761e-08

> <r_epik_Ionization_Penalty_Charging>
0

> <r_epik_Ionization_Penalty_Neutral>
7.72761e-08

> <r_epik_State_Penalty>
-0

> <r_epik_Charging_Adjusted_Penalty>
0

> <i_epik_Tot_Q>
0

> <i_epik_Tot_abs_Q>
0

> <r_epik_Metal_State_Penalty>
-0

> <b_epik_Metal_Only>
0

> <s_lp_Force_Field>
OPLS_2005

> <r_lp_Energy>
5.6077

> <b_lp_Chiralities_Consistent>
1

> <s_lp_Variant>
AV-unprocessed.smi:2704-1

> <Gold.Version>
5.8.1

> <Gold.Id.Protein>
6NUR|6NUR_protein|mol2

> <Gold.PLP.Fitness>
46.6273

> <Gold.PLP.PLP>
-38.2560

> <Gold.PLP.part.hbond>
-7.0000

> <Gold.PLP.part.metal>
0.0000

> <Gold.PLP.part.buried>
-1.2325

> <Gold.PLP.part.nonpolar>
-29.4479

> <Gold.PLP.part.repulsive>
0.0753

> <Gold.PLP.ligand.clash>
0.0000

> <Gold.PLP.ligand.torsion>
0.3514

> <Gold.PLP.Chemscore.Hbond>
2.9824

> <Gold.PLP.Chemscore.CHOScore>
0.0000

> <Gold.PLP.Chemscore.Metal>
0.0000

> <Gold.Chemscore.Hbonds>
donor molecule, donor type, donor heavy atom, donor atom, acceptor molecule, acceptor atom, score
      P1  H  6931  6943       L1     5  0.01
      P1  H  6934  6947       L1     5  0.78
      P1  H  7997  8008       L1    12  1.00

> <Gold.PLP.Chemscore.Internal.Correction>
0.1268

> <Gold.Rescore>
     Score         DG    S(hbond)    S(metal)    S(lipo)     H(rot)  DE(clash)    DE(int)     intcor
     16.75     -18.05       2.33        0.00      95.53       2.50       0.45       0.84       ----

> <Gold.Chemscore.Fitness>
16.7523

> <Gold.Chemscore.DG>
-18.0464

> <Gold.Chemscore.ZeroCoef>
-5.4800

> <Gold.Chemscore.Hbond>
2.3323

> <Gold.Chemscore.Metal>
0.0000

> <Gold.Chemscore.Lipo>
95.5283

> <Gold.Chemscore.Internal_Hbond>
0.0000

> <Gold.Chemscore.DEClash>
0.4518

> <Gold.Chemscore.DEInternal>
0.8424

> <Gold.Chemscore.Rot>
2.5001

> <Gold.Chemscore.Internal.Correction>
   9.000000E+99

> <Gold.Chemscore.Hbonds>
donor molecule, donor type, donor heavy atom, donor atom, acceptor molecule, acceptor atom, score
      P1  H  6934  6947       L1     5  0.11
      P1  H  7997  8008       L1    12  0.96

> <Gold.Chemscore.Hbond.Weighted>
-7.7898

> <Gold.Chemscore.Metal.Weighted>
-0.0000

> <Gold.Chemscore.Lipo.Weighted>
-11.1768

> <Gold.Chemscore.Internal_Hbond.Weighted>
0.0000

> <Gold.Chemscore.DEClash.Weighted>
0.4518

> <Gold.Chemscore.DEInternal.Weighted>
0.8424

> <Gold.Chemscore.Rot.Weighted>
6.4002

> <Gold.Chemscore.Internal.Correction.Weighted>
   9.000000E+99

> <Gold.Protein.RotatedTorsions>
[ 6907 6896 6895 6894 ] final   54.17 input  -60.11 | X-H torsion
[ 7974 7965 7964 7962 ] final -104.38 input  175.53 | X-H torsion
[ 8008 7997 7996 7995 ] final  -41.45 input   59.86 | X-H torsion
[ 10167 10162 10161 10158 ] final  -36.61 input  -65.29 | X-H torsion
[ 10718 10713 10712 10709 ] final -120.44 input   66.30 | X-H torsion
[ 10763 10752 10751 10750 ] final    2.28 input  -60.55 | X-H torsion
[ 11005 11000 10999 10996 ] final -102.01 input  -57.11 | X-H torsion

> <Gold.Protein.ActiveResidues>
 VAL166  LYS551  ARG553  GLY616  TRP617  ASP618  TYR619  PRO620  LYS621  CYS622 
 ASP623  PHE694  ASN695  SER759  ASP760  ASP761  ALA762  ILE779  LEU786  VAL792 
 PHE793  MET794  SER795  GLU796  ALA797  LYS798  CYS799  TRP800  GLU811  SER814 

> <Gold.Protein.RotatedAtoms>
  152.3412  134.7132  160.0262 H   0  0  0  0  0  0  0  0  0  0  0  0  # atno 6907 bound_to 6896
  151.7516  133.3322  159.3401 H   0  0  0  0  0  0  0  0  0  0  0  0  # atno 6908 bound_to 6896
  150.7481  134.6119  159.6135 H   0  0  0  0  0  0  0  0  0  0  0  0  # atno 6909 bound_to 6896
  145.2439  140.9215  143.3134 H   0  0  0  0  0  0  0  0  0  0  0  0  # atno 7974 bound_to 7965
  154.4004  140.1499  156.3193 H   0  0  0  0  0  0  0  0  0  0  0  0  # atno 8008 bound_to 7997
  155.8544  140.3456  155.5693 H   0  0  0  0  0  0  0  0  0  0  0  0  # atno 8009 bound_to 7997
  155.7949  140.0862  157.1979 H   0  0  0  0  0  0  0  0  0  0  0  0  # atno 8010 bound_to 7997
  140.7138  143.3397  151.2385 H   0  0  0  0  0  0  0  0  0  0  0  0  # atno 10167 bound_to 10162
  156.1258  130.6358  150.9540 H   0  0  0  0  0  0  0  0  0  0  0  0  # atno 10718 bound_to 10713
  153.2975  135.6953  153.7234 H   0  0  0  0  0  0  0  0  0  0  0  0  # atno 10763 bound_to 10752
  153.6161  135.3435  155.2996 H   0  0  0  0  0  0  0  0  0  0  0  0  # atno 10764 bound_to 10752
  154.8541  135.4375  154.2077 H   0  0  0  0  0  0  0  0  0  0  0  0  # atno 10765 bound_to 10752
  141.1207  133.8524  157.1305 H   0  0  0  0  0  0  0  0  0  0  0  0  # atno 11005 bound_to 11000
  144.9564  139.4027  143.6377 LP  0  0  0  0  0  0  0  0  0  0  0  0  # atno 17320 bound_to 7965
  146.3321  139.8596  142.8858 LP  0  0  0  0  0  0  0  0  0  0  0  0  # atno 17321 bound_to 7965
  139.6901  143.9707  152.2854 LP  0  0  0  0  0  0  0  0  0  0  0  0  # atno 17342 bound_to 10162
  139.9365  144.6708  150.8309 LP  0  0  0  0  0  0  0  0  0  0  0  0  # atno 17343 bound_to 10162
  157.6440  131.0906  150.8192 LP  0  0  0  0  0  0  0  0  0  0  0  0  # atno 17370 bound_to 10713
  156.8283  130.5007  149.5334 LP  0  0  0  0  0  0  0  0  0  0  0  0  # atno 17371 bound_to 10713
  140.0162  134.9966  157.0499 LP  0  0  0  0  0  0  0  0  0  0  0  0  # atno 17394 bound_to 11000
  140.4515  134.1577  155.7182 LP  0  0  0  0  0  0  0  0  0  0  0  0  # atno 17395 bound_to 11000

$$$$
