AV-unprocessed.smi:2525|AV-procd|sdf|9930|dock9
  -GOLD-   2272013573D 1   1.00000     0.00000
 Structure written by MMmdl.
 44 45  0  0  0  0  0  0  0  0  1 V2000
  147.7263  138.7562  156.0768 C   0  0  0  0  0  0  0  0  0  0  0  0
  148.5278  139.9723  156.5750 C   0  0  0  0  0  0  0  0  0  0  0  0
  150.0488  139.7678  156.8280 C   0  0  0  0  0  0  0  0  0  0  0  0
  150.6738  141.1829  156.8991 C   0  0  0  0  0  0  0  0  0  0  0  0
  152.0033  141.2681  157.6696 C   0  0  0  0  0  0  0  0  0  0  0  0
  150.4905  138.8357  157.9963 C   0  0  1  0  0  0  0  0  0  0  0  0
  149.5226  137.7898  158.3210 N   0  0  0  0  0  0  0  0  0  0  0  0
  149.6209  136.9325  159.3479 C   0  0  0  0  0  0  0  0  0  0  0  0
  150.5468  136.9500  160.1579 O   0  0  0  0  0  0  0  0  0  0  0  0
  148.4919  135.9089  159.4985 C   0  0  0  0  0  0  0  0  0  0  0  0
  147.8411  136.0073  160.7948 N   0  0  0  0  0  0  0  0  0  0  0  0
  147.4981  134.9919  161.6638 C   0  0  0  0  0  0  0  0  0  0  0  0
  146.9033  135.6496  162.7021 C   0  0  0  0  0  0  0  0  0  0  0  0
  146.9076  137.0160  162.4270 N   0  0  0  0  0  0  0  0  0  0  0  0
  147.4765  137.2191  161.2805 N   0  0  0  0  0  0  0  0  0  0  0  0
  151.6360  138.2963  157.1203 C   0  0  1  0  0  0  0  0  0  0  0  0
  152.0695  136.8353  157.2298 C   0  0  0  0  0  0  0  0  0  0  0  0
  150.8096  138.7651  155.9135 C   0  0  2  0  0  0  0  0  0  0  0  0
  151.5470  139.4131  154.8872 O   0  0  0  0  0  0  0  0  0  0  0  0
  152.5886  138.6140  154.3548 C   0  0  0  0  0  0  0  0  0  0  0  0
  146.6713  139.0130  155.9802 H   0  0  0  0  0  0  0  0  0  0  0  0
  147.7887  137.9068  156.7557 H   0  0  0  0  0  0  0  0  0  0  0  0
  148.0675  138.4324  155.0935 H   0  0  0  0  0  0  0  0  0  0  0  0
  148.3676  140.7620  155.8399 H   0  0  0  0  0  0  0  0  0  0  0  0
  148.0558  140.3388  157.4870 H   0  0  0  0  0  0  0  0  0  0  0  0
  150.8528  141.5681  155.8951 H   0  0  0  0  0  0  0  0  0  0  0  0
  149.9659  141.8844  157.3422 H   0  0  0  0  0  0  0  0  0  0  0  0
  152.3964  142.2841  157.6382 H   0  0  0  0  0  0  0  0  0  0  0  0
  152.7623  140.6127  157.2436 H   0  0  0  0  0  0  0  0  0  0  0  0
  151.8834  141.0018  158.7195 H   0  0  0  0  0  0  0  0  0  0  0  0
  150.8708  139.3632  158.8718 H   0  0  0  0  0  0  0  0  0  0  0  0
  148.7237  137.7045  157.7094 H   0  0  0  0  0  0  0  0  0  0  0  0
  147.7425  136.0638  158.7213 H   0  0  0  0  0  0  0  0  0  0  0  0
  148.8920  134.9028  159.3642 H   0  0  0  0  0  0  0  0  0  0  0  0
  147.6941  133.9468  161.4731 H   0  0  0  0  0  0  0  0  0  0  0  0
  146.4753  135.2581  163.6134 H   0  0  0  0  0  0  0  0  0  0  0  0
  152.5003  138.9510  157.2434 H   0  0  0  0  0  0  0  0  0  0  0  0
  151.2707  136.1521  156.9392 H   0  0  0  0  0  0  0  0  0  0  0  0
  152.3591  136.5872  158.2509 H   0  0  0  0  0  0  0  0  0  0  0  0
  152.9252  136.6263  156.5884 H   0  0  0  0  0  0  0  0  0  0  0  0
  150.1875  137.9557  155.5301 H   0  0  0  0  0  0  0  0  0  0  0  0
  153.0741  139.1468  153.5374 H   0  0  0  0  0  0  0  0  0  0  0  0
  152.2041  137.6727  153.9606 H   0  0  0  0  0  0  0  0  0  0  0  0
  153.3469  138.3972  155.1066 H   0  0  0  0  0  0  0  0  0  0  0  0
  1  2  1  0  0  0  0
  1 21  1  0  0  0  0
  1 22  1  0  0  0  0
  1 23  1  0  0  0  0
  2  3  1  0  0  0  0
  2 24  1  0  0  0  0
  2 25  1  0  0  0  0
  3 18  1  0  0  0  0
  3  4  1  0  0  0  0
  3  6  1  0  0  0  0
  4  5  1  0  0  0  0
  4 26  1  0  0  0  0
  4 27  1  0  0  0  0
  5 28  1  0  0  0  0
  5 29  1  0  0  0  0
  5 30  1  0  0  0  0
  6  7  1  0  0  0  0
  6 16  1  0  0  0  0
  6 31  1  0  0  0  0
  7  8  1  0  0  0  0
  7 32  1  0  0  0  0
  8  9  2  0  0  0  0
  8 10  1  0  0  0  0
 10 11  1  0  0  0  0
 10 33  1  0  0  0  0
 10 34  1  0  0  0  0
 11 15  1  0  0  0  0
 11 12  1  0  0  0  0
 12 13  2  0  0  0  0
 12 35  1  0  0  0  0
 13 14  1  0  0  0  0
 13 36  1  0  0  0  0
 14 15  2  0  0  0  0
 16 17  1  0  0  0  0
 16 18  1  0  0  0  0
 16 37  1  0  0  0  0
 17 38  1  0  0  0  0
 17 39  1  0  0  0  0
 17 40  1  0  0  0  0
 18 19  1  0  0  0  0
 18 41  1  0  0  0  0
 19 20  1  0  0  0  0
 20 42  1  0  0  0  0
 20 43  1  0  0  0  0
 20 44  1  0  0  0  0
M  END
> <s_m_source_file>
AV-unprocessed.smi

> <i_m_source_file_index>
2525

> <i_lp_mmshare_version>
43012

> <i_f3d_flags>
0

> <s_epik_input>
W0NIM11PW0NAQEhdMVtDQEhdKFtDSDNdKVtDQEBIXShDMShbQ0gyXVtDSDNdKVtDSDJdW0NIM10pW05IXUMoPU8pW0NIMl1uMltjSF1bY0hdbm4y

> <s_epik_cmdline>
J2VwaWtfcHl0aG9uJywgJy1waCcsICc3LjAnLCAnLXRuJywgJzgnLCAnLW1hJywgJzIwMCcsICctbWV0YWxfYmluZGluZycsICctaW1hZScsICc8aW5maWxlLm1hZT4nLCAnLW9tYWUnLCAnPG91dGZpbGUubWFlPic=

> <r_lp_tautomer_probability>
1

> <r_epik_Ionization_Penalty>
1.18045e-06

> <r_epik_Ionization_Penalty_Charging>
0

> <r_epik_Ionization_Penalty_Neutral>
1.18045e-06

> <r_epik_State_Penalty>
-0

> <r_epik_Charging_Adjusted_Penalty>
0

> <i_epik_Tot_Q>
0

> <i_epik_Tot_abs_Q>
0

> <r_epik_Metal_State_Penalty>
-0

> <b_epik_Metal_Only>
0

> <s_lp_Force_Field>
OPLS_2005

> <r_lp_Energy>
28.6674

> <b_lp_Chiralities_Consistent>
1

> <s_lp_Variant>
AV-unprocessed.smi:2525-5

> <Gold.Version>
5.8.1

> <Gold.Id.Protein>
6NUR|6NUR_protein|mol2

> <Gold.PLP.Fitness>
36.5856

> <Gold.PLP.PLP>
-27.3163

> <Gold.PLP.part.hbond>
-4.9823

> <Gold.PLP.part.metal>
0.0000

> <Gold.PLP.part.buried>
-4.8088

> <Gold.PLP.part.nonpolar>
-18.4212

> <Gold.PLP.part.repulsive>
0.1775

> <Gold.PLP.ligand.clash>
0.0000

> <Gold.PLP.ligand.torsion>
1.0895

> <Gold.PLP.Chemscore.Hbond>
3.6220

> <Gold.PLP.Chemscore.CHOScore>
0.0000

> <Gold.PLP.Chemscore.Metal>
0.0000

> <Gold.Chemscore.Hbonds>
donor molecule, donor type, donor heavy atom, donor atom, acceptor molecule, acceptor atom, score
      P1  H  6896  6908       L1     9  1.00
      P1  H  6931  6943       L1    15  0.81
      P1  H  6934  6947       L1    15  0.93
      P1  H  7989  7998       L1    19  0.80

> <Gold.PLP.Chemscore.Internal.Correction>
0.5824

> <Gold.Rescore>
     Score         DG    S(hbond)    S(metal)    S(lipo)     H(rot)  DE(clash)    DE(int)     intcor
     13.49     -15.68       2.30        0.00      64.87       1.98       0.07       2.12       ----

> <Gold.Chemscore.Fitness>
13.4858

> <Gold.Chemscore.DG>
-15.6786

> <Gold.Chemscore.ZeroCoef>
-5.4800

> <Gold.Chemscore.Hbond>
2.3000

> <Gold.Chemscore.Metal>
0.0000

> <Gold.Chemscore.Lipo>
64.8700

> <Gold.Chemscore.Internal_Hbond>
0.0000

> <Gold.Chemscore.DEClash>
0.0697

> <Gold.Chemscore.DEInternal>
2.1231

> <Gold.Chemscore.Rot>
1.9817

> <Gold.Chemscore.Internal.Correction>
   9.000000E+99

> <Gold.Chemscore.Hbonds>
donor molecule, donor type, donor heavy atom, donor atom, acceptor molecule, acceptor atom, score
      P1  H  6896  6908       L1     9  0.43
      P1  H  6931  6943       L1    15  0.13
      P1  H  6934  6947       L1    15  0.41
      P1  H  7989  7998       L1    19  0.11

> <Gold.Chemscore.Hbond.Weighted>
-7.6819

> <Gold.Chemscore.Metal.Weighted>
-0.0000

> <Gold.Chemscore.Lipo.Weighted>
-7.5898

> <Gold.Chemscore.Internal_Hbond.Weighted>
0.0000

> <Gold.Chemscore.DEClash.Weighted>
0.0697

> <Gold.Chemscore.DEInternal.Weighted>
2.1231

> <Gold.Chemscore.Rot.Weighted>
5.0731

> <Gold.Chemscore.Internal.Correction.Weighted>
   9.000000E+99

> <Gold.Protein.RotatedTorsions>
[ 6907 6896 6895 6894 ] final -130.06 input  -60.11 | X-H torsion
[ 7974 7965 7964 7962 ] final    9.72 input  175.53 | X-H torsion
[ 8008 7997 7996 7995 ] final -124.47 input   59.86 | X-H torsion
[ 10167 10162 10161 10158 ] final  104.61 input  -65.29 | X-H torsion
[ 10718 10713 10712 10709 ] final   33.49 input   66.30 | X-H torsion
[ 10763 10752 10751 10750 ] final   50.14 input  -60.55 | X-H torsion
[ 11005 11000 10999 10996 ] final  -88.67 input  -57.11 | X-H torsion

> <Gold.Protein.ActiveResidues>
 VAL166  LYS551  ARG553  GLY616  TRP617  ASP618  TYR619  PRO620  LYS621  CYS622 
 ASP623  PHE694  ASN695  SER759  ASP760  ASP761  ALA762  ILE779  LEU786  VAL792 
 PHE793  MET794  SER795  GLU796  ALA797  LYS798  CYS799  TRP800  GLU811  SER814 

> <Gold.Protein.RotatedAtoms>
  150.9355  133.6716  159.2801 H   0  0  0  0  0  0  0  0  0  0  0  0  # atno 6907 bound_to 6896
  151.4124  135.0985  159.9598 H   0  0  0  0  0  0  0  0  0  0  0  0  # atno 6908 bound_to 6896
  152.5046  133.8825  159.7408 H   0  0  0  0  0  0  0  0  0  0  0  0  # atno 6909 bound_to 6896
  146.2399  139.9741  142.8443 H   0  0  0  0  0  0  0  0  0  0  0  0  # atno 7974 bound_to 7965
  155.1973  140.0415  157.2911 H   0  0  0  0  0  0  0  0  0  0  0  0  # atno 8008 bound_to 7997
  154.6098  140.2474  155.7655 H   0  0  0  0  0  0  0  0  0  0  0  0  # atno 8009 bound_to 7997
  156.2372  140.2917  156.0354 H   0  0  0  0  0  0  0  0  0  0  0  0  # atno 8010 bound_to 7997
  139.7162  144.7068  151.0946 H   0  0  0  0  0  0  0  0  0  0  0  0  # atno 10167 bound_to 10162
  157.2985  130.7338  149.6652 H   0  0  0  0  0  0  0  0  0  0  0  0  # atno 10718 bound_to 10713
  152.9785  135.5888  154.4204 H   0  0  0  0  0  0  0  0  0  0  0  0  # atno 10763 bound_to 10752
  154.3829  135.2767  155.2202 H   0  0  0  0  0  0  0  0  0  0  0  0  # atno 10764 bound_to 10752
  154.4108  135.6082  153.6006 H   0  0  0  0  0  0  0  0  0  0  0  0  # atno 10765 bound_to 10752
  141.1598  133.7584  156.9485 H   0  0  0  0  0  0  0  0  0  0  0  0  # atno 11005 bound_to 11000
  145.1653  140.9694  143.4353 LP  0  0  0  0  0  0  0  0  0  0  0  0  # atno 17320 bound_to 7965
  145.0078  139.3538  143.6135 LP  0  0  0  0  0  0  0  0  0  0  0  0  # atno 17321 bound_to 7965
  140.7744  143.5226  150.9518 LP  0  0  0  0  0  0  0  0  0  0  0  0  # atno 17342 bound_to 10162
  139.8912  143.6951  152.3145 LP  0  0  0  0  0  0  0  0  0  0  0  0  # atno 17343 bound_to 10162
  155.9670  130.4287  150.4800 LP  0  0  0  0  0  0  0  0  0  0  0  0  # atno 17370 bound_to 10713
  157.2776  131.0600  151.2219 LP  0  0  0  0  0  0  0  0  0  0  0  0  # atno 17371 bound_to 10713
  140.1273  134.9378  157.2288 LP  0  0  0  0  0  0  0  0  0  0  0  0  # atno 17394 bound_to 11000
  140.2996  134.3146  155.7293 LP  0  0  0  0  0  0  0  0  0  0  0  0  # atno 17395 bound_to 11000

$$$$
