#       Name:                AV-unprocessed.smi:3280
#       Creating user name   scv26
#       Creation time:       Fri Mar 27 18:47:30 2020


#       File generated by GOLD software.
#

@<TRIPOS>MOLECULE
AV-unprocessed.smi:3280
    43    44     1
SMALL
NO_CHARGES


@<TRIPOS>ATOM
      1 ****        -5.2526  -0.0486   0.3877 C.3            1 S1                 0.0000
      2 ****        -4.9865   1.2002  -0.4654 C.3            1 S1                 0.0000
      3 ****        -5.5898   1.1030  -1.8745 C.3            1 S1                 0.0000
      4 ****        -3.5286   1.5429  -0.5077 C.2            1 S1                 0.0000
      5 ****        -3.0697   2.6645   0.0358 N.2            1 S1                 0.0000
      6 ****        -1.6894   2.6004  -0.2015 O.3            1 S1                 0.0000
      7 ****        -1.4843   1.4464  -0.8802 C.2            1 S1                 0.0000
      8 ****        -0.0892   1.0641  -1.2462 C.3            1 S1                 0.0000
      9 ****         0.6280   0.3230  -0.1107 C.3            1 S1                 0.0000
     10 ****         1.9849  -0.0074  -0.5246 N.3            1 S1                 0.0000
     11 ****         2.6952  -0.7792   0.4892 C.3            1 S1                 0.0000
     12 ****         3.8714  -1.4903  -0.2087 C.3            1 S1                 0.0000
     13 ****         4.6650  -2.3963   0.7463 C.3            1 S1                 0.0000
     14 ****         5.2960  -1.6123   1.9050 C.3            1 S1                 0.0000
     15 ****         4.0260  -0.8189   2.9267 S.3            1 S1                 0.0000
     16 ****         3.1879   0.1352   1.6313 C.3            1 S1                 0.0000
     17 ****        -2.5915   0.7366  -1.0817 N.2            1 S1                 0.0000
     18 ****        -4.8781   0.0833   1.4033 H              1 S1                 0.0000
     19 ****        -4.7679  -0.9292  -0.0350 H              1 S1                 0.0000
     20 ****        -6.3205  -0.2576   0.4545 H              1 S1                 0.0000
     21 ****        -5.4993   2.0260   0.0308 H              1 S1                 0.0000
     22 ****        -5.4467   2.0319  -2.4273 H              1 S1                 0.0000
     23 ****        -6.6614   0.9074  -1.8300 H              1 S1                 0.0000
     24 ****        -5.1293   0.2986  -2.4489 H              1 S1                 0.0000
     25 ****        -0.1225   0.4431  -2.1425 H              1 S1                 0.0000
     26 ****         0.4584   1.9697  -1.5115 H              1 S1                 0.0000
     27 ****         0.6420   0.9475   0.7819 H              1 S1                 0.0000
     28 ****         0.0850  -0.5904   0.1357 H              1 S1                 0.0000
     29 ****         1.9396  -0.5491  -1.3760 H              1 S1                 0.0000
     30 ****         2.0236  -1.5404   0.8893 H              1 S1                 0.0000
     31 ****         3.4953  -2.0974  -1.0335 H              1 S1                 0.0000
     32 ****         4.5437  -0.7547  -0.6533 H              1 S1                 0.0000
     33 ****         4.0153  -3.1787   1.1405 H              1 S1                 0.0000
     34 ****         5.4513  -2.9052   0.1880 H              1 S1                 0.0000
     35 ****         5.8853  -2.2783   2.5355 H              1 S1                 0.0000
     36 ****         5.9749  -0.8488   1.5236 H              1 S1                 0.0000
     37 ****         3.8758   0.8907   1.2492 H              1 S1                 0.0000
     38 ****         2.3623   0.6666   2.1032 H              1 S1                 0.0000
     39 ****        -3.5854   3.3830   0.5027 LP             1 S1                 0.0000
     40 ****        -1.1876   2.5895   0.6635 LP             1 S1                 0.0000
     41 ****        -1.3935   3.3834  -0.7486 LP             1 S1                 0.0000
     42 ****         2.4842   0.8479  -0.6635 LP             1 S1                 0.0000
     43 ****        -2.7053  -0.1488  -1.5323 LP             1 S1                 0.0000
@<TRIPOS>BOND
    1    1    2 1     
    2    1   18 1     
    3    1   19 1     
    4    1   20 1     
    5    2    3 1     
    6    2    4 1     
    7    2   21 1     
    8    3   22 1     
    9    3   23 1     
   10    3   24 1     
   11    4   17 1     
   12    4    5 2     
   13    5    6 1     
   14    6    7 1     
   15    7    8 1     
   16    7   17 2     
   17    8    9 1     
   18    8   25 1     
   19    8   26 1     
   20    9   10 1     
   21    9   27 1     
   22    9   28 1     
   23   10   11 1     
   24   10   29 1     
   25   11   16 1     
   26   11   12 1     
   27   11   30 1     
   28   12   13 1     
   29   12   31 1     
   30   12   32 1     
   31   13   14 1     
   32   13   33 1     
   33   13   34 1     
   34   14   15 1     
   35   14   35 1     
   36   14   36 1     
   37   15   16 1     
   38   16   37 1     
   39   16   38 1     
   40    5   39 1     
   41    6   40 1     
   42    6   41 1     
   43   10   42 1     
   44   17   43 1     
@<TRIPOS>SUBSTRUCTURE
      1 S1             1
@<TRIPOS>SET
LONE_PAIRS      STATIC     ATOMS    <user>   **** ""
5 39 40 41 42 43
DONOR_HYDROGENS      STATIC     ATOMS    <user>   **** ""
1 29
ATOM$BLUE        STATIC     ATOMS    COLORGROUP SYSTEM
5 39 40 41 42 43
ATOM$RED        STATIC     ATOMS    COLORGROUP SYSTEM
1 29
