AV-unprocessed.smi:3343|AV-procd|sdf|12893|dock2
  -GOLD-   2272019303D 1   1.00000     0.00000
 Structure written by MMmdl.
 41 42  0  0  0  0  0  0  0  0  1 V2000
  148.7649  141.3397  155.5998 C   0  0  0  0  0  0  0  0  0  0  0  0
  148.8740  140.5513  154.2787 C   0  0  2  0  0  0  0  0  0  0  0  0
  147.5805  139.8043  153.9140 C   0  0  0  0  0  0  0  0  0  0  0  0
  146.6978  139.6202  154.7528 O   0  0  0  0  0  0  0  0  0  0  0  0
  147.5005  139.3538  152.6526 N   0  0  0  0  0  0  0  0  0  0  0  0
  146.4667  138.4640  152.1393 C   0  0  0  0  0  0  0  0  0  0  0  0
  146.4703  137.1279  152.9044 C   0  0  0  0  0  0  0  0  0  0  0  0
  146.1885  135.9392  152.0978 N   0  0  0  0  0  0  0  0  0  0  0  0
  146.2949  134.7254  152.9096 C   0  0  0  0  0  0  0  0  0  0  0  0
  146.0157  133.4575  152.0813 C   0  0  0  0  0  0  0  0  0  0  0  0
  144.6829  133.4969  151.4845 N   0  0  0  0  0  0  0  0  0  0  0  0
  144.4068  132.2965  150.7106 C   0  0  0  0  0  0  0  0  0  0  0  0
  144.5684  134.7013  150.6662 C   0  0  0  0  0  0  0  0  0  0  0  0
  144.8542  135.9704  151.4892 C   0  0  0  0  0  0  0  0  0  0  0  0
  149.9987  139.6215  154.2867 N   0  0  0  0  0  0  0  0  0  0  0  0
  150.0238  138.3031  154.0782 C   0  0  0  0  0  0  0  0  0  0  0  0
  151.2223  137.7563  154.2270 N   0  0  0  0  0  0  0  0  0  0  0  0
  151.9413  138.8697  154.5574 C   0  0  0  0  0  0  0  0  0  0  0  0
  151.2557  140.0110  154.6174 N   0  0  0  0  0  0  0  0  0  0  0  0
  147.9588  142.0724  155.5551 H   0  0  0  0  0  0  0  0  0  0  0  0
  149.6879  141.8829  155.8045 H   0  0  0  0  0  0  0  0  0  0  0  0
  148.5711  140.6868  156.4521 H   0  0  0  0  0  0  0  0  0  0  0  0
  149.0610  141.2750  153.4835 H   0  0  0  0  0  0  0  0  0  0  0  0
  148.2638  139.5661  152.0272 H   0  0  0  0  0  0  0  0  0  0  0  0
  145.4742  138.9173  152.1673 H   0  0  0  0  0  0  0  0  0  0  0  0
  146.6950  138.2794  151.0890 H   0  0  0  0  0  0  0  0  0  0  0  0
  147.4680  137.0133  153.3303 H   0  0  0  0  0  0  0  0  0  0  0  0
  145.7932  137.1772  153.7591 H   0  0  0  0  0  0  0  0  0  0  0  0
  147.2945  134.6566  153.3403 H   0  0  0  0  0  0  0  0  0  0  0  0
  145.5974  134.7739  153.7473 H   0  0  0  0  0  0  0  0  0  0  0  0
  146.7728  133.3541  151.3022 H   0  0  0  0  0  0  0  0  0  0  0  0
  146.1059  132.5802  152.7227 H   0  0  0  0  0  0  0  0  0  0  0  0
  143.4012  132.3318  150.2906 H   0  0  0  0  0  0  0  0  0  0  0  0
  144.4734  131.4079  151.3392 H   0  0  0  0  0  0  0  0  0  0  0  0
  145.1150  132.1853  149.8884 H   0  0  0  0  0  0  0  0  0  0  0  0
  145.2596  134.6491  149.8235 H   0  0  0  0  0  0  0  0  0  0  0  0
  143.5651  134.7653  150.2434 H   0  0  0  0  0  0  0  0  0  0  0  0
  144.0920  136.0886  152.2609 H   0  0  0  0  0  0  0  0  0  0  0  0
  144.7657  136.8277  150.8240 H   0  0  0  0  0  0  0  0  0  0  0  0
  149.1448  137.7293  153.8234 H   0  0  0  0  0  0  0  0  0  0  0  0
  153.0002  138.8370  154.7682 H   0  0  0  0  0  0  0  0  0  0  0  0
  1  2  1  0  0  0  0
  1 20  1  0  0  0  0
  1 21  1  0  0  0  0
  1 22  1  0  0  0  0
  2  3  1  0  0  0  0
  2 15  1  0  0  0  0
  2 23  1  0  0  0  0
  3  4  2  0  0  0  0
  3  5  1  0  0  0  0
  5  6  1  0  0  0  0
  5 24  1  0  0  0  0
  6  7  1  0  0  0  0
  6 25  1  0  0  0  0
  6 26  1  0  0  0  0
  7  8  1  0  0  0  0
  7 27  1  0  0  0  0
  7 28  1  0  0  0  0
  8 14  1  0  0  0  0
  8  9  1  0  0  0  0
  9 10  1  0  0  0  0
  9 29  1  0  0  0  0
  9 30  1  0  0  0  0
 10 11  1  0  0  0  0
 10 31  1  0  0  0  0
 10 32  1  0  0  0  0
 11 12  1  0  0  0  0
 11 13  1  0  0  0  0
 12 33  1  0  0  0  0
 12 34  1  0  0  0  0
 12 35  1  0  0  0  0
 13 14  1  0  0  0  0
 13 36  1  0  0  0  0
 13 37  1  0  0  0  0
 14 38  1  0  0  0  0
 14 39  1  0  0  0  0
 15 19  1  0  0  0  0
 15 16  1  0  0  0  0
 16 17  2  0  0  0  0
 16 40  1  0  0  0  0
 17 18  1  0  0  0  0
 18 19  2  0  0  0  0
 18 41  1  0  0  0  0
M  END
> <s_m_source_file>
AV-unprocessed.smi

> <i_m_source_file_index>
3343

> <i_lp_mmshare_version>
43012

> <i_f3d_flags>
0

> <s_epik_input>
bjFbY0hdbltjSF1uMVtDQEhdKFtDSDNdKUMoPU8pW05IXVtDSDJdW0NIMl1OMltDSDJdW0NIMl1OKFtDSDNdKVtDSDJdW0NIMl0y

> <s_epik_cmdline>
J2VwaWtfcHl0aG9uJywgJy1waCcsICc3LjAnLCAnLXRuJywgJzgnLCAnLW1hJywgJzIwMCcsICctbWV0YWxfYmluZGluZycsICctaW1hZScsICc8aW5maWxlLm1hZT4nLCAnLW9tYWUnLCAnPG91dGZpbGUubWFlPic=

> <r_lp_tautomer_probability>
1

> <r_epik_Ionization_Penalty>
1.97295

> <r_epik_Ionization_Penalty_Charging>
0

> <r_epik_Ionization_Penalty_Neutral>
1.97295

> <r_epik_State_Penalty>
1.8027

> <r_epik_Charging_Adjusted_Penalty>
1.8027

> <i_epik_Tot_Q>
0

> <i_epik_Tot_abs_Q>
0

> <r_epik_Metal_State_Penalty>
1.8027

> <b_epik_Metal_Only>
0

> <s_lp_Force_Field>
OPLS_2005

> <r_lp_Energy>
39.2202

> <b_lp_Chiralities_Consistent>
1

> <s_lp_Variant>
AV-unprocessed.smi:3343-3

> <Gold.Version>
5.8.1

> <Gold.Id.Protein>
6NUR|6NUR_protein|mol2

> <Gold.PLP.Fitness>
38.1335

> <Gold.PLP.PLP>
-30.5748

> <Gold.PLP.part.hbond>
-2.0000

> <Gold.PLP.part.metal>
0.0000

> <Gold.PLP.part.buried>
-2.2029

> <Gold.PLP.part.nonpolar>
-28.8794

> <Gold.PLP.part.repulsive>
2.8128

> <Gold.PLP.ligand.clash>
0.0000

> <Gold.PLP.ligand.torsion>
0.5755

> <Gold.PLP.Chemscore.Hbond>
2.0000

> <Gold.PLP.Chemscore.CHOScore>
0.8533

> <Gold.PLP.Chemscore.Metal>
0.0000

> <Gold.Chemscore.Hbonds>
donor molecule, donor type, donor heavy atom, donor atom, acceptor molecule, acceptor atom, score
      L1  H     5    24       P1  7957  1.00
      P1  H  7989  7998       L1    19  0.81
      L1  C    16    40       P1  7948  0.87

> <Gold.PLP.Chemscore.Internal.Correction>
0.1500

> <Gold.Rescore>
     Score         DG    S(hbond)    S(metal)    S(lipo)     H(rot)  DE(clash)    DE(int)     intcor
      9.32     -11.19       1.78        0.00      53.83       2.56       1.12       0.76       ----

> <Gold.Chemscore.Fitness>
9.3167

> <Gold.Chemscore.DG>
-11.1881

> <Gold.Chemscore.ZeroCoef>
-5.4800

> <Gold.Chemscore.Hbond>
1.7837

> <Gold.Chemscore.Metal>
0.0000

> <Gold.Chemscore.Lipo>
53.8317

> <Gold.Chemscore.Internal_Hbond>
0.0000

> <Gold.Chemscore.DEClash>
1.1160

> <Gold.Chemscore.DEInternal>
0.7554

> <Gold.Chemscore.Rot>
2.5577

> <Gold.Chemscore.Internal.Correction>
   9.000000E+99

> <Gold.Chemscore.Hbonds>
donor molecule, donor type, donor heavy atom, donor atom, acceptor molecule, acceptor atom, score
      L1  H     5    24       P1  7957  1.00
      P1  H  7989  7998       L1    19  0.22

> <Gold.Chemscore.Hbond.Weighted>
-5.9575

> <Gold.Chemscore.Metal.Weighted>
-0.0000

> <Gold.Chemscore.Lipo.Weighted>
-6.2983

> <Gold.Chemscore.Internal_Hbond.Weighted>
0.0000

> <Gold.Chemscore.DEClash.Weighted>
1.1160

> <Gold.Chemscore.DEInternal.Weighted>
0.7554

> <Gold.Chemscore.Rot.Weighted>
6.5477

> <Gold.Chemscore.Internal.Correction.Weighted>
   9.000000E+99

> <Gold.Protein.RotatedTorsions>
[ 6907 6896 6895 6894 ] final  113.12 input  -60.11 | X-H torsion
[ 7974 7965 7964 7962 ] final   93.01 input  175.53 | X-H torsion
[ 8008 7997 7996 7995 ] final  -36.26 input   59.86 | X-H torsion
[ 10167 10162 10161 10158 ] final  -29.71 input  -65.29 | X-H torsion
[ 10718 10713 10712 10709 ] final  -88.26 input   66.30 | X-H torsion
[ 10763 10752 10751 10750 ] final   62.01 input  -60.55 | X-H torsion
[ 11005 11000 10999 10996 ] final   42.00 input  -57.11 | X-H torsion

> <Gold.Protein.ActiveResidues>
 VAL166  LYS551  ARG553  GLY616  TRP617  ASP618  TYR619  PRO620  LYS621  CYS622 
 ASP623  PHE694  ASN695  SER759  ASP760  ASP761  ALA762  ILE779  LEU786  VAL792 
 PHE793  MET794  SER795  GLU796  ALA797  LYS798  CYS799  TRP800  GLU811  SER814 

> <Gold.Protein.RotatedAtoms>
  152.4879  133.8420  159.7157 H   0  0  0  0  0  0  0  0  0  0  0  0  # atno 6907 bound_to 6896
  150.8981  133.7145  159.2893 H   0  0  0  0  0  0  0  0  0  0  0  0  # atno 6908 bound_to 6896
  151.4595  135.1041  159.9773 H   0  0  0  0  0  0  0  0  0  0  0  0  # atno 6909 bound_to 6896
  145.4847  139.2277  143.2863 H   0  0  0  0  0  0  0  0  0  0  0  0  # atno 7974 bound_to 7965
  154.4077  140.1635  156.2346 H   0  0  0  0  0  0  0  0  0  0  0  0  # atno 8008 bound_to 7997
  155.9254  140.3418  155.6183 H   0  0  0  0  0  0  0  0  0  0  0  0  # atno 8009 bound_to 7997
  155.7172  140.0764  157.2337 H   0  0  0  0  0  0  0  0  0  0  0  0  # atno 8010 bound_to 7997
  140.7257  143.3907  151.1436 H   0  0  0  0  0  0  0  0  0  0  0  0  # atno 10167 bound_to 10162
  155.9984  130.4829  150.4992 H   0  0  0  0  0  0  0  0  0  0  0  0  # atno 10718 bound_to 10713
  152.9968  135.5480  154.6124 H   0  0  0  0  0  0  0  0  0  0  0  0  # atno 10763 bound_to 10752
  154.5442  135.2822  155.1070 H   0  0  0  0  0  0  0  0  0  0  0  0  # atno 10764 bound_to 10752
  154.2336  135.6429  153.5236 H   0  0  0  0  0  0  0  0  0  0  0  0  # atno 10765 bound_to 10752
  140.1781  134.4138  155.8217 H   0  0  0  0  0  0  0  0  0  0  0  0  # atno 11005 bound_to 11000
  146.2320  140.5636  142.8971 LP  0  0  0  0  0  0  0  0  0  0  0  0  # atno 17320 bound_to 7965
  144.7869  140.5953  143.6568 LP  0  0  0  0  0  0  0  0  0  0  0  0  # atno 17321 bound_to 7965
  139.7511  143.8777  152.3077 LP  0  0  0  0  0  0  0  0  0  0  0  0  # atno 17342 bound_to 10162
  139.8631  144.7107  150.9076 LP  0  0  0  0  0  0  0  0  0  0  0  0  # atno 17343 bound_to 10162
  157.2978  131.0639  151.2089 LP  0  0  0  0  0  0  0  0  0  0  0  0  # atno 17370 bound_to 10713
  157.3079  130.6875  149.6199 LP  0  0  0  0  0  0  0  0  0  0  0  0  # atno 17371 bound_to 10713
  141.2221  133.6987  156.7881 LP  0  0  0  0  0  0  0  0  0  0  0  0  # atno 17394 bound_to 11000
  140.2299  134.8693  157.3466 LP  0  0  0  0  0  0  0  0  0  0  0  0  # atno 17395 bound_to 11000

$$$$
