AV-unprocessed.smi:1701|AV-procd|sdf|6842|dock2
  -GOLD-   22720 8 23D 1   1.00000     0.00000
 Structure written by MMmdl.
 54 56  0  0  0  0  0  0  0  0  4 V2000
  152.5560  143.1672  161.9116 C   0  0  0  0  0  0  0  0  0  0  0  0
  153.0893  142.5697  160.6028 C   0  0  0  0  0  0  0  0  0  0  0  0
  152.1343  142.7046  159.5038 N   0  0  0  0  0  0  0  0  0  0  0  0
  151.7380  144.0418  159.0702 C   0  0  0  0  0  0  0  0  0  0  0  0
  152.7835  144.6837  158.1490 C   0  0  0  0  0  0  0  0  0  0  0  0
  151.5681  141.5567  158.9022 C   0  0  0  0  0  0  0  0  0  0  0  0
  150.4530  141.6040  158.0288 C   0  0  0  0  0  0  0  0  0  0  0  0
  149.9432  140.4126  157.4735 C   0  0  0  0  0  0  0  0  0  0  0  0
  150.5527  139.1794  157.7801 C   0  0  0  0  0  0  0  0  0  0  0  0
  149.9879  138.0013  157.2217 N   0  0  0  0  0  0  0  0  0  0  0  0
  150.2109  136.7042  157.5484 C   0  0  0  0  0  0  0  0  0  0  0  0
  151.0789  136.4400  158.3783 O   0  0  0  0  0  0  0  0  0  0  0  0
  149.4954  135.7147  156.9329 N   0  5  0  0  0  0  0  0  0  0  0  0
  149.4340  135.3638  155.5069 C   0  0  1  0  0  0  0  0  0  0  0  0
  150.0591  133.9832  155.2330 C   0  0  0  0  0  0  0  0  0  0  0  0
  149.1957  133.3525  154.1229 C   0  0  0  0  0  0  0  0  0  0  0  0
  148.1404  134.3424  153.8318 N   0  3  1  0  0  0  0  0  0  0  0  0
  146.8520  133.8297  153.3157 C   0  0  0  0  0  0  0  0  0  0  0  0
  145.9346  135.0198  152.9688 C   0  0  0  0  0  0  0  0  0  0  0  0
  145.7805  135.9920  154.1571 C   0  0  0  0  0  0  0  0  0  0  0  0
  147.1544  136.4241  154.7069 C   0  0  0  0  0  0  0  0  0  0  0  0
  147.9868  135.1684  155.0401 C   0  0  2  0  0  0  0  0  0  0  0  0
  151.6560  139.1798  158.6647 C   0  0  0  0  0  0  0  0  0  0  0  0
  152.1105  140.3444  159.1747 N   0  3  0  0  0  0  0  0  0  0  0  0
  153.2938  143.0693  162.7079 H   0  0  0  0  0  0  0  0  0  0  0  0
  151.6472  142.6615  162.2390 H   0  0  0  0  0  0  0  0  0  0  0  0
  152.3277  144.2275  161.8004 H   0  0  0  0  0  0  0  0  0  0  0  0
  154.0104  143.0832  160.3256 H   0  0  0  0  0  0  0  0  0  0  0  0
  153.3689  141.5257  160.7468 H   0  0  0  0  0  0  0  0  0  0  0  0
  150.7597  144.0216  158.5907 H   0  0  0  0  0  0  0  0  0  0  0  0
  151.6132  144.6689  159.9538 H   0  0  0  0  0  0  0  0  0  0  0  0
  152.4727  145.6850  157.8503 H   0  0  0  0  0  0  0  0  0  0  0  0
  152.9293  144.0978  157.2413 H   0  0  0  0  0  0  0  0  0  0  0  0
  153.7488  144.7724  158.6481 H   0  0  0  0  0  0  0  0  0  0  0  0
  149.9781  142.5370  157.7666 H   0  0  0  0  0  0  0  0  0  0  0  0
  149.0912  140.4498  156.8103 H   0  0  0  0  0  0  0  0  0  0  0  0
  149.3506  138.1491  156.4530 H   0  0  0  0  0  0  0  0  0  0  0  0
  149.9100  136.1026  154.8597 H   0  0  0  0  0  0  0  0  0  0  0  0
  151.1047  134.0732  154.9373 H   0  0  0  0  0  0  0  0  0  0  0  0
  150.0256  133.3469  156.1191 H   0  0  0  0  0  0  0  0  0  0  0  0
  149.7708  133.1358  153.2219 H   0  0  0  0  0  0  0  0  0  0  0  0
  148.7558  132.4170  154.4739 H   0  0  0  0  0  0  0  0  0  0  0  0
  147.0289  133.2195  152.4295 H   0  0  0  0  0  0  0  0  0  0  0  0
  146.3819  133.1880  154.0623 H   0  0  0  0  0  0  0  0  0  0  0  0
  146.3525  135.5588  152.1177 H   0  0  0  0  0  0  0  0  0  0  0  0
  144.9560  134.6575  152.6526 H   0  0  0  0  0  0  0  0  0  0  0  0
  145.2052  136.8674  153.8547 H   0  0  0  0  0  0  0  0  0  0  0  0
  145.2104  135.5064  154.9501 H   0  0  0  0  0  0  0  0  0  0  0  0
  147.6617  137.0455  153.9658 H   0  0  0  0  0  0  0  0  0  0  0  0
  147.0153  137.0442  155.5943 H   0  0  0  0  0  0  0  0  0  0  0  0
  147.4522  134.5766  155.7874 H   0  0  0  0  0  0  0  0  0  0  0  0
  152.1843  138.2988  158.9977 H   0  0  0  0  0  0  0  0  0  0  0  0
  148.5217  134.9579  153.1280 H   0  0  0  0  0  0  0  0  0  0  0  0
  152.9080  140.3066  159.8094 H   0  0  0  0  0  0  0  0  0  0  0  0
  1  2  1  0  0  0  0
  1 25  1  0  0  0  0
  1 26  1  0  0  0  0
  1 27  1  0  0  0  0
  2  3  1  0  0  0  0
  2 28  1  0  0  0  0
  2 29  1  0  0  0  0
  3  4  1  0  0  0  0
  3  6  1  0  0  0  0
  4  5  1  0  0  0  0
  4 30  1  0  0  0  0
  4 31  1  0  0  0  0
  5 32  1  0  0  0  0
  5 33  1  0  0  0  0
  5 34  1  0  0  0  0
  6 24  1  0  0  0  0
  6  7  2  0  0  0  0
  7  8  1  0  0  0  0
  7 35  1  0  0  0  0
  8  9  2  0  0  0  0
  8 36  1  0  0  0  0
  9 10  1  0  0  0  0
  9 23  1  0  0  0  0
 10 11  1  0  0  0  0
 10 37  1  0  0  0  0
 11 12  2  0  0  0  0
 11 13  1  0  0  0  0
 13 14  1  0  0  0  0
 14 22  1  0  0  0  0
 14 15  1  0  0  0  0
 14 38  1  0  0  0  0
 15 16  1  0  0  0  0
 15 39  1  0  0  0  0
 15 40  1  0  0  0  0
 16 17  1  0  0  0  0
 16 41  1  0  0  0  0
 16 42  1  0  0  0  0
 17 22  1  0  0  0  0
 17 18  1  0  0  0  0
 17 53  1  0  0  0  0
 18 19  1  0  0  0  0
 18 43  1  0  0  0  0
 18 44  1  0  0  0  0
 19 20  1  0  0  0  0
 19 45  1  0  0  0  0
 19 46  1  0  0  0  0
 20 21  1  0  0  0  0
 20 47  1  0  0  0  0
 20 48  1  0  0  0  0
 21 22  1  0  0  0  0
 21 49  1  0  0  0  0
 21 50  1  0  0  0  0
 22 51  1  0  0  0  0
 23 24  2  0  0  0  0
 23 52  1  0  0  0  0
 24 54  1  0  0  0  0
M  CHG  1  13  -1
M  CHG  1  17   1
M  CHG  1  24   1
M  END
> <s_m_source_file>
AV-unprocessed.smi

> <i_m_source_file_index>
1701

> <i_lp_mmshare_version>
43012

> <i_f3d_flags>
0

> <s_epik_input>
W0NIM11bQ0gyXU4oW0NIMl1bQ0gzXSljMVtjSF1bY0hdYyhbY0hdbjEpW05IXUMoPU8pW05IXVtDQEhdKFtDSDJdW0NIMl0yKVtDQEBIXShOMjMpW0NIMl1bQ0gyXVtDSDJdW0NIMl0z

> <s_epik_cmdline>
J2VwaWtfcHl0aG9uJywgJy1waCcsICc3LjAnLCAnLXRuJywgJzgnLCAnLW1hJywgJzIwMCcsICctbWV0YWxfYmluZGluZycsICctaW1hZScsICc8aW5maWxlLm1hZT4nLCAnLW9tYWUnLCAnPG91dGZpbGUubWFlPic=

> <r_lp_tautomer_probability>
0.999994

> <r_epik_Ionization_Penalty>
7.37095

> <r_epik_Ionization_Penalty_Charging>
7.37095

> <r_epik_Ionization_Penalty_Neutral>
3.78969e-06

> <r_epik_State_Penalty>
6.83842

> <r_epik_Charging_Adjusted_Penalty>
14.2094

> <i_epik_Tot_Q>
1

> <i_epik_Tot_abs_Q>
3

> <r_epik_Metal_State_Penalty>
2.78552

> <b_epik_Metal_Only>
1

> <s_lp_Force_Field>
OPLS_2005

> <r_lp_Energy>
47.735

> <b_lp_Chiralities_Consistent>
1

> <s_lp_Variant>
AV-unprocessed.smi:1701-22

> <Gold.Version>
5.8.1

> <Gold.Id.Protein>
6NUR|6NUR_protein|mol2

> <Gold.PLP.Fitness>
48.3434

> <Gold.PLP.PLP>
-42.3686

> <Gold.PLP.part.hbond>
-2.0000

> <Gold.PLP.part.metal>
0.0000

> <Gold.PLP.part.buried>
-5.2880

> <Gold.PLP.part.nonpolar>
-34.5738

> <Gold.PLP.part.repulsive>
0.1409

> <Gold.PLP.ligand.clash>
0.0000

> <Gold.PLP.ligand.torsion>
1.0526

> <Gold.PLP.Chemscore.Hbond>
2.6400

> <Gold.PLP.Chemscore.CHOScore>
0.0000

> <Gold.PLP.Chemscore.Metal>
0.0000

> <Gold.Chemscore.Hbonds>
donor molecule, donor type, donor heavy atom, donor atom, acceptor molecule, acceptor atom, score
      L1  H    17    53       P1  7948  2.00
      P1  H  6896  6908       L1    12  0.72

> <Gold.PLP.Chemscore.Internal.Correction>
0.1600

> <Gold.Rescore>
     Score         DG    S(hbond)    S(metal)    S(lipo)     H(rot)  DE(clash)    DE(int)     intcor
     16.84     -19.02       1.80        0.00      92.35       1.28       0.01       2.17       ----

> <Gold.Chemscore.Fitness>
16.8400

> <Gold.Chemscore.DG>
-19.0239

> <Gold.Chemscore.ZeroCoef>
-5.4800

> <Gold.Chemscore.Hbond>
1.8040

> <Gold.Chemscore.Metal>
0.0000

> <Gold.Chemscore.Lipo>
92.3497

> <Gold.Chemscore.Internal_Hbond>
0.0000

> <Gold.Chemscore.DEClash>
0.0089

> <Gold.Chemscore.DEInternal>
2.1750

> <Gold.Chemscore.Rot>
1.2838

> <Gold.Chemscore.Internal.Correction>
   9.000000E+99

> <Gold.Chemscore.Hbonds>
donor molecule, donor type, donor heavy atom, donor atom, acceptor molecule, acceptor atom, score
      L1  H    17    53       P1  7948  0.65
      P1  H  6896  6908       L1    12  0.70

> <Gold.Chemscore.Hbond.Weighted>
-6.0255

> <Gold.Chemscore.Metal.Weighted>
-0.0000

> <Gold.Chemscore.Lipo.Weighted>
-10.8049

> <Gold.Chemscore.Internal_Hbond.Weighted>
0.0000

> <Gold.Chemscore.DEClash.Weighted>
0.0089

> <Gold.Chemscore.DEInternal.Weighted>
2.1750

> <Gold.Chemscore.Rot.Weighted>
3.2865

> <Gold.Chemscore.Internal.Correction.Weighted>
   9.000000E+99

> <Gold.Protein.RotatedTorsions>
[ 6907 6896 6895 6894 ] final -146.53 input  -60.11 | X-H torsion
[ 7974 7965 7964 7962 ] final   44.56 input  175.53 | X-H torsion
[ 8008 7997 7996 7995 ] final -125.21 input   59.86 | X-H torsion
[ 10167 10162 10161 10158 ] final   51.43 input  -65.29 | X-H torsion
[ 10718 10713 10712 10709 ] final  -75.82 input   66.30 | X-H torsion
[ 10763 10752 10751 10750 ] final  -41.08 input  -60.55 | X-H torsion
[ 11005 11000 10999 10996 ] final  -42.63 input  -57.11 | X-H torsion

> <Gold.Protein.ActiveResidues>
 VAL166  LYS551  ARG553  GLY616  TRP617  ASP618  TYR619  PRO620  LYS621  CYS622 
 ASP623  PHE694  ASN695  SER759  ASP760  ASP761  ALA762  ILE779  LEU786  VAL792 
 PHE793  MET794  SER795  GLU796  ALA797  LYS798  CYS799  TRP800  GLU811  SER814 

> <Gold.Protein.RotatedAtoms>
  151.1429  133.4959  159.2596 H   0  0  0  0  0  0  0  0  0  0  0  0  # atno 6907 bound_to 6896
  151.1636  135.0284  159.8731 H   0  0  0  0  0  0  0  0  0  0  0  0  # atno 6908 bound_to 6896
  152.5462  134.1300  159.8488 H   0  0  0  0  0  0  0  0  0  0  0  0  # atno 6909 bound_to 6896
  146.0557  139.5061  142.9690 H   0  0  0  0  0  0  0  0  0  0  0  0  # atno 7974 bound_to 7965
  155.2096  140.0418  157.2931 H   0  0  0  0  0  0  0  0  0  0  0  0  # atno 8008 bound_to 7997
  154.6020  140.2454  155.7751 H   0  0  0  0  0  0  0  0  0  0  0  0  # atno 8009 bound_to 7997
  156.2327  140.2932  156.0240 H   0  0  0  0  0  0  0  0  0  0  0  0  # atno 8010 bound_to 7997
  140.2620  144.3362  150.6315 H   0  0  0  0  0  0  0  0  0  0  0  0  # atno 10167 bound_to 10162
  156.0195  130.4450  150.3100 H   0  0  0  0  0  0  0  0  0  0  0  0  # atno 10718 bound_to 10713
  153.9566  135.6744  153.4744 H   0  0  0  0  0  0  0  0  0  0  0  0  # atno 10763 bound_to 10752
  153.0858  135.4899  154.8591 H   0  0  0  0  0  0  0  0  0  0  0  0  # atno 10764 bound_to 10752
  154.7296  135.3135  154.8873 H   0  0  0  0  0  0  0  0  0  0  0  0  # atno 10765 bound_to 10752
  141.0329  133.6812  156.2622 H   0  0  0  0  0  0  0  0  0  0  0  0  # atno 11005 bound_to 11000
  145.6647  141.0232  143.1690 LP  0  0  0  0  0  0  0  0  0  0  0  0  # atno 17320 bound_to 7965
  144.7147  139.8241  143.7403 LP  0  0  0  0  0  0  0  0  0  0  0  0  # atno 17321 bound_to 7965
  140.5958  143.2167  151.7166 LP  0  0  0  0  0  0  0  0  0  0  0  0  # atno 17342 bound_to 10162
  139.5014  144.3869  152.0319 LP  0  0  0  0  0  0  0  0  0  0  0  0  # atno 17343 bound_to 10162
  157.1202  131.0245  151.3012 LP  0  0  0  0  0  0  0  0  0  0  0  0  # atno 17370 bound_to 10713
  157.4634  130.7666  149.7257 LP  0  0  0  0  0  0  0  0  0  0  0  0  # atno 17371 bound_to 10713
  140.6374  134.5201  157.5566 LP  0  0  0  0  0  0  0  0  0  0  0  0  # atno 17394 bound_to 11000
  139.9220  134.8129  156.1182 LP  0  0  0  0  0  0  0  0  0  0  0  0  # atno 17395 bound_to 11000

$$$$
