AV-unprocessed.smi:2507|AV-procd|sdf|9864|dock9
  -GOLD-   2272013493D 1   1.00000     0.00000
 Structure written by MMmdl.
 44 45  0  0  0  0  0  0  0  0  1 V2000
  145.2138  134.6695  151.4519 C   0  0  0  0  0  0  0  0  0  0  0  0
  146.0219  133.5549  150.7785 C   0  0  0  0  0  0  0  0  0  0  0  0
  146.5309  132.5490  151.7742 C   0  0  0  0  0  0  0  0  0  0  0  0
  146.1307  131.2867  151.7032 N   0  0  0  0  0  0  0  0  0  0  0  0
  146.7661  130.6543  152.7185 N   0  0  0  0  0  0  0  0  0  0  0  0
  146.5395  129.2399  152.9240 C   0  0  0  0  0  0  0  0  0  0  0  0
  147.5770  131.5062  153.4401 C   0  0  0  0  0  0  0  0  0  0  0  0
  147.4432  132.7309  152.8492 C   0  0  0  0  0  0  0  0  0  0  0  0
  148.0608  133.9618  153.1893 N   0  0  0  0  0  0  0  0  0  0  0  0
  148.7121  134.2638  154.3244 C   0  0  0  0  0  0  0  0  0  0  0  0
  148.8828  133.4937  155.2695 O   0  0  0  0  0  0  0  0  0  0  0  0
  149.1600  135.5270  154.3056 N   0  0  0  0  0  0  0  0  0  0  0  0
  149.9011  136.1707  155.3841 C   0  0  0  0  0  0  0  0  0  0  0  0
  151.1601  136.8833  154.8605 C   0  0  0  0  0  0  0  0  0  0  0  0
  150.9711  138.4013  154.7142 C   0  0  1  0  0  0  0  0  0  0  0  0
  149.4954  138.7766  154.4755 C   0  0  0  0  0  0  0  0  0  0  0  0
  149.3281  140.2990  154.4122 C   0  0  0  0  0  0  0  0  0  0  0  0
  149.9460  140.9390  155.6595 C   0  0  0  0  0  0  0  0  0  0  0  0
  151.3930  140.4561  155.8455 C   0  0  0  0  0  0  0  0  0  0  0  0
  151.4252  139.0335  155.9095 O   0  0  0  0  0  0  0  0  0  0  0  0
  144.8509  135.3861  150.7150 H   0  0  0  0  0  0  0  0  0  0  0  0
  145.8208  135.2144  152.1757 H   0  0  0  0  0  0  0  0  0  0  0  0
  144.3485  134.2642  151.9770 H   0  0  0  0  0  0  0  0  0  0  0  0
  145.4017  133.0602  150.0310 H   0  0  0  0  0  0  0  0  0  0  0  0
  146.8573  133.9937  150.2313 H   0  0  0  0  0  0  0  0  0  0  0  0
  147.1414  128.8818  153.7597 H   0  0  0  0  0  0  0  0  0  0  0  0
  146.8156  128.6869  152.0256 H   0  0  0  0  0  0  0  0  0  0  0  0
  145.4863  129.0634  153.1441 H   0  0  0  0  0  0  0  0  0  0  0  0
  148.1589  131.1673  154.2842 H   0  0  0  0  0  0  0  0  0  0  0  0
  147.9969  134.6912  152.4945 H   0  0  0  0  0  0  0  0  0  0  0  0
  148.9741  136.0855  153.4855 H   0  0  0  0  0  0  0  0  0  0  0  0
  149.2538  136.8703  155.9156 H   0  0  0  0  0  0  0  0  0  0  0  0
  150.1824  135.4016  156.1036 H   0  0  0  0  0  0  0  0  0  0  0  0
  151.9861  136.6915  155.5465 H   0  0  0  0  0  0  0  0  0  0  0  0
  151.4549  136.4600  153.8993 H   0  0  0  0  0  0  0  0  0  0  0  0
  151.5723  138.7503  153.8726 H   0  0  0  0  0  0  0  0  0  0  0  0
  149.1345  138.3249  153.5509 H   0  0  0  0  0  0  0  0  0  0  0  0
  148.8784  138.3758  155.2811 H   0  0  0  0  0  0  0  0  0  0  0  0
  149.8198  140.6855  153.5186 H   0  0  0  0  0  0  0  0  0  0  0  0
  148.2733  140.5635  154.3304 H   0  0  0  0  0  0  0  0  0  0  0  0
  149.9170  142.0260  155.5807 H   0  0  0  0  0  0  0  0  0  0  0  0
  149.3576  140.6718  156.5382 H   0  0  0  0  0  0  0  0  0  0  0  0
  152.0284  140.8088  155.0318 H   0  0  0  0  0  0  0  0  0  0  0  0
  151.8070  140.8597  156.7694 H   0  0  0  0  0  0  0  0  0  0  0  0
  1  2  1  0  0  0  0
  1 21  1  0  0  0  0
  1 22  1  0  0  0  0
  1 23  1  0  0  0  0
  2  3  1  0  0  0  0
  2 24  1  0  0  0  0
  2 25  1  0  0  0  0
  3  8  1  0  0  0  0
  3  4  2  0  0  0  0
  4  5  1  0  0  0  0
  5  6  1  0  0  0  0
  5  7  1  0  0  0  0
  6 26  1  0  0  0  0
  6 27  1  0  0  0  0
  6 28  1  0  0  0  0
  7  8  2  0  0  0  0
  7 29  1  0  0  0  0
  8  9  1  0  0  0  0
  9 10  1  0  0  0  0
  9 30  1  0  0  0  0
 10 11  2  0  0  0  0
 10 12  1  0  0  0  0
 12 13  1  0  0  0  0
 12 31  1  0  0  0  0
 13 14  1  0  0  0  0
 13 32  1  0  0  0  0
 13 33  1  0  0  0  0
 14 15  1  0  0  0  0
 14 34  1  0  0  0  0
 14 35  1  0  0  0  0
 15 20  1  0  0  0  0
 15 16  1  0  0  0  0
 15 36  1  0  0  0  0
 16 17  1  0  0  0  0
 16 37  1  0  0  0  0
 16 38  1  0  0  0  0
 17 18  1  0  0  0  0
 17 39  1  0  0  0  0
 17 40  1  0  0  0  0
 18 19  1  0  0  0  0
 18 41  1  0  0  0  0
 18 42  1  0  0  0  0
 19 20  1  0  0  0  0
 19 43  1  0  0  0  0
 19 44  1  0  0  0  0
M  END
> <s_m_source_file>
AV-unprocessed.smi

> <i_m_source_file_index>
2507

> <i_lp_mmshare_version>
43012

> <i_f3d_flags>
0

> <s_epik_input>
W0NIM11bQ0gyXWMxbm4oW0NIM10pW2NIXWMxW05IXUMoPU8pW05IXVtDSDJdW0NIMl1bQ0BASF0yW0NIMl1bQ0gyXVtDSDJdW0NIMl1PMg==

> <s_epik_cmdline>
J2VwaWtfcHl0aG9uJywgJy1waCcsICc3LjAnLCAnLXRuJywgJzgnLCAnLW1hJywgJzIwMCcsICctbWV0YWxfYmluZGluZycsICctaW1hZScsICc8aW5maWxlLm1hZT4nLCAnLW9tYWUnLCAnPG91dGZpbGUubWFlPic=

> <r_lp_tautomer_probability>
1

> <r_epik_Ionization_Penalty>
0.00072031

> <r_epik_Ionization_Penalty_Charging>
0

> <r_epik_Ionization_Penalty_Neutral>
0.00072031

> <r_epik_State_Penalty>
-0

> <r_epik_Charging_Adjusted_Penalty>
0

> <i_epik_Tot_Q>
0

> <i_epik_Tot_abs_Q>
0

> <r_epik_Metal_State_Penalty>
-0

> <b_epik_Metal_Only>
0

> <s_lp_Force_Field>
OPLS_2005

> <r_lp_Energy>
7.2839

> <b_lp_Chiralities_Consistent>
1

> <s_lp_Variant>
AV-unprocessed.smi:2507-2

> <Gold.Version>
5.8.1

> <Gold.Id.Protein>
6NUR|6NUR_protein|mol2

> <Gold.PLP.Fitness>
38.7278

> <Gold.PLP.PLP>
-34.6734

> <Gold.PLP.part.hbond>
-2.0000

> <Gold.PLP.part.metal>
0.0000

> <Gold.PLP.part.buried>
-1.7917

> <Gold.PLP.part.nonpolar>
-31.0514

> <Gold.PLP.part.repulsive>
0.1787

> <Gold.PLP.ligand.clash>
0.0000

> <Gold.PLP.ligand.torsion>
0.8404

> <Gold.PLP.Chemscore.Hbond>
1.8960

> <Gold.PLP.Chemscore.CHOScore>
0.0000

> <Gold.PLP.Chemscore.Metal>
0.0000

> <Gold.Chemscore.Hbonds>
donor molecule, donor type, donor heavy atom, donor atom, acceptor molecule, acceptor atom, score
      L1  H     9    30       P1  7948  0.82
      L1  H    12    31       P1  7948  0.96

> <Gold.PLP.Chemscore.Internal.Correction>
0.0472

> <Gold.Rescore>
     Score         DG    S(hbond)    S(metal)    S(lipo)     H(rot)  DE(clash)    DE(int)     intcor
     14.29     -16.09       1.58        0.00      78.54       1.50       0.06       1.75       ----

> <Gold.Chemscore.Fitness>
14.2873

> <Gold.Chemscore.DG>
-16.0939

> <Gold.Chemscore.ZeroCoef>
-5.4800

> <Gold.Chemscore.Hbond>
1.5794

> <Gold.Chemscore.Metal>
0.0000

> <Gold.Chemscore.Lipo>
78.5407

> <Gold.Chemscore.Internal_Hbond>
0.0000

> <Gold.Chemscore.DEClash>
0.0605

> <Gold.Chemscore.DEInternal>
1.7462

> <Gold.Chemscore.Rot>
1.5042

> <Gold.Chemscore.Internal.Correction>
   9.000000E+99

> <Gold.Chemscore.Hbonds>
donor molecule, donor type, donor heavy atom, donor atom, acceptor molecule, acceptor atom, score
      L1  H     9    30       P1  7948  0.49
      L1  H    12    31       P1  7948  0.89

> <Gold.Chemscore.Hbond.Weighted>
-5.2754

> <Gold.Chemscore.Metal.Weighted>
-0.0000

> <Gold.Chemscore.Lipo.Weighted>
-9.1893

> <Gold.Chemscore.Internal_Hbond.Weighted>
0.0000

> <Gold.Chemscore.DEClash.Weighted>
0.0605

> <Gold.Chemscore.DEInternal.Weighted>
1.7462

> <Gold.Chemscore.Rot.Weighted>
3.8507

> <Gold.Chemscore.Internal.Correction.Weighted>
   9.000000E+99

> <Gold.Protein.RotatedTorsions>
[ 6907 6896 6895 6894 ] final -159.58 input  -60.11 | X-H torsion
[ 7974 7965 7964 7962 ] final -129.58 input  175.53 | X-H torsion
[ 8008 7997 7996 7995 ] final  155.79 input   59.86 | X-H torsion
[ 10167 10162 10161 10158 ] final   -9.69 input  -65.29 | X-H torsion
[ 10718 10713 10712 10709 ] final  -60.55 input   66.30 | X-H torsion
[ 10763 10752 10751 10750 ] final   78.74 input  -60.55 | X-H torsion
[ 11005 11000 10999 10996 ] final   -1.75 input  -57.11 | X-H torsion

> <Gold.Protein.ActiveResidues>
 VAL166  LYS551  ARG553  GLY616  TRP617  ASP618  TYR619  PRO620  LYS621  CYS622 
 ASP623  PHE694  ASN695  SER759  ASP760  ASP761  ALA762  ILE779  LEU786  VAL792 
 PHE793  MET794  SER795  GLU796  ALA797  LYS798  CYS799  TRP800  GLU811  SER814 

> <Gold.Protein.RotatedAtoms>
  151.3358  133.3982  159.2666 H   0  0  0  0  0  0  0  0  0  0  0  0  # atno 6907 bound_to 6896
  150.9918  134.9252  159.7914 H   0  0  0  0  0  0  0  0  0  0  0  0  # atno 6908 bound_to 6896
  152.5249  134.3323  159.9240 H   0  0  0  0  0  0  0  0  0  0  0  0  # atno 6909 bound_to 6896
  144.9558  140.7394  143.4759 H   0  0  0  0  0  0  0  0  0  0  0  0  # atno 7974 bound_to 7965
  156.2459  140.1930  156.6855 H   0  0  0  0  0  0  0  0  0  0  0  0  # atno 8008 bound_to 7997
  154.6290  140.0598  156.9735 H   0  0  0  0  0  0  0  0  0  0  0  0  # atno 8009 bound_to 7997
  155.1741  140.3270  155.4390 H   0  0  0  0  0  0  0  0  0  0  0  0  # atno 8010 bound_to 7997
  140.7094  143.5830  150.8972 H   0  0  0  0  0  0  0  0  0  0  0  0  # atno 10167 bound_to 10162
  156.0983  130.4190  150.0869 H   0  0  0  0  0  0  0  0  0  0  0  0  # atno 10718 bound_to 10713
  153.0897  135.4866  154.8667 H   0  0  0  0  0  0  0  0  0  0  0  0  # atno 10763 bound_to 10752
  154.7255  135.3048  154.8981 H   0  0  0  0  0  0  0  0  0  0  0  0  # atno 10764 bound_to 10752
  153.9632  135.6810  153.4798 H   0  0  0  0  0  0  0  0  0  0  0  0  # atno 10765 bound_to 10752
  140.6508  133.9406  155.8379 H   0  0  0  0  0  0  0  0  0  0  0  0  # atno 11005 bound_to 11000
  145.2774  139.1931  143.4809 LP  0  0  0  0  0  0  0  0  0  0  0  0  # atno 17320 bound_to 7965
  146.3336  140.2731  142.8607 LP  0  0  0  0  0  0  0  0  0  0  0  0  # atno 17321 bound_to 7965
  139.9556  143.6222  152.3017 LP  0  0  0  0  0  0  0  0  0  0  0  0  # atno 17342 bound_to 10162
  139.6756  144.7659  151.1701 LP  0  0  0  0  0  0  0  0  0  0  0  0  # atno 17343 bound_to 10162
  156.8863  130.9573  151.3593 LP  0  0  0  0  0  0  0  0  0  0  0  0  # atno 17370 bound_to 10713
  157.6148  130.8610  149.9011 LP  0  0  0  0  0  0  0  0  0  0  0  0  # atno 17371 bound_to 10713
  141.0538  134.0446  157.3749 LP  0  0  0  0  0  0  0  0  0  0  0  0  # atno 17394 bound_to 11000
  139.9046  135.0176  156.7429 LP  0  0  0  0  0  0  0  0  0  0  0  0  # atno 17395 bound_to 11000

$$$$
