AV-unprocessed.smi:169|AV-procd|sdf|1405|dock2
  -GOLD-   2262019153D 1   1.00000     0.00000
 Structure written by MMmdl.
 56 60  0  0  0  0  0  0  0  0  2 V2000
  152.3650  144.4239  158.0279 C   0  0  0  0  0  0  0  0  0  0  0  0
  152.8091  143.2449  158.9121 C   0  0  0  0  0  0  0  0  0  0  0  0
  152.1929  141.9449  158.5375 N   0  3  1  0  0  0  0  0  0  0  0  0
  152.4561  140.8644  159.5215 C   0  0  0  0  0  0  0  0  0  0  0  0
  152.6823  139.4925  158.8554 C   0  0  0  0  0  0  0  0  0  0  0  0
  151.6591  139.0764  157.7744 C   0  0  2  0  0  0  0  0  0  0  0  0
  152.0094  139.5989  156.3652 C   0  0  0  0  0  0  0  0  0  0  0  0
  150.9384  140.6441  156.0364 C   0  0  0  0  0  0  0  0  0  0  0  0
  150.2015  140.8690  157.3605 C   0  0  2  0  0  0  0  0  0  0  0  0
  150.7557  142.0671  158.1650 C   0  0  0  0  0  0  0  0  0  0  0  0
  150.3246  139.5983  158.0692 N   0  0  0  0  0  0  0  0  0  0  0  0
  149.2330  138.7927  157.9995 C   0  0  0  0  0  0  0  0  0  0  0  0
  148.2906  138.9787  157.0375 N   0  0  0  0  0  0  0  0  0  0  0  0
  147.2154  138.1870  156.9842 C   0  0  0  0  0  0  0  0  0  0  0  0
  146.8893  137.1691  157.7826 N   0  0  0  0  0  0  0  0  0  0  0  0
  147.8281  136.9788  158.7526 C   0  0  0  0  0  0  0  0  0  0  0  0
  149.0200  137.7365  158.9282 C   0  0  0  0  0  0  0  0  0  0  0  0
  149.7402  137.2465  160.0109 N   0  0  0  0  0  0  0  0  0  0  0  0
  149.0130  136.2567  160.4525 C   0  0  0  0  0  0  0  0  0  0  0  0
  147.8410  136.0339  159.7639 N   0  0  0  0  0  0  0  0  0  0  0  0
  146.8510  135.0057  160.0474 C   0  0  0  0  0  0  0  0  0  0  0  0
  146.2240  135.1032  161.4541 C   0  0  0  0  0  0  0  0  0  0  0  0
  145.5649  136.4774  161.6687 C   0  0  0  0  0  0  0  0  0  0  0  0
  146.5289  137.5062  161.7694 O   0  0  0  0  0  0  0  0  0  0  0  0
  145.3543  133.9137  161.8865 C   0  0  0  0  0  0  0  0  0  0  0  0
  146.0626  133.7801  163.1364 O   0  0  0  0  0  0  0  0  0  0  0  0
  147.1086  134.6266  162.6144 C   0  0  0  0  0  0  0  0  0  0  0  0
  152.8286  145.3499  158.3683 H   0  0  0  0  0  0  0  0  0  0  0  0
  151.2854  144.5705  158.0595 H   0  0  0  0  0  0  0  0  0  0  0  0
  152.6553  144.2820  156.9870 H   0  0  0  0  0  0  0  0  0  0  0  0
  153.8947  143.1474  158.8725 H   0  0  0  0  0  0  0  0  0  0  0  0
  152.5695  143.4598  159.9543 H   0  0  0  0  0  0  0  0  0  0  0  0
  153.3486  141.0957  160.1049 H   0  0  0  0  0  0  0  0  0  0  0  0
  151.6384  140.8122  160.2425 H   0  0  0  0  0  0  0  0  0  0  0  0
  153.6909  139.4409  158.4435 H   0  0  0  0  0  0  0  0  0  0  0  0
  152.6633  138.7438  159.6484 H   0  0  0  0  0  0  0  0  0  0  0  0
  151.6742  137.9867  157.7423 H   0  0  0  0  0  0  0  0  0  0  0  0
  153.0083  140.0343  156.3261 H   0  0  0  0  0  0  0  0  0  0  0  0
  151.9825  138.7905  155.6334 H   0  0  0  0  0  0  0  0  0  0  0  0
  151.3538  141.5600  155.6147 H   0  0  0  0  0  0  0  0  0  0  0  0
  150.2463  140.2309  155.3012 H   0  0  0  0  0  0  0  0  0  0  0  0
  149.1573  141.0883  157.1324 H   0  0  0  0  0  0  0  0  0  0  0  0
  150.1532  142.2097  159.0629 H   0  0  0  0  0  0  0  0  0  0  0  0
  150.6200  142.9678  157.5650 H   0  0  0  0  0  0  0  0  0  0  0  0
  146.5160  138.3994  156.1889 H   0  0  0  0  0  0  0  0  0  0  0  0
  149.3085  135.6620  161.3048 H   0  0  0  0  0  0  0  0  0  0  0  0
  146.0789  135.0670  159.2793 H   0  0  0  0  0  0  0  0  0  0  0  0
  147.3223  134.0322  159.9071 H   0  0  0  0  0  0  0  0  0  0  0  0
  144.8643  136.7183  160.8691 H   0  0  0  0  0  0  0  0  0  0  0  0
  144.9801  136.4800  162.5892 H   0  0  0  0  0  0  0  0  0  0  0  0
  146.7000  137.6680  162.6850 H   0  0  0  0  0  0  0  0  0  0  0  0
  144.3000  134.1580  162.0211 H   0  0  0  0  0  0  0  0  0  0  0  0
  145.4710  133.0231  161.2678 H   0  0  0  0  0  0  0  0  0  0  0  0
  147.9788  134.0479  162.2999 H   0  0  0  0  0  0  0  0  0  0  0  0
  147.3971  135.4157  163.3097 H   0  0  0  0  0  0  0  0  0  0  0  0
  152.6746  141.6695  157.6934 H   0  0  0  0  0  0  0  0  0  0  0  0
  1  2  1  0  0  0  0
  1 28  1  0  0  0  0
  1 29  1  0  0  0  0
  1 30  1  0  0  0  0
  2  3  1  0  0  0  0
  2 31  1  0  0  0  0
  2 32  1  0  0  0  0
  3 10  1  0  0  0  0
  3  4  1  0  0  0  0
  3 56  1  0  0  0  0
  4  5  1  0  0  0  0
  4 33  1  0  0  0  0
  4 34  1  0  0  0  0
  5  6  1  0  0  0  0
  5 35  1  0  0  0  0
  5 36  1  0  0  0  0
  6 11  1  0  0  0  0
  6  7  1  0  0  0  0
  6 37  1  0  0  0  0
  7  8  1  0  0  0  0
  7 38  1  0  0  0  0
  7 39  1  0  0  0  0
  8  9  1  0  0  0  0
  8 40  1  0  0  0  0
  8 41  1  0  0  0  0
  9 10  1  0  0  0  0
  9 11  1  0  0  0  0
  9 42  1  0  0  0  0
 10 43  1  0  0  0  0
 10 44  1  0  0  0  0
 11 12  1  0  0  0  0
 12 17  1  0  0  0  0
 12 13  2  0  0  0  0
 13 14  1  0  0  0  0
 14 15  2  0  0  0  0
 14 45  1  0  0  0  0
 15 16  1  0  0  0  0
 16 20  1  0  0  0  0
 16 17  2  0  0  0  0
 17 18  1  0  0  0  0
 18 19  2  0  0  0  0
 19 20  1  0  0  0  0
 19 46  1  0  0  0  0
 20 21  1  0  0  0  0
 21 22  1  0  0  0  0
 21 47  1  0  0  0  0
 21 48  1  0  0  0  0
 22 27  1  0  0  0  0
 22 23  1  0  0  0  0
 22 25  1  0  0  0  0
 23 24  1  0  0  0  0
 23 49  1  0  0  0  0
 23 50  1  0  0  0  0
 24 51  1  0  0  0  0
 25 26  1  0  0  0  0
 25 52  1  0  0  0  0
 25 53  1  0  0  0  0
 26 27  1  0  0  0  0
 27 54  1  0  0  0  0
 27 55  1  0  0  0  0
M  CHG  1   3   1
M  END
> <s_m_source_file>
AV-unprocessed.smi

> <i_m_source_file_index>
169

> <i_lp_mmshare_version>
43012

> <i_f3d_flags>
0

> <s_epik_input>
W0NASF0xMltDSDJdW0NIMl1OKFtDSDJdW0NIM10pW0NIMl1bQ0BIXShbQ0gyXVtDSDJdMSlOMmMobltjSF1uMyljKGMzNCluW2NIXW40W0NIMl1DNShbQ0gyXVtPSF0pW0NIMl1PW0NIMl01

> <s_epik_cmdline>
J2VwaWtfcHl0aG9uJywgJy1waCcsICc3LjAnLCAnLXRuJywgJzgnLCAnLW1hJywgJzIwMCcsICctbWV0YWxfYmluZGluZycsICctaW1hZScsICc8aW5maWxlLm1hZT4nLCAnLW9tYWUnLCAnPG91dGZpbGUubWFlPic=

> <r_lp_tautomer_probability>
1

> <r_epik_Ionization_Penalty>
0.00274162

> <r_epik_Ionization_Penalty_Charging>
0.00243722

> <r_epik_Ionization_Penalty_Neutral>
0.000304399

> <r_epik_State_Penalty>
-0

> <r_epik_Charging_Adjusted_Penalty>
0.00243722

> <i_epik_Tot_Q>
1

> <i_epik_Tot_abs_Q>
1

> <r_epik_Metal_State_Penalty>
-0

> <b_epik_Metal_Only>
0

> <s_lp_Force_Field>
OPLS_2005

> <r_lp_Energy>
77.4951

> <b_lp_Chiralities_Consistent>
1

> <s_lp_Variant>
AV-unprocessed.smi:169-8

> <Gold.Version>
5.8.1

> <Gold.Id.Protein>
6NUR|6NUR_protein|mol2

> <Gold.PLP.Fitness>
43.7381

> <Gold.PLP.PLP>
-41.5900

> <Gold.PLP.part.hbond>
-3.0000

> <Gold.PLP.part.metal>
0.0000

> <Gold.PLP.part.buried>
-7.0769

> <Gold.PLP.part.nonpolar>
-32.8300

> <Gold.PLP.part.repulsive>
0.1225

> <Gold.PLP.ligand.clash>
0.0000

> <Gold.PLP.ligand.torsion>
0.6801

> <Gold.PLP.Chemscore.Hbond>
0.9882

> <Gold.PLP.Chemscore.CHOScore>
0.0000

> <Gold.PLP.Chemscore.Metal>
0.0000

> <Gold.Chemscore.Hbonds>
donor molecule, donor type, donor heavy atom, donor atom, acceptor molecule, acceptor atom, score
      P1  H  6931  6943       L1    18  0.03
      P1  H  6934  6947       L1    24  0.93

> <Gold.PLP.Chemscore.Internal.Correction>
0.5438

> <Gold.Rescore>
     Score         DG    S(hbond)    S(metal)    S(lipo)     H(rot)  DE(clash)    DE(int)     intcor
     12.87     -13.91       0.78        0.00     107.14       2.62       0.10       0.94       ----

> <Gold.Chemscore.Fitness>
12.8686

> <Gold.Chemscore.DG>
-13.9081

> <Gold.Chemscore.ZeroCoef>
-5.4800

> <Gold.Chemscore.Hbond>
0.7793

> <Gold.Chemscore.Metal>
0.0000

> <Gold.Chemscore.Lipo>
107.1419

> <Gold.Chemscore.Internal_Hbond>
0.0000

> <Gold.Chemscore.DEClash>
0.1044

> <Gold.Chemscore.DEInternal>
0.9351

> <Gold.Chemscore.Rot>
2.6212

> <Gold.Chemscore.Internal.Correction>
   9.000000E+99

> <Gold.Chemscore.Hbonds>
donor molecule, donor type, donor heavy atom, donor atom, acceptor molecule, acceptor atom, score
      P1  H  6934  6947       L1    24  0.36

> <Gold.Chemscore.Hbond.Weighted>
-2.6027

> <Gold.Chemscore.Metal.Weighted>
-0.0000

> <Gold.Chemscore.Lipo.Weighted>
-12.5356

> <Gold.Chemscore.Internal_Hbond.Weighted>
0.0000

> <Gold.Chemscore.DEClash.Weighted>
0.1044

> <Gold.Chemscore.DEInternal.Weighted>
0.9351

> <Gold.Chemscore.Rot.Weighted>
6.7102

> <Gold.Chemscore.Internal.Correction.Weighted>
   9.000000E+99

> <Gold.Protein.RotatedTorsions>
[ 6907 6896 6895 6894 ] final   58.95 input  -60.11 | X-H torsion
[ 7974 7965 7964 7962 ] final   -7.30 input  175.53 | X-H torsion
[ 8008 7997 7996 7995 ] final   77.92 input   59.86 | X-H torsion
[ 10167 10162 10161 10158 ] final  158.86 input  -65.29 | X-H torsion
[ 10718 10713 10712 10709 ] final   56.35 input   66.30 | X-H torsion
[ 10763 10752 10751 10750 ] final    1.41 input  -60.55 | X-H torsion
[ 11005 11000 10999 10996 ] final -164.19 input  -57.11 | X-H torsion

> <Gold.Protein.ActiveResidues>
 VAL166  LYS551  ARG553  GLY616  TRP617  ASP618  TYR619  PRO620  LYS621  CYS622 
 ASP623  PHE694  ASN695  SER759  ASP760  ASP761  ALA762  ILE779  LEU786  VAL792 
 PHE793  MET794  SER795  GLU796  ALA797  LYS798  CYS799  TRP800  GLU811  SER814 

> <Gold.Protein.RotatedAtoms>
  152.3871  134.6501  160.0121 H   0  0  0  0  0  0  0  0  0  0  0  0  # atno 6907 bound_to 6896
  151.6746  133.3307  159.3213 H   0  0  0  0  0  0  0  0  0  0  0  0  # atno 6908 bound_to 6896
  150.7794  134.6770  159.6467 H   0  0  0  0  0  0  0  0  0  0  0  0  # atno 6909 bound_to 6896
  146.2310  140.2300  142.8340 H   0  0  0  0  0  0  0  0  0  0  0  0  # atno 7974 bound_to 7965
  155.8484  140.3459  155.5677 H   0  0  0  0  0  0  0  0  0  0  0  0  # atno 8008 bound_to 7997
  155.8064  140.0892  157.1948 H   0  0  0  0  0  0  0  0  0  0  0  0  # atno 8009 bound_to 7997
  154.4007  140.1456  156.3322 H   0  0  0  0  0  0  0  0  0  0  0  0  # atno 8010 bound_to 7997
  139.4829  144.4784  151.8478 H   0  0  0  0  0  0  0  0  0  0  0  0  # atno 10167 bound_to 10162
  157.5424  130.8706  149.8841 H   0  0  0  0  0  0  0  0  0  0  0  0  # atno 10718 bound_to 10713
  153.3084  135.6961  153.7138 H   0  0  0  0  0  0  0  0  0  0  0  0  # atno 10763 bound_to 10752
  153.6025  135.3459  155.2951 H   0  0  0  0  0  0  0  0  0  0  0  0  # atno 10764 bound_to 10752
  154.8569  135.4344  154.2215 H   0  0  0  0  0  0  0  0  0  0  0  0  # atno 10765 bound_to 10752
  140.5897  134.5057  157.5191 H   0  0  0  0  0  0  0  0  0  0  0  0  # atno 11005 bound_to 11000
  144.9565  140.8232  143.5539 LP  0  0  0  0  0  0  0  0  0  0  0  0  # atno 17320 bound_to 7965
  145.2266  139.2134  143.5065 LP  0  0  0  0  0  0  0  0  0  0  0  0  # atno 17321 bound_to 7965
  140.4258  144.2182  150.5887 LP  0  0  0  0  0  0  0  0  0  0  0  0  # atno 17342 bound_to 10162
  140.4828  143.2373  151.8930 LP  0  0  0  0  0  0  0  0  0  0  0  0  # atno 17343 bound_to 10162
  156.0507  130.3718  150.1208 LP  0  0  0  0  0  0  0  0  0  0  0  0  # atno 17370 bound_to 10713
  156.9387  130.9737  151.3520 LP  0  0  0  0  0  0  0  0  0  0  0  0  # atno 17371 bound_to 10713
  139.9279  134.8019  156.1014 LP  0  0  0  0  0  0  0  0  0  0  0  0  # atno 17394 bound_to 11000
  141.0943  133.6702  156.2609 LP  0  0  0  0  0  0  0  0  0  0  0  0  # atno 17395 bound_to 11000

$$$$
