AV-unprocessed.smi:1261|AV-procd|sdf|5305|dock9
  -GOLD-   22720 4423D 1   1.00000     0.00000
 Structure written by MMmdl.
 50 51  0  0  0  0  0  0  0  0  2 V2000
  148.1944  133.7309  153.6358 C   0  0  0  0  0  0  0  0  0  0  0  0
  146.6606  133.6577  153.5317 C   0  0  2  0  0  0  0  0  0  0  0  0
  146.1781  132.6795  152.4441 C   0  0  0  0  0  0  0  0  0  0  0  0
  146.3851  133.2521  151.0301 C   0  0  1  0  0  0  0  0  0  0  0  0
  145.8422  132.2992  149.9558 C   0  0  0  0  0  0  0  0  0  0  0  0
  145.7447  134.6495  150.9205 C   0  0  0  0  0  0  0  0  0  0  0  0
  146.2754  135.5696  151.9592 N   0  3  1  0  0  0  0  0  0  0  0  0
  145.8090  136.9667  151.7717 C   0  0  0  0  0  0  0  0  0  0  0  0
  146.4472  137.9325  152.7842 C   0  0  0  0  0  0  0  0  0  0  0  0
  146.6476  139.3422  152.2050 C   0  0  0  0  0  0  0  0  0  0  0  0
  147.8063  139.9979  152.7977 N   0  0  0  0  0  0  0  0  0  0  0  0
  147.7733  140.8181  153.8623 C   0  0  0  0  0  0  0  0  0  0  0  0
  146.7277  141.1151  154.4391 O   0  0  0  0  0  0  0  0  0  0  0  0
  149.1032  141.3922  154.3817 C   0  0  0  0  0  0  0  0  0  0  0  0
  149.8367  140.5186  155.3124 N   0  0  0  0  0  0  0  0  0  0  0  0
  151.1149  140.1865  154.8894 N   0  0  0  0  0  0  0  0  0  0  0  0
  151.8582  139.4245  155.6186 C   0  0  0  0  0  0  0  0  0  0  0  0
  153.1159  139.1178  155.1601 O   0  0  0  0  0  0  0  0  0  0  0  0
  151.3845  138.9051  156.8830 C   0  0  0  0  0  0  0  0  0  0  0  0
  150.1373  139.2330  157.2863 C   0  0  0  0  0  0  0  0  0  0  0  0
  149.2660  140.0905  156.4806 C   0  0  0  0  0  0  0  0  0  0  0  0
  148.1204  140.3916  156.8150 O   0  0  0  0  0  0  0  0  0  0  0  0
  146.0243  135.0469  153.3293 C   0  0  0  0  0  0  0  0  0  0  0  0
  153.1478  138.1743  155.1224 H   0  0  0  0  0  0  0  0  0  0  0  0
  148.6472  134.1408  152.7331 H   0  0  0  0  0  0  0  0  0  0  0  0
  148.6236  132.7424  153.8028 H   0  0  0  0  0  0  0  0  0  0  0  0
  148.4983  134.3633  154.4705 H   0  0  0  0  0  0  0  0  0  0  0  0
  146.3079  133.2747  154.4901 H   0  0  0  0  0  0  0  0  0  0  0  0
  146.6883  131.7207  152.5452 H   0  0  0  0  0  0  0  0  0  0  0  0
  145.1171  132.4760  152.5966 H   0  0  0  0  0  0  0  0  0  0  0  0
  147.4563  133.3568  150.8545 H   0  0  0  0  0  0  0  0  0  0  0  0
  144.7690  132.1422  150.0686 H   0  0  0  0  0  0  0  0  0  0  0  0
  146.3285  131.3250  150.0134 H   0  0  0  0  0  0  0  0  0  0  0  0
  146.0170  132.6942  148.9546 H   0  0  0  0  0  0  0  0  0  0  0  0
  145.9518  135.0586  149.9307 H   0  0  0  0  0  0  0  0  0  0  0  0
  144.6595  134.5818  151.0150 H   0  0  0  0  0  0  0  0  0  0  0  0
  146.0797  137.3062  150.7709 H   0  0  0  0  0  0  0  0  0  0  0  0
  144.7200  137.0064  151.8261 H   0  0  0  0  0  0  0  0  0  0  0  0
  145.8291  138.0020  153.6789 H   0  0  0  0  0  0  0  0  0  0  0  0
  147.4107  137.5350  153.1068 H   0  0  0  0  0  0  0  0  0  0  0  0
  146.8065  139.2848  151.1277 H   0  0  0  0  0  0  0  0  0  0  0  0
  145.7541  139.9506  152.3560 H   0  0  0  0  0  0  0  0  0  0  0  0
  148.7051  139.8081  152.3775 H   0  0  0  0  0  0  0  0  0  0  0  0
  149.7281  141.6177  153.5158 H   0  0  0  0  0  0  0  0  0  0  0  0
  148.9071  142.3578  154.8512 H   0  0  0  0  0  0  0  0  0  0  0  0
  152.0194  138.2712  157.4845 H   0  0  0  0  0  0  0  0  0  0  0  0
  149.7710  138.8529  158.2287 H   0  0  0  0  0  0  0  0  0  0  0  0
  144.9472  134.9862  153.4941 H   0  0  0  0  0  0  0  0  0  0  0  0
  146.4119  135.7319  154.0825 H   0  0  0  0  0  0  0  0  0  0  0  0
  147.2769  135.5867  151.8300 H   0  0  0  0  0  0  0  0  0  0  0  0
  1  2  1  0  0  0  0
  1 25  1  0  0  0  0
  1 26  1  0  0  0  0
  1 27  1  0  0  0  0
  2 23  1  0  0  0  0
  2  3  1  0  0  0  0
  2 28  1  0  0  0  0
  3  4  1  0  0  0  0
  3 29  1  0  0  0  0
  3 30  1  0  0  0  0
  4  5  1  0  0  0  0
  4  6  1  0  0  0  0
  4 31  1  0  0  0  0
  5 32  1  0  0  0  0
  5 33  1  0  0  0  0
  5 34  1  0  0  0  0
  6  7  1  0  0  0  0
  6 35  1  0  0  0  0
  6 36  1  0  0  0  0
  7  8  1  0  0  0  0
  7 23  1  0  0  0  0
  7 50  1  0  0  0  0
  8  9  1  0  0  0  0
  8 37  1  0  0  0  0
  8 38  1  0  0  0  0
  9 10  1  0  0  0  0
  9 39  1  0  0  0  0
  9 40  1  0  0  0  0
 10 11  1  0  0  0  0
 10 41  1  0  0  0  0
 10 42  1  0  0  0  0
 11 12  1  0  0  0  0
 11 43  1  0  0  0  0
 12 13  2  0  0  0  0
 12 14  1  0  0  0  0
 14 44  1  0  0  0  0
 14 45  1  0  0  0  0
 14 15  1  0  0  0  0
 15 16  1  0  0  0  0
 15 21  1  0  0  0  0
 16 17  2  0  0  0  0
 17 18  1  0  0  0  0
 17 19  1  0  0  0  0
 18 24  1  0  0  0  0
 19 46  1  0  0  0  0
 19 20  2  0  0  0  0
 20 47  1  0  0  0  0
 20 21  1  0  0  0  0
 21 22  2  0  0  0  0
 23 48  1  0  0  0  0
 23 49  1  0  0  0  0
M  CHG  1   7   1
M  END
> <s_m_source_file>
AV-unprocessed.smi

> <i_m_source_file_index>
1261

> <i_lp_mmshare_version>
43012

> <i_f3d_flags>
0

> <s_epik_input>
W0NIM11bQ0BASF0xW0NIMl1bQ0BASF0oW0NIM10pW0NIMl1OKFtDSDJdMSlbQ0gyXVtDSDJdW0NIMl1bTkhdQyg9TylbQ0gyXW4yW25IXWMoPU8pW2NIXVtjSF1jMj1P

> <s_epik_cmdline>
J2VwaWtfcHl0aG9uJywgJy1waCcsICc3LjAnLCAnLXRuJywgJzgnLCAnLW1hJywgJzIwMCcsICctbWV0YWxfYmluZGluZycsICctaW1hZScsICc8aW5maWxlLm1hZT4nLCAnLW9tYWUnLCAnPG91dGZpbGUubWFlPic=

> <r_lp_tautomer_probability>
0.9996

> <r_epik_Ionization_Penalty>
2.1425

> <r_epik_Ionization_Penalty_Charging>
0.000312112

> <r_epik_Ionization_Penalty_Neutral>
2.14218

> <r_epik_State_Penalty>
1.71978

> <r_epik_Charging_Adjusted_Penalty>
1.72009

> <i_epik_Tot_Q>
1

> <i_epik_Tot_abs_Q>
1

> <r_epik_Metal_State_Penalty>
1.71978

> <b_epik_Metal_Only>
0

> <s_lp_Force_Field>
OPLS_2005

> <r_lp_Energy>
29.6525

> <b_lp_Chiralities_Consistent>
1

> <s_lp_Variant>
AV-unprocessed.smi:1261-5

> <Gold.Version>
5.8.1

> <Gold.Id.Protein>
6NUR|6NUR_protein|mol2

> <Gold.PLP.Fitness>
50.3874

> <Gold.PLP.PLP>
-37.4515

> <Gold.PLP.part.hbond>
-3.6621

> <Gold.PLP.part.metal>
0.0000

> <Gold.PLP.part.buried>
-1.1255

> <Gold.PLP.part.nonpolar>
-32.7080

> <Gold.PLP.part.repulsive>
0.3624

> <Gold.PLP.ligand.clash>
0.0000

> <Gold.PLP.ligand.torsion>
0.9399

> <Gold.PLP.Chemscore.Hbond>
4.9199

> <Gold.PLP.Chemscore.CHOScore>
0.0000

> <Gold.PLP.Chemscore.Metal>
0.0000

> <Gold.Chemscore.Hbonds>
donor molecule, donor type, donor heavy atom, donor atom, acceptor molecule, acceptor atom, score
      L1  H     7    50       P1  7948  2.00
      L1  H    11    43       P1  7957  0.89
      P1  H  7989  7998       L1    16  1.00
      P1  H  7997  8008       L1    18  1.00

> <Gold.PLP.Chemscore.Internal.Correction>
0.0560

> <Gold.Rescore>
     Score         DG    S(hbond)    S(metal)    S(lipo)     H(rot)  DE(clash)    DE(int)     intcor
     15.46     -19.02       3.80        0.00      75.86       3.14       0.15       3.41       ----

> <Gold.Chemscore.Fitness>
15.4595

> <Gold.Chemscore.DG>
-19.0187

> <Gold.Chemscore.ZeroCoef>
-5.4800

> <Gold.Chemscore.Hbond>
3.7990

> <Gold.Chemscore.Metal>
0.0000

> <Gold.Chemscore.Lipo>
75.8625

> <Gold.Chemscore.Internal_Hbond>
0.0000

> <Gold.Chemscore.DEClash>
0.1451

> <Gold.Chemscore.DEInternal>
3.4140

> <Gold.Chemscore.Rot>
3.1352

> <Gold.Chemscore.Internal.Correction>
   9.000000E+99

> <Gold.Chemscore.Hbonds>
donor molecule, donor type, donor heavy atom, donor atom, acceptor molecule, acceptor atom, score
      L1  H     7    50       P1  7948  0.99
      L1  H    11    43       P1  7957  0.81
      P1  H  7989  7998       L1    16  0.93
      P1  H  7997  8008       L1    18  0.57

> <Gold.Chemscore.Hbond.Weighted>
-12.6888

> <Gold.Chemscore.Metal.Weighted>
-0.0000

> <Gold.Chemscore.Lipo.Weighted>
-8.8759

> <Gold.Chemscore.Internal_Hbond.Weighted>
0.0000

> <Gold.Chemscore.DEClash.Weighted>
0.1451

> <Gold.Chemscore.DEInternal.Weighted>
3.4140

> <Gold.Chemscore.Rot.Weighted>
8.0260

> <Gold.Chemscore.Internal.Correction.Weighted>
   9.000000E+99

> <Gold.Protein.RotatedTorsions>
[ 6907 6896 6895 6894 ] final   21.40 input  -60.11 | X-H torsion
[ 7974 7965 7964 7962 ] final   93.95 input  175.53 | X-H torsion
[ 8008 7997 7996 7995 ] final  -37.46 input   59.86 | X-H torsion
[ 10167 10162 10161 10158 ] final   84.40 input  -65.29 | X-H torsion
[ 10718 10713 10712 10709 ] final  128.98 input   66.30 | X-H torsion
[ 10763 10752 10751 10750 ] final   59.61 input  -60.55 | X-H torsion
[ 11005 11000 10999 10996 ] final -161.24 input  -57.11 | X-H torsion

> <Gold.Protein.ActiveResidues>
 VAL166  LYS551  ARG553  GLY616  TRP617  ASP618  TYR619  PRO620  LYS621  CYS622 
 ASP623  PHE694  ASN695  SER759  ASP760  ASP761  ALA762  ILE779  LEU786  VAL792 
 PHE793  MET794  SER795  GLU796  ALA797  LYS798  CYS799  TRP800  GLU811  SER814 

> <Gold.Protein.RotatedAtoms>
  151.9112  135.0338  160.0514 H   0  0  0  0  0  0  0  0  0  0  0  0  # atno 6907 bound_to 6896
  152.2278  133.5029  159.5207 H   0  0  0  0  0  0  0  0  0  0  0  0  # atno 6908 bound_to 6896
  150.7017  134.1174  159.4065 H   0  0  0  0  0  0  0  0  0  0  0  0  # atno 6909 bound_to 6896
  145.4720  139.2281  143.2930 H   0  0  0  0  0  0  0  0  0  0  0  0  # atno 7974 bound_to 7965
  154.4053  140.1603  156.2540 H   0  0  0  0  0  0  0  0  0  0  0  0  # atno 8008 bound_to 7997
  155.9094  140.3428  155.6064 H   0  0  0  0  0  0  0  0  0  0  0  0  # atno 8009 bound_to 7997
  155.7354  140.0785  157.2260 H   0  0  0  0  0  0  0  0  0  0  0  0  # atno 8010 bound_to 7997
  139.9084  144.6287  150.8563 H   0  0  0  0  0  0  0  0  0  0  0  0  # atno 10167 bound_to 10162
  157.5196  131.1098  150.9173 H   0  0  0  0  0  0  0  0  0  0  0  0  # atno 10718 bound_to 10713
  152.9899  135.5565  154.5741 H   0  0  0  0  0  0  0  0  0  0  0  0  # atno 10763 bound_to 10752
  154.5136  135.2803  155.1324 H   0  0  0  0  0  0  0  0  0  0  0  0  # atno 10764 bound_to 10752
  154.2706  135.6364  153.5361 H   0  0  0  0  0  0  0  0  0  0  0  0  # atno 10765 bound_to 10752
  140.6226  134.4735  157.5224 H   0  0  0  0  0  0  0  0  0  0  0  0  # atno 11005 bound_to 11000
  146.2391  140.5499  142.8942 LP  0  0  0  0  0  0  0  0  0  0  0  0  # atno 17320 bound_to 7965
  144.7939  140.6086  143.6523 LP  0  0  0  0  0  0  0  0  0  0  0  0  # atno 17321 bound_to 7965
  140.7691  143.3384  151.2260 LP  0  0  0  0  0  0  0  0  0  0  0  0  # atno 17342 bound_to 10162
  139.6964  143.9606  152.2884 LP  0  0  0  0  0  0  0  0  0  0  0  0  # atno 17343 bound_to 10162
  156.9788  130.5519  149.5295 LP  0  0  0  0  0  0  0  0  0  0  0  0  # atno 17370 bound_to 10713
  156.0344  130.5433  150.8616 LP  0  0  0  0  0  0  0  0  0  0  0  0  # atno 17371 bound_to 10713
  139.9147  134.8270  156.1406 LP  0  0  0  0  0  0  0  0  0  0  0  0  # atno 17394 bound_to 11000
  141.0732  133.6787  156.2182 LP  0  0  0  0  0  0  0  0  0  0  0  0  # atno 17395 bound_to 11000

$$$$
