AV-unprocessed.smi:1897|AV-procd|sdf|7691|dock8
  -GOLD-   22720 9433D 1   1.00000     0.00000
 Structure written by MMmdl.
 39 41  0  0  0  0  0  0  0  0  2 V2000
  151.2164  137.5192  158.6103 C   0  0  0  0  0  0  0  0  0  0  0  0
  150.4275  136.6935  157.6523 C   0  0  0  0  0  0  0  0  0  0  0  0
  149.7669  135.5903  158.0233 N   0  0  0  0  0  0  0  0  0  0  0  0
  149.1077  134.9904  156.9603 N   0  0  0  0  0  0  0  0  0  0  0  0
  149.2972  135.6537  155.8101 C   0  0  0  0  0  0  0  0  0  0  0  0
  148.7336  135.2778  154.5553 N   0  0  0  0  0  0  0  0  0  0  0  0
  147.8430  134.3190  154.2226 C   0  0  0  0  0  0  0  0  0  0  0  0
  147.3608  133.5779  155.0772 O   0  0  0  0  0  0  0  0  0  0  0  0
  147.5192  134.2311  152.9220 N   0  0  0  0  0  0  0  0  0  0  0  0
  146.5896  133.2695  152.3391 C   0  0  1  0  0  0  0  0  0  0  0  0
  146.4299  133.4331  150.8324 C   0  0  0  0  0  0  0  0  0  0  0  0
  145.8609  132.0748  150.4195 C   0  0  0  0  0  0  0  0  0  0  0  0
  146.4728  131.0825  151.3329 N   0  3  2  0  0  0  0  0  0  0  0  0
  145.5869  129.9495  151.6963 C   0  0  0  0  0  0  0  0  0  0  0  0
  146.3154  128.9675  152.6328 C   0  0  0  0  0  0  0  0  0  0  0  0
  146.9865  129.6630  153.8358 C   0  0  0  0  0  0  0  0  0  0  0  0
  146.7422  131.1802  153.8478 C   0  0  0  0  0  0  0  0  0  0  0  0
  147.0775  131.8177  152.4802 C   0  0  2  0  0  0  0  0  0  0  0  0
  150.2964  137.0916  155.9435 S   0  0  0  0  0  0  0  0  0  0  0  0
  150.7268  137.5418  159.5844 H   0  0  0  0  0  0  0  0  0  0  0  0
  151.3068  138.5417  158.2433 H   0  0  0  0  0  0  0  0  0  0  0  0
  152.2155  137.0997  158.7284 H   0  0  0  0  0  0  0  0  0  0  0  0
  149.0374  135.8484  153.7793 H   0  0  0  0  0  0  0  0  0  0  0  0
  147.9593  134.8819  152.2863 H   0  0  0  0  0  0  0  0  0  0  0  0
  145.6012  133.3743  152.7916 H   0  0  0  0  0  0  0  0  0  0  0  0
  145.7795  134.2650  150.5603 H   0  0  0  0  0  0  0  0  0  0  0  0
  147.4005  133.5913  150.3592 H   0  0  0  0  0  0  0  0  0  0  0  0
  144.7777  132.0845  150.5524 H   0  0  0  0  0  0  0  0  0  0  0  0
  146.0658  131.8354  149.3757 H   0  0  0  0  0  0  0  0  0  0  0  0
  144.6836  130.3277  152.1781 H   0  0  0  0  0  0  0  0  0  0  0  0
  145.2663  129.4339  150.7905 H   0  0  0  0  0  0  0  0  0  0  0  0
  145.6119  128.2122  152.9850 H   0  0  0  0  0  0  0  0  0  0  0  0
  147.0753  128.4275  152.0666 H   0  0  0  0  0  0  0  0  0  0  0  0
  146.6326  129.2244  154.7696 H   0  0  0  0  0  0  0  0  0  0  0  0
  148.0605  129.4753  153.8031 H   0  0  0  0  0  0  0  0  0  0  0  0
  145.7001  131.3736  154.1059 H   0  0  0  0  0  0  0  0  0  0  0  0
  147.3376  131.6438  154.6348 H   0  0  0  0  0  0  0  0  0  0  0  0
  148.1572  131.7808  152.3254 H   0  0  0  0  0  0  0  0  0  0  0  0
  147.2538  130.6795  150.8348 H   0  0  0  0  0  0  0  0  0  0  0  0
  1  2  1  0  0  0  0
  1 20  1  0  0  0  0
  1 21  1  0  0  0  0
  1 22  1  0  0  0  0
  2 19  1  0  0  0  0
  2  3  2  0  0  0  0
  3  4  1  0  0  0  0
  4  5  2  0  0  0  0
  5  6  1  0  0  0  0
  5 19  1  0  0  0  0
  6  7  1  0  0  0  0
  6 23  1  0  0  0  0
  7  8  2  0  0  0  0
  7  9  1  0  0  0  0
  9 10  1  0  0  0  0
  9 24  1  0  0  0  0
 10 18  1  0  0  0  0
 10 11  1  0  0  0  0
 10 25  1  0  0  0  0
 11 12  1  0  0  0  0
 11 26  1  0  0  0  0
 11 27  1  0  0  0  0
 12 13  1  0  0  0  0
 12 28  1  0  0  0  0
 12 29  1  0  0  0  0
 13 18  1  0  0  0  0
 13 14  1  0  0  0  0
 13 39  1  0  0  0  0
 14 15  1  0  0  0  0
 14 30  1  0  0  0  0
 14 31  1  0  0  0  0
 15 16  1  0  0  0  0
 15 32  1  0  0  0  0
 15 33  1  0  0  0  0
 16 17  1  0  0  0  0
 16 34  1  0  0  0  0
 16 35  1  0  0  0  0
 17 18  1  0  0  0  0
 17 36  1  0  0  0  0
 17 37  1  0  0  0  0
 18 38  1  0  0  0  0
M  CHG  1  13   1
M  END
> <s_m_source_file>
AV-unprocessed.smi

> <i_m_source_file_index>
1897

> <i_lp_mmshare_version>
43012

> <i_f3d_flags>
0

> <s_epik_input>
W0NIM11jMW5uYyhzMSlbTkhdQyg9TylbTkhdW0NASF0oW0NIMl1bQ0gyXTIpW0NAQEhdKE4yMylbQ0gyXVtDSDJdW0NIMl1bQ0gyXTM=

> <s_epik_cmdline>
J2VwaWtfcHl0aG9uJywgJy1waCcsICc3LjAnLCAnLXRuJywgJzgnLCAnLW1hJywgJzIwMCcsICctbWV0YWxfYmluZGluZycsICctaW1hZScsICc8aW5maWxlLm1hZT4nLCAnLW9tYWUnLCAnPG91dGZpbGUubWFlPic=

> <r_lp_tautomer_probability>
1

> <r_epik_Ionization_Penalty>
0.00228891

> <r_epik_Ionization_Penalty_Charging>
0.00107044

> <r_epik_Ionization_Penalty_Neutral>
0.00121847

> <r_epik_State_Penalty>
-0

> <r_epik_Charging_Adjusted_Penalty>
0.00107044

> <i_epik_Tot_Q>
1

> <i_epik_Tot_abs_Q>
1

> <r_epik_Metal_State_Penalty>
0.304057

> <b_epik_Metal_Only>
0

> <s_lp_Force_Field>
OPLS_2005

> <r_lp_Energy>
41.04

> <b_lp_Chiralities_Consistent>
1

> <s_lp_Variant>
AV-unprocessed.smi:1897-8

> <Gold.Version>
5.8.1

> <Gold.Id.Protein>
6NUR|6NUR_protein|mol2

> <Gold.PLP.Fitness>
37.5252

> <Gold.PLP.PLP>
-25.7009

> <Gold.PLP.part.hbond>
-4.0000

> <Gold.PLP.part.metal>
0.0000

> <Gold.PLP.part.buried>
-2.8394

> <Gold.PLP.part.nonpolar>
-18.4977

> <Gold.PLP.part.repulsive>
0.0550

> <Gold.PLP.ligand.clash>
0.0000

> <Gold.PLP.ligand.torsion>
0.0199

> <Gold.PLP.Chemscore.Hbond>
3.9520

> <Gold.PLP.Chemscore.CHOScore>
0.0000

> <Gold.PLP.Chemscore.Metal>
0.0000

> <Gold.Chemscore.Hbonds>
donor molecule, donor type, donor heavy atom, donor atom, acceptor molecule, acceptor atom, score
      L1  H     6    23       P1  7948  0.98
      L1  H     9    24       P1  7948  1.00
      L1  H    13    39       P1 10747  0.98
      P1  H  6896  6909       L1     3  0.99

> <Gold.PLP.Chemscore.Internal.Correction>
0.0080

> <Gold.Rescore>
     Score         DG    S(hbond)    S(metal)    S(lipo)     H(rot)  DE(clash)    DE(int)     intcor
     19.48     -22.17       3.62        0.00      61.35       1.00       0.00       2.69       ----

> <Gold.Chemscore.Fitness>
19.4798

> <Gold.Chemscore.DG>
-22.1736

> <Gold.Chemscore.ZeroCoef>
-5.4800

> <Gold.Chemscore.Hbond>
3.6155

> <Gold.Chemscore.Metal>
0.0000

> <Gold.Chemscore.Lipo>
61.3491

> <Gold.Chemscore.Internal_Hbond>
0.0000

> <Gold.Chemscore.DEClash>
0.0000

> <Gold.Chemscore.DEInternal>
2.6938

> <Gold.Chemscore.Rot>
1.0000

> <Gold.Chemscore.Internal.Correction>
   9.000000E+99

> <Gold.Chemscore.Hbonds>
donor molecule, donor type, donor heavy atom, donor atom, acceptor molecule, acceptor atom, score
      L1  H     6    23       P1  7948  0.83
      L1  H     9    24       P1  7948  0.69
      L1  H    13    39       P1 10747  0.93
      P1  H  6896  6909       L1     3  0.74

> <Gold.Chemscore.Hbond.Weighted>
-12.0758

> <Gold.Chemscore.Metal.Weighted>
-0.0000

> <Gold.Chemscore.Lipo.Weighted>
-7.1778

> <Gold.Chemscore.Internal_Hbond.Weighted>
0.0000

> <Gold.Chemscore.DEClash.Weighted>
0.0000

> <Gold.Chemscore.DEInternal.Weighted>
2.6938

> <Gold.Chemscore.Rot.Weighted>
2.5600

> <Gold.Chemscore.Internal.Correction.Weighted>
   9.000000E+99

> <Gold.Protein.RotatedTorsions>
[ 6907 6896 6895 6894 ] final   49.21 input  -60.11 | X-H torsion
[ 7974 7965 7964 7962 ] final  147.72 input  175.53 | X-H torsion
[ 8008 7997 7996 7995 ] final  -88.04 input   59.86 | X-H torsion
[ 10167 10162 10161 10158 ] final  170.61 input  -65.29 | X-H torsion
[ 10718 10713 10712 10709 ] final -138.86 input   66.30 | X-H torsion
[ 10763 10752 10751 10750 ] final  -52.98 input  -60.55 | X-H torsion
[ 11005 11000 10999 10996 ] final -150.90 input  -57.11 | X-H torsion

> <Gold.Protein.ActiveResidues>
 VAL166  LYS551  ARG553  GLY616  TRP617  ASP618  TYR619  PRO620  LYS621  CYS622 
 ASP623  PHE694  ASN695  SER759  ASP760  ASP761  ALA762  ILE779  LEU786  VAL792 
 PHE793  MET794  SER795  GLU796  ALA797  LYS798  CYS799  TRP800  GLU811  SER814 

> <Gold.Protein.RotatedAtoms>
  152.2882  134.7751  160.0382 H   0  0  0  0  0  0  0  0  0  0  0  0  # atno 6907 bound_to 6896
  151.8306  133.3403  159.3620 H   0  0  0  0  0  0  0  0  0  0  0  0  # atno 6908 bound_to 6896
  150.7219  134.5415  159.5794 H   0  0  0  0  0  0  0  0  0  0  0  0  # atno 6909 bound_to 6896
  144.8569  139.6064  143.5948 H   0  0  0  0  0  0  0  0  0  0  0  0  # atno 7974 bound_to 7965
  154.6701  140.0558  157.0157 H   0  0  0  0  0  0  0  0  0  0  0  0  # atno 8008 bound_to 7997
  155.1101  140.3237  155.4505 H   0  0  0  0  0  0  0  0  0  0  0  0  # atno 8009 bound_to 7997
  156.2654  140.2016  156.6225 H   0  0  0  0  0  0  0  0  0  0  0  0  # atno 8010 bound_to 7997
  139.5023  144.3578  151.9857 H   0  0  0  0  0  0  0  0  0  0  0  0  # atno 10167 bound_to 10162
  156.3041  130.7445  151.1504 H   0  0  0  0  0  0  0  0  0  0  0  0  # atno 10718 bound_to 10713
  154.1515  135.6489  153.4964 H   0  0  0  0  0  0  0  0  0  0  0  0  # atno 10763 bound_to 10752
  153.0136  135.5339  154.6803 H   0  0  0  0  0  0  0  0  0  0  0  0  # atno 10764 bound_to 10752
  154.6092  135.2952  155.0422 H   0  0  0  0  0  0  0  0  0  0  0  0  # atno 10765 bound_to 10752
  140.7352  134.3576  157.5159 H   0  0  0  0  0  0  0  0  0  0  0  0  # atno 11005 bound_to 11000
  146.2830  139.6928  142.9215 LP  0  0  0  0  0  0  0  0  0  0  0  0  # atno 17320 bound_to 7965
  145.4388  141.0421  143.2869 LP  0  0  0  0  0  0  0  0  0  0  0  0  # atno 17321 bound_to 7965
  140.3014  144.3642  150.6059 LP  0  0  0  0  0  0  0  0  0  0  0  0  # atno 17342 bound_to 10162
  140.5870  143.2169  151.7323 LP  0  0  0  0  0  0  0  0  0  0  0  0  # atno 17343 bound_to 10162
  157.7375  131.0551  150.5350 LP  0  0  0  0  0  0  0  0  0  0  0  0  # atno 17370 bound_to 10713
  156.5481  130.4225  149.6121 LP  0  0  0  0  0  0  0  0  0  0  0  0  # atno 17371 bound_to 10713
  139.8817  134.9045  156.2878 LP  0  0  0  0  0  0  0  0  0  0  0  0  # atno 17394 bound_to 11000
  140.9885  133.7223  156.0778 LP  0  0  0  0  0  0  0  0  0  0  0  0  # atno 17395 bound_to 11000

$$$$
