#       Name:                AV-unprocessed.smi:3208
#       Creating user name   scv26
#       Creation time:       Fri Mar 27 18:10:15 2020


#       File generated by GOLD software.
#

@<TRIPOS>MOLECULE
AV-unprocessed.smi:3208
    34    34     1
SMALL
NO_CHARGES


@<TRIPOS>ATOM
      1 ****        -4.5585  -0.0989  -0.3709 C.2            1 S1                 0.0000
      2 ****        -3.6996  -0.4577  -1.3369 C.2            1 S1                 0.0000
      3 ****        -2.2001  -0.2719  -1.2634 C.3            1 S1                 0.0000
      4 ****        -1.5425  -1.5276  -1.3856 O.3            1 S1                 0.0000
      5 ****        -0.1206  -1.4692  -1.4754 C.3            1 S1                 0.0000
      6 ****         0.3744  -2.8571  -1.9093 C.3            1 S1                 0.0000
      7 ****         0.4881  -1.0530  -0.1264 C.2            1 S1                 0.0000
      8 ****         0.4380  -1.8265   0.8311 O.2            1 S1                 0.0000
      9 ****         1.0350   0.1760  -0.0920 N.am           1 S1                 0.0000
     10 ****         1.6692   0.8404   0.9936 C.ar           1 S1                 0.0000
     11 ****         1.8363   0.2678   2.2124 N.ar           1 S1                 0.0000
     12 ****         2.4503   0.9639   3.1912 C.ar           1 S1                 0.0000
     13 ****         2.9373   2.2714   3.0183 C.ar           1 S1                 0.0000
     14 ****         2.7719   2.8779   1.7611 C.ar           1 S1                 0.0000
     15 ****         2.1304   2.1581   0.7332 C.ar           1 S1                 0.0000
     16 ****         1.9687   2.7499  -0.4904 O.co2          1 S1                -1.0000
     17 ****        -4.2137   0.3582   0.5452 H              1 S1                 0.0000
     18 ****        -5.6204  -0.2591  -0.4851 H              1 S1                 0.0000
     19 ****        -4.0799  -0.9127  -2.2399 H              1 S1                 0.0000
     20 ****        -1.8975   0.3914  -2.0747 H              1 S1                 0.0000
     21 ****        -1.9408   0.2176  -0.3238 H              1 S1                 0.0000
     22 ****         0.1635  -0.7509  -2.2472 H              1 S1                 0.0000
     23 ****         1.4622  -2.8845  -1.9823 H              1 S1                 0.0000
     24 ****        -0.0278  -3.1211  -2.8875 H              1 S1                 0.0000
     25 ****         0.0651  -3.6324  -1.2072 H              1 S1                 0.0000
     26 ****         0.9959   0.7113  -0.9475 H              1 S1                 0.0000
     27 ****         2.5570   0.4621   4.1414 H              1 S1                 0.0000
     28 ****         3.4241   2.7949   3.8274 H              1 S1                 0.0000
     29 ****         3.1330   3.8816   1.5896 H              1 S1                 0.0000
     30 ****        -1.8852  -1.9759  -2.2111 LP             1 S1                 0.0000
     31 ****        -1.7783  -2.0782  -0.5848 LP             1 S1                 0.0000
     32 ****         0.0027  -2.7210   0.7291 LP             1 S1                 0.0000
     33 ****         0.8327  -1.5599   1.7104 LP             1 S1                 0.0000
     34 ****         1.5076  -0.6610   2.3833 LP             1 S1                 0.0000
@<TRIPOS>BOND
    1    1    2 2     
    2    1   17 1     
    3    1   18 1     
    4    2    3 1     
    5    2   19 1     
    6    3    4 1     
    7    3   20 1     
    8    3   21 1     
    9    4    5 1     
   10    5    6 1     
   11    5    7 1     
   12    5   22 1     
   13    6   23 1     
   14    6   24 1     
   15    6   25 1     
   16    7    8 2     
   17    7    9 am    
   18    9   26 1     
   19    9   10 1     
   20   10   15 ar    
   21   10   11 ar    
   22   11   12 ar    
   23   12   27 1     
   24   12   13 ar    
   25   13   28 1     
   26   13   14 ar    
   27   14   15 ar    
   28   14   29 1     
   29   15   16 ar    
   30    4   30 1     
   31    4   31 1     
   32    8   32 1     
   33    8   33 1     
   34   11   34 1     
@<TRIPOS>SUBSTRUCTURE
      1 S1             1
@<TRIPOS>SET
LONE_PAIRS      STATIC     ATOMS    <user>   **** ""
6 30 31 32 33 34 16
DONOR_HYDROGENS      STATIC     ATOMS    <user>   **** ""
1 26
ATOM$BLUE        STATIC     ATOMS    COLORGROUP SYSTEM
6 30 31 32 33 34 16
ATOM$RED        STATIC     ATOMS    COLORGROUP SYSTEM
1 26
