#       Name:                AV-unprocessed.smi:1631
#       Creating user name   scv26
#       Creation time:       Fri Mar 27 07:20:35 2020


#       File generated by GOLD software.
#

@<TRIPOS>MOLECULE
AV-unprocessed.smi:1631
    44    45     1
SMALL
NO_CHARGES


@<TRIPOS>ATOM
      1 ****        -2.0935   1.8960  -1.6941 C.3            1 S1                 0.0000
      2 ****        -1.5285   0.5105  -1.5343 C.2            1 S1                 0.0000
      3 ****        -0.2412   0.4031  -1.5600 N.2            1 S1                 0.0000
      4 ****         0.3828  -0.8195  -1.4057 N.am           1 S1                 0.0000
      5 ****         1.8506  -0.7513  -1.3998 C.3            1 S1                 0.0000
      6 ****         2.4423  -0.7217   0.0310 C.3            1 S1                 0.0000
      7 ****         3.8498  -0.6795  -0.0809 O.3            1 S1                 0.0000
      8 ****         1.9105   0.4354   0.8814 C.ar           1 S1                 0.0000
      9 ****         2.1509   1.7527   0.4260 C.ar           1 S1                 0.0000
     10 ****         1.6681   2.8652   1.1361 C.ar           1 S1                 0.0000
     11 ****         0.9404   2.6725   2.3209 C.ar           1 S1                 0.0000
     12 ****         0.7063   1.3697   2.7954 C.ar           1 S1                 0.0000
     13 ****         1.1879   0.2385   2.0940 C.ar           1 S1                 0.0000
     14 ****         0.9254  -1.1538   2.6701 C.3            1 S1                 0.0000
     15 ****         0.2744  -1.0954   3.8325 F              1 S1                 0.0000
     16 ****         0.1811  -1.8708   1.8305 F              1 S1                 0.0000
     17 ****         2.0794  -1.7847   2.8891 F              1 S1                 0.0000
     18 ****        -0.2669  -2.0089  -1.2593 C.2            1 S1                 0.0000
     19 ****         0.3301  -3.0807  -1.1473 O.2            1 S1                 0.0000
     20 ****        -1.7256  -1.8809  -1.2316 C.2            1 S1                 0.0000
     21 ****        -2.4452  -3.1013  -1.0585 C.1            1 S1                 0.0000
     22 ****        -3.0471  -4.0802  -0.9180 N.1            1 S1                 0.0000
     23 ****        -2.3493  -0.6825  -1.3548 C.2            1 S1                 0.0000
     24 ****        -3.8599  -0.4955  -1.3277 C.3            1 S1                 0.0000
     25 ****        -2.7902   1.9374  -2.5315 H              1 S1                 0.0000
     26 ****        -1.3121   2.6346  -1.8801 H              1 S1                 0.0000
     27 ****        -2.6265   2.2014  -0.7935 H              1 S1                 0.0000
     28 ****         2.2646  -1.5950  -1.9555 H              1 S1                 0.0000
     29 ****         2.1739   0.1311  -1.9552 H              1 S1                 0.0000
     30 ****         2.2149  -1.6769   0.4960 H              1 S1                 0.0000
     31 ****         4.2222  -0.7975   0.7797 H              1 S1                 0.0000
     32 ****         2.7057   1.9165  -0.4861 H              1 S1                 0.0000
     33 ****         1.8553   3.8642   0.7707 H              1 S1                 0.0000
     34 ****         0.5666   3.5238   2.8705 H              1 S1                 0.0000
     35 ****         0.1509   1.2537   3.7137 H              1 S1                 0.0000
     36 ****        -4.3866  -1.4237  -1.1083 H              1 S1                 0.0000
     37 ****        -4.2157  -0.1340  -2.2929 H              1 S1                 0.0000
     38 ****        -4.1457   0.2273  -0.5630 H              1 S1                 0.0000
     39 ****         0.3155   1.2229  -1.6945 LP             1 S1                 0.0000
     40 ****         4.1324   0.2048  -0.4525 LP             1 S1                 0.0000
     41 ****         4.1622  -1.4110  -0.6870 LP             1 S1                 0.0000
     42 ****         1.3298  -3.1001  -1.1619 LP             1 S1                 0.0000
     43 ****        -0.1850  -3.9313  -1.0417 LP             1 S1                 0.0000
     44 ****        -3.5670  -4.9258  -0.7966 LP             1 S1                 0.0000
@<TRIPOS>BOND
    1    1    2 1     
    2    1   25 1     
    3    1   26 1     
    4    1   27 1     
    5    2   23 1     
    6    2    3 2     
    7    3    4 1     
    8    4    5 1     
    9    4   18 am    
   10    5    6 1     
   11    5   28 1     
   12    5   29 1     
   13    6    7 1     
   14    6    8 1     
   15    6   30 1     
   16    7   31 1     
   17    8   13 ar    
   18    8    9 ar    
   19    9   10 ar    
   20    9   32 1     
   21   10   11 ar    
   22   10   33 1     
   23   11   12 ar    
   24   11   34 1     
   25   12   13 ar    
   26   12   35 1     
   27   13   14 1     
   28   14   15 1     
   29   14   16 1     
   30   14   17 1     
   31   18   19 2     
   32   18   20 1     
   33   20   21 1     
   34   20   23 2     
   35   21   22 3     
   36   23   24 1     
   37   24   36 1     
   38   24   37 1     
   39   24   38 1     
   40    3   39 1     
   41    7   40 1     
   42    7   41 1     
   43   19   42 1     
   44   19   43 1     
   45   22   44 1     
@<TRIPOS>SUBSTRUCTURE
      1 S1             1
@<TRIPOS>SET
LONE_PAIRS      STATIC     ATOMS    <user>   **** ""
6 39 40 41 42 43 44
DONOR_HYDROGENS      STATIC     ATOMS    <user>   **** ""
1 31
ATOM$BLUE        STATIC     ATOMS    COLORGROUP SYSTEM
6 39 40 41 42 43 44
ATOM$RED        STATIC     ATOMS    COLORGROUP SYSTEM
1 31
