#       Name:                AV-unprocessed.smi:158
#       Creating user name   scv26
#       Creation time:       Thu Mar 26 19:02:21 2020


#       File generated by GOLD software.
#

@<TRIPOS>MOLECULE
AV-unprocessed.smi:158
    40    42     1
SMALL
NO_CHARGES


@<TRIPOS>ATOM
      1 ****        -4.8918   0.2833   0.0680 N.pl3          1 S1                 0.0000
      2 ****        -3.5768   0.4482   0.2703 C.ar           1 S1                 0.0000
      3 ****        -3.1257   1.6816   0.5952 N.ar           1 S1                 0.0000
      4 ****        -1.8210   1.8869   0.8093 C.ar           1 S1                 0.0000
      5 ****        -1.3506   3.4953   1.2155 Cl             1 S1                 0.0000
      6 ****        -0.8380   0.9844   0.7430 N.ar           1 S1                 0.0000
      7 ****        -1.2827  -0.2619   0.4083 C.ar           1 S1                 0.0000
      8 ****        -2.6392  -0.6079   0.1605 C.ar           1 S1                 0.0000
      9 ****        -2.7382  -1.9579  -0.1421 N.2            1 S1                 0.0000
     10 ****        -1.5054  -2.3823  -0.0776 C.2            1 S1                 0.0000
     11 ****        -0.5598  -1.4300   0.2384 N.pl3          1 S1                 0.0000
     12 ****         0.9209  -1.6538   0.3754 C.3            1 S1                 0.0000
     13 ****         1.4843  -0.5911   1.0895 O.3            1 S1                 0.0000
     14 ****         2.4675   0.0808   0.2991 C.3            1 S1                 0.0000
     15 ****         2.5629   1.5761   0.6528 C.3            1 S1                 0.0000
     16 ****         3.6807   2.1578   0.0156 O.3            1 S1                 0.0000
     17 ****         2.1395  -0.2739  -1.1592 C.3            1 S1                 0.0000
     18 ****         1.1653   0.5926  -1.7117 O.3            1 S1                 0.0000
     19 ****         1.6170  -1.6890  -0.9943 C.3            1 S1                 0.0000
     20 ****         0.8214  -2.1037  -1.9834 F              1 S1                 0.0000
     21 ****         0.9980  -2.5912   0.9273 H              1 S1                 0.0000
     22 ****         3.4171  -0.3940   0.5530 H              1 S1                 0.0000
     23 ****         3.0262  -0.2402  -1.7932 H              1 S1                 0.0000
     24 ****         2.4515  -2.3884  -0.9306 H              1 S1                 0.0000
     25 ****        -5.2520  -0.6285  -0.1750 H              1 S1                 0.0000
     26 ****        -5.5188   1.0698   0.1567 H              1 S1                 0.0000
     27 ****        -1.2456  -3.4136  -0.2678 H              1 S1                 0.0000
     28 ****         1.6600   2.1203   0.3774 H              1 S1                 0.0000
     29 ****         2.6860   1.6937   1.7296 H              1 S1                 0.0000
     30 ****         3.7327   3.0661   0.2720 H              1 S1                 0.0000
     31 ****         1.5159   1.4701  -1.7211 H              1 S1                 0.0000
     32 ****        -3.7697   2.4425   0.6756 LP             1 S1                 0.0000
     33 ****         0.1224   1.1994   0.9199 LP             1 S1                 0.0000
     34 ****        -3.5612  -2.4830  -0.3589 LP             1 S1                 0.0000
     35 ****         1.9155  -0.9448   1.9195 LP             1 S1                 0.0000
     36 ****         0.7639   0.0564   1.3381 LP             1 S1                 0.0000
     37 ****         3.5750   2.0929  -0.9767 LP             1 S1                 0.0000
     38 ****         4.5140   1.6804   0.2940 LP             1 S1                 0.0000
     39 ****         0.3355   0.5667  -1.1542 LP             1 S1                 0.0000
     40 ****         0.9488   0.3057  -2.6449 LP             1 S1                 0.0000
@<TRIPOS>BOND
    1    1    2 1     
    2    1   25 1     
    3    1   26 1     
    4    2    8 ar    
    5    2    3 ar    
    6    3    4 ar    
    7    4    5 1     
    8    4    6 ar    
    9    6    7 ar    
   10    7   11 1     
   11    7    8 ar    
   12    8    9 1     
   13    9   10 2     
   14   10   11 1     
   15   10   27 1     
   16   11   12 1     
   17   12   21 1     
   18   12   19 1     
   19   12   13 1     
   20   13   14 1     
   21   14   22 1     
   22   14   15 1     
   23   14   17 1     
   24   15   16 1     
   25   15   28 1     
   26   15   29 1     
   27   16   30 1     
   28   17   23 1     
   29   17   18 1     
   30   17   19 1     
   31   18   31 1     
   32   19   24 1     
   33   19   20 1     
   34    3   32 1     
   35    6   33 1     
   36    9   34 1     
   37   13   35 1     
   38   13   36 1     
   39   16   37 1     
   40   16   38 1     
   41   18   39 1     
   42   18   40 1     
@<TRIPOS>SUBSTRUCTURE
      1 S1             1
@<TRIPOS>SET
LONE_PAIRS      STATIC     ATOMS    <user>   **** ""
9 32 33 34 35 36 37 38 39 40
DONOR_HYDROGENS      STATIC     ATOMS    <user>   **** ""
4 25 26 30 31
ATOM$BLUE        STATIC     ATOMS    COLORGROUP SYSTEM
9 32 33 34 35 36 37 38 39 40
ATOM$RED        STATIC     ATOMS    COLORGROUP SYSTEM
4 25 26 30 31
