#       Name:                AV-unprocessed.smi:2944
#       Creating user name   scv26
#       Creation time:       Fri Mar 27 16:16:48 2020


#       File generated by GOLD software.
#

@<TRIPOS>MOLECULE
AV-unprocessed.smi:2944
    51    53     1
SMALL
NO_CHARGES


@<TRIPOS>ATOM
      1 ****        -1.9787   1.7506   1.3792 C.3            1 S1                 0.0000
      2 ****        -1.3094   0.5920   1.8439 O.3            1 S1                 0.0000
      3 ****        -1.7486  -0.5871   1.1897 C.3            1 S1                 0.0000
      4 ****        -0.9253  -1.7946   1.6605 C.3            1 S1                 0.0000
      5 ****         0.5190  -1.5961   1.4673 N.pl3          1 S1                 0.0000
      6 ****         1.3050  -1.8384   0.3817 C.2            1 S1                 0.0000
      7 ****         0.7866  -2.4853  -1.1725 S.3            1 S1                 0.0000
      8 ****         0.7201  -1.0337  -2.2654 C.3            1 S1                 0.0000
      9 ****         1.4882  -1.3150  -3.5649 C.3            1 S1                 0.0000
     10 ****        -0.7364  -0.6211  -2.5704 C.2            1 S1                 0.0000
     11 ****        -1.5491  -1.5282  -2.7622 O.2            1 S1                 0.0000
     12 ****        -1.1383   0.6794  -2.5827 N.am           1 S1                 0.0000
     13 ****        -2.5610   1.0167  -2.6567 C.3            1 S1                 0.0000
     14 ****        -2.5955   2.5384  -2.5950 C.3            1 S1                 0.0000
     15 ****        -1.1925   2.8658  -2.5529 N.am           1 S1                 0.0000
     16 ****        -0.3828   1.8044  -2.5746 C.2            1 S1                 0.0000
     17 ****         0.8435   1.8999  -2.5956 O.2            1 S1                 0.0000
     18 ****         2.5774  -1.4751   0.6988 N.pl3          1 S1                 1.0000
     19 ****         2.6105  -0.9936   2.0082 C.ar           1 S1                 0.0000
     20 ****         3.6680  -0.5118   2.7736 C.ar           1 S1                 0.0000
     21 ****         3.3604  -0.0895   4.0835 C.ar           1 S1                 0.0000
     22 ****         2.0440  -0.1519   4.5849 C.ar           1 S1                 0.0000
     23 ****         0.9798  -0.6424   3.7999 C.ar           1 S1                 0.0000
     24 ****         1.2920  -1.0635   2.5071 C.ar           1 S1                 0.0000
     25 ****        -1.6195   2.6243   1.9229 H              1 S1                 0.0000
     26 ****        -3.0555   1.6750   1.5349 H              1 S1                 0.0000
     27 ****        -1.7882   1.9148   0.3183 H              1 S1                 0.0000
     28 ****        -2.8069  -0.7559   1.3930 H              1 S1                 0.0000
     29 ****        -1.6428  -0.4711   0.1124 H              1 S1                 0.0000
     30 ****        -1.1205  -2.0153   2.7098 H              1 S1                 0.0000
     31 ****        -1.2164  -2.6849   1.1022 H              1 S1                 0.0000
     32 ****         1.2402  -0.2610  -1.7060 H              1 S1                 0.0000
     33 ****         1.4970  -0.4411  -4.2175 H              1 S1                 0.0000
     34 ****         1.0441  -2.1417  -4.1208 H              1 S1                 0.0000
     35 ****         2.5258  -1.5760  -3.3554 H              1 S1                 0.0000
     36 ****        -2.9967   0.6536  -3.5894 H              1 S1                 0.0000
     37 ****        -3.1130   0.5775  -1.8238 H              1 S1                 0.0000
     38 ****        -3.0706   2.9762  -3.4736 H              1 S1                 0.0000
     39 ****        -3.0996   2.9012  -1.6987 H              1 S1                 0.0000
     40 ****        -0.8633   3.8206  -2.5501 H              1 S1                 0.0000
     41 ****         4.6769  -0.4598   2.3909 H              1 S1                 0.0000
     42 ****         4.1492   0.2920   4.7157 H              1 S1                 0.0000
     43 ****         1.8459   0.1840   5.5925 H              1 S1                 0.0000
     44 ****        -0.0251  -0.6794   4.1935 H              1 S1                 0.0000
     45 ****         3.3619  -1.5515   0.0643 H              1 S1                 0.0000
     46 ****        -1.4775   0.4961   2.8250 LP             1 S1                 0.0000
     47 ****        -0.3286   0.7018   1.6830 LP             1 S1                 0.0000
     48 ****        -1.2533  -2.4824  -2.7168 LP             1 S1                 0.0000
     49 ****        -2.5040  -1.3098  -2.9632 LP             1 S1                 0.0000
     50 ****         1.4088   1.0754  -2.6224 LP             1 S1                 0.0000
     51 ****         1.2750   2.8019  -2.5859 LP             1 S1                 0.0000
@<TRIPOS>BOND
    1    1    2 1     
    2    1   25 1     
    3    1   26 1     
    4    1   27 1     
    5    2    3 1     
    6    3    4 1     
    7    3   28 1     
    8    3   29 1     
    9    4    5 1     
   10    4   30 1     
   11    4   31 1     
   12    5   24 1     
   13    5    6 1     
   14    6    7 1     
   15    6   18 2     
   16    7    8 1     
   17    8    9 1     
   18    8   10 1     
   19    8   32 1     
   20    9   33 1     
   21    9   34 1     
   22    9   35 1     
   23   10   11 2     
   24   10   12 am    
   25   12   16 am    
   26   12   13 1     
   27   13   14 1     
   28   13   36 1     
   29   13   37 1     
   30   14   15 1     
   31   14   38 1     
   32   14   39 1     
   33   15   16 am    
   34   15   40 1     
   35   16   17 2     
   36   18   19 1     
   37   18   45 1     
   38   19   24 ar    
   39   19   20 ar    
   40   20   21 ar    
   41   20   41 1     
   42   21   22 ar    
   43   21   42 1     
   44   22   23 ar    
   45   22   43 1     
   46   23   24 ar    
   47   23   44 1     
   48    2   46 1     
   49    2   47 1     
   50   11   48 1     
   51   11   49 1     
   52   17   50 1     
   53   17   51 1     
@<TRIPOS>SUBSTRUCTURE
      1 S1             1
@<TRIPOS>SET
LONE_PAIRS      STATIC     ATOMS    <user>   **** ""
6 46 47 48 49 50 51
DONOR_HYDROGENS      STATIC     ATOMS    <user>   **** ""
2 40 45
ATOM$BLUE        STATIC     ATOMS    COLORGROUP SYSTEM
6 46 47 48 49 50 51
ATOM$RED        STATIC     ATOMS    COLORGROUP SYSTEM
2 40 45
