AV-unprocessed.smi:2066|AV-procd|sdf|8422|dock3
  -GOLD-   2272011113D 1   1.00000     0.00000
 Structure written by MMmdl.
 39 40  0  0  0  0  0  0  0  0  3 V2000
  149.5633  133.7892  154.8522 C   0  0  0  0  0  0  0  0  0  0  0  0
  148.0959  134.2492  155.0421 C   0  0  0  0  0  0  0  0  0  0  0  0
  147.3881  133.1082  155.8157 C   0  0  0  0  0  0  0  0  0  0  0  0
  148.0336  135.5647  155.8762 C   0  0  0  0  0  0  0  0  0  0  0  0
  148.6049  135.4306  157.2158 N   0  0  0  0  0  0  0  0  0  0  0  0
  148.3855  136.2416  158.2607 C   0  0  0  0  0  0  0  0  0  0  0  0
  147.6290  137.2082  158.1437 O   0  0  0  0  0  0  0  0  0  0  0  0
  149.0675  135.8878  159.3727 N   0  5  0  0  0  0  0  0  0  0  0  0
  148.4259  135.7861  160.5482 C   0  0  0  0  0  0  0  0  0  0  0  0
  148.2750  136.8148  161.3902 N   0  0  0  0  0  0  0  0  0  0  0  0
  147.5745  136.4831  162.5513 C   0  0  0  0  0  0  0  0  0  0  0  0
  147.1736  135.1738  162.5892 C   0  0  0  0  0  0  0  0  0  0  0  0
  147.6682  134.3129  161.1598 S   0  0  0  0  0  0  0  0  0  0  0  0
  147.4552  134.4283  153.6896 N   0  3  0  0  0  0  0  0  0  0  0  0
  147.4571  133.2303  152.8031 C   0  0  0  0  0  0  0  0  0  0  0  0
  146.9515  133.5975  151.3979 C   0  0  0  0  0  0  0  0  0  0  0  0
  145.6486  134.1566  151.4855 O   0  0  0  0  0  0  0  0  0  0  0  0
  145.6407  135.3501  152.2558 C   0  0  0  0  0  0  0  0  0  0  0  0
  146.0968  135.0422  153.6914 C   0  0  0  0  0  0  0  0  0  0  0  0
  150.0030  133.4430  155.7883 H   0  0  0  0  0  0  0  0  0  0  0  0
  150.2075  134.5921  154.4952 H   0  0  0  0  0  0  0  0  0  0  0  0
  149.6332  132.9616  154.1455 H   0  0  0  0  0  0  0  0  0  0  0  0
  147.9461  132.8186  156.7070 H   0  0  0  0  0  0  0  0  0  0  0  0
  147.2845  132.2141  155.1997 H   0  0  0  0  0  0  0  0  0  0  0  0
  146.3961  133.3959  156.1630 H   0  0  0  0  0  0  0  0  0  0  0  0
  148.5202  136.3884  155.3540 H   0  0  0  0  0  0  0  0  0  0  0  0
  146.9989  135.8747  156.0174 H   0  0  0  0  0  0  0  0  0  0  0  0
  149.2298  134.6521  157.3659 H   0  0  0  0  0  0  0  0  0  0  0  0
  147.4051  137.2433  163.2991 H   0  0  0  0  0  0  0  0  0  0  0  0
  146.6207  134.6660  163.3648 H   0  0  0  0  0  0  0  0  0  0  0  0
  148.4558  132.8129  152.6931 H   0  0  0  0  0  0  0  0  0  0  0  0
  146.8247  132.4481  153.2234 H   0  0  0  0  0  0  0  0  0  0  0  0
  147.6304  134.2993  150.9105 H   0  0  0  0  0  0  0  0  0  0  0  0
  146.9110  132.7075  150.7698 H   0  0  0  0  0  0  0  0  0  0  0  0
  146.2824  136.1027  151.7948 H   0  0  0  0  0  0  0  0  0  0  0  0
  144.6292  135.7562  152.2631 H   0  0  0  0  0  0  0  0  0  0  0  0
  145.3764  134.3691  154.1564 H   0  0  0  0  0  0  0  0  0  0  0  0
  146.0772  135.9727  154.2553 H   0  0  0  0  0  0  0  0  0  0  0  0
  148.0459  135.1003  153.2215 H   0  0  0  0  0  0  0  0  0  0  0  0
  1  2  1  0  0  0  0
  1 20  1  0  0  0  0
  1 21  1  0  0  0  0
  1 22  1  0  0  0  0
  2  3  1  0  0  0  0
  2  4  1  0  0  0  0
  2 14  1  0  0  0  0
  3 23  1  0  0  0  0
  3 24  1  0  0  0  0
  3 25  1  0  0  0  0
  4  5  1  0  0  0  0
  4 26  1  0  0  0  0
  4 27  1  0  0  0  0
  5  6  1  0  0  0  0
  5 28  1  0  0  0  0
  6  7  2  0  0  0  0
  6  8  1  0  0  0  0
  8  9  1  0  0  0  0
  9 13  1  0  0  0  0
  9 10  2  0  0  0  0
 10 11  1  0  0  0  0
 11 12  2  0  0  0  0
 11 29  1  0  0  0  0
 12 13  1  0  0  0  0
 12 30  1  0  0  0  0
 14 19  1  0  0  0  0
 14 15  1  0  0  0  0
 14 39  1  0  0  0  0
 15 16  1  0  0  0  0
 15 31  1  0  0  0  0
 15 32  1  0  0  0  0
 16 17  1  0  0  0  0
 16 33  1  0  0  0  0
 16 34  1  0  0  0  0
 17 18  1  0  0  0  0
 18 19  1  0  0  0  0
 18 35  1  0  0  0  0
 18 36  1  0  0  0  0
 19 37  1  0  0  0  0
 19 38  1  0  0  0  0
M  CHG  1   8  -1
M  CHG  1  14   1
M  END
> <s_m_source_file>
AV-unprocessed.smi

> <i_m_source_file_index>
2066

> <i_lp_mmshare_version>
43012

> <i_f3d_flags>
0

> <s_epik_input>
W0NIMl0xW0NIMl1PW0NIMl1bQ0gyXU4xQyhbQ0gzXSkoW0NIM10pW0NIMl1bTkhdQyg9TylbTkhdYzJuW2NIXVtjSF1zMg==

> <s_epik_cmdline>
J2VwaWtfcHl0aG9uJywgJy1waCcsICc3LjAnLCAnLXRuJywgJzgnLCAnLW1hJywgJzIwMCcsICctbWV0YWxfYmluZGluZycsICctaW1hZScsICc8aW5maWxlLm1hZT4nLCAnLW9tYWUnLCAnPG91dGZpbGUubWFlPic=

> <r_lp_tautomer_probability>
0.999

> <r_epik_Ionization_Penalty>
6.71078

> <r_epik_Ionization_Penalty_Charging>
5.8797

> <r_epik_Ionization_Penalty_Neutral>
0.831074

> <r_epik_State_Penalty>
6.07743

> <r_epik_Charging_Adjusted_Penalty>
11.9571

> <i_epik_Tot_Q>
0

> <i_epik_Tot_abs_Q>
2

> <r_epik_Metal_State_Penalty>
2.08929

> <b_epik_Metal_Only>
1

> <s_lp_Force_Field>
OPLS_2005

> <r_lp_Energy>
15.1529

> <b_lp_Chiralities_Consistent>
1

> <s_lp_Variant>
AV-unprocessed.smi:2066-4

> <Gold.Version>
5.8.1

> <Gold.Id.Protein>
6NUR|6NUR_protein|mol2

> <Gold.PLP.Fitness>
39.5928

> <Gold.PLP.PLP>
-27.2274

> <Gold.PLP.part.hbond>
-3.1495

> <Gold.PLP.part.metal>
0.0000

> <Gold.PLP.part.buried>
-4.9858

> <Gold.PLP.part.nonpolar>
-20.2017

> <Gold.PLP.part.repulsive>
0.1786

> <Gold.PLP.ligand.clash>
0.0000

> <Gold.PLP.ligand.torsion>
1.4037

> <Gold.PLP.Chemscore.Hbond>
5.0000

> <Gold.PLP.Chemscore.CHOScore>
0.0000

> <Gold.PLP.Chemscore.Metal>
0.0000

> <Gold.Chemscore.Hbonds>
donor molecule, donor type, donor heavy atom, donor atom, acceptor molecule, acceptor atom, score
      L1  H    14    39       P1  7948  2.00
      P1  H  6896  6908       L1     8  1.82
      P1  H  6931  6943       L1    10  1.00

> <Gold.PLP.Chemscore.Internal.Correction>
0.1729

> <Gold.Rescore>
     Score         DG    S(hbond)    S(metal)    S(lipo)     H(rot)  DE(clash)    DE(int)     intcor
     14.75     -16.36       2.55        0.00      55.10       1.59       0.23       1.38       ----

> <Gold.Chemscore.Fitness>
14.7532

> <Gold.Chemscore.DG>
-16.3642

> <Gold.Chemscore.ZeroCoef>
-5.4800

> <Gold.Chemscore.Hbond>
2.5494

> <Gold.Chemscore.Metal>
0.0000

> <Gold.Chemscore.Lipo>
55.0958

> <Gold.Chemscore.Internal_Hbond>
0.0000

> <Gold.Chemscore.DEClash>
0.2350

> <Gold.Chemscore.DEInternal>
1.3760

> <Gold.Chemscore.Rot>
1.5926

> <Gold.Chemscore.Internal.Correction>
   9.000000E+99

> <Gold.Chemscore.Hbonds>
donor molecule, donor type, donor heavy atom, donor atom, acceptor molecule, acceptor atom, score
      L1  H    14    39       P1  7948  0.97
      P1  H  6896  6908       L1     8  0.40
      P1  H  6931  6943       L1    10  0.26

> <Gold.Chemscore.Hbond.Weighted>
-8.5150

> <Gold.Chemscore.Metal.Weighted>
-0.0000

> <Gold.Chemscore.Lipo.Weighted>
-6.4462

> <Gold.Chemscore.Internal_Hbond.Weighted>
0.0000

> <Gold.Chemscore.DEClash.Weighted>
0.2350

> <Gold.Chemscore.DEInternal.Weighted>
1.3760

> <Gold.Chemscore.Rot.Weighted>
4.0770

> <Gold.Chemscore.Internal.Correction.Weighted>
   9.000000E+99

> <Gold.Protein.RotatedTorsions>
[ 6907 6896 6895 6894 ] final  171.60 input  -60.11 | X-H torsion
[ 7974 7965 7964 7962 ] final  -49.01 input  175.53 | X-H torsion
[ 8008 7997 7996 7995 ] final -161.94 input   59.86 | X-H torsion
[ 10167 10162 10161 10158 ] final   23.56 input  -65.29 | X-H torsion
[ 10718 10713 10712 10709 ] final -166.12 input   66.30 | X-H torsion
[ 10763 10752 10751 10750 ] final  -81.91 input  -60.55 | X-H torsion
[ 11005 11000 10999 10996 ] final   -9.92 input  -57.11 | X-H torsion

> <Gold.Protein.ActiveResidues>
 VAL166  LYS551  ARG553  GLY616  TRP617  ASP618  TYR619  PRO620  LYS621  CYS622 
 ASP623  PHE694  ASN695  SER759  ASP760  ASP761  ALA762  ILE779  LEU786  VAL792 
 PHE793  MET794  SER795  GLU796  ALA797  LYS798  CYS799  TRP800  GLU811  SER814 

> <Gold.Protein.RotatedAtoms>
  151.7977  133.3366  159.3517 H   0  0  0  0  0  0  0  0  0  0  0  0  # atno 6907 bound_to 6896
  150.7369  134.5783  159.5935 H   0  0  0  0  0  0  0  0  0  0  0  0  # atno 6908 bound_to 6896
  152.3165  134.7434  160.0375 H   0  0  0  0  0  0  0  0  0  0  0  0  # atno 6909 bound_to 6896
  145.9451  140.7626  142.9532 H   0  0  0  0  0  0  0  0  0  0  0  0  # atno 7974 bound_to 7965
  155.7996  140.0890  157.1964 H   0  0  0  0  0  0  0  0  0  0  0  0  # atno 8008 bound_to 7997
  154.3982  140.1475  156.3317 H   0  0  0  0  0  0  0  0  0  0  0  0  # atno 8009 bound_to 7997
  155.8476  140.3436  155.5675 H   0  0  0  0  0  0  0  0  0  0  0  0  # atno 8010 bound_to 7997
  140.5259  143.9924  150.6440 H   0  0  0  0  0  0  0  0  0  0  0  0  # atno 10167 bound_to 10162
  156.6633  130.9054  151.3032 H   0  0  0  0  0  0  0  0  0  0  0  0  # atno 10718 bound_to 10713
  154.5693  135.5610  153.7080 H   0  0  0  0  0  0  0  0  0  0  0  0  # atno 10763 bound_to 10752
  153.0043  135.6293  154.2136 H   0  0  0  0  0  0  0  0  0  0  0  0  # atno 10764 bound_to 10752
  154.2076  135.2875  155.2949 H   0  0  0  0  0  0  0  0  0  0  0  0  # atno 10765 bound_to 10752
  140.7392  133.8684  155.8954 H   0  0  0  0  0  0  0  0  0  0  0  0  # atno 11005 bound_to 11000
  144.6786  140.2343  143.7351 LP  0  0  0  0  0  0  0  0  0  0  0  0  # atno 17320 bound_to 7965
  145.8247  139.2059  143.1917 LP  0  0  0  0  0  0  0  0  0  0  0  0  # atno 17321 bound_to 7965
  140.3286  143.3092  152.0711 LP  0  0  0  0  0  0  0  0  0  0  0  0  # atno 17342 bound_to 10162
  139.4938  144.6525  151.6645 LP  0  0  0  0  0  0  0  0  0  0  0  0  # atno 17343 bound_to 10162
  157.7102  130.9432  150.1064 LP  0  0  0  0  0  0  0  0  0  0  0  0  # atno 17370 bound_to 10713
  156.1994  130.3659  149.8807 LP  0  0  0  0  0  0  0  0  0  0  0  0  # atno 17371 bound_to 10713
  140.9852  134.1353  157.4459 LP  0  0  0  0  0  0  0  0  0  0  0  0  # atno 17394 bound_to 11000
  139.8809  135.0023  156.6119 LP  0  0  0  0  0  0  0  0  0  0  0  0  # atno 17395 bound_to 11000

$$$$
