AV-unprocessed.smi:740|AV-procd|sdf|3550|dock2
  -GOLD-   22720 0543D 1   1.00000     0.00000
 Structure written by MMmdl.
 45 47  0  0  0  0  0  0  0  0  2 V2000
  154.0454  142.6951  163.7182 C   0  0  0  0  0  0  0  0  0  0  0  0
  153.4006  142.6014  162.3459 C   0  0  0  0  0  0  0  0  0  0  0  0
  152.4939  143.6128  161.9566 C   0  0  0  0  0  0  0  0  0  0  0  0
  151.9198  143.4993  160.6960 C   0  0  0  0  0  0  0  0  0  0  0  0
  151.0016  144.3165  160.0335 N   0  3  0  0  0  0  0  0  0  0  0  0
  150.7296  143.7924  158.8067 C   0  0  0  0  0  0  0  0  0  0  0  0
  151.4633  142.6542  158.6743 N   0  0  0  0  0  0  0  0  0  0  0  0
  151.5346  141.7156  157.5456 C   0  0  0  0  0  0  0  0  0  0  0  0
  150.2301  141.6709  156.7261 C   0  0  2  0  0  0  0  0  0  0  0  0
  149.1860  141.1950  157.5532 O   0  0  0  0  0  0  0  0  0  0  0  0
  150.3594  140.7384  155.5045 C   0  0  0  0  0  0  0  0  0  0  0  0
  149.1155  140.6708  154.7288 N   0  0  0  0  0  0  0  0  0  0  0  0
  148.5242  139.5274  154.3568 C   0  0  0  0  0  0  0  0  0  0  0  0
  148.9209  138.3887  154.6037 O   0  0  0  0  0  0  0  0  0  0  0  0
  147.2610  139.8020  153.5530 C   0  0  0  0  0  0  0  0  0  0  0  0
  147.2000  141.3363  153.5047 C   0  0  1  0  0  0  0  0  0  0  0  0
  145.9148  141.9245  154.1100 C   0  0  0  0  0  0  0  0  0  0  0  0
  148.4409  141.7452  154.2961 C   0  0  0  0  0  0  0  0  0  0  0  0
  148.7496  142.9215  154.4884 O   0  0  0  0  0  0  0  0  0  0  0  0
  152.2206  142.4296  159.8304 C   0  0  0  0  0  0  0  0  0  0  0  0
  153.1112  141.4239  160.1996 C   0  0  0  0  0  0  0  0  0  0  0  0
  153.7033  141.5194  161.4793 C   0  0  0  0  0  0  0  0  0  0  0  0
  154.6735  140.4328  161.9110 C   0  0  0  0  0  0  0  0  0  0  0  0
  153.7337  143.5976  164.2446 H   0  0  0  0  0  0  0  0  0  0  0  0
  155.1319  142.7200  163.6309 H   0  0  0  0  0  0  0  0  0  0  0  0
  153.7658  141.8380  164.3313 H   0  0  0  0  0  0  0  0  0  0  0  0
  152.2557  144.4375  162.6123 H   0  0  0  0  0  0  0  0  0  0  0  0
  150.0528  144.2039  158.0716 H   0  0  0  0  0  0  0  0  0  0  0  0
  152.3568  142.0490  156.9113 H   0  0  0  0  0  0  0  0  0  0  0  0
  151.8134  140.7264  157.9093 H   0  0  0  0  0  0  0  0  0  0  0  0
  149.9854  142.6840  156.4039 H   0  0  0  0  0  0  0  0  0  0  0  0
  149.0491  141.8157  158.2524 H   0  0  0  0  0  0  0  0  0  0  0  0
  151.1466  141.1099  154.8458 H   0  0  0  0  0  0  0  0  0  0  0  0
  150.6928  139.7452  155.8114 H   0  0  0  0  0  0  0  0  0  0  0  0
  147.3426  139.3685  152.5557 H   0  0  0  0  0  0  0  0  0  0  0  0
  146.3959  139.3638  154.0524 H   0  0  0  0  0  0  0  0  0  0  0  0
  147.3146  141.6817  152.4764 H   0  0  0  0  0  0  0  0  0  0  0  0
  145.9134  143.0136  154.0529 H   0  0  0  0  0  0  0  0  0  0  0  0
  145.8003  141.6448  155.1581 H   0  0  0  0  0  0  0  0  0  0  0  0
  145.0353  141.5673  153.5738 H   0  0  0  0  0  0  0  0  0  0  0  0
  153.3406  140.5977  159.5435 H   0  0  0  0  0  0  0  0  0  0  0  0
  154.7726  139.6600  161.1480 H   0  0  0  0  0  0  0  0  0  0  0  0
  154.3289  139.9524  162.8269 H   0  0  0  0  0  0  0  0  0  0  0  0
  155.6634  140.8526  162.0904 H   0  0  0  0  0  0  0  0  0  0  0  0
  150.5878  145.1684  160.3906 H   0  0  0  0  0  0  0  0  0  0  0  0
  1  2  1  0  0  0  0
  1 24  1  0  0  0  0
  1 25  1  0  0  0  0
  1 26  1  0  0  0  0
  2 22  1  0  0  0  0
  2  3  2  0  0  0  0
  3  4  1  0  0  0  0
  3 27  1  0  0  0  0
  4 20  2  0  0  0  0
  4  5  1  0  0  0  0
  5  6  2  0  0  0  0
  5 45  1  0  0  0  0
  6  7  1  0  0  0  0
  6 28  1  0  0  0  0
  7  8  1  0  0  0  0
  7 20  1  0  0  0  0
  8  9  1  0  0  0  0
  8 29  1  0  0  0  0
  8 30  1  0  0  0  0
  9 10  1  0  0  0  0
  9 11  1  0  0  0  0
  9 31  1  0  0  0  0
 10 32  1  0  0  0  0
 11 12  1  0  0  0  0
 11 33  1  0  0  0  0
 11 34  1  0  0  0  0
 12 18  1  0  0  0  0
 12 13  1  0  0  0  0
 13 14  2  0  0  0  0
 13 15  1  0  0  0  0
 15 16  1  0  0  0  0
 15 35  1  0  0  0  0
 15 36  1  0  0  0  0
 16 17  1  0  0  0  0
 16 18  1  0  0  0  0
 16 37  1  0  0  0  0
 17 38  1  0  0  0  0
 17 39  1  0  0  0  0
 17 40  1  0  0  0  0
 18 19  2  0  0  0  0
 20 21  1  0  0  0  0
 21 22  2  0  0  0  0
 21 41  1  0  0  0  0
 22 23  1  0  0  0  0
 23 42  1  0  0  0  0
 23 43  1  0  0  0  0
 23 44  1  0  0  0  0
M  CHG  1   5   1
M  END
> <s_m_source_file>
AV-unprocessed.smi

> <i_m_source_file_index>
740

> <i_lp_mmshare_version>
43012

> <i_f3d_flags>
0

> <s_epik_input>
W0NIM11jKFtjSF0xKWMoW0NIM10pW2NIXWMoYzEyKW4oW2NIXW4yKVtDSDJdW0NASF0oW09IXSlbQ0gyXU4zQyg9TylbQ0gyXVtDQEBIXShbQ0gzXSlDMz1P

> <s_epik_cmdline>
J2VwaWtfcHl0aG9uJywgJy1waCcsICc3LjAnLCAnLXRuJywgJzgnLCAnLW1hJywgJzIwMCcsICctbWV0YWxfYmluZGluZycsICctaW1hZScsICc8aW5maWxlLm1hZT4nLCAnLW9tYWUnLCAnPG91dGZpbGUubWFlPic=

> <r_lp_tautomer_probability>
1

> <r_epik_Ionization_Penalty>
1.08202

> <r_epik_Ionization_Penalty_Charging>
1.08202

> <r_epik_Ionization_Penalty_Neutral>
1.16605e-06

> <r_epik_State_Penalty>
1.13754

> <r_epik_Charging_Adjusted_Penalty>
2.21956

> <i_epik_Tot_Q>
1

> <i_epik_Tot_abs_Q>
1

> <r_epik_Metal_State_Penalty>
5.13645

> <b_epik_Metal_Only>
0

> <s_lp_Force_Field>
OPLS_2005

> <r_lp_Energy>
22.4261

> <b_lp_Chiralities_Consistent>
1

> <s_lp_Variant>
AV-unprocessed.smi:740-5

> <Gold.Version>
5.8.1

> <Gold.Id.Protein>
6NUR|6NUR_protein|mol2

> <Gold.PLP.Fitness>
52.9604

> <Gold.PLP.PLP>
-48.2152

> <Gold.PLP.part.hbond>
-2.0000

> <Gold.PLP.part.metal>
0.0000

> <Gold.PLP.part.buried>
-2.3011

> <Gold.PLP.part.nonpolar>
-46.8320

> <Gold.PLP.part.repulsive>
6.2001

> <Gold.PLP.ligand.clash>
0.0000

> <Gold.PLP.ligand.torsion>
0.4590

> <Gold.PLP.Chemscore.Hbond>
0.9913

> <Gold.PLP.Chemscore.CHOScore>
0.8960

> <Gold.PLP.Chemscore.Metal>
0.0000

> <Gold.Chemscore.Hbonds>
donor molecule, donor type, donor heavy atom, donor atom, acceptor molecule, acceptor atom, score
      P1  H  8022  8030       L1    19  0.98
      L1  C     6    28       P1  8028  0.55
      L1  C     6    28       P1  8029  0.08

> <Gold.PLP.Chemscore.Internal.Correction>
0.0015

> <Gold.Rescore>
     Score         DG    S(hbond)    S(metal)    S(lipo)     H(rot)  DE(clash)    DE(int)     intcor
     14.57     -17.00       0.94        0.00     123.54       2.37       2.05       0.38       ----

> <Gold.Chemscore.Fitness>
14.5654

> <Gold.Chemscore.DG>
-16.9954

> <Gold.Chemscore.ZeroCoef>
-5.4800

> <Gold.Chemscore.Hbond>
0.9383

> <Gold.Chemscore.Metal>
0.0000

> <Gold.Chemscore.Lipo>
123.5450

> <Gold.Chemscore.Internal_Hbond>
0.0000

> <Gold.Chemscore.DEClash>
2.0536

> <Gold.Chemscore.DEInternal>
0.3764

> <Gold.Chemscore.Rot>
2.3724

> <Gold.Chemscore.Internal.Correction>
   9.000000E+99

> <Gold.Chemscore.Hbonds>
donor molecule, donor type, donor heavy atom, donor atom, acceptor molecule, acceptor atom, score
      P1  H  8022  8030       L1    19  0.91

> <Gold.Chemscore.Hbond.Weighted>
-3.1341

> <Gold.Chemscore.Metal.Weighted>
-0.0000

> <Gold.Chemscore.Lipo.Weighted>
-14.4548

> <Gold.Chemscore.Internal_Hbond.Weighted>
0.0000

> <Gold.Chemscore.DEClash.Weighted>
2.0536

> <Gold.Chemscore.DEInternal.Weighted>
0.3764

> <Gold.Chemscore.Rot.Weighted>
6.0734

> <Gold.Chemscore.Internal.Correction.Weighted>
   9.000000E+99

> <Gold.Protein.RotatedTorsions>
[ 6907 6896 6895 6894 ] final  -23.81 input  -60.11 | X-H torsion
[ 7974 7965 7964 7962 ] final   -1.27 input  175.53 | X-H torsion
[ 8008 7997 7996 7995 ] final -150.52 input   59.86 | X-H torsion
[ 10167 10162 10161 10158 ] final -117.96 input  -65.29 | X-H torsion
[ 10718 10713 10712 10709 ] final   63.53 input   66.30 | X-H torsion
[ 10763 10752 10751 10750 ] final   93.89 input  -60.55 | X-H torsion
[ 11005 11000 10999 10996 ] final  146.27 input  -57.11 | X-H torsion

> <Gold.Protein.ActiveResidues>
 VAL166  LYS551  ARG553  GLY616  TRP617  ASP618  TYR619  PRO620  LYS621  CYS622 
 ASP623  PHE694  ASN695  SER759  ASP760  ASP761  ALA762  ILE779  LEU786  VAL792 
 PHE793  MET794  SER795  GLU796  ALA797  LYS798  CYS799  TRP800  GLU811  SER814 

> <Gold.Protein.RotatedAtoms>
  151.1986  135.0433  159.8862 H   0  0  0  0  0  0  0  0  0  0  0  0  # atno 6907 bound_to 6896
  152.5434  134.0875  159.8273 H   0  0  0  0  0  0  0  0  0  0  0  0  # atno 6908 bound_to 6896
  151.1013  133.5194  159.2642 H   0  0  0  0  0  0  0  0  0  0  0  0  # atno 6909 bound_to 6896
  146.2419  140.1395  142.8336 H   0  0  0  0  0  0  0  0  0  0  0  0  # atno 7974 bound_to 7965
  155.6248  140.0685  157.2667 H   0  0  0  0  0  0  0  0  0  0  0  0  # atno 8008 bound_to 7997
  154.4220  140.1778  156.1458 H   0  0  0  0  0  0  0  0  0  0  0  0  # atno 8009 bound_to 7997
  155.9980  140.3339  155.6821 H   0  0  0  0  0  0  0  0  0  0  0  0  # atno 8010 bound_to 7997
  140.0626  143.4953  152.2023 H   0  0  0  0  0  0  0  0  0  0  0  0  # atno 10167 bound_to 10162
  157.5978  130.9110  149.9728 H   0  0  0  0  0  0  0  0  0  0  0  0  # atno 10718 bound_to 10713
  153.2354  135.4309  155.0641 H   0  0  0  0  0  0  0  0  0  0  0  0  # atno 10763 bound_to 10752
  154.8316  135.3390  154.6726 H   0  0  0  0  0  0  0  0  0  0  0  0  # atno 10764 bound_to 10752
  153.7152  135.7020  153.5083 H   0  0  0  0  0  0  0  0  0  0  0  0  # atno 10765 bound_to 10752
  140.0779  134.9114  157.1453 H   0  0  0  0  0  0  0  0  0  0  0  0  # atno 11005 bound_to 11000
  145.0259  140.8831  143.5139 LP  0  0  0  0  0  0  0  0  0  0  0  0  # atno 17320 bound_to 7965
  145.1451  139.2548  143.5470 LP  0  0  0  0  0  0  0  0  0  0  0  0  # atno 17321 bound_to 7965
  139.5884  144.7540  151.3461 LP  0  0  0  0  0  0  0  0  0  0  0  0  # atno 17342 bound_to 10162
  140.7164  143.7254  150.7664 LP  0  0  0  0  0  0  0  0  0  0  0  0  # atno 17343 bound_to 10162
  156.1044  130.3653  150.0160 LP  0  0  0  0  0  0  0  0  0  0  0  0  # atno 17370 bound_to 10713
  156.8270  130.9379  151.3639 LP  0  0  0  0  0  0  0  0  0  0  0  0  # atno 17371 bound_to 10713
  140.3530  134.2577  155.7196 LP  0  0  0  0  0  0  0  0  0  0  0  0  # atno 17394 bound_to 11000
  141.2036  133.7907  157.0330 LP  0  0  0  0  0  0  0  0  0  0  0  0  # atno 17395 bound_to 11000

$$$$
