AV-unprocessed.smi:3030|AV-procd|sdf|11538|dock1
  -GOLD-   2272016483D 1   1.00000     0.00000
 Structure written by MMmdl.
 52 53  0  0  0  0  0  0  0  0  1 V2000
  152.9934  143.9838  163.0685 C   0  0  0  0  0  0  0  0  0  0  0  0
  152.2110  143.7920  161.7646 C   0  0  0  0  0  0  0  0  0  0  0  0
  152.6872  142.6390  161.0143 N   0  0  0  0  0  0  0  0  0  0  0  0
  153.8109  141.9266  161.4206 C   0  0  0  0  0  0  0  0  0  0  0  0
  154.3350  140.8907  160.7378 C   0  0  0  0  0  0  0  0  0  0  0  0
  153.7029  140.4635  159.4732 C   0  0  0  0  0  0  0  0  0  0  0  0
  154.1554  139.5203  158.8243 O   0  0  0  0  0  0  0  0  0  0  0  0
  152.5047  141.2282  159.0356 C   0  0  0  0  0  0  0  0  0  0  0  0
  151.9053  140.8078  157.8369 N   0  0  0  0  0  0  0  0  0  0  0  0
  150.6040  140.7760  157.4961 C   0  0  0  0  0  0  0  0  0  0  0  0
  149.6633  141.1503  158.1957 O   0  0  0  0  0  0  0  0  0  0  0  0
  150.4506  140.2774  156.2614 N   0  0  0  0  0  0  0  0  0  0  0  0
  149.1761  140.0894  155.5707 C   0  0  1  0  0  0  0  0  0  0  0  0
  148.4946  141.4610  155.3879 C   0  0  0  0  0  0  0  0  0  0  0  0
  147.1615  141.3472  154.6284 C   0  0  1  0  0  0  0  0  0  0  0  0
  146.4947  142.7197  154.4561 C   0  0  0  0  0  0  0  0  0  0  0  0
  147.3830  140.6536  153.2740 C   0  0  0  0  0  0  0  0  0  0  0  0
  148.0437  139.2779  153.4485 C   0  0  0  0  0  0  0  0  0  0  0  0
  149.3882  139.3742  154.2081 C   0  0  2  0  0  0  0  0  0  0  0  0
  150.1309  138.0086  154.3213 C   0  0  0  0  0  0  0  0  0  0  0  0
  149.5089  137.0881  155.3857 C   0  0  0  0  0  0  0  0  0  0  0  0
  151.6510  138.1345  154.5329 C   0  0  0  0  0  0  0  0  0  0  0  0
  152.0799  142.2503  159.8219 C   0  0  0  0  0  0  0  0  0  0  0  0
  152.6252  144.8508  163.6169 H   0  0  0  0  0  0  0  0  0  0  0  0
  154.0545  144.1399  162.8717 H   0  0  0  0  0  0  0  0  0  0  0  0
  152.8966  143.1131  163.7177 H   0  0  0  0  0  0  0  0  0  0  0  0
  151.1495  143.6703  161.9841 H   0  0  0  0  0  0  0  0  0  0  0  0
  152.2939  144.6875  161.1478 H   0  0  0  0  0  0  0  0  0  0  0  0
  154.2420  142.2674  162.3509 H   0  0  0  0  0  0  0  0  0  0  0  0
  155.2085  140.3646  161.0941 H   0  0  0  0  0  0  0  0  0  0  0  0
  152.5582  140.4929  157.1339 H   0  0  0  0  0  0  0  0  0  0  0  0
  151.2802  139.9979  155.7588 H   0  0  0  0  0  0  0  0  0  0  0  0
  148.5185  139.4705  156.1829 H   0  0  0  0  0  0  0  0  0  0  0  0
  148.3193  141.9166  156.3637 H   0  0  0  0  0  0  0  0  0  0  0  0
  149.1640  142.1349  154.8510 H   0  0  0  0  0  0  0  0  0  0  0  0
  146.4874  140.7261  155.2202 H   0  0  0  0  0  0  0  0  0  0  0  0
  147.1215  143.3951  153.8731 H   0  0  0  0  0  0  0  0  0  0  0  0
  146.3088  143.1894  155.4223 H   0  0  0  0  0  0  0  0  0  0  0  0
  145.5361  142.6295  153.9444 H   0  0  0  0  0  0  0  0  0  0  0  0
  146.4310  140.5371  152.7549 H   0  0  0  0  0  0  0  0  0  0  0  0
  148.0078  141.2790  152.6346 H   0  0  0  0  0  0  0  0  0  0  0  0
  147.3563  138.6210  153.9819 H   0  0  0  0  0  0  0  0  0  0  0  0
  148.1897  138.8371  152.4632 H   0  0  0  0  0  0  0  0  0  0  0  0
  150.0343  140.0249  153.6160 H   0  0  0  0  0  0  0  0  0  0  0  0
  149.9940  137.4815  153.3770 H   0  0  0  0  0  0  0  0  0  0  0  0
  149.6790  137.4601  156.3959 H   0  0  0  0  0  0  0  0  0  0  0  0
  149.9402  136.0880  155.3331 H   0  0  0  0  0  0  0  0  0  0  0  0
  148.4330  136.9864  155.2415 H   0  0  0  0  0  0  0  0  0  0  0  0
  151.8907  138.6178  155.4797 H   0  0  0  0  0  0  0  0  0  0  0  0
  152.1253  138.7040  153.7342 H   0  0  0  0  0  0  0  0  0  0  0  0
  152.1217  137.1511  154.5439 H   0  0  0  0  0  0  0  0  0  0  0  0
  151.2123  142.8478  159.5927 H   0  0  0  0  0  0  0  0  0  0  0  0
  1  2  1  0  0  0  0
  1 24  1  0  0  0  0
  1 25  1  0  0  0  0
  1 26  1  0  0  0  0
  2  3  1  0  0  0  0
  2 27  1  0  0  0  0
  2 28  1  0  0  0  0
  3 23  1  0  0  0  0
  3  4  1  0  0  0  0
  4  5  2  0  0  0  0
  4 29  1  0  0  0  0
  5  6  1  0  0  0  0
  5 30  1  0  0  0  0
  6  7  2  0  0  0  0
  6  8  1  0  0  0  0
  8  9  1  0  0  0  0
  8 23  2  0  0  0  0
  9 10  1  0  0  0  0
  9 31  1  0  0  0  0
 10 11  2  0  0  0  0
 10 12  1  0  0  0  0
 12 13  1  0  0  0  0
 12 32  1  0  0  0  0
 13 19  1  0  0  0  0
 13 14  1  0  0  0  0
 13 33  1  0  0  0  0
 14 15  1  0  0  0  0
 14 34  1  0  0  0  0
 14 35  1  0  0  0  0
 15 16  1  0  0  0  0
 15 17  1  0  0  0  0
 15 36  1  0  0  0  0
 16 37  1  0  0  0  0
 16 38  1  0  0  0  0
 16 39  1  0  0  0  0
 17 18  1  0  0  0  0
 17 40  1  0  0  0  0
 17 41  1  0  0  0  0
 18 19  1  0  0  0  0
 18 42  1  0  0  0  0
 18 43  1  0  0  0  0
 19 20  1  0  0  0  0
 19 44  1  0  0  0  0
 20 21  1  0  0  0  0
 20 22  1  0  0  0  0
 20 45  1  0  0  0  0
 21 46  1  0  0  0  0
 21 47  1  0  0  0  0
 21 48  1  0  0  0  0
 22 49  1  0  0  0  0
 22 50  1  0  0  0  0
 22 51  1  0  0  0  0
 23 52  1  0  0  0  0
M  END
> <s_m_source_file>
AV-unprocessed.smi

> <i_m_source_file_index>
3030

> <i_lp_mmshare_version>
43012

> <i_f3d_flags>
0

> <s_epik_input>
W0NIM11bQ0gyXW4xW2NIXVtjSF1jKD1PKWMoW2NIXTEpW05IXUMoPU8pW05IXVtDQEBIXTJbQ0gyXVtDQEBIXShbQ0gzXSlbQ0gyXVtDSDJdW0NASF0yW0NIXShbQ0gzXSlbQ0gzXQ==

> <s_epik_cmdline>
J2VwaWtfcHl0aG9uJywgJy1waCcsICc3LjAnLCAnLXRuJywgJzgnLCAnLW1hJywgJzIwMCcsICctbWV0YWxfYmluZGluZycsICctaW1hZScsICc8aW5maWxlLm1hZT4nLCAnLW9tYWUnLCAnPG91dGZpbGUubWFlPic=

> <r_lp_tautomer_probability>
1

> <r_epik_Ionization_Penalty>
0.00147933

> <r_epik_Ionization_Penalty_Charging>
0.00145753

> <r_epik_Ionization_Penalty_Neutral>
2.17987e-05

> <r_epik_State_Penalty>
0.00097457

> <r_epik_Charging_Adjusted_Penalty>
0.0024321

> <i_epik_Tot_Q>
0

> <i_epik_Tot_abs_Q>
0

> <r_epik_Metal_State_Penalty>
-0

> <b_epik_Metal_Only>
0

> <s_lp_Force_Field>
OPLS_2005

> <r_lp_Energy>
9.50568

> <b_lp_Chiralities_Consistent>
1

> <s_lp_Variant>
AV-unprocessed.smi:3030-6

> <Gold.Version>
5.8.1

> <Gold.Id.Protein>
6NUR|6NUR_protein|mol2

> <Gold.PLP.Fitness>
46.7775

> <Gold.PLP.PLP>
-44.8132

> <Gold.PLP.part.hbond>
-1.0000

> <Gold.PLP.part.metal>
0.0000

> <Gold.PLP.part.buried>
-0.3925

> <Gold.PLP.part.nonpolar>
-43.5625

> <Gold.PLP.part.repulsive>
0.1702

> <Gold.PLP.ligand.clash>
0.0000

> <Gold.PLP.ligand.torsion>
0.5716

> <Gold.PLP.Chemscore.Hbond>
1.0000

> <Gold.PLP.Chemscore.CHOScore>
0.0000

> <Gold.PLP.Chemscore.Metal>
0.0000

> <Gold.Chemscore.Hbonds>
donor molecule, donor type, donor heavy atom, donor atom, acceptor molecule, acceptor atom, score
      P1  H  7997  8009       L1     7  1.00

> <Gold.PLP.Chemscore.Internal.Correction>
0.1076

> <Gold.Rescore>
     Score         DG    S(hbond)    S(metal)    S(lipo)     H(rot)  DE(clash)    DE(int)     intcor
     18.28     -19.81       0.96        0.00     122.87       1.27       0.75       0.78       ----

> <Gold.Chemscore.Fitness>
18.2781

> <Gold.Chemscore.DG>
-19.8087

> <Gold.Chemscore.ZeroCoef>
-5.4800

> <Gold.Chemscore.Hbond>
0.9581

> <Gold.Chemscore.Metal>
0.0000

> <Gold.Chemscore.Lipo>
122.8723

> <Gold.Chemscore.Internal_Hbond>
0.0000

> <Gold.Chemscore.DEClash>
0.7476

> <Gold.Chemscore.DEInternal>
0.7830

> <Gold.Chemscore.Rot>
1.2685

> <Gold.Chemscore.Internal.Correction>
   9.000000E+99

> <Gold.Chemscore.Hbonds>
donor molecule, donor type, donor heavy atom, donor atom, acceptor molecule, acceptor atom, score
      P1  H  7997  8009       L1     7  0.88

> <Gold.Chemscore.Hbond.Weighted>
-3.2000

> <Gold.Chemscore.Metal.Weighted>
-0.0000

> <Gold.Chemscore.Lipo.Weighted>
-14.3761

> <Gold.Chemscore.Internal_Hbond.Weighted>
0.0000

> <Gold.Chemscore.DEClash.Weighted>
0.7476

> <Gold.Chemscore.DEInternal.Weighted>
0.7830

> <Gold.Chemscore.Rot.Weighted>
3.2474

> <Gold.Chemscore.Internal.Correction.Weighted>
   9.000000E+99

> <Gold.Protein.RotatedTorsions>
[ 6907 6896 6895 6894 ] final -125.67 input  -60.11 | X-H torsion
[ 7974 7965 7964 7962 ] final  170.50 input  175.53 | X-H torsion
[ 8008 7997 7996 7995 ] final  121.68 input   59.86 | X-H torsion
[ 10167 10162 10161 10158 ] final  -72.84 input  -65.29 | X-H torsion
[ 10718 10713 10712 10709 ] final   59.22 input   66.30 | X-H torsion
[ 10763 10752 10751 10750 ] final  108.11 input  -60.55 | X-H torsion
[ 11005 11000 10999 10996 ] final   10.00 input  -57.11 | X-H torsion

> <Gold.Protein.ActiveResidues>
 VAL166  LYS551  ARG553  GLY616  TRP617  ASP618  TYR619  PRO620  LYS621  CYS622 
 ASP623  PHE694  ASN695  SER759  ASP760  ASP761  ALA762  ILE779  LEU786  VAL792 
 PHE793  MET794  SER795  GLU796  ALA797  LYS798  CYS799  TRP800  GLU811  SER814 

> <Gold.Protein.RotatedAtoms>
  150.8891  133.7268  159.2909 H   0  0  0  0  0  0  0  0  0  0  0  0  # atno 6907 bound_to 6896
  151.4824  135.1051  159.9791 H   0  0  0  0  0  0  0  0  0  0  0  0  # atno 6908 bound_to 6896
  152.4808  133.8204  159.7106 H   0  0  0  0  0  0  0  0  0  0  0  0  # atno 6909 bound_to 6896
  144.7322  139.9211  143.6420 H   0  0  0  0  0  0  0  0  0  0  0  0  # atno 7974 bound_to 7965
  156.2697  140.2803  156.1347 H   0  0  0  0  0  0  0  0  0  0  0  0  # atno 8008 bound_to 7997
  155.1016  140.0389  157.2716 H   0  0  0  0  0  0  0  0  0  0  0  0  # atno 8009 bound_to 7997
  154.6811  140.2609  155.6914 H   0  0  0  0  0  0  0  0  0  0  0  0  # atno 8010 bound_to 7997
  140.5159  143.2338  151.7513 H   0  0  0  0  0  0  0  0  0  0  0  0  # atno 10167 bound_to 10162
  157.5658  130.8870  149.9185 H   0  0  0  0  0  0  0  0  0  0  0  0  # atno 10718 bound_to 10713
  153.4161  135.3822  155.2081 H   0  0  0  0  0  0  0  0  0  0  0  0  # atno 10763 bound_to 10752
  154.8741  135.3806  154.4441 H   0  0  0  0  0  0  0  0  0  0  0  0  # atno 10764 bound_to 10752
  153.4955  135.7088  153.5923 H   0  0  0  0  0  0  0  0  0  0  0  0  # atno 10765 bound_to 10752
  140.5194  134.0573  155.7840 H   0  0  0  0  0  0  0  0  0  0  0  0  # atno 11005 bound_to 11000
  146.0928  139.3919  143.0395 LP  0  0  0  0  0  0  0  0  0  0  0  0  # atno 17320 bound_to 7965
  145.7687  140.9905  143.1161 LP  0  0  0  0  0  0  0  0  0  0  0  0  # atno 17321 bound_to 7965
  139.4909  144.4324  151.9857 LP  0  0  0  0  0  0  0  0  0  0  0  0  # atno 17342 bound_to 10162
  140.3418  144.3194  150.5966 LP  0  0  0  0  0  0  0  0  0  0  0  0  # atno 17343 bound_to 10162
  156.0707  130.3685  150.0783 LP  0  0  0  0  0  0  0  0  0  0  0  0  # atno 17370 bound_to 10713
  156.8942  130.9598  151.3584 LP  0  0  0  0  0  0  0  0  0  0  0  0  # atno 17371 bound_to 10713
  141.1342  133.9250  157.2470 LP  0  0  0  0  0  0  0  0  0  0  0  0  # atno 17394 bound_to 11000
  139.9614  135.0153  156.9271 LP  0  0  0  0  0  0  0  0  0  0  0  0  # atno 17395 bound_to 11000

$$$$
