AV-unprocessed.smi:1675|AV-procd|sdf|6716|dock10
  -GOLD-   22720 7463D 1   1.00000     0.00000
 Structure written by MMmdl.
 40 42  0  0  0  0  0  0  0  0  1 V2000
  152.3301  133.7711  164.0236 N   0  0  0  0  0  0  0  0  0  0  0  0
  152.4287  134.9195  163.3491 C   0  0  0  0  0  0  0  0  0  0  0  0
  151.9421  135.9682  163.7684 O   0  0  0  0  0  0  0  0  0  0  0  0
  153.1770  134.8767  162.0128 C   0  0  0  0  0  0  0  0  0  0  0  0
  153.0490  136.1248  161.2790 N   0  0  0  0  0  0  0  0  0  0  0  0
  153.3043  137.4078  161.7245 C   0  0  0  0  0  0  0  0  0  0  0  0
  153.0366  138.2281  160.6653 C   0  0  0  0  0  0  0  0  0  0  0  0
  153.1257  139.6403  160.5743 N   0  0  0  0  0  0  0  0  0  0  0  0
  153.1748  140.3889  159.4581 C   0  0  0  0  0  0  0  0  0  0  0  0
  153.1635  139.9327  158.3151 O   0  0  0  0  0  0  0  0  0  0  0  0
  153.2761  141.9027  159.6710 C   0  0  0  0  0  0  0  0  0  0  0  0
  151.9094  142.6234  159.6139 C   0  0  1  0  0  0  0  0  0  0  0  0
  151.6657  143.5987  160.7862 C   0  0  0  0  0  0  0  0  0  0  0  0
  151.1897  144.8810  160.0778 C   0  0  1  0  0  0  0  0  0  0  0  0
  152.3931  145.5552  159.3944 C   0  0  0  0  0  0  0  0  0  0  0  0
  152.6710  144.6204  158.2033 C   0  0  0  0  0  0  0  0  0  0  0  0
  151.6110  143.5136  158.3802 C   0  0  2  0  0  0  0  0  0  0  0  0
  150.4214  144.3244  158.8845 C   0  0  0  0  0  0  0  0  0  0  0  0
  152.6278  137.3741  159.6084 C   0  0  0  0  0  0  0  0  0  0  0  0
  152.6409  136.1046  159.9850 N   0  0  0  0  0  0  0  0  0  0  0  0
  151.8438  133.7513  164.9085 H   0  0  0  0  0  0  0  0  0  0  0  0
  152.7386  132.9276  163.6484 H   0  0  0  0  0  0  0  0  0  0  0  0
  154.2381  134.6811  162.1738 H   0  0  0  0  0  0  0  0  0  0  0  0
  152.7863  134.0557  161.4098 H   0  0  0  0  0  0  0  0  0  0  0  0
  153.6407  137.6077  162.7310 H   0  0  0  0  0  0  0  0  0  0  0  0
  153.1512  140.1370  161.4531 H   0  0  0  0  0  0  0  0  0  0  0  0
  153.7413  142.0992  160.6382 H   0  0  0  0  0  0  0  0  0  0  0  0
  153.9632  142.3120  158.9307 H   0  0  0  0  0  0  0  0  0  0  0  0
  151.1354  141.8547  159.6583 H   0  0  0  0  0  0  0  0  0  0  0  0
  150.8932  143.2109  161.4513 H   0  0  0  0  0  0  0  0  0  0  0  0
  152.5587  143.7757  161.3869 H   0  0  0  0  0  0  0  0  0  0  0  0
  150.6209  145.5519  160.7219 H   0  0  0  0  0  0  0  0  0  0  0  0
  152.1329  146.5551  159.0445 H   0  0  0  0  0  0  0  0  0  0  0  0
  153.2511  145.6463  160.0614 H   0  0  0  0  0  0  0  0  0  0  0  0
  152.5109  145.1506  157.2639 H   0  0  0  0  0  0  0  0  0  0  0  0
  153.6930  144.2440  158.1901 H   0  0  0  0  0  0  0  0  0  0  0  0
  151.4132  142.9488  157.4688 H   0  0  0  0  0  0  0  0  0  0  0  0
  149.5649  143.7106  159.1691 H   0  0  0  0  0  0  0  0  0  0  0  0
  150.0921  145.0944  158.1842 H   0  0  0  0  0  0  0  0  0  0  0  0
  152.3288  137.6267  158.6018 H   0  0  0  0  0  0  0  0  0  0  0  0
  1  2  1  0  0  0  0
  1 21  1  0  0  0  0
  1 22  1  0  0  0  0
  2  3  2  0  0  0  0
  2  4  1  0  0  0  0
  4  5  1  0  0  0  0
  4 23  1  0  0  0  0
  4 24  1  0  0  0  0
  5 20  1  0  0  0  0
  5  6  1  0  0  0  0
  6  7  2  0  0  0  0
  6 25  1  0  0  0  0
  7  8  1  0  0  0  0
  7 19  1  0  0  0  0
  8  9  1  0  0  0  0
  8 26  1  0  0  0  0
  9 10  2  0  0  0  0
  9 11  1  0  0  0  0
 11 12  1  0  0  0  0
 11 27  1  0  0  0  0
 11 28  1  0  0  0  0
 12 17  1  0  0  0  0
 12 13  1  0  0  0  0
 12 29  1  0  0  0  0
 13 14  1  0  0  0  0
 13 30  1  0  0  0  0
 13 31  1  0  0  0  0
 14 18  1  0  0  0  0
 14 15  1  0  0  0  0
 14 32  1  0  0  0  0
 15 16  1  0  0  0  0
 15 33  1  0  0  0  0
 15 34  1  0  0  0  0
 16 17  1  0  0  0  0
 16 35  1  0  0  0  0
 16 36  1  0  0  0  0
 17 18  1  0  0  0  0
 17 37  1  0  0  0  0
 18 38  1  0  0  0  0
 18 39  1  0  0  0  0
 19 20  2  0  0  0  0
 19 40  1  0  0  0  0
M  END
> <s_m_source_file>
AV-unprocessed.smi

> <i_m_source_file_index>
1675

> <i_lp_mmshare_version>
43012

> <i_f3d_flags>
0

> <s_epik_input>
W05IMl1DKD1PKVtDSDJdbjFbY0hdYyhbY0hdbjEpW05IXUMoPU8pW0NIMl1bQ0BIXShbQ0gyXVtDQEBIXTIzKVtDQEBIXShbQ0gyXTMpW0NIMl1bQ0gyXTI=

> <s_epik_cmdline>
J2VwaWtfcHl0aG9uJywgJy1waCcsICc3LjAnLCAnLXRuJywgJzgnLCAnLW1hJywgJzIwMCcsICctbWV0YWxfYmluZGluZycsICctaW1hZScsICc8aW5maWxlLm1hZT4nLCAnLW9tYWUnLCAnPG91dGZpbGUubWFlPic=

> <r_lp_tautomer_probability>
1

> <r_epik_Ionization_Penalty>
2.17494e-05

> <r_epik_Ionization_Penalty_Charging>
0

> <r_epik_Ionization_Penalty_Neutral>
2.17494e-05

> <r_epik_State_Penalty>
-0

> <r_epik_Charging_Adjusted_Penalty>
0

> <i_epik_Tot_Q>
0

> <i_epik_Tot_abs_Q>
0

> <r_epik_Metal_State_Penalty>
-0

> <b_epik_Metal_Only>
0

> <s_lp_Force_Field>
OPLS_2005

> <r_lp_Energy>
53.8381

> <b_lp_Chiralities_Consistent>
1

> <s_lp_Variant>
AV-unprocessed.smi:1675-2

> <Gold.Version>
5.8.1

> <Gold.Id.Protein>
6NUR|6NUR_protein|mol2

> <Gold.PLP.Fitness>
49.7321

> <Gold.PLP.PLP>
-46.8194

> <Gold.PLP.part.hbond>
-2.7298

> <Gold.PLP.part.metal>
0.0000

> <Gold.PLP.part.buried>
-6.8434

> <Gold.PLP.part.nonpolar>
-36.8482

> <Gold.PLP.part.repulsive>
0.1608

> <Gold.PLP.ligand.clash>
0.0000

> <Gold.PLP.ligand.torsion>
1.2295

> <Gold.PLP.Chemscore.Hbond>
1.7800

> <Gold.PLP.Chemscore.CHOScore>
0.0000

> <Gold.PLP.Chemscore.Metal>
0.0000

> <Gold.Chemscore.Hbonds>
donor molecule, donor type, donor heavy atom, donor atom, acceptor molecule, acceptor atom, score
      P1  H  6896  6909       L1    20  0.22
      P1  H  7997  8009       L1    10  1.00

> <Gold.PLP.Chemscore.Internal.Correction>
0.0318

> <Gold.Rescore>
     Score         DG    S(hbond)    S(metal)    S(lipo)     H(rot)  DE(clash)    DE(int)     intcor
     16.36     -19.95       1.96        0.00     114.71       2.15       0.05       3.54       ----

> <Gold.Chemscore.Fitness>
16.3615

> <Gold.Chemscore.DG>
-19.9506

> <Gold.Chemscore.ZeroCoef>
-5.4800

> <Gold.Chemscore.Hbond>
1.9609

> <Gold.Chemscore.Metal>
0.0000

> <Gold.Chemscore.Lipo>
114.7128

> <Gold.Chemscore.Internal_Hbond>
0.0000

> <Gold.Chemscore.DEClash>
0.0465

> <Gold.Chemscore.DEInternal>
3.5426

> <Gold.Chemscore.Rot>
2.1486

> <Gold.Chemscore.Internal.Correction>
   9.000000E+99

> <Gold.Chemscore.Hbonds>
donor molecule, donor type, donor heavy atom, donor atom, acceptor molecule, acceptor atom, score
      P1  H  6896  6909       L1    20  0.02
      P1  H  7997  8009       L1    10  0.96

> <Gold.Chemscore.Hbond.Weighted>
-6.5496

> <Gold.Chemscore.Metal.Weighted>
-0.0000

> <Gold.Chemscore.Lipo.Weighted>
-13.4214

> <Gold.Chemscore.Internal_Hbond.Weighted>
0.0000

> <Gold.Chemscore.DEClash.Weighted>
0.0465

> <Gold.Chemscore.DEInternal.Weighted>
3.5426

> <Gold.Chemscore.Rot.Weighted>
5.5004

> <Gold.Chemscore.Internal.Correction.Weighted>
   9.000000E+99

> <Gold.Protein.RotatedTorsions>
[ 6907 6896 6895 6894 ] final  161.69 input  -60.11 | X-H torsion
[ 7974 7965 7964 7962 ] final  -49.87 input  175.53 | X-H torsion
[ 8008 7997 7996 7995 ] final  147.86 input   59.86 | X-H torsion
[ 10167 10162 10161 10158 ] final -169.00 input  -65.29 | X-H torsion
[ 10718 10713 10712 10709 ] final -110.74 input   66.30 | X-H torsion
[ 10763 10752 10751 10750 ] final -113.96 input  -60.55 | X-H torsion
[ 11005 11000 10999 10996 ] final   29.24 input  -57.11 | X-H torsion

> <Gold.Protein.ActiveResidues>
 VAL166  LYS551  ARG553  GLY616  TRP617  ASP618  TYR619  PRO620  LYS621  CYS622 
 ASP623  PHE694  ASN695  SER759  ASP760  ASP761  ALA762  ILE779  LEU786  VAL792 
 PHE793  MET794  SER795  GLU796  ALA797  LYS798  CYS799  TRP800  GLU811  SER814 

> <Gold.Protein.RotatedAtoms>
  151.9518  133.3668  159.4002 H   0  0  0  0  0  0  0  0  0  0  0  0  # atno 6907 bound_to 6896
  150.6979  134.4332  159.5267 H   0  0  0  0  0  0  0  0  0  0  0  0  # atno 6908 bound_to 6896
  152.2006  134.8591  160.0559 H   0  0  0  0  0  0  0  0  0  0  0  0  # atno 6909 bound_to 6896
  145.9359  140.7707  142.9576 H   0  0  0  0  0  0  0  0  0  0  0  0  # atno 7974 bound_to 7965
  156.2810  140.2144  156.5606 H   0  0  0  0  0  0  0  0  0  0  0  0  # atno 8008 bound_to 7997
  154.7216  140.0503  157.0667 H   0  0  0  0  0  0  0  0  0  0  0  0  # atno 8009 bound_to 7997
  155.0471  140.3152  155.4707 H   0  0  0  0  0  0  0  0  0  0  0  0  # atno 8010 bound_to 7997
  139.5950  144.1132  152.1678 H   0  0  0  0  0  0  0  0  0  0  0  0  # atno 10167 bound_to 10162
  156.0608  130.5831  150.8279 H   0  0  0  0  0  0  0  0  0  0  0  0  # atno 10718 bound_to 10713
  154.8419  135.4435  154.1432 H   0  0  0  0  0  0  0  0  0  0  0  0  # atno 10763 bound_to 10752
  153.2612  135.6936  153.7583 H   0  0  0  0  0  0  0  0  0  0  0  0  # atno 10764 bound_to 10752
  153.6859  135.3395  155.3165 H   0  0  0  0  0  0  0  0  0  0  0  0  # atno 10765 bound_to 10752
  140.3071  134.2691  155.7742 H   0  0  0  0  0  0  0  0  0  0  0  0  # atno 11005 bound_to 11000
  144.6771  140.2202  143.7367 LP  0  0  0  0  0  0  0  0  0  0  0  0  # atno 17320 bound_to 7965
  145.8364  139.2109  143.1853 LP  0  0  0  0  0  0  0  0  0  0  0  0  # atno 17321 bound_to 7965
  140.0715  144.5775  150.7188 LP  0  0  0  0  0  0  0  0  0  0  0  0  # atno 17342 bound_to 10162
  140.7204  143.2583  151.4297 LP  0  0  0  0  0  0  0  0  0  0  0  0  # atno 17343 bound_to 10162
  157.5614  131.0946  150.9553 LP  0  0  0  0  0  0  0  0  0  0  0  0  # atno 17370 bound_to 10713
  156.9790  130.5519  149.5295 LP  0  0  0  0  0  0  0  0  0  0  0  0  # atno 17371 bound_to 10713
  141.2116  133.7684  156.9852 LP  0  0  0  0  0  0  0  0  0  0  0  0  # atno 17394 bound_to 11000
  140.1058  134.9507  157.1991 LP  0  0  0  0  0  0  0  0  0  0  0  0  # atno 17395 bound_to 11000

$$$$
