AV-unprocessed.smi:1048|AV-procd|sdf|4606|dock3
  -GOLD-   22720 3103D 1   1.00000     0.00000
 Structure written by MMmdl.
 46 47  0  0  0  0  0  0  0  0  2 V2000
  144.7773  132.0619  151.6698 C   0  0  0  0  0  0  0  0  0  0  0  0
  146.1050  132.7234  151.2609 C   0  0  2  0  0  0  0  0  0  0  0  0
  146.9398  133.1790  152.4715 C   0  0  0  0  0  0  0  0  0  0  0  0
  146.3601  134.4397  153.1379 C   0  0  0  0  0  0  0  0  0  0  0  0
  146.2185  135.5462  152.1575 N   0  3  2  0  0  0  0  0  0  0  0  0
  145.8033  136.8220  152.7955 C   0  0  0  0  0  0  0  0  0  0  0  0
  146.0428  138.0409  151.8809 C   0  0  2  0  0  0  0  0  0  0  0  0
  147.1004  137.6973  151.0068 O   0  0  0  0  0  0  0  0  0  0  0  0
  146.4622  139.2839  152.6921 C   0  0  0  0  0  0  0  0  0  0  0  0
  147.9046  139.3338  152.9106 N   0  0  0  0  0  0  0  0  0  0  0  0
  148.5131  139.1091  154.0835 C   0  0  0  0  0  0  0  0  0  0  0  0
  147.9091  138.8056  155.1118 O   0  0  0  0  0  0  0  0  0  0  0  0
  149.8465  139.2347  153.9729 N   0  0  0  0  0  0  0  0  0  0  0  0
  150.8318  139.1177  154.9905 C   0  0  0  0  0  0  0  0  0  0  0  0
  150.3945  138.9093  156.3149 C   0  0  0  0  0  0  0  0  0  0  0  0
  151.3499  138.7676  157.3391 C   0  0  0  0  0  0  0  0  0  0  0  0
  152.7140  138.8315  156.9958 C   0  0  0  0  0  0  0  0  0  0  0  0
  153.1508  139.0153  155.7323 N   0  0  0  0  0  0  0  0  0  0  0  0
  152.2289  139.1520  154.7547 C   0  0  0  0  0  0  0  0  0  0  0  0
  145.3568  135.1562  151.0108 C   0  0  0  0  0  0  0  0  0  0  0  0
  145.9100  133.9092  150.2979 C   0  0  0  0  0  0  0  0  0  0  0  0
  144.1227  132.7485  152.2059 H   0  0  0  0  0  0  0  0  0  0  0  0
  144.9533  131.2023  152.3174 H   0  0  0  0  0  0  0  0  0  0  0  0
  144.2338  131.7042  150.7950 H   0  0  0  0  0  0  0  0  0  0  0  0
  146.6788  131.9607  150.7325 H   0  0  0  0  0  0  0  0  0  0  0  0
  147.0210  132.3726  153.2012 H   0  0  0  0  0  0  0  0  0  0  0  0
  147.9581  133.3913  152.1424 H   0  0  0  0  0  0  0  0  0  0  0  0
  145.3930  134.2253  153.5942 H   0  0  0  0  0  0  0  0  0  0  0  0
  147.0263  134.7487  153.9444 H   0  0  0  0  0  0  0  0  0  0  0  0
  144.7529  136.7529  153.0821 H   0  0  0  0  0  0  0  0  0  0  0  0
  146.3578  136.9734  153.7234 H   0  0  0  0  0  0  0  0  0  0  0  0
  145.1484  138.2669  151.3004 H   0  0  0  0  0  0  0  0  0  0  0  0
  147.7367  137.1899  151.4898 H   0  0  0  0  0  0  0  0  0  0  0  0
  146.2160  140.1837  152.1275 H   0  0  0  0  0  0  0  0  0  0  0  0
  145.9102  139.3584  153.6311 H   0  0  0  0  0  0  0  0  0  0  0  0
  148.4791  139.5726  152.1154 H   0  0  0  0  0  0  0  0  0  0  0  0
  150.2030  139.3963  153.0425 H   0  0  0  0  0  0  0  0  0  0  0  0
  149.3405  138.8614  156.5471 H   0  0  0  0  0  0  0  0  0  0  0  0
  151.0449  138.6118  158.3634 H   0  0  0  0  0  0  0  0  0  0  0  0
  153.4743  138.7260  157.7555 H   0  0  0  0  0  0  0  0  0  0  0  0
  152.6390  139.2685  153.7638 H   0  0  0  0  0  0  0  0  0  0  0  0
  144.3399  134.9740  151.3615 H   0  0  0  0  0  0  0  0  0  0  0  0
  145.2946  135.9728  150.2922 H   0  0  0  0  0  0  0  0  0  0  0  0
  146.8687  134.1606  149.8422 H   0  0  0  0  0  0  0  0  0  0  0  0
  145.2513  133.6244  149.4765 H   0  0  0  0  0  0  0  0  0  0  0  0
  147.1452  135.7094  151.7896 H   0  0  0  0  0  0  0  0  0  0  0  0
  1  2  1  0  0  0  0
  1 22  1  0  0  0  0
  1 23  1  0  0  0  0
  1 24  1  0  0  0  0
  2 21  1  0  0  0  0
  2  3  1  0  0  0  0
  2 25  1  0  0  0  0
  3  4  1  0  0  0  0
  3 26  1  0  0  0  0
  3 27  1  0  0  0  0
  4  5  1  0  0  0  0
  4 28  1  0  0  0  0
  4 29  1  0  0  0  0
  5  6  1  0  0  0  0
  5 20  1  0  0  0  0
  5 46  1  0  0  0  0
  6  7  1  0  0  0  0
  6 30  1  0  0  0  0
  6 31  1  0  0  0  0
  7  8  1  0  0  0  0
  7  9  1  0  0  0  0
  7 32  1  0  0  0  0
  8 33  1  0  0  0  0
  9 10  1  0  0  0  0
  9 34  1  0  0  0  0
  9 35  1  0  0  0  0
 10 11  1  0  0  0  0
 10 36  1  0  0  0  0
 11 12  2  0  0  0  0
 11 13  1  0  0  0  0
 13 14  1  0  0  0  0
 13 37  1  0  0  0  0
 14 19  1  0  0  0  0
 14 15  2  0  0  0  0
 15 16  1  0  0  0  0
 15 38  1  0  0  0  0
 16 17  2  0  0  0  0
 16 39  1  0  0  0  0
 17 18  1  0  0  0  0
 17 40  1  0  0  0  0
 18 19  2  0  0  0  0
 19 41  1  0  0  0  0
 20 21  1  0  0  0  0
 20 42  1  0  0  0  0
 20 43  1  0  0  0  0
 21 44  1  0  0  0  0
 21 45  1  0  0  0  0
M  CHG  1   5   1
M  END
> <s_m_source_file>
AV-unprocessed.smi

> <i_m_source_file_index>
1048

> <i_lp_mmshare_version>
43012

> <i_f3d_flags>
0

> <s_epik_input>
W0NIM11bQ0hdMVtDSDJdW0NIMl1OKFtDSDJdW0NIMl0xKVtDSDJdW0NASF0oW09IXSlbQ0gyXVtOSF1DKD1PKVtOSF1jMltjSF1bY0hdW2NIXW5bY0hdMg==

> <s_epik_cmdline>
J2VwaWtfcHl0aG9uJywgJy1waCcsICc3LjAnLCAnLXRuJywgJzgnLCAnLW1hJywgJzIwMCcsICctbWV0YWxfYmluZGluZycsICctaW1hZScsICc8aW5maWxlLm1hZT4nLCAnLW9tYWUnLCAnPG91dGZpbGUubWFlPic=

> <r_lp_tautomer_probability>
1

> <r_epik_Ionization_Penalty>
0.00581049

> <r_epik_Ionization_Penalty_Charging>
0.00147689

> <r_epik_Ionization_Penalty_Neutral>
0.0043336

> <r_epik_State_Penalty>
-0

> <r_epik_Charging_Adjusted_Penalty>
0.00147689

> <i_epik_Tot_Q>
1

> <i_epik_Tot_abs_Q>
1

> <r_epik_Metal_State_Penalty>
-0

> <b_epik_Metal_Only>
0

> <s_lp_Force_Field>
OPLS_2005

> <r_lp_Energy>
24.4675

> <b_lp_Chiralities_Consistent>
1

> <s_lp_Variant>
AV-unprocessed.smi:1048-3

> <Gold.Version>
5.8.1

> <Gold.Id.Protein>
6NUR|6NUR_protein|mol2

> <Gold.PLP.Fitness>
48.4221

> <Gold.PLP.PLP>
-31.9660

> <Gold.PLP.part.hbond>
-5.7064

> <Gold.PLP.part.metal>
0.0000

> <Gold.PLP.part.buried>
0.3396

> <Gold.PLP.part.nonpolar>
-26.6937

> <Gold.PLP.part.repulsive>
0.2576

> <Gold.PLP.ligand.clash>
0.0000

> <Gold.PLP.ligand.torsion>
0.9558

> <Gold.PLP.Chemscore.Hbond>
6.0995

> <Gold.PLP.Chemscore.CHOScore>
0.0000

> <Gold.PLP.Chemscore.Metal>
0.0000

> <Gold.Chemscore.Hbonds>
donor molecule, donor type, donor heavy atom, donor atom, acceptor molecule, acceptor atom, score
      L1  H     5    46       P1  7948  2.00
      L1  H     8    33       P1  7948  1.00
      L1  H    10    36       P1  7957  1.00
      L1  H    13    37       P1  7957  0.77
      P1  H  7954  7966       L1     8  0.40
      P1  H  7997  8008       L1    18  1.00

> <Gold.PLP.Chemscore.Internal.Correction>
0.0692

> <Gold.Rescore>
     Score         DG    S(hbond)    S(metal)    S(lipo)     H(rot)  DE(clash)    DE(int)     intcor
     20.38     -23.38       4.23        0.00      82.31       2.29       0.69       2.31       ----

> <Gold.Chemscore.Fitness>
20.3789

> <Gold.Chemscore.DG>
-23.3783

> <Gold.Chemscore.ZeroCoef>
-5.4800

> <Gold.Chemscore.Hbond>
4.2281

> <Gold.Chemscore.Metal>
0.0000

> <Gold.Chemscore.Lipo>
82.3066

> <Gold.Chemscore.Internal_Hbond>
0.0000

> <Gold.Chemscore.DEClash>
0.6933

> <Gold.Chemscore.DEInternal>
2.3061

> <Gold.Chemscore.Rot>
2.2865

> <Gold.Chemscore.Internal.Correction>
   9.000000E+99

> <Gold.Chemscore.Hbonds>
donor molecule, donor type, donor heavy atom, donor atom, acceptor molecule, acceptor atom, score
      L1  H     5    46       P1  7948  0.99
      L1  H     8    33       P1  7948  0.95
      L1  H    10    36       P1  7957  0.93
      L1  H    13    37       P1  7957  0.71
      P1  H  7954  7966       L1     8  0.01
      P1  H  7997  8008       L1    18  0.29

> <Gold.Chemscore.Hbond.Weighted>
-14.1219

> <Gold.Chemscore.Metal.Weighted>
-0.0000

> <Gold.Chemscore.Lipo.Weighted>
-9.6299

> <Gold.Chemscore.Internal_Hbond.Weighted>
0.0000

> <Gold.Chemscore.DEClash.Weighted>
0.6933

> <Gold.Chemscore.DEInternal.Weighted>
2.3061

> <Gold.Chemscore.Rot.Weighted>
5.8536

> <Gold.Chemscore.Internal.Correction.Weighted>
   9.000000E+99

> <Gold.Protein.RotatedTorsions>
[ 6907 6896 6895 6894 ] final  161.79 input  -60.11 | X-H torsion
[ 7974 7965 7964 7962 ] final   69.39 input  175.53 | X-H torsion
[ 8008 7997 7996 7995 ] final  -20.24 input   59.86 | X-H torsion
[ 10167 10162 10161 10158 ] final -140.47 input  -65.29 | X-H torsion
[ 10718 10713 10712 10709 ] final   51.48 input   66.30 | X-H torsion
[ 10763 10752 10751 10750 ] final   -7.33 input  -60.55 | X-H torsion
[ 11005 11000 10999 10996 ] final   80.98 input  -57.11 | X-H torsion

> <Gold.Protein.ActiveResidues>
 VAL166  LYS551  ARG553  GLY616  TRP617  ASP618  TYR619  PRO620  LYS621  CYS622 
 ASP623  PHE694  ASN695  SER759  ASP760  ASP761  ALA762  ILE779  LEU786  VAL792 
 PHE793  MET794  SER795  GLU796  ALA797  LYS798  CYS799  TRP800  GLU811  SER814 

> <Gold.Protein.RotatedAtoms>
  151.9503  133.3664  159.3997 H   0  0  0  0  0  0  0  0  0  0  0  0  # atno 6907 bound_to 6896
  150.6982  134.4347  159.5274 H   0  0  0  0  0  0  0  0  0  0  0  0  # atno 6908 bound_to 6896
  152.2019  134.8580  160.0558 H   0  0  0  0  0  0  0  0  0  0  0  0  # atno 6909 bound_to 6896
  145.7910  139.2934  143.1210 H   0  0  0  0  0  0  0  0  0  0  0  0  # atno 7974 bound_to 7965
  154.4783  140.2067  155.9826 H   0  0  0  0  0  0  0  0  0  0  0  0  # atno 8008 bound_to 7997
  156.1124  140.3227  155.8061 H   0  0  0  0  0  0  0  0  0  0  0  0  # atno 8009 bound_to 7997
  155.4612  140.0524  157.2981 H   0  0  0  0  0  0  0  0  0  0  0  0  # atno 8010 bound_to 7997
  139.8278  143.7487  152.2666 H   0  0  0  0  0  0  0  0  0  0  0  0  # atno 10167 bound_to 10162
  157.4985  130.8422  149.8287 H   0  0  0  0  0  0  0  0  0  0  0  0  # atno 10718 bound_to 10713
  153.4248  135.7011  153.6269 H   0  0  0  0  0  0  0  0  0  0  0  0  # atno 10763 bound_to 10752
  153.4709  135.3715  155.2390 H   0  0  0  0  0  0  0  0  0  0  0  0  # atno 10764 bound_to 10752
  154.8723  135.4042  154.3623 H   0  0  0  0  0  0  0  0  0  0  0  0  # atno 10765 bound_to 10752
  139.9114  134.7962  156.1980 H   0  0  0  0  0  0  0  0  0  0  0  0  # atno 11005 bound_to 11000
  145.9977  140.8548  143.0034 LP  0  0  0  0  0  0  0  0  0  0  0  0  # atno 17320 bound_to 7965
  144.6782  140.2307  143.7355 LP  0  0  0  0  0  0  0  0  0  0  0  0  # atno 17321 bound_to 7965
  139.7685  144.7484  151.0259 LP  0  0  0  0  0  0  0  0  0  0  0  0  # atno 17342 bound_to 10162
  140.7809  143.4671  151.0197 LP  0  0  0  0  0  0  0  0  0  0  0  0  # atno 17343 bound_to 10162
  156.0215  130.3794  150.1949 LP  0  0  0  0  0  0  0  0  0  0  0  0  # atno 17370 bound_to 10713
  157.0138  130.9959  151.3358 LP  0  0  0  0  0  0  0  0  0  0  0  0  # atno 17371 bound_to 10713
  141.0542  133.6873  156.1829 LP  0  0  0  0  0  0  0  0  0  0  0  0  # atno 17394 bound_to 11000
  140.6763  134.4815  157.5588 LP  0  0  0  0  0  0  0  0  0  0  0  0  # atno 17395 bound_to 11000

$$$$
