AV-unprocessed.smi:72|AV-procd|sdf|665|dock5
  -GOLD-   2262016563D 1   1.00000     0.00000
 Structure written by MMmdl.
 29 30  0  0  0  0  0  0  0  0  1 V2000
  151.8501  136.7047  153.7622 N   0  0  0  0  0  0  0  0  0  0  0  0
  151.6042  137.8422  154.3075 C   0  0  0  0  0  0  0  0  0  0  0  0
  152.4659  138.5280  155.1761 N   0  0  0  0  0  0  0  0  0  0  0  0
  152.0788  139.6632  155.6711 C   0  0  0  0  0  0  0  0  0  0  0  0
  150.7731  140.2387  155.3706 N   0  0  0  0  0  0  0  0  0  0  0  0
  150.3091  141.5715  155.9366 C   0  0  2  0  0  0  0  0  0  0  0  0
  151.2684  142.0747  156.8219 O   0  0  0  0  0  0  0  0  0  0  0  0
  150.8985  141.7634  158.1622 C   0  0  1  0  0  0  0  0  0  0  0  0
  151.6680  142.6330  159.1716 C   0  0  0  0  0  0  0  0  0  0  0  0
  151.5111  143.9984  158.8485 O   0  0  0  0  0  0  0  0  0  0  0  0
  149.3815  141.9687  158.1246 C   0  0  1  0  0  0  0  0  0  0  0  0
  149.0634  143.3455  158.2504 O   0  0  0  0  0  0  0  0  0  0  0  0
  149.0093  141.4010  156.7549 C   0  0  1  0  0  0  0  0  0  0  0  0
  147.8933  142.0560  156.1812 O   0  0  0  0  0  0  0  0  0  0  0  0
  149.9132  139.5773  154.4589 C   0  0  0  0  0  0  0  0  0  0  0  0
  148.8208  140.0389  154.1295 O   0  0  0  0  0  0  0  0  0  0  0  0
  150.3644  138.4011  153.9731 N   0  0  0  0  0  0  0  0  0  0  0  0
  150.2208  142.2351  155.0744 H   0  0  0  0  0  0  0  0  0  0  0  0
  151.0918  140.7069  158.3581 H   0  0  0  0  0  0  0  0  0  0  0  0
  148.8807  141.4305  158.9301 H   0  0  0  0  0  0  0  0  0  0  0  0
  148.7837  140.3386  156.8608 H   0  0  0  0  0  0  0  0  0  0  0  0
  151.0793  136.4184  153.1768 H   0  0  0  0  0  0  0  0  0  0  0  0
  152.7120  140.2475  156.3386 H   0  0  0  0  0  0  0  0  0  0  0  0
  151.3371  142.4459  160.1937 H   0  0  0  0  0  0  0  0  0  0  0  0
  152.7337  142.4070  159.1263 H   0  0  0  0  0  0  0  0  0  0  0  0
  151.8805  144.1480  157.9916 H   0  0  0  0  0  0  0  0  0  0  0  0
  149.1004  143.7365  157.3906 H   0  0  0  0  0  0  0  0  0  0  0  0
  148.0250  142.9893  156.2577 H   0  0  0  0  0  0  0  0  0  0  0  0
  149.7669  137.9042  153.3286 H   0  0  0  0  0  0  0  0  0  0  0  0
  1  2  2  0  0  0  0
  1 22  1  0  0  0  0
  2 17  1  0  0  0  0
  2  3  1  0  0  0  0
  3  4  2  0  0  0  0
  4  5  1  0  0  0  0
  4 23  1  0  0  0  0
  5  6  1  0  0  0  0
  5 15  1  0  0  0  0
  6 18  1  0  0  0  0
  6 13  1  0  0  0  0
  6  7  1  0  0  0  0
  7  8  1  0  0  0  0
  8 19  1  0  0  0  0
  8  9  1  0  0  0  0
  8 11  1  0  0  0  0
  9 10  1  0  0  0  0
  9 24  1  0  0  0  0
  9 25  1  0  0  0  0
 10 26  1  0  0  0  0
 11 20  1  0  0  0  0
 11 12  1  0  0  0  0
 11 13  1  0  0  0  0
 12 27  1  0  0  0  0
 13 21  1  0  0  0  0
 13 14  1  0  0  0  0
 14 28  1  0  0  0  0
 15 16  2  0  0  0  0
 15 17  1  0  0  0  0
 17 29  1  0  0  0  0
M  END
> <s_m_source_file>
AV-unprocessed.smi

> <i_m_source_file_index>
72

> <i_lp_mmshare_version>
43012

> <i_f3d_flags>
0

> <s_epik_input>
W05IMl1jMW5bY0hdbihjKD1PKW4xKVtDQEBIXTJPW0NASF0oW0NIMl1bT0hdKVtDQEBIXShbT0hdKVtDQEhdMltPSF0=

> <s_epik_cmdline>
J2VwaWtfcHl0aG9uJywgJy1waCcsICc3LjAnLCAnLXRuJywgJzgnLCAnLW1hJywgJzIwMCcsICctbWV0YWxfYmluZGluZycsICctaW1hZScsICc8aW5maWxlLm1hZT4nLCAnLW9tYWUnLCAnPG91dGZpbGUubWFlPic=

> <r_lp_tautomer_probability>
7.17554e-07

> <r_epik_Ionization_Penalty>
0.0066451

> <r_epik_Ionization_Penalty_Charging>
0.00663793

> <r_epik_Ionization_Penalty_Neutral>
7.17052e-06

> <r_epik_State_Penalty>
0.419231

> <r_epik_Charging_Adjusted_Penalty>
0.425868

> <i_epik_Tot_Q>
0

> <i_epik_Tot_abs_Q>
0

> <r_epik_Metal_State_Penalty>
1.44144

> <b_epik_Metal_Only>
0

> <s_epik_Chemistry_Notes>
This compound contains an acetal/aminal-like group ( X-CH(R)-Y where X, Y are N, S, or O) that may be acid/base labile, releasing an aldehyde.

> <s_lp_Force_Field>
OPLS_2005

> <r_lp_Energy>
42.7632

> <b_lp_Chiralities_Consistent>
1

> <s_lp_Variant>
AV-unprocessed.smi:72-3

> <Gold.Version>
5.8.1

> <Gold.Id.Protein>
6NUR|6NUR_protein|mol2

> <Gold.PLP.Fitness>
39.3708

> <Gold.PLP.PLP>
-27.7853

> <Gold.PLP.part.hbond>
-5.0904

> <Gold.PLP.part.metal>
0.0000

> <Gold.PLP.part.buried>
-3.6558

> <Gold.PLP.part.nonpolar>
-19.6322

> <Gold.PLP.part.repulsive>
0.8012

> <Gold.PLP.ligand.clash>
0.0000

> <Gold.PLP.ligand.torsion>
0.0233

> <Gold.PLP.Chemscore.Hbond>
3.8695

> <Gold.PLP.Chemscore.CHOScore>
0.0000

> <Gold.PLP.Chemscore.Metal>
0.0000

> <Gold.Chemscore.Hbonds>
donor molecule, donor type, donor heavy atom, donor atom, acceptor molecule, acceptor atom, score
      L1  H     1    22       P1  7949  0.53
      L1  H    12    27       P1  8028  1.00
      L1  H    14    28       P1  8028  1.00
      L1  H    17    29       P1  7948  0.26
      P1  H 10752 10763       L1     1  0.98

> <Gold.PLP.Chemscore.Internal.Correction>
0.0236

> <Gold.Rescore>
     Score         DG    S(hbond)    S(metal)    S(lipo)     H(rot)  DE(clash)    DE(int)     intcor
      5.46      -7.77       2.99        0.00      23.21       4.06       0.19       2.12       ----

> <Gold.Chemscore.Fitness>
5.4616

> <Gold.Chemscore.DG>
-7.7734

> <Gold.Chemscore.ZeroCoef>
-5.4800

> <Gold.Chemscore.Hbond>
2.9855

> <Gold.Chemscore.Metal>
0.0000

> <Gold.Chemscore.Lipo>
23.2087

> <Gold.Chemscore.Internal_Hbond>
0.0000

> <Gold.Chemscore.DEClash>
0.1934

> <Gold.Chemscore.DEInternal>
2.1184

> <Gold.Chemscore.Rot>
4.0600

> <Gold.Chemscore.Internal.Correction>
   9.000000E+99

> <Gold.Chemscore.Hbonds>
donor molecule, donor type, donor heavy atom, donor atom, acceptor molecule, acceptor atom, score
      L1  H     1    22       P1  7949  0.18
      L1  H    12    27       P1  8028  0.25
      L1  H    14    28       P1  8028  0.46
      L1  H    17    29       P1  7948  0.19
      P1  H 10752 10763       L1     1  0.91

> <Gold.Chemscore.Hbond.Weighted>
-9.9716

> <Gold.Chemscore.Metal.Weighted>
-0.0000

> <Gold.Chemscore.Lipo.Weighted>
-2.7154

> <Gold.Chemscore.Internal_Hbond.Weighted>
0.0000

> <Gold.Chemscore.DEClash.Weighted>
0.1934

> <Gold.Chemscore.DEInternal.Weighted>
2.1184

> <Gold.Chemscore.Rot.Weighted>
10.3936

> <Gold.Chemscore.Internal.Correction.Weighted>
   9.000000E+99

> <Gold.Protein.RotatedTorsions>
[ 6907 6896 6895 6894 ] final -142.57 input  -60.11 | X-H torsion
[ 7974 7965 7964 7962 ] final  -76.89 input  175.53 | X-H torsion
[ 8008 7997 7996 7995 ] final  -60.16 input   59.86 | X-H torsion
[ 10167 10162 10161 10158 ] final   44.19 input  -65.29 | X-H torsion
[ 10718 10713 10712 10709 ] final   95.91 input   66.30 | X-H torsion
[ 10763 10752 10751 10750 ] final   48.90 input  -60.55 | X-H torsion
[ 11005 11000 10999 10996 ] final  153.25 input  -57.11 | X-H torsion

> <Gold.Protein.ActiveResidues>
 VAL166  LYS551  ARG553  GLY616  TRP617  ASP618  TYR619  PRO620  LYS621  CYS622 
 ASP623  PHE694  ASN695  SER759  ASP760  ASP761  ALA762  ILE779  LEU786  VAL792 
 PHE793  MET794  SER795  GLU796  ALA797  LYS798  CYS799  TRP800  GLU811  SER814 

> <Gold.Protein.RotatedAtoms>
  151.0888  133.5332  159.2615 H   0  0  0  0  0  0  0  0  0  0  0  0  # atno 6907 bound_to 6896
  151.2207  135.0517  159.8958 H   0  0  0  0  0  0  0  0  0  0  0  0  # atno 6908 bound_to 6896
  152.5432  134.0691  159.8239 H   0  0  0  0  0  0  0  0  0  0  0  0  # atno 6909 bound_to 6896
  145.6070  140.9395  143.1210 H   0  0  0  0  0  0  0  0  0  0  0  0  # atno 7974 bound_to 7965
  154.4386  140.1045  156.6230 H   0  0  0  0  0  0  0  0  0  0  0  0  # atno 8008 bound_to 7997
  155.5687  140.3489  155.4491 H   0  0  0  0  0  0  0  0  0  0  0  0  # atno 8009 bound_to 7997
  156.0406  140.1281  157.0149 H   0  0  0  0  0  0  0  0  0  0  0  0  # atno 8010 bound_to 7997
  140.3367  144.2521  150.6160 H   0  0  0  0  0  0  0  0  0  0  0  0  # atno 10167 bound_to 10162
  157.6933  131.0561  150.4411 H   0  0  0  0  0  0  0  0  0  0  0  0  # atno 10718 bound_to 10713
  152.9789  135.5929  154.4001 H   0  0  0  0  0  0  0  0  0  0  0  0  # atno 10763 bound_to 10752
  154.3647  135.2767  155.2302 H   0  0  0  0  0  0  0  0  0  0  0  0  # atno 10764 bound_to 10752
  154.4283  135.6042  153.6108 H   0  0  0  0  0  0  0  0  0  0  0  0  # atno 10765 bound_to 10752
  140.1381  134.8757  157.2294 H   0  0  0  0  0  0  0  0  0  0  0  0  # atno 11005 bound_to 11000
  144.7286  139.7797  143.7356 LP  0  0  0  0  0  0  0  0  0  0  0  0  # atno 17320 bound_to 7965
  146.1533  139.4623  143.0034 LP  0  0  0  0  0  0  0  0  0  0  0  0  # atno 17321 bound_to 7965
  140.5347  143.2236  151.8183 LP  0  0  0  0  0  0  0  0  0  0  0  0  # atno 17342 bound_to 10162
  139.4847  144.4677  151.9464 LP  0  0  0  0  0  0  0  0  0  0  0  0  # atno 17343 bound_to 10162
  156.4770  130.4065  149.6484 LP  0  0  0  0  0  0  0  0  0  0  0  0  # atno 17370 bound_to 10713
  156.3544  130.7449  151.2412 LP  0  0  0  0  0  0  0  0  0  0  0  0  # atno 17371 bound_to 10713
  140.2757  134.3408  155.7359 LP  0  0  0  0  0  0  0  0  0  0  0  0  # atno 17394 bound_to 11000
  141.2181  133.7449  156.9289 LP  0  0  0  0  0  0  0  0  0  0  0  0  # atno 17395 bound_to 11000

$$$$
