AV-unprocessed.smi:1007|AV-procd|sdf|4404|dock9
  -GOLD-   22720 2343D 1   1.00000     0.00000
 Structure written by MMmdl.
 57 59  0  0  0  0  0  0  0  0  3 V2000
  148.9726  132.2104  153.4596 C   0  0  0  0  0  0  0  0  0  0  0  0
  148.3490  133.4820  153.4170 O   0  0  0  0  0  0  0  0  0  0  0  0
  147.4951  133.7063  154.5266 C   0  0  0  0  0  0  0  0  0  0  0  0
  147.0384  135.1730  154.5139 C   0  0  0  0  0  0  0  0  0  0  0  0
  148.1774  136.1231  154.4529 N   0  3  0  0  0  0  0  0  0  0  0  0
  149.3190  135.7451  155.3283 C   0  0  0  0  0  0  0  0  0  0  0  0
  150.4746  136.7531  155.1646 C   0  0  0  0  0  0  0  0  0  0  0  0
  150.0824  138.1381  155.4391 N   0  0  0  0  0  0  0  0  0  0  0  0
  149.8128  138.4331  156.8515 C   0  0  0  0  0  0  0  0  0  0  0  0
  151.0380  138.3741  157.7843 C   0  0  2  0  0  0  0  0  0  0  0  0
  150.6007  138.6594  159.0978 O   0  0  0  0  0  0  0  0  0  0  0  0
  152.1335  139.3859  157.3913 C   0  0  0  0  0  0  0  0  0  0  0  0
  151.6063  140.7435  157.2063 N   0  0  0  0  0  0  0  0  0  0  0  0
  150.9168  141.2815  156.1642 C   0  0  0  0  0  0  0  0  0  0  0  0
  150.6430  142.5778  156.4801 N   0  3  0  0  0  0  0  0  0  0  0  0
  151.1656  142.8706  157.7419 C   0  0  0  0  0  0  0  0  0  0  0  0
  151.1416  144.0416  158.4902 C   0  0  0  0  0  0  0  0  0  0  0  0
  151.7698  144.0114  159.7560 C   0  0  0  0  0  0  0  0  0  0  0  0
  151.7573  145.2734  160.6017 C   0  0  0  0  0  0  0  0  0  0  0  0
  152.3985  142.8312  160.2317 C   0  0  0  0  0  0  0  0  0  0  0  0
  153.0725  142.8105  161.5931 C   0  0  0  0  0  0  0  0  0  0  0  0
  152.4128  141.6506  159.4551 C   0  0  0  0  0  0  0  0  0  0  0  0
  151.7868  141.6977  158.2122 C   0  0  0  0  0  0  0  0  0  0  0  0
  148.9600  138.4821  154.5666 C   0  0  0  0  0  0  0  0  0  0  0  0
  147.7591  137.5248  154.7121 C   0  0  0  0  0  0  0  0  0  0  0  0
  149.6169  132.0888  152.5889 H   0  0  0  0  0  0  0  0  0  0  0  0
  148.2341  131.4078  153.4459 H   0  0  0  0  0  0  0  0  0  0  0  0
  149.5900  132.1035  154.3525 H   0  0  0  0  0  0  0  0  0  0  0  0
  146.6217  133.0570  154.4484 H   0  0  0  0  0  0  0  0  0  0  0  0
  147.9980  133.4511  155.4595 H   0  0  0  0  0  0  0  0  0  0  0  0
  146.3929  135.3190  153.6465 H   0  0  0  0  0  0  0  0  0  0  0  0
  146.4271  135.3897  155.3912 H   0  0  0  0  0  0  0  0  0  0  0  0
  148.9931  135.6915  156.3677 H   0  0  0  0  0  0  0  0  0  0  0  0
  149.6812  134.7524  155.0646 H   0  0  0  0  0  0  0  0  0  0  0  0
  151.3167  136.4599  155.7895 H   0  0  0  0  0  0  0  0  0  0  0  0
  150.8447  136.6913  154.1401 H   0  0  0  0  0  0  0  0  0  0  0  0
  149.3864  139.4347  156.9257 H   0  0  0  0  0  0  0  0  0  0  0  0
  149.0445  137.7609  157.2328 H   0  0  0  0  0  0  0  0  0  0  0  0
  151.4506  137.3660  157.8042 H   0  0  0  0  0  0  0  0  0  0  0  0
  151.1830  139.2987  159.4795 H   0  0  0  0  0  0  0  0  0  0  0  0
  152.9239  139.4254  158.1416 H   0  0  0  0  0  0  0  0  0  0  0  0
  152.6108  139.0868  156.4569 H   0  0  0  0  0  0  0  0  0  0  0  0
  150.6325  140.7705  155.2555 H   0  0  0  0  0  0  0  0  0  0  0  0
  150.6617  144.9364  158.1216 H   0  0  0  0  0  0  0  0  0  0  0  0
  152.7744  145.6123  160.7993 H   0  0  0  0  0  0  0  0  0  0  0  0
  151.2611  145.0905  161.5552 H   0  0  0  0  0  0  0  0  0  0  0  0
  151.2272  146.0843  160.1013 H   0  0  0  0  0  0  0  0  0  0  0  0
  153.5190  141.8379  161.8027 H   0  0  0  0  0  0  0  0  0  0  0  0
  152.3499  143.0224  162.3814 H   0  0  0  0  0  0  0  0  0  0  0  0
  153.8658  143.5570  161.6397 H   0  0  0  0  0  0  0  0  0  0  0  0
  152.8906  140.7516  159.8152 H   0  0  0  0  0  0  0  0  0  0  0  0
  148.6415  139.5075  154.7582 H   0  0  0  0  0  0  0  0  0  0  0  0
  149.2990  138.4670  153.5297 H   0  0  0  0  0  0  0  0  0  0  0  0
  146.9860  137.8109  153.9981 H   0  0  0  0  0  0  0  0  0  0  0  0
  147.3142  137.6038  155.7047 H   0  0  0  0  0  0  0  0  0  0  0  0
  148.5162  136.1049  153.5010 H   0  0  0  0  0  0  0  0  0  0  0  0
  150.1335  143.2120  155.8783 H   0  0  0  0  0  0  0  0  0  0  0  0
  1  2  1  0  0  0  0
  1 26  1  0  0  0  0
  1 27  1  0  0  0  0
  1 28  1  0  0  0  0
  2  3  1  0  0  0  0
  3  4  1  0  0  0  0
  3 29  1  0  0  0  0
  3 30  1  0  0  0  0
  4  5  1  0  0  0  0
  4 31  1  0  0  0  0
  4 32  1  0  0  0  0
  5 25  1  0  0  0  0
  5  6  1  0  0  0  0
  5 56  1  0  0  0  0
  6  7  1  0  0  0  0
  6 33  1  0  0  0  0
  6 34  1  0  0  0  0
  7  8  1  0  0  0  0
  7 35  1  0  0  0  0
  7 36  1  0  0  0  0
  8  9  1  0  0  0  0
  8 24  1  0  0  0  0
  9 10  1  0  0  0  0
  9 37  1  0  0  0  0
  9 38  1  0  0  0  0
 10 11  1  0  0  0  0
 10 12  1  0  0  0  0
 10 39  1  0  0  0  0
 11 40  1  0  0  0  0
 12 13  1  0  0  0  0
 12 41  1  0  0  0  0
 12 42  1  0  0  0  0
 13 23  1  0  0  0  0
 13 14  1  0  0  0  0
 14 15  2  0  0  0  0
 14 43  1  0  0  0  0
 15 16  1  0  0  0  0
 15 57  1  0  0  0  0
 16 23  2  0  0  0  0
 16 17  1  0  0  0  0
 17 18  2  0  0  0  0
 17 44  1  0  0  0  0
 18 19  1  0  0  0  0
 18 20  1  0  0  0  0
 19 45  1  0  0  0  0
 19 46  1  0  0  0  0
 19 47  1  0  0  0  0
 20 21  1  0  0  0  0
 20 22  2  0  0  0  0
 21 48  1  0  0  0  0
 21 49  1  0  0  0  0
 21 50  1  0  0  0  0
 22 23  1  0  0  0  0
 22 51  1  0  0  0  0
 24 25  1  0  0  0  0
 24 52  1  0  0  0  0
 24 53  1  0  0  0  0
 25 54  1  0  0  0  0
 25 55  1  0  0  0  0
M  CHG  1   5   1
M  CHG  1  15   1
M  END
> <s_m_source_file>
AV-unprocessed.smi

> <i_m_source_file_index>
1007

> <i_lp_mmshare_version>
43012

> <i_f3d_flags>
0

> <s_epik_input>
W0NIM11PW0NIMl1bQ0gyXU4xW0NIMl1bQ0gyXU4oW0NIMl1bQ0gyXTEpW0NIMl1bQ0BIXShbT0hdKVtDSDJdbihbY0hdbjIpYyhjMjMpW2NIXWMoW0NIM10pYyhbY0hdMylbQ0gzXQ==

> <s_epik_cmdline>
J2VwaWtfcHl0aG9uJywgJy1waCcsICc3LjAnLCAnLXRuJywgJzgnLCAnLW1hJywgJzIwMCcsICctbWV0YWxfYmluZGluZycsICctaW1hZScsICc8aW5maWxlLm1hZT4nLCAnLW9tYWUnLCAnPG91dGZpbGUubWFlPic=

> <r_epik_Ionization_Penalty>
1.34507

> <r_epik_Ionization_Penalty_Charging>
1.29906

> <r_epik_Ionization_Penalty_Neutral>
0.0460038

> <r_epik_State_Penalty>
2.55679

> <r_epik_Charging_Adjusted_Penalty>
3.85586

> <i_epik_Tot_Q>
2

> <i_epik_Tot_abs_Q>
2

> <r_epik_Metal_State_Penalty>
6.56928

> <b_epik_Metal_Only>
0

> <s_lp_Force_Field>
OPLS_2005

> <r_lp_Energy>
40.0573

> <b_lp_Chiralities_Consistent>
1

> <s_lp_Variant>
AV-unprocessed.smi:1007-7

> <Gold.Version>
5.8.1

> <Gold.Id.Protein>
6NUR|6NUR_protein|mol2

> <Gold.PLP.Fitness>
55.2913

> <Gold.PLP.PLP>
-44.3612

> <Gold.PLP.part.hbond>
-2.6113

> <Gold.PLP.part.metal>
0.0000

> <Gold.PLP.part.buried>
-7.3523

> <Gold.PLP.part.nonpolar>
-34.8866

> <Gold.PLP.part.repulsive>
0.3383

> <Gold.PLP.ligand.clash>
0.0000

> <Gold.PLP.ligand.torsion>
0.4818

> <Gold.PLP.Chemscore.Hbond>
3.9200

> <Gold.PLP.Chemscore.CHOScore>
0.0000

> <Gold.PLP.Chemscore.Metal>
0.0000

> <Gold.Chemscore.Hbonds>
donor molecule, donor type, donor heavy atom, donor atom, acceptor molecule, acceptor atom, score
      L1  H     5    56       P1  7948  2.00
      L1  H    15    57       P1  8028  2.00

> <Gold.PLP.Chemscore.Internal.Correction>
0.1336

> <Gold.Rescore>
     Score         DG    S(hbond)    S(metal)    S(lipo)     H(rot)  DE(clash)    DE(int)     intcor
     19.26     -19.77       1.97        0.00     123.78       2.64       0.05       0.46       ----

> <Gold.Chemscore.Fitness>
19.2601

> <Gold.Chemscore.DG>
-19.7698

> <Gold.Chemscore.ZeroCoef>
-5.4800

> <Gold.Chemscore.Hbond>
1.9684

> <Gold.Chemscore.Metal>
0.0000

> <Gold.Chemscore.Lipo>
123.7758

> <Gold.Chemscore.Internal_Hbond>
0.0000

> <Gold.Chemscore.DEClash>
0.0543

> <Gold.Chemscore.DEInternal>
0.4553

> <Gold.Chemscore.Rot>
2.6432

> <Gold.Chemscore.Internal.Correction>
   9.000000E+99

> <Gold.Chemscore.Hbonds>
donor molecule, donor type, donor heavy atom, donor atom, acceptor molecule, acceptor atom, score
      L1  H     5    56       P1  7948  1.00
      L1  H    15    57       P1  8028  0.93

> <Gold.Chemscore.Hbond.Weighted>
-6.5745

> <Gold.Chemscore.Metal.Weighted>
-0.0000

> <Gold.Chemscore.Lipo.Weighted>
-14.4818

> <Gold.Chemscore.Internal_Hbond.Weighted>
0.0000

> <Gold.Chemscore.DEClash.Weighted>
0.0543

> <Gold.Chemscore.DEInternal.Weighted>
0.4553

> <Gold.Chemscore.Rot.Weighted>
6.7665

> <Gold.Chemscore.Internal.Correction.Weighted>
   9.000000E+99

> <Gold.Protein.RotatedTorsions>
[ 6907 6896 6895 6894 ] final   62.55 input  -60.11 | X-H torsion
[ 7974 7965 7964 7962 ] final   22.37 input  175.53 | X-H torsion
[ 8008 7997 7996 7995 ] final    6.44 input   59.86 | X-H torsion
[ 10167 10162 10161 10158 ] final -103.58 input  -65.29 | X-H torsion
[ 10718 10713 10712 10709 ] final  -38.44 input   66.30 | X-H torsion
[ 10763 10752 10751 10750 ] final -132.78 input  -60.55 | X-H torsion
[ 11005 11000 10999 10996 ] final   -4.50 input  -57.11 | X-H torsion

> <Gold.Protein.ActiveResidues>
 VAL166  LYS551  ARG553  GLY616  TRP617  ASP618  TYR619  PRO620  LYS621  CYS622 
 ASP623  PHE694  ASN695  SER759  ASP760  ASP761  ALA762  ILE779  LEU786  VAL792 
 PHE793  MET794  SER795  GLU796  ALA797  LYS798  CYS799  TRP800  GLU811  SER814 

> <Gold.Protein.RotatedAtoms>
  152.4181  134.6004  159.9998 H   0  0  0  0  0  0  0  0  0  0  0  0  # atno 6907 bound_to 6896
  151.6162  133.3337  159.3086 H   0  0  0  0  0  0  0  0  0  0  0  0  # atno 6908 bound_to 6896
  150.8069  134.7239  159.6719 H   0  0  0  0  0  0  0  0  0  0  0  0  # atno 6909 bound_to 6896
  146.2032  139.7895  142.8746 H   0  0  0  0  0  0  0  0  0  0  0  0  # atno 7974 bound_to 7965
  154.7411  140.2749  155.6372 H   0  0  0  0  0  0  0  0  0  0  0  0  # atno 8008 bound_to 7997
  156.2874  140.2697  156.2065 H   0  0  0  0  0  0  0  0  0  0  0  0  # atno 8009 bound_to 7997
  155.0257  140.0371  157.2444 H   0  0  0  0  0  0  0  0  0  0  0  0  # atno 8010 bound_to 7997
  140.2184  143.3694  152.0991 H   0  0  0  0  0  0  0  0  0  0  0  0  # atno 10167 bound_to 10162
  156.3037  130.4243  149.8117 H   0  0  0  0  0  0  0  0  0  0  0  0  # atno 10718 bound_to 10713
  154.8740  135.3787  154.4465 H   0  0  0  0  0  0  0  0  0  0  0  0  # atno 10763 bound_to 10752
  153.5145  135.7029  153.5768 H   0  0  0  0  0  0  0  0  0  0  0  0  # atno 10764 bound_to 10752
  153.4043  135.3940  155.1974 H   0  0  0  0  0  0  0  0  0  0  0  0  # atno 10765 bound_to 10752
  140.6809  133.9154  155.8554 H   0  0  0  0  0  0  0  0  0  0  0  0  # atno 11005 bound_to 11000
  145.3413  141.0288  143.3391 LP  0  0  0  0  0  0  0  0  0  0  0  0  # atno 17320 bound_to 7965
  144.8730  139.5011  143.6759 LP  0  0  0  0  0  0  0  0  0  0  0  0  # atno 17321 bound_to 7965
  139.5153  144.6961  151.5626 LP  0  0  0  0  0  0  0  0  0  0  0  0  # atno 17342 bound_to 10162
  140.6273  143.9144  150.6575 LP  0  0  0  0  0  0  0  0  0  0  0  0  # atno 17343 bound_to 10162
  156.5486  130.8332  151.3292 LP  0  0  0  0  0  0  0  0  0  0  0  0  # atno 17370 bound_to 10713
  157.7374  130.9796  150.2193 LP  0  0  0  0  0  0  0  0  0  0  0  0  # atno 17371 bound_to 10713
  141.0318  134.0745  157.4005 LP  0  0  0  0  0  0  0  0  0  0  0  0  # atno 17394 bound_to 11000
  139.8952  135.0140  156.6990 LP  0  0  0  0  0  0  0  0  0  0  0  0  # atno 17395 bound_to 11000

$$$$
