AV-unprocessed.smi:2358|AV-procd|sdf|9404|dock6
  -GOLD-   2272013 33D 1   1.00000     0.00000
 Structure written by MMmdl.
 45 47  0  0  0  0  0  0  0  0  1 V2000
  151.3372  145.3403  159.9458 C   0  0  0  0  0  0  0  0  0  0  0  0
  151.9716  144.0679  160.4686 C   0  0  0  0  0  0  0  0  0  0  0  0
  152.4814  144.0158  161.7812 C   0  0  0  0  0  0  0  0  0  0  0  0
  153.0684  142.8300  162.2638 C   0  0  0  0  0  0  0  0  0  0  0  0
  153.6094  142.7783  163.6775 C   0  0  0  0  0  0  0  0  0  0  0  0
  153.1445  141.6968  161.4286 C   0  0  0  0  0  0  0  0  0  0  0  0
  152.6425  141.7330  160.1117 C   0  0  0  0  0  0  0  0  0  0  0  0
  152.7618  140.5791  159.3670 O   0  0  0  0  0  0  0  0  0  0  0  0
  152.8459  139.3375  160.0543 C   0  0  0  0  0  0  0  0  0  0  0  0
  152.1394  138.2572  159.2166 C   0  0  1  0  0  0  0  0  0  0  0  0
  151.9268  137.1499  160.0703 O   0  0  0  0  0  0  0  0  0  0  0  0
  150.7639  138.7331  158.6972 C   0  0  0  0  0  0  0  0  0  0  0  0
  149.7879  137.6372  158.6527 N   0  0  0  0  0  0  0  0  0  0  0  0
  149.2758  137.2880  159.8912 N   0  0  0  0  0  0  0  0  0  0  0  0
  148.3969  136.3447  160.0011 C   0  0  0  0  0  0  0  0  0  0  0  0
  147.8190  135.9314  161.2641 N   0  0  0  0  0  0  0  0  0  0  0  0
  147.8091  136.8185  162.3385 C   0  0  0  0  0  0  0  0  0  0  0  0
  147.2039  136.1465  163.3773 C   0  0  0  0  0  0  0  0  0  0  0  0
  146.8402  134.8641  162.9671 N   0  0  0  0  0  0  0  0  0  0  0  0
  147.2357  134.8060  161.7014 C   0  0  0  0  0  0  0  0  0  0  0  0
  147.9376  135.6372  158.8181 C   0  0  0  0  0  0  0  0  0  0  0  0
  148.4393  135.9882  157.6142 C   0  0  0  0  0  0  0  0  0  0  0  0
  149.4278  137.0564  157.4702 C   0  0  0  0  0  0  0  0  0  0  0  0
  149.8892  137.4043  156.3839 O   0  0  0  0  0  0  0  0  0  0  0  0
  152.0540  142.9323  159.6370 C   0  0  0  0  0  0  0  0  0  0  0  0
  151.1261  146.0399  160.7551 H   0  0  0  0  0  0  0  0  0  0  0  0
  150.3980  145.1170  159.4388 H   0  0  0  0  0  0  0  0  0  0  0  0
  152.0038  145.8290  159.2352 H   0  0  0  0  0  0  0  0  0  0  0  0
  152.4223  144.8845  162.4208 H   0  0  0  0  0  0  0  0  0  0  0  0
  154.1855  141.8686  163.8492 H   0  0  0  0  0  0  0  0  0  0  0  0
  152.7888  142.8042  164.3947 H   0  0  0  0  0  0  0  0  0  0  0  0
  154.2597  143.6324  163.8675 H   0  0  0  0  0  0  0  0  0  0  0  0
  153.5929  140.7860  161.7983 H   0  0  0  0  0  0  0  0  0  0  0  0
  153.8806  139.0568  160.2600 H   0  0  0  0  0  0  0  0  0  0  0  0
  152.3344  139.4493  161.0115 H   0  0  0  0  0  0  0  0  0  0  0  0
  152.7787  137.9696  158.3805 H   0  0  0  0  0  0  0  0  0  0  0  0
  152.2811  137.3547  160.9224 H   0  0  0  0  0  0  0  0  0  0  0  0
  150.3972  139.5865  159.2713 H   0  0  0  0  0  0  0  0  0  0  0  0
  150.8712  139.1144  157.6802 H   0  0  0  0  0  0  0  0  0  0  0  0
  148.2130  137.8199  162.2958 H   0  0  0  0  0  0  0  0  0  0  0  0
  147.0033  136.4857  164.3830 H   0  0  0  0  0  0  0  0  0  0  0  0
  147.0936  133.9258  161.0922 H   0  0  0  0  0  0  0  0  0  0  0  0
  147.2085  134.8447  158.8906 H   0  0  0  0  0  0  0  0  0  0  0  0
  148.1015  135.4667  156.7306 H   0  0  0  0  0  0  0  0  0  0  0  0
  151.6568  143.0048  158.6360 H   0  0  0  0  0  0  0  0  0  0  0  0
  1  2  1  0  0  0  0
  1 26  1  0  0  0  0
  1 27  1  0  0  0  0
  1 28  1  0  0  0  0
  2 25  1  0  0  0  0
  2  3  2  0  0  0  0
  3  4  1  0  0  0  0
  3 29  1  0  0  0  0
  4  5  1  0  0  0  0
  4  6  2  0  0  0  0
  5 30  1  0  0  0  0
  5 31  1  0  0  0  0
  5 32  1  0  0  0  0
  6  7  1  0  0  0  0
  6 33  1  0  0  0  0
  7  8  1  0  0  0  0
  7 25  2  0  0  0  0
  8  9  1  0  0  0  0
  9 10  1  0  0  0  0
  9 34  1  0  0  0  0
  9 35  1  0  0  0  0
 10 11  1  0  0  0  0
 10 12  1  0  0  0  0
 10 36  1  0  0  0  0
 11 37  1  0  0  0  0
 12 13  1  0  0  0  0
 12 38  1  0  0  0  0
 12 39  1  0  0  0  0
 13 23  1  0  0  0  0
 13 14  1  0  0  0  0
 14 15  2  0  0  0  0
 15 16  1  0  0  0  0
 15 21  1  0  0  0  0
 16 20  1  0  0  0  0
 16 17  1  0  0  0  0
 17 18  2  0  0  0  0
 17 40  1  0  0  0  0
 18 19  1  0  0  0  0
 18 41  1  0  0  0  0
 19 20  2  0  0  0  0
 20 42  1  0  0  0  0
 21 22  2  0  0  0  0
 21 43  1  0  0  0  0
 22 23  1  0  0  0  0
 22 44  1  0  0  0  0
 23 24  2  0  0  0  0
 25 45  1  0  0  0  0
M  END
> <s_m_source_file>
AV-unprocessed.smi

> <i_m_source_file_index>
2358

> <i_lp_mmshare_version>
43012

> <i_f3d_flags>
0

> <s_epik_input>
W0NIM11jMVtjSF1jKFtDSDNdKVtjSF1jKFtjSF0xKU9bQ0gyXVtDQEhdKFtPSF0pW0NIMl1uMm5jKFtjSF1bY0hdYzI9TyktbjNbY0hdW2NIXW5bY0hdMw==

> <s_epik_cmdline>
J2VwaWtfcHl0aG9uJywgJy1waCcsICc3LjAnLCAnLXRuJywgJzgnLCAnLW1hJywgJzIwMCcsICctbWV0YWxfYmluZGluZycsICctaW1hZScsICc8aW5maWxlLm1hZT4nLCAnLW9tYWUnLCAnPG91dGZpbGUubWFlPic=

> <r_lp_tautomer_probability>
1

> <r_epik_Ionization_Penalty>
0.03707

> <r_epik_Ionization_Penalty_Charging>
0.0370699

> <r_epik_Ionization_Penalty_Neutral>
1.17174e-07

> <r_epik_State_Penalty>
0.0310055

> <r_epik_Charging_Adjusted_Penalty>
0.0680754

> <i_epik_Tot_Q>
0

> <i_epik_Tot_abs_Q>
0

> <r_epik_Metal_State_Penalty>
0.0291724

> <b_epik_Metal_Only>
0

> <s_lp_Force_Field>
OPLS_2005

> <r_lp_Energy>
35.3101

> <b_lp_Chiralities_Consistent>
1

> <s_lp_Variant>
AV-unprocessed.smi:2358-2

> <Gold.Version>
5.8.1

> <Gold.Id.Protein>
6NUR|6NUR_protein|mol2

> <Gold.PLP.Fitness>
54.2434

> <Gold.PLP.PLP>
-53.9032

> <Gold.PLP.part.hbond>
-2.3450

> <Gold.PLP.part.metal>
0.0000

> <Gold.PLP.part.buried>
-6.7482

> <Gold.PLP.part.nonpolar>
-43.3797

> <Gold.PLP.part.repulsive>
0.0092

> <Gold.PLP.ligand.clash>
0.1218

> <Gold.PLP.ligand.torsion>
1.5619

> <Gold.PLP.Chemscore.Hbond>
1.1739

> <Gold.PLP.Chemscore.CHOScore>
0.0000

> <Gold.PLP.Chemscore.Metal>
0.0000

> <Gold.Chemscore.Hbonds>
donor molecule, donor type, donor heavy atom, donor atom, acceptor molecule, acceptor atom, score
      P1  H  6896  6907       L1    11  1.00
      P1  H  6931  6943       L1    14  0.19

> <Gold.PLP.Chemscore.Internal.Correction>
0.0641

> <Gold.Rescore>
     Score         DG    S(hbond)    S(metal)    S(lipo)     H(rot)  DE(clash)    DE(int)     intcor
     15.29     -18.24       1.00        0.00     137.44       2.60       0.20       2.76       ----

> <Gold.Chemscore.Fitness>
15.2899

> <Gold.Chemscore.DG>
-18.2445

> <Gold.Chemscore.ZeroCoef>
-5.4800

> <Gold.Chemscore.Hbond>
0.9991

> <Gold.Chemscore.Metal>
0.0000

> <Gold.Chemscore.Lipo>
137.4353

> <Gold.Chemscore.Internal_Hbond>
0.0000

> <Gold.Chemscore.DEClash>
0.1969

> <Gold.Chemscore.DEInternal>
2.7577

> <Gold.Chemscore.Rot>
2.5986

> <Gold.Chemscore.Internal.Correction>
   9.000000E+99

> <Gold.Chemscore.Hbonds>
donor molecule, donor type, donor heavy atom, donor atom, acceptor molecule, acceptor atom, score
      P1  H  6896  6907       L1    11  0.58
      P1  H  6931  6943       L1    14  0.06

> <Gold.Chemscore.Hbond.Weighted>
-3.3369

> <Gold.Chemscore.Metal.Weighted>
-0.0000

> <Gold.Chemscore.Lipo.Weighted>
-16.0799

> <Gold.Chemscore.Internal_Hbond.Weighted>
0.0000

> <Gold.Chemscore.DEClash.Weighted>
0.1969

> <Gold.Chemscore.DEInternal.Weighted>
2.7577

> <Gold.Chemscore.Rot.Weighted>
6.6524

> <Gold.Chemscore.Internal.Correction.Weighted>
   9.000000E+99

> <Gold.Protein.RotatedTorsions>
[ 6907 6896 6895 6894 ] final    4.26 input  -60.11 | X-H torsion
[ 7974 7965 7964 7962 ] final -109.50 input  175.53 | X-H torsion
[ 8008 7997 7996 7995 ] final   33.18 input   59.86 | X-H torsion
[ 10167 10162 10161 10158 ] final -128.99 input  -65.29 | X-H torsion
[ 10718 10713 10712 10709 ] final -165.42 input   66.30 | X-H torsion
[ 10763 10752 10751 10750 ] final -125.88 input  -60.55 | X-H torsion
[ 11005 11000 10999 10996 ] final  -94.92 input  -57.11 | X-H torsion

> <Gold.Protein.ActiveResidues>
 VAL166  LYS551  ARG553  GLY616  TRP617  ASP618  TYR619  PRO620  LYS621  CYS622 
 ASP623  PHE694  ASN695  SER759  ASP760  ASP761  ALA762  ILE779  LEU786  VAL792 
 PHE793  MET794  SER795  GLU796  ALA797  LYS798  CYS799  TRP800  GLU811  SER814 

> <Gold.Protein.RotatedAtoms>
  151.6384  135.1015  160.0136 H   0  0  0  0  0  0  0  0  0  0  0  0  # atno 6907 bound_to 6896
  152.4067  133.6896  159.6371 H   0  0  0  0  0  0  0  0  0  0  0  0  # atno 6908 bound_to 6896
  150.7961  133.8613  159.3273 H   0  0  0  0  0  0  0  0  0  0  0  0  # atno 6909 bound_to 6896
  145.1797  140.8965  143.3487 H   0  0  0  0  0  0  0  0  0  0  0  0  # atno 7974 bound_to 7965
  155.1345  140.3260  155.4466 H   0  0  0  0  0  0  0  0  0  0  0  0  # atno 8008 bound_to 7997
  156.2624  140.2004  156.6412 H   0  0  0  0  0  0  0  0  0  0  0  0  # atno 8009 bound_to 7997
  154.6588  140.0549  157.0025 H   0  0  0  0  0  0  0  0  0  0  0  0  # atno 8010 bound_to 7997
  139.9445  143.6126  152.2494 H   0  0  0  0  0  0  0  0  0  0  0  0  # atno 10167 bound_to 10162
  156.6532  130.9016  151.3017 H   0  0  0  0  0  0  0  0  0  0  0  0  # atno 10718 bound_to 10713
  154.8740  135.4014  154.3339 H   0  0  0  0  0  0  0  0  0  0  0  0  # atno 10763 bound_to 10752
  153.4149  135.7021  153.6339 H   0  0  0  0  0  0  0  0  0  0  0  0  # atno 10764 bound_to 10752
  153.5026  135.3724  155.2518 H   0  0  0  0  0  0  0  0  0  0  0  0  # atno 10765 bound_to 10752
  141.1457  133.7990  157.0364 H   0  0  0  0  0  0  0  0  0  0  0  0  # atno 11005 bound_to 11000
  145.0148  139.3477  143.6102 LP  0  0  0  0  0  0  0  0  0  0  0  0  # atno 17320 bound_to 7965
  146.3455  139.9425  142.8739 LP  0  0  0  0  0  0  0  0  0  0  0  0  # atno 17321 bound_to 7965
  139.6678  144.7662  151.1840 LP  0  0  0  0  0  0  0  0  0  0  0  0  # atno 17342 bound_to 10162
  140.7601  143.5911  150.8795 LP  0  0  0  0  0  0  0  0  0  0  0  0  # atno 17343 bound_to 10162
  157.7134  130.9468  150.1169 LP  0  0  0  0  0  0  0  0  0  0  0  0  # atno 17370 bound_to 10713
  156.2068  130.3664  149.8719 LP  0  0  0  0  0  0  0  0  0  0  0  0  # atno 17371 bound_to 10713
  140.0721  134.9696  157.1484 LP  0  0  0  0  0  0  0  0  0  0  0  0  # atno 17394 bound_to 11000
  140.3696  134.2404  155.7179 LP  0  0  0  0  0  0  0  0  0  0  0  0  # atno 17395 bound_to 11000

$$$$
