AV-unprocessed.smi:1809|AV-procd|sdf|7328|dock10
  -GOLD-   22720 8583D 1   1.00000     0.00000
 Structure written by MMmdl.
 39 41  0  0  0  0  0  0  0  0  3 V2000
  149.1930  141.0489  154.6318 C   0  0  0  0  0  0  0  0  0  0  0  0
  149.9865  139.7877  154.6604 C   0  0  0  0  0  0  0  0  0  0  0  0
  151.3214  139.7750  154.6893 N   0  0  0  0  0  0  0  0  0  0  0  0
  151.8314  138.4848  154.7149 N   0  0  0  0  0  0  0  0  0  0  0  0
  150.8779  137.5425  154.7172 C   0  0  0  0  0  0  0  0  0  0  0  0
  151.1616  136.2294  154.7413 N   0  5  0  0  0  0  0  0  0  0  0  0
  150.2084  135.3403  155.1004 C   0  0  0  0  0  0  0  0  0  0  0  0
  149.1881  135.5817  155.7496 O   0  0  0  0  0  0  0  0  0  0  0  0
  150.4497  134.0925  154.6798 N   0  0  0  0  0  0  0  0  0  0  0  0
  149.5855  132.9460  154.9252 C   0  0  0  0  0  0  0  0  0  0  0  0
  148.8843  132.5072  153.6329 C   0  0  1  0  0  0  0  0  0  0  0  0
  148.0399  131.2287  153.8463 C   0  0  0  0  0  0  0  0  0  0  0  0
  147.3042  130.9456  152.6007 N   0  3  1  0  0  0  0  0  0  0  0  0
  146.4387  129.7545  152.5544 C   0  0  0  0  0  0  0  0  0  0  0  0
  145.3934  130.0675  151.4643 C   0  0  0  0  0  0  0  0  0  0  0  0
  145.6539  131.5250  151.0418 C   0  0  0  0  0  0  0  0  0  0  0  0
  146.4620  132.0786  152.2107 C   0  0  2  0  0  0  0  0  0  0  0  0
  147.3536  133.3024  151.9658 C   0  0  0  0  0  0  0  0  0  0  0  0
  148.0440  133.5785  153.1855 O   0  0  0  0  0  0  0  0  0  0  0  0
  149.2417  138.1979  154.6633 S   0  0  0  0  0  0  0  0  0  0  0  0
  149.2089  141.5213  155.6139 H   0  0  0  0  0  0  0  0  0  0  0  0
  148.1583  140.8394  154.3602 H   0  0  0  0  0  0  0  0  0  0  0  0
  149.6117  141.7410  153.9009 H   0  0  0  0  0  0  0  0  0  0  0  0
  151.2928  133.9330  154.1481 H   0  0  0  0  0  0  0  0  0  0  0  0
  150.1926  132.1286  155.3171 H   0  0  0  0  0  0  0  0  0  0  0  0
  148.8464  133.1943  155.6887 H   0  0  0  0  0  0  0  0  0  0  0  0
  149.6391  132.3119  152.8687 H   0  0  0  0  0  0  0  0  0  0  0  0
  148.6805  130.3818  154.0953 H   0  0  0  0  0  0  0  0  0  0  0  0
  147.3380  131.3620  154.6712 H   0  0  0  0  0  0  0  0  0  0  0  0
  147.0199  128.8592  152.3325 H   0  0  0  0  0  0  0  0  0  0  0  0
  145.9462  129.6115  153.5176 H   0  0  0  0  0  0  0  0  0  0  0  0
  145.4808  129.3920  150.6126 H   0  0  0  0  0  0  0  0  0  0  0  0
  144.3867  129.9566  151.8693 H   0  0  0  0  0  0  0  0  0  0  0  0
  146.2498  131.5456  150.1283 H   0  0  0  0  0  0  0  0  0  0  0  0
  144.7360  132.0847  150.8590 H   0  0  0  0  0  0  0  0  0  0  0  0
  145.7727  132.3006  153.0288 H   0  0  0  0  0  0  0  0  0  0  0  0
  148.0645  133.1271  151.1568 H   0  0  0  0  0  0  0  0  0  0  0  0
  146.7507  134.1678  151.6904 H   0  0  0  0  0  0  0  0  0  0  0  0
  147.9881  130.8322  151.8660 H   0  0  0  0  0  0  0  0  0  0  0  0
  1  2  1  0  0  0  0
  1 21  1  0  0  0  0
  1 22  1  0  0  0  0
  1 23  1  0  0  0  0
  2 20  1  0  0  0  0
  2  3  2  0  0  0  0
  3  4  1  0  0  0  0
  4  5  2  0  0  0  0
  5  6  1  0  0  0  0
  5 20  1  0  0  0  0
  6  7  1  0  0  0  0
  7  8  2  0  0  0  0
  7  9  1  0  0  0  0
  9 10  1  0  0  0  0
  9 24  1  0  0  0  0
 10 11  1  0  0  0  0
 10 25  1  0  0  0  0
 10 26  1  0  0  0  0
 11 19  1  0  0  0  0
 11 12  1  0  0  0  0
 11 27  1  0  0  0  0
 12 13  1  0  0  0  0
 12 28  1  0  0  0  0
 12 29  1  0  0  0  0
 13 17  1  0  0  0  0
 13 14  1  0  0  0  0
 13 39  1  0  0  0  0
 14 15  1  0  0  0  0
 14 30  1  0  0  0  0
 14 31  1  0  0  0  0
 15 16  1  0  0  0  0
 15 32  1  0  0  0  0
 15 33  1  0  0  0  0
 16 17  1  0  0  0  0
 16 34  1  0  0  0  0
 16 35  1  0  0  0  0
 17 18  1  0  0  0  0
 17 36  1  0  0  0  0
 18 19  1  0  0  0  0
 18 37  1  0  0  0  0
 18 38  1  0  0  0  0
M  CHG  1   6  -1
M  CHG  1  13   1
M  END
> <s_m_source_file>
AV-unprocessed.smi

> <i_m_source_file_index>
1809

> <i_lp_mmshare_version>
43012

> <i_f3d_flags>
0

> <s_epik_input>
W0NIM11jMW5uYyhzMSlbTkhdQyg9TylbTkhdW0NIMl1bQ0BIXShbQ0gyXTIpT1tDSDJdW0NAQEhdKE4yMylbQ0gyXVtDSDJdW0NIMl0z

> <s_epik_cmdline>
J2VwaWtfcHl0aG9uJywgJy1waCcsICc3LjAnLCAnLXRuJywgJzgnLCAnLW1hJywgJzIwMCcsICctbWV0YWxfYmluZGluZycsICctaW1hZScsICc8aW5maWxlLm1hZT4nLCAnLW9tYWUnLCAnPG91dGZpbGUubWFlPic=

> <r_lp_tautomer_probability>
1

> <r_epik_Ionization_Penalty>
3.2601

> <r_epik_Ionization_Penalty_Charging>
3.1406

> <r_epik_Ionization_Penalty_Neutral>
0.119497

> <r_epik_State_Penalty>
3.08894

> <r_epik_Charging_Adjusted_Penalty>
6.22954

> <i_epik_Tot_Q>
0

> <i_epik_Tot_abs_Q>
2

> <r_epik_Metal_State_Penalty>
0.510807

> <b_epik_Metal_Only>
1

> <s_lp_Force_Field>
OPLS_2005

> <r_lp_Energy>
29.8237

> <b_lp_Chiralities_Consistent>
1

> <s_lp_Variant>
AV-unprocessed.smi:1809-20

> <Gold.Version>
5.8.1

> <Gold.Id.Protein>
6NUR|6NUR_protein|mol2

> <Gold.PLP.Fitness>
45.6275

> <Gold.PLP.PLP>
-34.0531

> <Gold.PLP.part.hbond>
-3.0000

> <Gold.PLP.part.metal>
0.0000

> <Gold.PLP.part.buried>
-4.6696

> <Gold.PLP.part.nonpolar>
-27.6797

> <Gold.PLP.part.repulsive>
1.1359

> <Gold.PLP.ligand.clash>
0.0000

> <Gold.PLP.ligand.torsion>
0.2288

> <Gold.PLP.Chemscore.Hbond>
4.0000

> <Gold.PLP.Chemscore.CHOScore>
0.0000

> <Gold.PLP.Chemscore.Metal>
0.0000

> <Gold.Chemscore.Hbonds>
donor molecule, donor type, donor heavy atom, donor atom, acceptor molecule, acceptor atom, score
      L1  H    13    39       P1 10747  1.00
      P1  H  7989  7998       L1     3  1.00
      P1  H 10752 10765       L1     6  2.00

> <Gold.PLP.Chemscore.Internal.Correction>
0.0321

> <Gold.Rescore>
     Score         DG    S(hbond)    S(metal)    S(lipo)     H(rot)  DE(clash)    DE(int)     intcor
     17.62     -20.75       2.86        0.00      77.70       1.32       1.54       1.58       ----

> <Gold.Chemscore.Fitness>
17.6188

> <Gold.Chemscore.DG>
-20.7461

> <Gold.Chemscore.ZeroCoef>
-5.4800

> <Gold.Chemscore.Hbond>
2.8641

> <Gold.Chemscore.Metal>
0.0000

> <Gold.Chemscore.Lipo>
77.7014

> <Gold.Chemscore.Internal_Hbond>
0.0000

> <Gold.Chemscore.DEClash>
1.5428

> <Gold.Chemscore.DEInternal>
1.5846

> <Gold.Chemscore.Rot>
1.3246

> <Gold.Chemscore.Internal.Correction>
   9.000000E+99

> <Gold.Chemscore.Hbonds>
donor molecule, donor type, donor heavy atom, donor atom, acceptor molecule, acceptor atom, score
      L1  H    13    39       P1 10747  1.00
      P1  H  7989  7998       L1     3  0.25
      P1  H 10752 10765       L1     6  0.87

> <Gold.Chemscore.Hbond.Weighted>
-9.5660

> <Gold.Chemscore.Metal.Weighted>
-0.0000

> <Gold.Chemscore.Lipo.Weighted>
-9.0911

> <Gold.Chemscore.Internal_Hbond.Weighted>
0.0000

> <Gold.Chemscore.DEClash.Weighted>
1.5428

> <Gold.Chemscore.DEInternal.Weighted>
1.5846

> <Gold.Chemscore.Rot.Weighted>
3.3910

> <Gold.Chemscore.Internal.Correction.Weighted>
   9.000000E+99

> <Gold.Protein.RotatedTorsions>
[ 6907 6896 6895 6894 ] final   66.93 input  -60.11 | X-H torsion
[ 7974 7965 7964 7962 ] final   14.06 input  175.53 | X-H torsion
[ 8008 7997 7996 7995 ] final  -71.17 input   59.86 | X-H torsion
[ 10167 10162 10161 10158 ] final -170.62 input  -65.29 | X-H torsion
[ 10718 10713 10712 10709 ] final   -8.28 input   66.30 | X-H torsion
[ 10763 10752 10751 10750 ] final -167.96 input  -60.55 | X-H torsion
[ 11005 11000 10999 10996 ] final  -89.61 input  -57.11 | X-H torsion

> <Gold.Protein.ActiveResidues>
 VAL166  LYS551  ARG553  GLY616  TRP617  ASP618  TYR619  PRO620  LYS621  CYS622 
 ASP623  PHE694  ASN695  SER759  ASP760  ASP761  ALA762  ILE779  LEU786  VAL792 
 PHE793  MET794  SER795  GLU796  ALA797  LYS798  CYS799  TRP800  GLU811  SER814 

> <Gold.Protein.RotatedAtoms>
  152.4516  134.5381  159.9830 H   0  0  0  0  0  0  0  0  0  0  0  0  # atno 6907 bound_to 6896
  151.5452  133.3420  159.2951 H   0  0  0  0  0  0  0  0  0  0  0  0  # atno 6908 bound_to 6896
  150.8447  134.7783  159.7024 H   0  0  0  0  0  0  0  0  0  0  0  0  # atno 6909 bound_to 6896
  146.2314  139.9096  142.8526 H   0  0  0  0  0  0  0  0  0  0  0  0  # atno 7974 bound_to 7965
  154.5067  140.0820  156.7908 H   0  0  0  0  0  0  0  0  0  0  0  0  # atno 8008 bound_to 7997
  155.3878  140.3431  155.4231 H   0  0  0  0  0  0  0  0  0  0  0  0  # atno 8009 bound_to 7997
  156.1524  140.1562  156.8736 H   0  0  0  0  0  0  0  0  0  0  0  0  # atno 8010 bound_to 7997
  139.5851  144.1337  152.1564 H   0  0  0  0  0  0  0  0  0  0  0  0  # atno 10167 bound_to 10162
  156.7048  130.5104  149.5907 H   0  0  0  0  0  0  0  0  0  0  0  0  # atno 10718 bound_to 10713
  154.6678  135.2934  154.9782 H   0  0  0  0  0  0  0  0  0  0  0  0  # atno 10763 bound_to 10752
  154.0819  135.6603  153.4843 H   0  0  0  0  0  0  0  0  0  0  0  0  # atno 10764 bound_to 10752
  153.0468  135.5199  154.7660 H   0  0  0  0  0  0  0  0  0  0  0  0  # atno 10765 bound_to 10752
  141.1581  133.7641  156.9620 H   0  0  0  0  0  0  0  0  0  0  0  0  # atno 11005 bound_to 11000
  145.2242  140.9947  143.4028 LP  0  0  0  0  0  0  0  0  0  0  0  0  # atno 17320 bound_to 7965
  144.9584  139.4006  143.6368 LP  0  0  0  0  0  0  0  0  0  0  0  0  # atno 17321 bound_to 7965
  140.0899  144.5629  150.7062 LP  0  0  0  0  0  0  0  0  0  0  0  0  # atno 17342 bound_to 10162
  140.7124  143.2515  151.4541 LP  0  0  0  0  0  0  0  0  0  0  0  0  # atno 17343 bound_to 10162
  156.1703  130.6432  151.0828 LP  0  0  0  0  0  0  0  0  0  0  0  0  # atno 17370 bound_to 10713
  157.6959  131.0794  150.6970 LP  0  0  0  0  0  0  0  0  0  0  0  0  # atno 17371 bound_to 10713
  140.1187  134.9431  157.2172 LP  0  0  0  0  0  0  0  0  0  0  0  0  # atno 17394 bound_to 11000
  140.3100  134.3034  155.7269 LP  0  0  0  0  0  0  0  0  0  0  0  0  # atno 17395 bound_to 11000

$$$$
