AV-unprocessed.smi:1831|AV-procd|sdf|7458|dock1
  -GOLD-   22720 9153D 1   1.00000     0.00000
 Structure written by MMmdl.
 41 42  0  0  0  0  0  0  0  0  2 V2000
  151.8329  140.5849  157.2166 C   0  0  0  0  0  0  0  0  0  0  0  0
  151.2731  139.6528  156.1975 C   0  0  0  0  0  0  0  0  0  0  0  0
  151.0295  140.0264  154.9357 N   0  0  0  0  0  0  0  0  0  0  0  0
  150.5092  138.9913  154.1717 N   0  0  0  0  0  0  0  0  0  0  0  0
  150.3744  137.8637  154.8832 C   0  0  0  0  0  0  0  0  0  0  0  0
  149.8659  136.6499  154.3491 N   0  0  0  0  0  0  0  0  0  0  0  0
  149.9141  135.4189  154.8884 C   0  0  0  0  0  0  0  0  0  0  0  0
  150.4219  135.1355  155.9735 O   0  0  0  0  0  0  0  0  0  0  0  0
  149.3273  134.5149  154.0918 N   0  0  0  0  0  0  0  0  0  0  0  0
  149.1922  133.0987  154.4116 C   0  0  0  0  0  0  0  0  0  0  0  0
  148.5485  132.3228  153.2506 C   0  0  2  0  0  0  0  0  0  0  0  0
  147.1114  132.7428  152.9512 C   0  0  0  0  0  0  0  0  0  0  0  0
  146.4746  131.5163  152.2849 C   0  0  0  0  0  0  0  0  0  0  0  0
  147.3873  130.3677  152.5156 N   0  3  2  0  0  0  0  0  0  0  0  0
  146.7147  129.0767  152.8358 C   0  0  0  0  0  0  0  0  0  0  0  0
  147.6812  127.8834  152.7107 C   0  0  0  0  0  0  0  0  0  0  0  0
  145.4948  128.8460  151.9240 C   0  0  0  0  0  0  0  0  0  0  0  0
  148.4021  130.8201  153.4925 C   0  0  0  0  0  0  0  0  0  0  0  0
  150.8727  137.9786  156.5624 S   0  0  0  0  0  0  0  0  0  0  0  0
  152.6098  141.2082  156.7729 H   0  0  0  0  0  0  0  0  0  0  0  0
  152.2672  140.0248  158.0448 H   0  0  0  0  0  0  0  0  0  0  0  0
  151.0441  141.2294  157.6045 H   0  0  0  0  0  0  0  0  0  0  0  0
  149.4046  136.7316  153.4554 H   0  0  0  0  0  0  0  0  0  0  0  0
  148.9281  134.8316  153.2202 H   0  0  0  0  0  0  0  0  0  0  0  0
  150.1685  132.6704  154.6459 H   0  0  0  0  0  0  0  0  0  0  0  0
  148.5806  133.0025  155.3097 H   0  0  0  0  0  0  0  0  0  0  0  0
  149.1417  132.4715  152.3463 H   0  0  0  0  0  0  0  0  0  0  0  0
  146.5840  132.9629  153.8807 H   0  0  0  0  0  0  0  0  0  0  0  0
  147.0593  133.6339  152.3247 H   0  0  0  0  0  0  0  0  0  0  0  0
  145.4831  131.3431  152.7061 H   0  0  0  0  0  0  0  0  0  0  0  0
  146.3578  131.6660  151.2112 H   0  0  0  0  0  0  0  0  0  0  0  0
  146.3676  129.1219  153.8693 H   0  0  0  0  0  0  0  0  0  0  0  0
  147.1649  126.9420  152.9010 H   0  0  0  0  0  0  0  0  0  0  0  0
  148.5004  127.9417  153.4276 H   0  0  0  0  0  0  0  0  0  0  0  0
  148.1126  127.8251  151.7107 H   0  0  0  0  0  0  0  0  0  0  0  0
  145.0182  127.8901  152.1438 H   0  0  0  0  0  0  0  0  0  0  0  0
  145.7838  128.8350  150.8724 H   0  0  0  0  0  0  0  0  0  0  0  0
  144.7333  129.6153  152.0511 H   0  0  0  0  0  0  0  0  0  0  0  0
  149.3471  130.2910  153.3663 H   0  0  0  0  0  0  0  0  0  0  0  0
  148.0422  130.6373  154.5069 H   0  0  0  0  0  0  0  0  0  0  0  0
  147.8855  130.2321  151.6475 H   0  0  0  0  0  0  0  0  0  0  0  0
  1  2  1  0  0  0  0
  1 20  1  0  0  0  0
  1 21  1  0  0  0  0
  1 22  1  0  0  0  0
  2 19  1  0  0  0  0
  2  3  2  0  0  0  0
  3  4  1  0  0  0  0
  4  5  2  0  0  0  0
  5  6  1  0  0  0  0
  5 19  1  0  0  0  0
  6  7  1  0  0  0  0
  6 23  1  0  0  0  0
  7  8  2  0  0  0  0
  7  9  1  0  0  0  0
  9 10  1  0  0  0  0
  9 24  1  0  0  0  0
 10 11  1  0  0  0  0
 10 25  1  0  0  0  0
 10 26  1  0  0  0  0
 11 18  1  0  0  0  0
 11 12  1  0  0  0  0
 11 27  1  0  0  0  0
 12 13  1  0  0  0  0
 12 28  1  0  0  0  0
 12 29  1  0  0  0  0
 13 14  1  0  0  0  0
 13 30  1  0  0  0  0
 13 31  1  0  0  0  0
 14 15  1  0  0  0  0
 14 18  1  0  0  0  0
 14 41  1  0  0  0  0
 15 16  1  0  0  0  0
 15 17  1  0  0  0  0
 15 32  1  0  0  0  0
 16 33  1  0  0  0  0
 16 34  1  0  0  0  0
 16 35  1  0  0  0  0
 17 36  1  0  0  0  0
 17 37  1  0  0  0  0
 17 38  1  0  0  0  0
 18 39  1  0  0  0  0
 18 40  1  0  0  0  0
M  CHG  1  14   1
M  END
> <s_m_source_file>
AV-unprocessed.smi

> <i_m_source_file_index>
1831

> <i_lp_mmshare_version>
43012

> <i_f3d_flags>
0

> <s_epik_input>
W0NIM11jMW5uYyhzMSlbTkhdQyg9TylbTkhdW0NIMl1bQ0BASF0yW0NIMl1bQ0gyXU4oW0NIMl0yKVtDSF0oW0NIM10pW0NIM10=

> <s_epik_cmdline>
J2VwaWtfcHl0aG9uJywgJy1waCcsICc3LjAnLCAnLXRuJywgJzgnLCAnLW1hJywgJzIwMCcsICctbWV0YWxfYmluZGluZycsICctaW1hZScsICc8aW5maWxlLm1hZT4nLCAnLW9tYWUnLCAnPG91dGZpbGUubWFlPic=

> <r_lp_tautomer_probability>
1

> <r_epik_Ionization_Penalty>
0.00080807

> <r_epik_Ionization_Penalty_Charging>
0.000218981

> <r_epik_Ionization_Penalty_Neutral>
0.00058909

> <r_epik_State_Penalty>
-0

> <r_epik_Charging_Adjusted_Penalty>
0.000218981

> <i_epik_Tot_Q>
1

> <i_epik_Tot_abs_Q>
1

> <r_epik_Metal_State_Penalty>
0.236062

> <b_epik_Metal_Only>
0

> <s_lp_Force_Field>
OPLS_2005

> <r_lp_Energy>
30.7631

> <b_lp_Chiralities_Consistent>
1

> <s_lp_Variant>
AV-unprocessed.smi:1831-3

> <Gold.Version>
5.8.1

> <Gold.Id.Protein>
6NUR|6NUR_protein|mol2

> <Gold.PLP.Fitness>
42.2457

> <Gold.PLP.PLP>
-32.2895

> <Gold.PLP.part.hbond>
-4.8061

> <Gold.PLP.part.metal>
0.0000

> <Gold.PLP.part.buried>
-3.7919

> <Gold.PLP.part.nonpolar>
-24.0458

> <Gold.PLP.part.repulsive>
0.3700

> <Gold.PLP.ligand.clash>
0.0000

> <Gold.PLP.ligand.torsion>
0.2253

> <Gold.PLP.Chemscore.Hbond>
3.4564

> <Gold.PLP.Chemscore.CHOScore>
0.0000

> <Gold.PLP.Chemscore.Metal>
0.0000

> <Gold.Chemscore.Hbonds>
donor molecule, donor type, donor heavy atom, donor atom, acceptor molecule, acceptor atom, score
      L1  H     6    23       P1  7948  1.00
      L1  H     9    24       P1  7948  0.82
      L1  H    14    41       P1 10747  1.00
      P1  H  7989  7998       L1     3  0.60

> <Gold.PLP.Chemscore.Internal.Correction>
0.0376

> <Gold.Rescore>
     Score         DG    S(hbond)    S(metal)    S(lipo)     H(rot)  DE(clash)    DE(int)     intcor
     16.16     -17.60       2.36        0.00      69.85       1.54       0.01       1.44       ----

> <Gold.Chemscore.Fitness>
16.1584

> <Gold.Chemscore.DG>
-17.6046

> <Gold.Chemscore.ZeroCoef>
-5.4800

> <Gold.Chemscore.Hbond>
2.3633

> <Gold.Chemscore.Metal>
0.0000

> <Gold.Chemscore.Lipo>
69.8509

> <Gold.Chemscore.Internal_Hbond>
0.0000

> <Gold.Chemscore.DEClash>
0.0074

> <Gold.Chemscore.DEInternal>
1.4388

> <Gold.Chemscore.Rot>
1.5396

> <Gold.Chemscore.Internal.Correction>
   9.000000E+99

> <Gold.Chemscore.Hbonds>
donor molecule, donor type, donor heavy atom, donor atom, acceptor molecule, acceptor atom, score
      L1  H     6    23       P1  7948  0.86
      L1  H     9    24       P1  7948  0.16
      L1  H    14    41       P1 10747  0.96
      P1  H  7989  7998       L1     3  0.04

> <Gold.Chemscore.Hbond.Weighted>
-7.8933

> <Gold.Chemscore.Metal.Weighted>
-0.0000

> <Gold.Chemscore.Lipo.Weighted>
-8.1726

> <Gold.Chemscore.Internal_Hbond.Weighted>
0.0000

> <Gold.Chemscore.DEClash.Weighted>
0.0074

> <Gold.Chemscore.DEInternal.Weighted>
1.4388

> <Gold.Chemscore.Rot.Weighted>
3.9413

> <Gold.Chemscore.Internal.Correction.Weighted>
   9.000000E+99

> <Gold.Protein.RotatedTorsions>
[ 6907 6896 6895 6894 ] final   82.44 input  -60.11 | X-H torsion
[ 7974 7965 7964 7962 ] final  -69.58 input  175.53 | X-H torsion
[ 8008 7997 7996 7995 ] final -167.09 input   59.86 | X-H torsion
[ 10167 10162 10161 10158 ] final   57.37 input  -65.29 | X-H torsion
[ 10718 10713 10712 10709 ] final   31.40 input   66.30 | X-H torsion
[ 10763 10752 10751 10750 ] final  -32.20 input  -60.55 | X-H torsion
[ 11005 11000 10999 10996 ] final   68.65 input  -57.11 | X-H torsion

> <Gold.Protein.ActiveResidues>
 VAL166  LYS551  ARG553  GLY616  TRP617  ASP618  TYR619  PRO620  LYS621  CYS622 
 ASP623  PHE694  ASN695  SER759  ASP760  ASP761  ALA762  ILE779  LEU786  VAL792 
 PHE793  MET794  SER795  GLU796  ALA797  LYS798  CYS799  TRP800  GLU811  SER814 

> <Gold.Protein.RotatedAtoms>
  152.5299  134.3050  159.9092 H   0  0  0  0  0  0  0  0  0  0  0  0  # atno 6907 bound_to 6896
  151.3000  133.4120  159.2646 H   0  0  0  0  0  0  0  0  0  0  0  0  # atno 6908 bound_to 6896
  151.0127  134.9425  159.8073 H   0  0  0  0  0  0  0  0  0  0  0  0  # atno 6909 bound_to 6896
  145.7019  140.9113  143.0726 H   0  0  0  0  0  0  0  0  0  0  0  0  # atno 7974 bound_to 7965
  155.8728  140.0996  157.1538 H   0  0  0  0  0  0  0  0  0  0  0  0  # atno 8008 bound_to 7997
  154.3998  140.1344  156.4163 H   0  0  0  0  0  0  0  0  0  0  0  0  # atno 8009 bound_to 7997
  155.7731  140.3460  155.5260 H   0  0  0  0  0  0  0  0  0  0  0  0  # atno 8010 bound_to 7997
  140.1987  144.4011  150.6538 H   0  0  0  0  0  0  0  0  0  0  0  0  # atno 10167 bound_to 10162
  157.2720  130.7212  149.6509 H   0  0  0  0  0  0  0  0  0  0  0  0  # atno 10718 bound_to 10713
  153.8098  135.6883  153.4842 H   0  0  0  0  0  0  0  0  0  0  0  0  # atno 10763 bound_to 10752
  153.1635  135.4570  154.9804 H   0  0  0  0  0  0  0  0  0  0  0  0  # atno 10764 bound_to 10752
  154.7972  135.3323  154.7580 H   0  0  0  0  0  0  0  0  0  0  0  0  # atno 10765 bound_to 10752
  139.9699  134.6917  156.0468 H   0  0  0  0  0  0  0  0  0  0  0  0  # atno 11005 bound_to 11000
  144.6966  139.8959  143.7456 LP  0  0  0  0  0  0  0  0  0  0  0  0  # atno 17320 bound_to 7965
  146.0790  139.3778  143.0476 LP  0  0  0  0  0  0  0  0  0  0  0  0  # atno 17321 bound_to 7965
  140.6406  143.2203  151.6299 LP  0  0  0  0  0  0  0  0  0  0  0  0  # atno 17342 bound_to 10162
  139.5226  144.3158  152.0953 LP  0  0  0  0  0  0  0  0  0  0  0  0  # atno 17343 bound_to 10162
  155.9663  130.4364  150.5134 LP  0  0  0  0  0  0  0  0  0  0  0  0  # atno 17370 bound_to 10713
  157.3061  131.0654  151.2034 LP  0  0  0  0  0  0  0  0  0  0  0  0  # atno 17371 bound_to 10713
  141.1379  133.6571  156.3645 LP  0  0  0  0  0  0  0  0  0  0  0  0  # atno 17394 bound_to 11000
  140.5315  134.6208  157.5351 LP  0  0  0  0  0  0  0  0  0  0  0  0  # atno 17395 bound_to 11000

$$$$
