AV-unprocessed.smi:1976|AV-procd|sdf|7989|dock5
  -GOLD-   2272010173D 1   1.00000     0.00000
 Structure written by MMmdl.
 45 47  0  0  0  0  0  0  0  0  2 V2000
  149.4248  139.5143  158.0578 O   0  0  0  0  0  0  0  0  0  0  0  0
  150.1266  139.0934  157.1372 C   0  0  0  0  0  0  0  0  0  0  0  0
  151.6329  139.3864  157.0853 C   0  0  0  0  0  0  0  0  0  0  0  0
  152.1041  140.2454  158.1848 N   0  0  0  0  0  0  0  0  0  0  0  0
  151.7751  141.6131  158.1094 C   0  0  0  0  0  0  0  0  0  0  0  0
  152.1483  142.5093  159.0427 C   0  0  0  0  0  0  0  0  0  0  0  0
  151.7252  143.9680  158.9644 C   0  0  0  0  0  0  0  0  0  0  0  0
  152.2515  144.5638  157.8940 F   0  0  0  0  0  0  0  0  0  0  0  0
  150.3984  144.0504  158.8751 F   0  0  0  0  0  0  0  0  0  0  0  0
  152.1104  144.6405  160.0499 F   0  0  0  0  0  0  0  0  0  0  0  0
  152.8936  141.9909  160.1731 C   0  0  0  0  0  0  0  0  0  0  0  0
  153.2047  140.6831  160.2674 C   0  0  0  0  0  0  0  0  0  0  0  0
  152.8064  139.7237  159.2348 C   0  0  0  0  0  0  0  0  0  0  0  0
  153.0834  138.5264  159.3102 O   0  0  0  0  0  0  0  0  0  0  0  0
  149.6382  138.3703  156.1178 N   0  0  0  0  0  0  0  0  0  0  0  0
  148.2412  137.9694  155.9605 C   0  0  2  0  0  0  0  0  0  0  0  0
  148.0651  136.4450  155.8238 C   0  0  0  0  0  0  0  0  0  0  0  0
  146.9801  136.2746  154.7556 C   0  0  0  0  0  0  0  0  0  0  0  0
  147.2197  137.4133  153.8616 N   0  3  1  0  0  0  0  0  0  0  0  0
  146.2102  137.7287  152.8309 C   0  0  0  0  0  0  0  0  0  0  0  0
  146.7803  138.8311  151.9124 C   0  0  0  0  0  0  0  0  0  0  0  0
  147.2824  140.0561  152.7102 C   0  0  0  0  0  0  0  0  0  0  0  0
  148.2330  139.6450  153.8556 C   0  0  0  0  0  0  0  0  0  0  0  0
  147.5442  138.5694  154.7153 C   0  0  2  0  0  0  0  0  0  0  0  0
  152.1741  138.4386  157.0760 H   0  0  0  0  0  0  0  0  0  0  0  0
  151.8624  139.8530  156.1260 H   0  0  0  0  0  0  0  0  0  0  0  0
  151.1886  141.8858  157.2439 H   0  0  0  0  0  0  0  0  0  0  0  0
  153.2110  142.6625  160.9571 H   0  0  0  0  0  0  0  0  0  0  0  0
  153.7626  140.3324  161.1234 H   0  0  0  0  0  0  0  0  0  0  0  0
  150.2848  138.0652  155.4045 H   0  0  0  0  0  0  0  0  0  0  0  0
  147.6870  138.2873  156.8462 H   0  0  0  0  0  0  0  0  0  0  0  0
  148.9904  135.9870  155.4703 H   0  0  0  0  0  0  0  0  0  0  0  0
  147.8007  135.9657  156.7671 H   0  0  0  0  0  0  0  0  0  0  0  0
  147.0508  135.3210  154.2314 H   0  0  0  0  0  0  0  0  0  0  0  0
  145.9865  136.3554  155.1997 H   0  0  0  0  0  0  0  0  0  0  0  0
  145.9842  136.8339  152.2497 H   0  0  0  0  0  0  0  0  0  0  0  0
  145.2809  138.0538  153.3010 H   0  0  0  0  0  0  0  0  0  0  0  0
  147.6098  138.4202  151.3353 H   0  0  0  0  0  0  0  0  0  0  0  0
  146.0275  139.1400  151.1868 H   0  0  0  0  0  0  0  0  0  0  0  0
  147.7810  140.7597  152.0432 H   0  0  0  0  0  0  0  0  0  0  0  0
  146.4256  140.5862  153.1282 H   0  0  0  0  0  0  0  0  0  0  0  0
  149.1703  139.2647  153.4472 H   0  0  0  0  0  0  0  0  0  0  0  0
  148.4786  140.5204  154.4574 H   0  0  0  0  0  0  0  0  0  0  0  0
  146.5994  138.9864  155.0712 H   0  0  0  0  0  0  0  0  0  0  0  0
  148.0702  137.1871  153.3657 H   0  0  0  0  0  0  0  0  0  0  0  0
  1  2  2  0  0  0  0
  2  3  1  0  0  0  0
  2 15  1  0  0  0  0
  3  4  1  0  0  0  0
  3 25  1  0  0  0  0
  3 26  1  0  0  0  0
  4 13  1  0  0  0  0
  4  5  1  0  0  0  0
  5  6  2  0  0  0  0
  5 27  1  0  0  0  0
  6  7  1  0  0  0  0
  6 11  1  0  0  0  0
  7  8  1  0  0  0  0
  7  9  1  0  0  0  0
  7 10  1  0  0  0  0
 11 12  2  0  0  0  0
 11 28  1  0  0  0  0
 12 13  1  0  0  0  0
 12 29  1  0  0  0  0
 13 14  2  0  0  0  0
 15 16  1  0  0  0  0
 15 30  1  0  0  0  0
 16 24  1  0  0  0  0
 16 17  1  0  0  0  0
 16 31  1  0  0  0  0
 17 18  1  0  0  0  0
 17 32  1  0  0  0  0
 17 33  1  0  0  0  0
 18 19  1  0  0  0  0
 18 34  1  0  0  0  0
 18 35  1  0  0  0  0
 19 24  1  0  0  0  0
 19 20  1  0  0  0  0
 19 45  1  0  0  0  0
 20 21  1  0  0  0  0
 20 36  1  0  0  0  0
 20 37  1  0  0  0  0
 21 22  1  0  0  0  0
 21 38  1  0  0  0  0
 21 39  1  0  0  0  0
 22 23  1  0  0  0  0
 22 40  1  0  0  0  0
 22 41  1  0  0  0  0
 23 24  1  0  0  0  0
 23 42  1  0  0  0  0
 23 43  1  0  0  0  0
 24 44  1  0  0  0  0
M  CHG  1  19   1
M  END
> <s_m_source_file>
AV-unprocessed.smi

> <i_m_source_file_index>
1976

> <i_lp_mmshare_version>
43012

> <i_f3d_flags>
0

> <s_epik_input>
W0NIMl0xW0NIMl1bQ0gyXVtDSDJdW0NASF0oTjEyKVtDQEBIXShbQ0gyXVtDSDJdMilbTkhdQyg9TylbQ0gyXW4zW2NIXWMoQyhGKShGKUYpW2NIXVtjSF1jMz1P

> <s_epik_cmdline>
J2VwaWtfcHl0aG9uJywgJy1waCcsICc3LjAnLCAnLXRuJywgJzgnLCAnLW1hJywgJzIwMCcsICctbWV0YWxfYmluZGluZycsICctaW1hZScsICc8aW5maWxlLm1hZT4nLCAnLW9tYWUnLCAnPG91dGZpbGUubWFlPic=

> <r_lp_tautomer_probability>
1

> <r_epik_Ionization_Penalty>
0.00171506

> <r_epik_Ionization_Penalty_Charging>
0.00171498

> <r_epik_Ionization_Penalty_Neutral>
7.81737e-08

> <r_epik_State_Penalty>
0.00115937

> <r_epik_Charging_Adjusted_Penalty>
0.00287436

> <i_epik_Tot_Q>
1

> <i_epik_Tot_abs_Q>
1

> <r_epik_Metal_State_Penalty>
-0

> <b_epik_Metal_Only>
0

> <s_lp_Force_Field>
OPLS_2005

> <r_lp_Energy>
53.4145

> <b_lp_Chiralities_Consistent>
1

> <s_lp_Variant>
AV-unprocessed.smi:1976-7

> <Gold.Version>
5.8.1

> <Gold.Id.Protein>
6NUR|6NUR_protein|mol2

> <Gold.PLP.Fitness>
47.1640

> <Gold.PLP.PLP>
-41.7669

> <Gold.PLP.part.hbond>
-1.0000

> <Gold.PLP.part.metal>
0.0000

> <Gold.PLP.part.buried>
-1.5234

> <Gold.PLP.part.nonpolar>
-39.4964

> <Gold.PLP.part.repulsive>
0.0000

> <Gold.PLP.ligand.clash>
0.0000

> <Gold.PLP.ligand.torsion>
0.2470

> <Gold.PLP.Chemscore.Hbond>
1.9520

> <Gold.PLP.Chemscore.CHOScore>
0.0000

> <Gold.PLP.Chemscore.Metal>
0.0000

> <Gold.Chemscore.Hbonds>
donor molecule, donor type, donor heavy atom, donor atom, acceptor molecule, acceptor atom, score
      L1  H    19    45       P1  7948  1.95

> <Gold.PLP.Chemscore.Internal.Correction>
0.0351

> <Gold.Rescore>
     Score         DG    S(hbond)    S(metal)    S(lipo)     H(rot)  DE(clash)    DE(int)     intcor
     13.63     -14.96       0.92        0.00      89.34       1.58       0.46       0.87       ----

> <Gold.Chemscore.Fitness>
13.6310

> <Gold.Chemscore.DG>
-14.9570

> <Gold.Chemscore.ZeroCoef>
-5.4800

> <Gold.Chemscore.Hbond>
0.9212

> <Gold.Chemscore.Metal>
0.0000

> <Gold.Chemscore.Lipo>
89.3379

> <Gold.Chemscore.Internal_Hbond>
0.0000

> <Gold.Chemscore.DEClash>
0.4580

> <Gold.Chemscore.DEInternal>
0.8680

> <Gold.Chemscore.Rot>
1.5830

> <Gold.Chemscore.Internal.Correction>
   9.000000E+99

> <Gold.Chemscore.Hbonds>
donor molecule, donor type, donor heavy atom, donor atom, acceptor molecule, acceptor atom, score
      L1  H    19    45       P1  7948  0.91

> <Gold.Chemscore.Hbond.Weighted>
-3.0768

> <Gold.Chemscore.Metal.Weighted>
-0.0000

> <Gold.Chemscore.Lipo.Weighted>
-10.4525

> <Gold.Chemscore.Internal_Hbond.Weighted>
0.0000

> <Gold.Chemscore.DEClash.Weighted>
0.4580

> <Gold.Chemscore.DEInternal.Weighted>
0.8680

> <Gold.Chemscore.Rot.Weighted>
4.0524

> <Gold.Chemscore.Internal.Correction.Weighted>
   9.000000E+99

> <Gold.Protein.RotatedTorsions>
[ 6907 6896 6895 6894 ] final  140.34 input  -60.11 | X-H torsion
[ 7974 7965 7964 7962 ] final -105.42 input  175.53 | X-H torsion
[ 8008 7997 7996 7995 ] final  179.11 input   59.86 | X-H torsion
[ 10167 10162 10161 10158 ] final  -38.41 input  -65.29 | X-H torsion
[ 10718 10713 10712 10709 ] final  -34.96 input   66.30 | X-H torsion
[ 10763 10752 10751 10750 ] final  104.10 input  -60.55 | X-H torsion
[ 11005 11000 10999 10996 ] final   10.22 input  -57.11 | X-H torsion

> <Gold.Protein.ActiveResidues>
 VAL166  LYS551  ARG553  GLY616  TRP617  ASP618  TYR619  PRO620  LYS621  CYS622 
 ASP623  PHE694  ASN695  SER759  ASP760  ASP761  ALA762  ILE779  LEU786  VAL792 
 PHE793  MET794  SER795  GLU796  ALA797  LYS798  CYS799  TRP800  GLU811  SER814 

> <Gold.Protein.RotatedAtoms>
  152.2441  133.5160  159.5287 H   0  0  0  0  0  0  0  0  0  0  0  0  # atno 6907 bound_to 6896
  150.7073  134.1048  159.3988 H   0  0  0  0  0  0  0  0  0  0  0  0  # atno 6908 bound_to 6896
  151.8969  135.0394  160.0553 H   0  0  0  0  0  0  0  0  0  0  0  0  # atno 6909 bound_to 6896
  145.2307  140.9169  143.3206 H   0  0  0  0  0  0  0  0  0  0  0  0  # atno 7974 bound_to 7965
  156.0471  140.1316  157.0092 H   0  0  0  0  0  0  0  0  0  0  0  0  # atno 8008 bound_to 7997
  154.4417  140.1018  156.6392 H   0  0  0  0  0  0  0  0  0  0  0  0  # atno 8009 bound_to 7997
  155.5580  140.3464  155.4486 H   0  0  0  0  0  0  0  0  0  0  0  0  # atno 8010 bound_to 7997
  140.7093  143.3279  151.2637 H   0  0  0  0  0  0  0  0  0  0  0  0  # atno 10167 bound_to 10162
  156.3443  130.4298  149.7760 H   0  0  0  0  0  0  0  0  0  0  0  0  # atno 10718 bound_to 10713
  153.3614  135.3954  155.1721 H   0  0  0  0  0  0  0  0  0  0  0  0  # atno 10763 bound_to 10752
  154.8680  135.3680  154.5095 H   0  0  0  0  0  0  0  0  0  0  0  0  # atno 10764 bound_to 10752
  153.5554  135.7082  153.5632 H   0  0  0  0  0  0  0  0  0  0  0  0  # atno 10765 bound_to 10752
  140.5170  134.0596  155.7834 H   0  0  0  0  0  0  0  0  0  0  0  0  # atno 11005 bound_to 11000
  144.9679  139.3911  143.6323 LP  0  0  0  0  0  0  0  0  0  0  0  0  # atno 17320 bound_to 7965
  146.3353  139.8763  142.8831 LP  0  0  0  0  0  0  0  0  0  0  0  0  # atno 17321 bound_to 7965
  139.6753  143.9949  152.2777 LP  0  0  0  0  0  0  0  0  0  0  0  0  # atno 17342 bound_to 10162
  139.9561  144.6588  150.8124 LP  0  0  0  0  0  0  0  0  0  0  0  0  # atno 17343 bound_to 10162
  156.4984  130.8117  151.3123 LP  0  0  0  0  0  0  0  0  0  0  0  0  # atno 17370 bound_to 10713
  157.7452  130.9952  150.2737 LP  0  0  0  0  0  0  0  0  0  0  0  0  # atno 17371 bound_to 10713
  141.1355  133.9229  157.2443 LP  0  0  0  0  0  0  0  0  0  0  0  0  # atno 17394 bound_to 11000
  139.9627  135.0150  156.9304 LP  0  0  0  0  0  0  0  0  0  0  0  0  # atno 17395 bound_to 11000

$$$$
