AV-unprocessed.smi:2097|AV-procd|sdf|8563|dock2
  -GOLD-   2272011293D 1   1.00000     0.00000
 Structure written by MMmdl.
 41 42  0  0  0  0  0  0  0  0  1 V2000
  156.3706  133.4537  160.3530 C   0  0  0  0  0  0  0  0  0  0  0  0
  156.0116  134.3885  161.5176 C   0  0  2  0  0  0  0  0  0  0  0  0
  155.2348  133.6360  162.4467 O   0  0  0  0  0  0  0  0  0  0  0  0
  155.9652  132.7322  163.2704 C   0  0  0  0  0  0  0  0  0  0  0  0
  155.0830  132.2877  164.4431 C   0  0  0  0  0  0  0  0  0  0  0  0
  155.7659  131.4369  165.2081 F   0  0  0  0  0  0  0  0  0  0  0  0
  154.7329  133.3406  165.1813 F   0  0  0  0  0  0  0  0  0  0  0  0
  153.9899  131.6736  163.9909 F   0  0  0  0  0  0  0  0  0  0  0  0
  155.2242  135.6155  161.0287 C   0  0  0  0  0  0  0  0  0  0  0  0
  154.3109  135.4694  160.2167 O   0  0  0  0  0  0  0  0  0  0  0  0
  155.5813  136.7934  161.5736 N   0  0  0  0  0  0  0  0  0  0  0  0
  155.0276  138.0810  161.3406 C   0  0  0  0  0  0  0  0  0  0  0  0
  155.5087  139.1578  162.1099 C   0  0  0  0  0  0  0  0  0  0  0  0
  154.9856  140.4466  161.8944 C   0  0  0  0  0  0  0  0  0  0  0  0
  153.9932  140.6318  160.9032 C   0  0  0  0  0  0  0  0  0  0  0  0
  153.4463  141.9137  160.6762 N   0  0  0  0  0  0  0  0  0  0  0  0
  152.7045  142.4903  161.7952 C   0  0  0  0  0  0  0  0  0  0  0  0
  152.4256  143.9820  161.5429 C   0  0  0  0  0  0  0  0  0  0  0  0
  151.7586  144.1442  160.2956 O   0  0  0  0  0  0  0  0  0  0  0  0
  152.5506  143.6784  159.2082 C   0  0  0  0  0  0  0  0  0  0  0  0
  152.8289  142.1752  159.3770 C   0  0  0  0  0  0  0  0  0  0  0  0
  153.5495  139.5991  160.1452 N   0  0  0  0  0  0  0  0  0  0  0  0
  154.0513  138.3640  160.3564 C   0  0  0  0  0  0  0  0  0  0  0  0
  156.9589  133.9721  159.5949 H   0  0  0  0  0  0  0  0  0  0  0  0
  155.4789  133.0521  159.8698 H   0  0  0  0  0  0  0  0  0  0  0  0
  156.9612  132.6079  160.7056 H   0  0  0  0  0  0  0  0  0  0  0  0
  156.9388  134.7081  161.9975 H   0  0  0  0  0  0  0  0  0  0  0  0
  156.2702  131.8615  162.6883 H   0  0  0  0  0  0  0  0  0  0  0  0
  156.8714  133.2003  163.6564 H   0  0  0  0  0  0  0  0  0  0  0  0
  156.2920  136.7503  162.2894 H   0  0  0  0  0  0  0  0  0  0  0  0
  156.2683  139.0014  162.8618 H   0  0  0  0  0  0  0  0  0  0  0  0
  155.3588  141.2742  162.4786 H   0  0  0  0  0  0  0  0  0  0  0  0
  151.7640  141.9497  161.9085 H   0  0  0  0  0  0  0  0  0  0  0  0
  153.2443  142.3861  162.7352 H   0  0  0  0  0  0  0  0  0  0  0  0
  151.7965  144.3849  162.3366 H   0  0  0  0  0  0  0  0  0  0  0  0
  153.3529  144.5573  161.5492 H   0  0  0  0  0  0  0  0  0  0  0  0
  152.0154  143.8581  158.2758 H   0  0  0  0  0  0  0  0  0  0  0  0
  153.4827  144.2432  159.1545 H   0  0  0  0  0  0  0  0  0  0  0  0
  153.4835  141.8375  158.5725 H   0  0  0  0  0  0  0  0  0  0  0  0
  151.8976  141.6124  159.2993 H   0  0  0  0  0  0  0  0  0  0  0  0
  153.6637  137.6017  159.6988 H   0  0  0  0  0  0  0  0  0  0  0  0
  1  2  1  0  0  0  0
  1 24  1  0  0  0  0
  1 25  1  0  0  0  0
  1 26  1  0  0  0  0
  2  3  1  0  0  0  0
  2  9  1  0  0  0  0
  2 27  1  0  0  0  0
  3  4  1  0  0  0  0
  4  5  1  0  0  0  0
  4 28  1  0  0  0  0
  4 29  1  0  0  0  0
  5  6  1  0  0  0  0
  5  7  1  0  0  0  0
  5  8  1  0  0  0  0
  9 10  2  0  0  0  0
  9 11  1  0  0  0  0
 11 12  1  0  0  0  0
 11 30  1  0  0  0  0
 12 23  1  0  0  0  0
 12 13  2  0  0  0  0
 13 14  1  0  0  0  0
 13 31  1  0  0  0  0
 14 15  2  0  0  0  0
 14 32  1  0  0  0  0
 15 16  1  0  0  0  0
 15 22  1  0  0  0  0
 16 21  1  0  0  0  0
 16 17  1  0  0  0  0
 17 18  1  0  0  0  0
 17 33  1  0  0  0  0
 17 34  1  0  0  0  0
 18 19  1  0  0  0  0
 18 35  1  0  0  0  0
 18 36  1  0  0  0  0
 19 20  1  0  0  0  0
 20 21  1  0  0  0  0
 20 37  1  0  0  0  0
 20 38  1  0  0  0  0
 21 39  1  0  0  0  0
 21 40  1  0  0  0  0
 22 23  2  0  0  0  0
 23 41  1  0  0  0  0
M  END
> <s_m_source_file>
AV-unprocessed.smi

> <i_m_source_file_index>
2097

> <i_lp_mmshare_version>
43012

> <i_f3d_flags>
0

> <s_epik_input>
RkMoRikoRilbQ0gyXU9bQ0BASF0oW0NIM10pQyg9TylbTkhdYzFbY0hdW2NIXWMobltjSF0xKU4yW0NIMl1bQ0gyXU9bQ0gyXVtDSDJdMg==

> <s_epik_cmdline>
J2VwaWtfcHl0aG9uJywgJy1waCcsICc3LjAnLCAnLXRuJywgJzgnLCAnLW1hJywgJzIwMCcsICctbWV0YWxfYmluZGluZycsICctaW1hZScsICc8aW5maWxlLm1hZT4nLCAnLW9tYWUnLCAnPG91dGZpbGUubWFlPic=

> <r_lp_tautomer_probability>
1

> <r_epik_Ionization_Penalty>
0.000443452

> <r_epik_Ionization_Penalty_Charging>
0

> <r_epik_Ionization_Penalty_Neutral>
0.000443452

> <r_epik_State_Penalty>
0.00027288

> <r_epik_Charging_Adjusted_Penalty>
0.00027288

> <i_epik_Tot_Q>
0

> <i_epik_Tot_abs_Q>
0

> <r_epik_Metal_State_Penalty>
-0

> <b_epik_Metal_Only>
0

> <s_lp_Force_Field>
OPLS_2005

> <r_lp_Energy>
25.2007

> <b_lp_Chiralities_Consistent>
1

> <s_lp_Variant>
AV-unprocessed.smi:2097-1

> <Gold.Version>
5.8.1

> <Gold.Id.Protein>
6NUR|6NUR_protein|mol2

> <Gold.PLP.Fitness>
43.6463

> <Gold.PLP.PLP>
-42.1895

> <Gold.PLP.part.hbond>
-1.0000

> <Gold.PLP.part.metal>
0.0000

> <Gold.PLP.part.buried>
-5.9380

> <Gold.PLP.part.nonpolar>
-35.2502

> <Gold.PLP.part.repulsive>
0.0607

> <Gold.PLP.ligand.clash>
0.0000

> <Gold.PLP.ligand.torsion>
0.9603

> <Gold.PLP.Chemscore.Hbond>
1.0000

> <Gold.PLP.Chemscore.CHOScore>
0.0000

> <Gold.PLP.Chemscore.Metal>
0.0000

> <Gold.Chemscore.Hbonds>
donor molecule, donor type, donor heavy atom, donor atom, acceptor molecule, acceptor atom, score
      P1  H  6896  6909       L1    10  0.96

> <Gold.PLP.Chemscore.Internal.Correction>
0.3775

> <Gold.Rescore>
     Score         DG    S(hbond)    S(metal)    S(lipo)     H(rot)  DE(clash)    DE(int)     intcor
     12.62     -14.59       1.00        0.00      92.03       1.95       0.10       1.87       ----

> <Gold.Chemscore.Fitness>
12.6226

> <Gold.Chemscore.DG>
-14.5933

> <Gold.Chemscore.ZeroCoef>
-5.4800

> <Gold.Chemscore.Hbond>
0.9986

> <Gold.Chemscore.Metal>
0.0000

> <Gold.Chemscore.Lipo>
92.0325

> <Gold.Chemscore.Internal_Hbond>
0.0000

> <Gold.Chemscore.DEClash>
0.1025

> <Gold.Chemscore.DEInternal>
1.8682

> <Gold.Chemscore.Rot>
1.9491

> <Gold.Chemscore.Internal.Correction>
   9.000000E+99

> <Gold.Chemscore.Hbonds>
donor molecule, donor type, donor heavy atom, donor atom, acceptor molecule, acceptor atom, score
      P1  H  6896  6909       L1    10  0.90

> <Gold.Chemscore.Hbond.Weighted>
-3.3352

> <Gold.Chemscore.Metal.Weighted>
-0.0000

> <Gold.Chemscore.Lipo.Weighted>
-10.7678

> <Gold.Chemscore.Internal_Hbond.Weighted>
0.0000

> <Gold.Chemscore.DEClash.Weighted>
0.1025

> <Gold.Chemscore.DEInternal.Weighted>
1.8682

> <Gold.Chemscore.Rot.Weighted>
4.9897

> <Gold.Chemscore.Internal.Correction.Weighted>
   9.000000E+99

> <Gold.Protein.RotatedTorsions>
[ 6907 6896 6895 6894 ] final -163.18 input  -60.11 | X-H torsion
[ 7974 7965 7964 7962 ] final   77.60 input  175.53 | X-H torsion
[ 8008 7997 7996 7995 ] final  164.02 input   59.86 | X-H torsion
[ 10167 10162 10161 10158 ] final  130.07 input  -65.29 | X-H torsion
[ 10718 10713 10712 10709 ] final -103.35 input   66.30 | X-H torsion
[ 10763 10752 10751 10750 ] final  134.50 input  -60.55 | X-H torsion
[ 11005 11000 10999 10996 ] final   92.41 input  -57.11 | X-H torsion

> <Gold.Protein.ActiveResidues>
 VAL166  LYS551  ARG553  GLY616  TRP617  ASP618  TYR619  PRO620  LYS621  CYS622 
 ASP623  PHE694  ASN695  SER759  ASP760  ASP761  ALA762  ILE779  LEU786  VAL792 
 PHE793  MET794  SER795  GLU796  ALA797  LYS798  CYS799  TRP800  GLU811  SER814 

> <Gold.Protein.RotatedAtoms>
  151.3920  133.3785  159.2721 H   0  0  0  0  0  0  0  0  0  0  0  0  # atno 6907 bound_to 6896
  150.9498  134.8900  159.7675 H   0  0  0  0  0  0  0  0  0  0  0  0  # atno 6908 bound_to 6896
  152.5107  134.3875  159.9424 H   0  0  0  0  0  0  0  0  0  0  0  0  # atno 6909 bound_to 6896
  145.6879  139.2543  143.1776 H   0  0  0  0  0  0  0  0  0  0  0  0  # atno 7974 bound_to 7965
  156.1912  140.1708  156.8087 H   0  0  0  0  0  0  0  0  0  0  0  0  # atno 8008 bound_to 7997
  154.5474  140.0724  156.8644 H   0  0  0  0  0  0  0  0  0  0  0  0  # atno 8009 bound_to 7997
  155.3095  140.3366  155.4247 H   0  0  0  0  0  0  0  0  0  0  0  0  # atno 8010 bound_to 7997
  139.5447  144.6763  151.4511 H   0  0  0  0  0  0  0  0  0  0  0  0  # atno 10167 bound_to 10162
  156.0262  130.5463  150.7240 H   0  0  0  0  0  0  0  0  0  0  0  0  # atno 10718 bound_to 10713
  153.8247  135.3111  155.3413 H   0  0  0  0  0  0  0  0  0  0  0  0  # atno 10763 bound_to 10752
  154.7998  135.4733  154.0252 H   0  0  0  0  0  0  0  0  0  0  0  0  # atno 10764 bound_to 10752
  153.1672  135.6871  153.8749 H   0  0  0  0  0  0  0  0  0  0  0  0  # atno 10765 bound_to 10752
  139.8824  134.8731  156.3569 H   0  0  0  0  0  0  0  0  0  0  0  0  # atno 11005 bound_to 11000
  146.0907  140.7659  142.9596 LP  0  0  0  0  0  0  0  0  0  0  0  0  # atno 17320 bound_to 7965
  144.7005  140.3633  143.7159 LP  0  0  0  0  0  0  0  0  0  0  0  0  # atno 17321 bound_to 7965
  140.6691  143.8333  150.6977 LP  0  0  0  0  0  0  0  0  0  0  0  0  # atno 17342 bound_to 10162
  140.1752  143.4161  152.1973 LP  0  0  0  0  0  0  0  0  0  0  0  0  # atno 17343 bound_to 10162
  157.4849  131.0905  151.0494 LP  0  0  0  0  0  0  0  0  0  0  0  0  # atno 17370 bound_to 10713
  157.0917  130.5945  149.5441 LP  0  0  0  0  0  0  0  0  0  0  0  0  # atno 17371 bound_to 10713
  140.9556  133.7422  156.0331 LP  0  0  0  0  0  0  0  0  0  0  0  0  # atno 17394 bound_to 11000
  140.8053  134.3462  157.5428 LP  0  0  0  0  0  0  0  0  0  0  0  0  # atno 17395 bound_to 11000

$$$$
