#       Name:                AV-unprocessed.smi:1426
#       Creating user name   scv26
#       Creation time:       Fri Mar 27 05:46:14 2020


#       File generated by GOLD software.
#

@<TRIPOS>MOLECULE
AV-unprocessed.smi:1426
    49    51     1
SMALL
NO_CHARGES


@<TRIPOS>ATOM
      1 ****         1.6843   1.8557   0.9216 O.2            1 S1                 0.0000
      2 ****         1.1203   0.7650   1.0079 C.2            1 S1                 0.0000
      3 ****         1.7724  -0.4029   1.0922 N.am           1 S1                 0.0000
      4 ****         3.2238  -0.5527   1.0888 C.3            1 S1                 0.0000
      5 ****         3.8070  -0.4859  -0.3356 C.3            1 S1                 0.0000
      6 ****         5.3049  -0.7005  -0.3977 C.3            1 S1                 0.0000
      7 ****         5.5097  -1.0476  -1.8689 C.3            1 S1                 0.0000
      8 ****         4.3261  -1.7296  -2.2735 O.3            1 S1                 0.0000
      9 ****         3.3119  -1.5800  -1.2838 C.3            1 S1                 0.0000
     10 ****        -0.2106   0.5814   1.0073 N.am           1 S1                 0.0000
     11 ****        -1.2319   1.5697   0.9162 C.ar           1 S1                 0.0000
     12 ****        -1.0579   2.8607   1.4786 C.ar           1 S1                 0.0000
     13 ****        -2.0769   3.8241   1.3575 C.ar           1 S1                 0.0000
     14 ****        -3.2587   3.4818   0.6789 C.ar           1 S1                 0.0000
     15 ****        -3.4029   2.2398   0.1728 N.pl3          1 S1                 1.0000
     16 ****        -2.4650   1.2641   0.2695 C.ar           1 S1                 0.0000
     17 ****        -2.7638   0.0045  -0.2985 N.3            1 S1                 0.0000
     18 ****        -3.9460  -0.1666  -1.1349 C.3            1 S1                 0.0000
     19 ****        -4.1309  -1.6767  -1.2549 C.3            1 S1                 0.0000
     20 ****        -3.6791  -2.1703   0.1161 C.3            1 S1                 0.0000
     21 ****        -2.5551  -1.2009   0.4976 C.3            1 S1                 0.0000
     22 ****         1.2295  -1.2515   1.1582 H              1 S1                 0.0000
     23 ****         3.6794   0.2123   1.7199 H              1 S1                 0.0000
     24 ****         3.4645  -1.5118   1.5480 H              1 S1                 0.0000
     25 ****         3.5841   0.4869  -0.7777 H              1 S1                 0.0000
     26 ****         5.8772   0.1733  -0.0845 H              1 S1                 0.0000
     27 ****         5.5977  -1.5441   0.2292 H              1 S1                 0.0000
     28 ****         5.6061  -0.1385  -2.4637 H              1 S1                 0.0000
     29 ****         6.3988  -1.6564  -2.0343 H              1 S1                 0.0000
     30 ****         3.2057  -2.5296  -0.7575 H              1 S1                 0.0000
     31 ****         2.3499  -1.3356  -1.7353 H              1 S1                 0.0000
     32 ****        -0.5262  -0.3768   0.9748 H              1 S1                 0.0000
     33 ****        -0.1564   3.1270   2.0095 H              1 S1                 0.0000
     34 ****        -1.9517   4.8108   1.7788 H              1 S1                 0.0000
     35 ****        -4.0915   4.1548   0.5340 H              1 S1                 0.0000
     36 ****        -4.8216   0.2714  -0.6538 H              1 S1                 0.0000
     37 ****        -3.8163   0.3041  -2.1100 H              1 S1                 0.0000
     38 ****        -5.1549  -1.9624  -1.4975 H              1 S1                 0.0000
     39 ****        -3.4731  -2.0741  -2.0293 H              1 S1                 0.0000
     40 ****        -4.5017  -2.0770   0.8265 H              1 S1                 0.0000
     41 ****        -3.3573  -3.2123   0.1102 H              1 S1                 0.0000
     42 ****        -1.5883  -1.6311   0.2348 H              1 S1                 0.0000
     43 ****        -2.5573  -0.9934   1.5685 H              1 S1                 0.0000
     44 ****        -4.2765   2.0191  -0.3052 H              1 S1                 0.0000
     45 ****         2.6831   1.9027   0.9116 LP             1 S1                 0.0000
     46 ****         1.1436   2.6948   0.8615 LP             1 S1                 0.0000
     47 ****         4.5292  -2.7012  -2.3946 LP             1 S1                 0.0000
     48 ****         4.0029  -1.3463  -3.1388 LP             1 S1                 0.0000
     49 ****        -1.9931   0.0927  -0.9296 LP             1 S1                 0.0000
@<TRIPOS>BOND
    1    1    2 2     
    2    2    3 am    
    3    2   10 am    
    4    3    4 1     
    5    3   22 1     
    6    4    5 1     
    7    4   23 1     
    8    4   24 1     
    9    5    9 1     
   10    5    6 1     
   11    5   25 1     
   12    6    7 1     
   13    6   26 1     
   14    6   27 1     
   15    7    8 1     
   16    7   28 1     
   17    7   29 1     
   18    8    9 1     
   19    9   30 1     
   20    9   31 1     
   21   10   11 1     
   22   10   32 1     
   23   11   16 ar    
   24   11   12 ar    
   25   12   13 ar    
   26   12   33 1     
   27   13   14 ar    
   28   13   34 1     
   29   14   15 ar    
   30   14   35 1     
   31   15   16 ar    
   32   15   44 1     
   33   16   17 1     
   34   17   21 1     
   35   17   18 1     
   36   18   19 1     
   37   18   36 1     
   38   18   37 1     
   39   19   20 1     
   40   19   38 1     
   41   19   39 1     
   42   20   21 1     
   43   20   40 1     
   44   20   41 1     
   45   21   42 1     
   46   21   43 1     
   47    1   45 1     
   48    1   46 1     
   49    8   47 1     
   50    8   48 1     
   51   17   49 1     
@<TRIPOS>SUBSTRUCTURE
      1 S1             1
@<TRIPOS>SET
LONE_PAIRS      STATIC     ATOMS    <user>   **** ""
5 45 46 47 48 49
DONOR_HYDROGENS      STATIC     ATOMS    <user>   **** ""
3 22 32 44
ATOM$BLUE        STATIC     ATOMS    COLORGROUP SYSTEM
5 45 46 47 48 49
ATOM$RED        STATIC     ATOMS    COLORGROUP SYSTEM
3 22 32 44
