AV-unprocessed.smi:1997|AV-procd|sdf|8089|dock8
  -GOLD-   2272010303D 1   1.00000     0.00000
 Structure written by MMmdl.
 36 38  0  0  0  0  0  0  0  0  2 V2000
  145.9635  134.5239  155.5665 O   0  0  0  0  0  0  0  0  0  0  0  0
  146.9245  135.1039  155.0554 C   0  0  0  0  0  0  0  0  0  0  0  0
  147.7592  135.9697  155.6745 N   0  5  0  0  0  0  0  0  0  0  0  0
  148.1544  135.7341  156.9364 C   0  0  0  0  0  0  0  0  0  0  0  0
  149.4472  135.6702  157.2850 N   0  0  0  0  0  0  0  0  0  0  0  0
  149.6351  135.4198  158.6365 N   0  0  0  0  0  0  0  0  0  0  0  0
  148.4783  135.3036  159.2927 C   0  0  0  0  0  0  0  0  0  0  0  0
  148.4134  135.0296  160.7579 C   0  0  0  0  0  0  0  0  0  0  0  0
  147.0958  134.7156  161.4286 C   0  0  0  0  0  0  0  0  0  0  0  0
  147.7932  136.0196  161.7197 C   0  0  0  0  0  0  0  0  0  0  0  0
  147.0494  135.5054  158.2912 S   0  0  0  0  0  0  0  0  0  0  0  0
  147.2186  134.9007  153.7620 N   0  0  0  0  0  0  0  0  0  0  0  0
  146.4922  134.0278  152.8354 C   0  0  1  0  0  0  0  0  0  0  0  0
  145.9572  134.9105  151.6844 C   0  0  0  0  0  0  0  0  0  0  0  0
  144.7561  134.3005  150.9406 C   0  0  0  0  0  0  0  0  0  0  0  0
  145.0549  132.9997  150.1799 C   0  0  0  0  0  0  0  0  0  0  0  0
  145.5013  131.8407  151.0874 C   0  0  0  0  0  0  0  0  0  0  0  0
  146.8943  131.9699  151.4937 N   0  0  0  0  0  0  0  0  0  0  0  0
  147.4257  132.9419  152.2509 C   0  0  0  0  0  0  0  0  0  0  0  0
  148.6371  132.9665  152.4673 O   0  0  0  0  0  0  0  0  0  0  0  0
  149.2965  134.4856  161.0868 H   0  0  0  0  0  0  0  0  0  0  0  0
  146.1965  134.7528  160.8168 H   0  0  0  0  0  0  0  0  0  0  0  0
  147.0987  133.9578  162.2094 H   0  0  0  0  0  0  0  0  0  0  0  0
  148.2626  136.1319  162.6948 H   0  0  0  0  0  0  0  0  0  0  0  0
  147.3457  136.9234  161.3116 H   0  0  0  0  0  0  0  0  0  0  0  0
  148.0198  135.3889  153.3902 H   0  0  0  0  0  0  0  0  0  0  0  0
  145.6606  133.5615  153.3666 H   0  0  0  0  0  0  0  0  0  0  0  0
  145.6248  135.8651  152.0954 H   0  0  0  0  0  0  0  0  0  0  0  0
  146.7526  135.1586  150.9795 H   0  0  0  0  0  0  0  0  0  0  0  0
  143.9437  134.1282  151.6477 H   0  0  0  0  0  0  0  0  0  0  0  0
  144.3785  135.0366  150.2304 H   0  0  0  0  0  0  0  0  0  0  0  0
  144.1467  132.6979  149.6575 H   0  0  0  0  0  0  0  0  0  0  0  0
  145.8002  133.1792  149.4040 H   0  0  0  0  0  0  0  0  0  0  0  0
  144.8537  131.7485  151.9606 H   0  0  0  0  0  0  0  0  0  0  0  0
  145.4129  130.9022  150.5398 H   0  0  0  0  0  0  0  0  0  0  0  0
  147.5291  131.2694  151.1395 H   0  0  0  0  0  0  0  0  0  0  0  0
  1  2  2  0  0  0  0
  2  3  1  0  0  0  0
  2 12  1  0  0  0  0
  3  4  1  0  0  0  0
  4 11  1  0  0  0  0
  4  5  2  0  0  0  0
  5  6  1  0  0  0  0
  6  7  2  0  0  0  0
  7  8  1  0  0  0  0
  7 11  1  0  0  0  0
  8 10  1  0  0  0  0
  8  9  1  0  0  0  0
  8 21  1  0  0  0  0
  9 10  1  0  0  0  0
  9 22  1  0  0  0  0
  9 23  1  0  0  0  0
 10 24  1  0  0  0  0
 10 25  1  0  0  0  0
 12 13  1  0  0  0  0
 12 26  1  0  0  0  0
 13 19  1  0  0  0  0
 13 14  1  0  0  0  0
 13 27  1  0  0  0  0
 14 15  1  0  0  0  0
 14 28  1  0  0  0  0
 14 29  1  0  0  0  0
 15 16  1  0  0  0  0
 15 30  1  0  0  0  0
 15 31  1  0  0  0  0
 16 17  1  0  0  0  0
 16 32  1  0  0  0  0
 16 33  1  0  0  0  0
 17 18  1  0  0  0  0
 17 34  1  0  0  0  0
 17 35  1  0  0  0  0
 18 19  1  0  0  0  0
 18 36  1  0  0  0  0
 19 20  2  0  0  0  0
M  CHG  1   3  -1
M  END
> <s_m_source_file>
AV-unprocessed.smi

> <i_m_source_file_index>
1997

> <i_lp_mmshare_version>
43012

> <i_f3d_flags>
0

> <s_epik_input>
W0NIMl0xW0NIMl1bQ0hdMWMoczIpbm5jMltOSF1DKD1PKVtOSF1bQ0BASF0zW0NIMl1bQ0gyXVtDSDJdW0NIMl1bTkhdQzM9Tw==

> <s_epik_cmdline>
J2VwaWtfcHl0aG9uJywgJy1waCcsICc3LjAnLCAnLXRuJywgJzgnLCAnLW1hJywgJzIwMCcsICctbWV0YWxfYmluZGluZycsICctaW1hZScsICc8aW5maWxlLm1hZT4nLCAnLW9tYWUnLCAnPG91dGZpbGUubWFlPic=

> <r_lp_tautomer_probability>
1

> <r_epik_Ionization_Penalty>
4.47229

> <r_epik_Ionization_Penalty_Charging>
4.32584

> <r_epik_Ionization_Penalty_Neutral>
0.146443

> <r_epik_State_Penalty>
4.32544

> <r_epik_Charging_Adjusted_Penalty>
8.65129

> <i_epik_Tot_Q>
-1

> <i_epik_Tot_abs_Q>
1

> <r_epik_Metal_State_Penalty>
0.738743

> <b_epik_Metal_Only>
1

> <s_lp_Force_Field>
OPLS_2005

> <r_lp_Energy>
7.41149

> <b_lp_Chiralities_Consistent>
1

> <s_lp_Variant>
AV-unprocessed.smi:1997-4

> <Gold.Version>
5.8.1

> <Gold.Id.Protein>
6NUR|6NUR_protein|mol2

> <Gold.PLP.Fitness>
32.8732

> <Gold.PLP.PLP>
-25.5562

> <Gold.PLP.part.hbond>
-3.0000

> <Gold.PLP.part.metal>
0.0000

> <Gold.PLP.part.buried>
-4.5811

> <Gold.PLP.part.nonpolar>
-18.4065

> <Gold.PLP.part.repulsive>
0.3399

> <Gold.PLP.ligand.clash>
0.0000

> <Gold.PLP.ligand.torsion>
0.8949

> <Gold.PLP.Chemscore.Hbond>
2.9920

> <Gold.PLP.Chemscore.CHOScore>
0.0000

> <Gold.PLP.Chemscore.Metal>
0.0000

> <Gold.Chemscore.Hbonds>
donor molecule, donor type, donor heavy atom, donor atom, acceptor molecule, acceptor atom, score
      L1  H    12    26       P1  7948  0.99
      L1  H    18    36       P1 10747  1.00
      P1  H  6896  6909       L1     6  1.00

> <Gold.PLP.Chemscore.Internal.Correction>
0.1307

> <Gold.Rescore>
     Score         DG    S(hbond)    S(metal)    S(lipo)     H(rot)  DE(clash)    DE(int)     intcor
     17.48     -18.39       2.86        0.00      56.59       1.27       0.02       0.89       ----

> <Gold.Chemscore.Fitness>
17.4761

> <Gold.Chemscore.DG>
-18.3909

> <Gold.Chemscore.ZeroCoef>
-5.4800

> <Gold.Chemscore.Hbond>
2.8596

> <Gold.Chemscore.Metal>
0.0000

> <Gold.Chemscore.Lipo>
56.5874

> <Gold.Chemscore.Internal_Hbond>
0.0000

> <Gold.Chemscore.DEClash>
0.0234

> <Gold.Chemscore.DEInternal>
0.8914

> <Gold.Chemscore.Rot>
1.2738

> <Gold.Chemscore.Internal.Correction>
   9.000000E+99

> <Gold.Chemscore.Hbonds>
donor molecule, donor type, donor heavy atom, donor atom, acceptor molecule, acceptor atom, score
      L1  H    12    26       P1  7948  0.93
      L1  H    18    36       P1 10747  0.94
      P1  H  6896  6909       L1     6  0.44

> <Gold.Chemscore.Hbond.Weighted>
-9.5511

> <Gold.Chemscore.Metal.Weighted>
-0.0000

> <Gold.Chemscore.Lipo.Weighted>
-6.6207

> <Gold.Chemscore.Internal_Hbond.Weighted>
0.0000

> <Gold.Chemscore.DEClash.Weighted>
0.0234

> <Gold.Chemscore.DEInternal.Weighted>
0.8914

> <Gold.Chemscore.Rot.Weighted>
3.2610

> <Gold.Chemscore.Internal.Correction.Weighted>
   9.000000E+99

> <Gold.Protein.RotatedTorsions>
[ 6907 6896 6895 6894 ] final   48.80 input  -60.11 | X-H torsion
[ 7974 7965 7964 7962 ] final -160.95 input  175.53 | X-H torsion
[ 8008 7997 7996 7995 ] final  163.62 input   59.86 | X-H torsion
[ 10167 10162 10161 10158 ] final -138.85 input  -65.29 | X-H torsion
[ 10718 10713 10712 10709 ] final  168.11 input   66.30 | X-H torsion
[ 10763 10752 10751 10750 ] final   19.37 input  -60.55 | X-H torsion
[ 11005 11000 10999 10996 ] final  -32.91 input  -57.11 | X-H torsion

> <Gold.Protein.ActiveResidues>
 VAL166  LYS551  ARG553  GLY616  TRP617  ASP618  TYR619  PRO620  LYS621  CYS622 
 ASP623  PHE694  ASN695  SER759  ASP760  ASP761  ALA762  ILE779  LEU786  VAL792 
 PHE793  MET794  SER795  GLU796  ALA797  LYS798  CYS799  TRP800  GLU811  SER814 

> <Gold.Protein.RotatedAtoms>
  152.2836  134.7801  160.0391 H   0  0  0  0  0  0  0  0  0  0  0  0  # atno 6907 bound_to 6896
  151.8372  133.3412  159.3640 H   0  0  0  0  0  0  0  0  0  0  0  0  # atno 6908 bound_to 6896
  150.7200  134.5355  159.5765 H   0  0  0  0  0  0  0  0  0  0  0  0  # atno 6909 bound_to 6896
  144.7408  140.3467  143.6124 H   0  0  0  0  0  0  0  0  0  0  0  0  # atno 7974 bound_to 7965
  156.1943  140.1719  156.8029 H   0  0  0  0  0  0  0  0  0  0  0  0  # atno 8008 bound_to 7997
  154.5510  140.0717  156.8699 H   0  0  0  0  0  0  0  0  0  0  0  0  # atno 8009 bound_to 7997
  155.3029  140.3362  155.4249 H   0  0  0  0  0  0  0  0  0  0  0  0  # atno 8010 bound_to 7997
  139.8437  143.7288  152.2662 H   0  0  0  0  0  0  0  0  0  0  0  0  # atno 10167 bound_to 10162
  157.0419  131.0289  151.2710 H   0  0  0  0  0  0  0  0  0  0  0  0  # atno 10718 bound_to 10713
  153.1168  135.6710  153.9404 H   0  0  0  0  0  0  0  0  0  0  0  0  # atno 10763 bound_to 10752
  153.8932  135.3044  155.3449 H   0  0  0  0  0  0  0  0  0  0  0  0  # atno 10764 bound_to 10752
  154.7583  135.5000  153.9495 H   0  0  0  0  0  0  0  0  0  0  0  0  # atno 10765 bound_to 10752
  140.9591  133.7175  156.1341 H   0  0  0  0  0  0  0  0  0  0  0  0  # atno 11005 bound_to 11000
  145.7318  139.1738  143.2426 LP  0  0  0  0  0  0  0  0  0  0  0  0  # atno 17320 bound_to 7965
  146.1200  140.7321  142.9462 LP  0  0  0  0  0  0  0  0  0  0  0  0  # atno 17321 bound_to 7965
  139.7533  144.7528  151.0473 LP  0  0  0  0  0  0  0  0  0  0  0  0  # atno 17342 bound_to 10162
  140.7795  143.4834  150.9988 LP  0  0  0  0  0  0  0  0  0  0  0  0  # atno 17343 bound_to 10162
  157.5098  130.7931  149.7693 LP  0  0  0  0  0  0  0  0  0  0  0  0  # atno 17370 bound_to 10713
  156.0035  130.3867  150.2516 LP  0  0  0  0  0  0  0  0  0  0  0  0  # atno 17371 bound_to 10713
  140.7493  134.4062  157.5543 LP  0  0  0  0  0  0  0  0  0  0  0  0  # atno 17394 bound_to 11000
  139.8872  134.8889  156.2542 LP  0  0  0  0  0  0  0  0  0  0  0  0  # atno 17395 bound_to 11000

$$$$
