AV-unprocessed.smi:1510|AV-procd|sdf|6094|dock2
  -GOLD-   22720 6223D 1   1.00000     0.00000
 Structure written by MMmdl.
 32 33  0  0  0  0  0  0  0  0  2 V2000
  154.6932  140.4283  159.0624 O   0  0  0  0  0  0  0  0  0  0  0  0
  153.6543  140.0735  159.6215 C   0  0  0  0  0  0  0  0  0  0  0  0
  153.1228  138.6393  159.4713 C   0  0  0  0  0  0  0  0  0  0  0  0
  152.5676  138.3443  158.1421 N   0  0  0  0  0  0  0  0  0  0  0  0
  153.1101  139.1817  157.0757 N   0  5  0  0  0  0  0  0  0  0  0  0
  152.6875  138.9845  155.7988 C   0  0  0  0  0  0  0  0  0  0  0  0
  153.1119  139.6374  154.8481 O   0  0  0  0  0  0  0  0  0  0  0  0
  151.6868  137.9577  155.5598 C   0  0  0  0  0  0  0  0  0  0  0  0
  151.1835  137.2180  156.5675 C   0  0  0  0  0  0  0  0  0  0  0  0
  151.6099  137.3923  157.9506 C   0  0  0  0  0  0  0  0  0  0  0  0
  151.1447  136.7290  158.8778 O   0  0  0  0  0  0  0  0  0  0  0  0
  152.9076  140.8959  160.3743 N   0  0  0  0  0  0  0  0  0  0  0  0
  153.2066  142.2965  160.6545 C   0  0  0  0  0  0  0  0  0  0  0  0
  152.1910  143.2424  159.9914 C   0  0  2  0  0  0  0  0  0  0  0  0
  152.6825  143.9353  158.7193 C   0  0  0  0  0  0  0  0  0  0  0  0
  151.8139  145.1715  158.6912 C   0  0  0  0  0  0  0  0  0  0  0  0
  151.7467  145.5337  160.1716 C   0  0  0  0  0  0  0  0  0  0  0  0
  151.8524  144.3026  160.8825 O   0  0  0  0  0  0  0  0  0  0  0  0
  153.9241  137.9315  159.6914 H   0  0  0  0  0  0  0  0  0  0  0  0
  152.3697  138.4786  160.2448 H   0  0  0  0  0  0  0  0  0  0  0  0
  151.3374  137.7863  154.5522 H   0  0  0  0  0  0  0  0  0  0  0  0
  150.4402  136.4673  156.3442 H   0  0  0  0  0  0  0  0  0  0  0  0
  152.0676  140.5194  160.7887 H   0  0  0  0  0  0  0  0  0  0  0  0
  153.1721  142.4298  161.7358 H   0  0  0  0  0  0  0  0  0  0  0  0
  154.2232  142.5512  160.3501 H   0  0  0  0  0  0  0  0  0  0  0  0
  151.2695  142.7011  159.7700 H   0  0  0  0  0  0  0  0  0  0  0  0
  153.7312  144.2206  158.8155 H   0  0  0  0  0  0  0  0  0  0  0  0
  152.5766  143.3163  157.8280 H   0  0  0  0  0  0  0  0  0  0  0  0
  152.2226  145.9715  158.0735 H   0  0  0  0  0  0  0  0  0  0  0  0
  150.8198  144.9222  158.3177 H   0  0  0  0  0  0  0  0  0  0  0  0
  152.5925  146.1645  160.4475 H   0  0  0  0  0  0  0  0  0  0  0  0
  150.8300  146.0648  160.4287 H   0  0  0  0  0  0  0  0  0  0  0  0
  1  2  2  0  0  0  0
  2  3  1  0  0  0  0
  2 12  1  0  0  0  0
  3 19  1  0  0  0  0
  3 20  1  0  0  0  0
  3  4  1  0  0  0  0
  4  5  1  0  0  0  0
  4 10  1  0  0  0  0
  5  6  1  0  0  0  0
  6  7  2  0  0  0  0
  6  8  1  0  0  0  0
  8 21  1  0  0  0  0
  8  9  2  0  0  0  0
  9 22  1  0  0  0  0
  9 10  1  0  0  0  0
 10 11  2  0  0  0  0
 12 13  1  0  0  0  0
 12 23  1  0  0  0  0
 13 14  1  0  0  0  0
 13 24  1  0  0  0  0
 13 25  1  0  0  0  0
 14 18  1  0  0  0  0
 14 15  1  0  0  0  0
 14 26  1  0  0  0  0
 15 16  1  0  0  0  0
 15 27  1  0  0  0  0
 15 28  1  0  0  0  0
 16 17  1  0  0  0  0
 16 29  1  0  0  0  0
 16 30  1  0  0  0  0
 17 18  1  0  0  0  0
 17 31  1  0  0  0  0
 17 32  1  0  0  0  0
M  CHG  1   5  -1
M  END
> <s_m_source_file>
AV-unprocessed.smi

> <i_m_source_file_index>
1510

> <i_lp_mmshare_version>
43012

> <i_f3d_flags>
0

> <s_epik_input>
TzFbQ0gyXVtDSDJdW0NIMl1bQ0BIXTFbQ0gyXVtOSF1DKD1PKVtDSDJdbjJbbkhdYyg9TylbY0hdW2NIXWMyPU8=

> <s_epik_cmdline>
J2VwaWtfcHl0aG9uJywgJy1waCcsICc3LjAnLCAnLXRuJywgJzgnLCAnLW1hJywgJzIwMCcsICctbWV0YWxfYmluZGluZycsICctaW1hZScsICc8aW5maWxlLm1hZT4nLCAnLW9tYWUnLCAnPG91dGZpbGUubWFlPic=

> <r_lp_tautomer_probability>
1

> <r_epik_Ionization_Penalty>
0.0970799

> <r_epik_Ionization_Penalty_Charging>
0.0970799

> <r_epik_Ionization_Penalty_Neutral>
2.6859e-08

> <r_epik_State_Penalty>
0.0341592

> <r_epik_Charging_Adjusted_Penalty>
0.131239

> <i_epik_Tot_Q>
-1

> <i_epik_Tot_abs_Q>
1

> <r_epik_Metal_State_Penalty>
0.0341592

> <b_epik_Metal_Only>
0

> <s_lp_Force_Field>
OPLS_2005

> <r_lp_Energy>
32.5095

> <b_lp_Chiralities_Consistent>
1

> <s_lp_Variant>
AV-unprocessed.smi:1510-1

> <Gold.Version>
5.8.1

> <Gold.Id.Protein>
6NUR|6NUR_protein|mol2

> <Gold.PLP.Fitness>
43.4108

> <Gold.PLP.PLP>
-35.8461

> <Gold.PLP.part.hbond>
-5.0000

> <Gold.PLP.part.metal>
0.0000

> <Gold.PLP.part.buried>
-3.9126

> <Gold.PLP.part.nonpolar>
-26.8617

> <Gold.PLP.part.repulsive>
0.2710

> <Gold.PLP.ligand.clash>
0.0000

> <Gold.PLP.ligand.torsion>
1.1151

> <Gold.PLP.Chemscore.Hbond>
3.2606

> <Gold.PLP.Chemscore.CHOScore>
0.0000

> <Gold.PLP.Chemscore.Metal>
0.0000

> <Gold.Chemscore.Hbonds>
donor molecule, donor type, donor heavy atom, donor atom, acceptor molecule, acceptor atom, score
      P1  H  6896  6909       L1    11  0.93
      P1  H  7989  7998       L1     7  0.11
      P1  H  7997  8009       L1     5  1.98
      P1  H  7997  8010       L1     7  0.22

> <Gold.PLP.Chemscore.Internal.Correction>
0.0130

> <Gold.Rescore>
     Score         DG    S(hbond)    S(metal)    S(lipo)     H(rot)  DE(clash)    DE(int)     intcor
     12.85     -15.44       1.86        0.00      76.90       2.05       0.06       2.53       ----

> <Gold.Chemscore.Fitness>
12.8545

> <Gold.Chemscore.DG>
-15.4441

> <Gold.Chemscore.ZeroCoef>
-5.4800

> <Gold.Chemscore.Hbond>
1.8579

> <Gold.Chemscore.Metal>
0.0000

> <Gold.Chemscore.Lipo>
76.9008

> <Gold.Chemscore.Internal_Hbond>
0.0000

> <Gold.Chemscore.DEClash>
0.0589

> <Gold.Chemscore.DEInternal>
2.5307

> <Gold.Chemscore.Rot>
2.0463

> <Gold.Chemscore.Internal.Correction>
   9.000000E+99

> <Gold.Chemscore.Hbonds>
donor molecule, donor type, donor heavy atom, donor atom, acceptor molecule, acceptor atom, score
      P1  H  6896  6909       L1    11  0.91
      P1  H  7989  7998       L1     7  0.11
      P1  H  7997  8009       L1     5  0.56
      P1  H  7997  8010       L1     7  0.12

> <Gold.Chemscore.Hbond.Weighted>
-6.2053

> <Gold.Chemscore.Metal.Weighted>
-0.0000

> <Gold.Chemscore.Lipo.Weighted>
-8.9974

> <Gold.Chemscore.Internal_Hbond.Weighted>
0.0000

> <Gold.Chemscore.DEClash.Weighted>
0.0589

> <Gold.Chemscore.DEInternal.Weighted>
2.5307

> <Gold.Chemscore.Rot.Weighted>
5.2386

> <Gold.Chemscore.Internal.Correction.Weighted>
   9.000000E+99

> <Gold.Protein.RotatedTorsions>
[ 6907 6896 6895 6894 ] final   91.63 input  -60.11 | X-H torsion
[ 7974 7965 7964 7962 ] final  -60.86 input  175.53 | X-H torsion
[ 8008 7997 7996 7995 ] final  155.61 input   59.86 | X-H torsion
[ 10167 10162 10161 10158 ] final -158.31 input  -65.29 | X-H torsion
[ 10718 10713 10712 10709 ] final   94.59 input   66.30 | X-H torsion
[ 10763 10752 10751 10750 ] final  -64.92 input  -60.55 | X-H torsion
[ 11005 11000 10999 10996 ] final -111.35 input  -57.11 | X-H torsion

> <Gold.Protein.ActiveResidues>
 VAL166  LYS551  ARG553  GLY616  TRP617  ASP618  TYR619  PRO620  LYS621  CYS622 
 ASP623  PHE694  ASN695  SER759  ASP760  ASP761  ALA762  ILE779  LEU786  VAL792 
 PHE793  MET794  SER795  GLU796  ALA797  LYS798  CYS799  TRP800  GLU811  SER814 

> <Gold.Protein.RotatedAtoms>
  152.5450  134.1627  159.8563 H   0  0  0  0  0  0  0  0  0  0  0  0  # atno 6907 bound_to 6896
  151.1643  133.4817  159.2601 H   0  0  0  0  0  0  0  0  0  0  0  0  # atno 6908 bound_to 6896
  151.1340  135.0156  159.8650 H   0  0  0  0  0  0  0  0  0  0  0  0  # atno 6909 bound_to 6896
  145.8104  140.8602  143.0185 H   0  0  0  0  0  0  0  0  0  0  0  0  # atno 7974 bound_to 7965
  156.2469  140.1935  156.6827 H   0  0  0  0  0  0  0  0  0  0  0  0  # atno 8008 bound_to 7997
  154.6310  140.0596  156.9758 H   0  0  0  0  0  0  0  0  0  0  0  0  # atno 8009 bound_to 7997
  155.1711  140.3268  155.4395 H   0  0  0  0  0  0  0  0  0  0  0  0  # atno 8010 bound_to 7997
  139.6702  143.9759  152.2279 H   0  0  0  0  0  0  0  0  0  0  0  0  # atno 10167 bound_to 10162
  157.6946  131.0517  150.4209 H   0  0  0  0  0  0  0  0  0  0  0  0  # atno 10718 bound_to 10713
  154.3373  135.6164  153.5579 H   0  0  0  0  0  0  0  0  0  0  0  0  # atno 10763 bound_to 10752
  152.9807  135.5761  154.4894 H   0  0  0  0  0  0  0  0  0  0  0  0  # atno 10764 bound_to 10752
  154.4591  135.2855  155.1703 H   0  0  0  0  0  0  0  0  0  0  0  0  # atno 10765 bound_to 10752
  141.0739  133.9333  157.2429 H   0  0  0  0  0  0  0  0  0  0  0  0  # atno 11005 bound_to 11000
  144.6758  140.0387  143.7481 LP  0  0  0  0  0  0  0  0  0  0  0  0  # atno 17320 bound_to 7965
  145.9783  139.2922  143.1057 LP  0  0  0  0  0  0  0  0  0  0  0  0  # atno 17321 bound_to 7965
  139.9521  144.6613  150.8161 LP  0  0  0  0  0  0  0  0  0  0  0  0  # atno 17342 bound_to 10162
  140.7615  143.3175  151.2698 LP  0  0  0  0  0  0  0  0  0  0  0  0  # atno 17343 bound_to 10162
  156.4584  130.4026  149.6592 LP  0  0  0  0  0  0  0  0  0  0  0  0  # atno 17370 bound_to 10713
  156.3716  130.7533  151.2517 LP  0  0  0  0  0  0  0  0  0  0  0  0  # atno 17371 bound_to 10713
  139.9552  135.0167  156.9107 LP  0  0  0  0  0  0  0  0  0  0  0  0  # atno 17394 bound_to 11000
  140.5615  134.0531  155.7400 LP  0  0  0  0  0  0  0  0  0  0  0  0  # atno 17395 bound_to 11000

$$$$
