AV-unprocessed.smi:3138|AV-procd|sdf|11955|dock5
  -GOLD-   2272017353D 1   1.00000     0.00000
 Structure written by MMmdl.
 37 38  0  0  0  0  0  0  0  0  1 V2000
  151.5841  140.7435  157.9252 O   0  0  0  0  0  0  0  0  0  0  0  0
  151.4410  141.9555  158.0996 C   0  0  0  0  0  0  0  0  0  0  0  0
  150.3164  142.6903  157.3490 C   0  0  0  0  0  0  0  0  0  0  0  0
  150.1051  142.1900  155.9844 N   0  0  0  0  0  0  0  0  0  0  0  0
  149.1284  141.1116  155.9785 C   0  0  0  0  0  0  0  0  0  0  0  0
  149.2073  140.3572  154.6438 C   0  0  0  0  0  0  0  0  0  0  0  0
  150.3650  139.4853  154.5916 N   0  0  0  0  0  0  0  0  0  0  0  0
  150.4130  138.1453  154.2707 C   0  0  0  0  0  0  0  0  0  0  0  0
  151.7177  137.7526  154.3614 C   0  0  0  0  0  0  0  0  0  0  0  0
  152.4008  138.9380  154.7523 C   0  0  0  0  0  0  0  0  0  0  0  0
  151.5882  139.9732  154.8910 N   0  0  0  0  0  0  0  0  0  0  0  0
  152.2499  142.6649  158.9248 N   0  0  0  0  0  0  0  0  0  0  0  0
  152.0463  144.0937  159.1987 C   0  0  0  0  0  0  0  0  0  0  0  0
  151.5651  144.2566  160.6526 C   0  0  0  0  0  0  0  0  0  0  0  0
  152.5557  143.6095  161.6392 C   0  0  0  0  0  0  0  0  0  0  0  0
  152.9088  142.1676  161.2278 C   0  0  0  0  0  0  0  0  0  0  0  0
  153.3316  142.1069  159.7487 C   0  0  0  0  0  0  0  0  0  0  0  0
  149.3899  142.5823  157.9149 H   0  0  0  0  0  0  0  0  0  0  0  0
  150.5612  143.7526  157.3036 H   0  0  0  0  0  0  0  0  0  0  0  0
  149.7936  142.9273  155.3681 H   0  0  0  0  0  0  0  0  0  0  0  0
  149.3222  140.4305  156.8087 H   0  0  0  0  0  0  0  0  0  0  0  0
  148.1258  141.5203  156.1151 H   0  0  0  0  0  0  0  0  0  0  0  0
  148.3136  139.7490  154.4959 H   0  0  0  0  0  0  0  0  0  0  0  0
  149.2556  141.0571  153.8080 H   0  0  0  0  0  0  0  0  0  0  0  0
  149.5248  137.5891  154.0085 H   0  0  0  0  0  0  0  0  0  0  0  0
  152.1225  136.7685  154.1780 H   0  0  0  0  0  0  0  0  0  0  0  0
  153.4557  139.0755  154.9387 H   0  0  0  0  0  0  0  0  0  0  0  0
  152.9858  144.6282  159.0513 H   0  0  0  0  0  0  0  0  0  0  0  0
  151.3314  144.5593  158.5192 H   0  0  0  0  0  0  0  0  0  0  0  0
  151.4369  145.3128  160.8904 H   0  0  0  0  0  0  0  0  0  0  0  0
  150.5841  143.7926  160.7637 H   0  0  0  0  0  0  0  0  0  0  0  0
  153.4689  144.2050  161.6679 H   0  0  0  0  0  0  0  0  0  0  0  0
  152.1464  143.6248  162.6497 H   0  0  0  0  0  0  0  0  0  0  0  0
  153.7067  141.7835  161.8635 H   0  0  0  0  0  0  0  0  0  0  0  0
  152.0460  141.5194  161.3867 H   0  0  0  0  0  0  0  0  0  0  0  0
  153.6060  141.0874  159.4836 H   0  0  0  0  0  0  0  0  0  0  0  0
  154.2366  142.6971  159.5968 H   0  0  0  0  0  0  0  0  0  0  0  0
  1  2  2  0  0  0  0
  2  3  1  0  0  0  0
  2 12  1  0  0  0  0
  3  4  1  0  0  0  0
  3 18  1  0  0  0  0
  3 19  1  0  0  0  0
  4  5  1  0  0  0  0
  4 20  1  0  0  0  0
  5  6  1  0  0  0  0
  5 21  1  0  0  0  0
  5 22  1  0  0  0  0
  6  7  1  0  0  0  0
  6 23  1  0  0  0  0
  6 24  1  0  0  0  0
  7 11  1  0  0  0  0
  7  8  1  0  0  0  0
  8  9  2  0  0  0  0
  8 25  1  0  0  0  0
  9 10  1  0  0  0  0
  9 26  1  0  0  0  0
 10 11  2  0  0  0  0
 10 27  1  0  0  0  0
 12 17  1  0  0  0  0
 12 13  1  0  0  0  0
 13 14  1  0  0  0  0
 13 28  1  0  0  0  0
 13 29  1  0  0  0  0
 14 15  1  0  0  0  0
 14 30  1  0  0  0  0
 14 31  1  0  0  0  0
 15 16  1  0  0  0  0
 15 32  1  0  0  0  0
 15 33  1  0  0  0  0
 16 17  1  0  0  0  0
 16 34  1  0  0  0  0
 16 35  1  0  0  0  0
 17 36  1  0  0  0  0
 17 37  1  0  0  0  0
M  END
> <s_m_source_file>
AV-unprocessed.smi

> <i_m_source_file_index>
3138

> <i_lp_mmshare_version>
43012

> <i_f3d_flags>
0

> <s_epik_input>
W0NIMl0xW0NIMl1bQ0gyXVtDSDJdW0NIMl1OMUMoPU8pW0NIMl1bTkhdW0NIMl1bQ0gyXW4yW2NIXVtjSF1bY0hdbjI=

> <s_epik_cmdline>
J2VwaWtfcHl0aG9uJywgJy1waCcsICc3LjAnLCAnLXRuJywgJzgnLCAnLW1hJywgJzIwMCcsICctbWV0YWxfYmluZGluZycsICctaW1hZScsICc8aW5maWxlLm1hZT4nLCAnLW9tYWUnLCAnPG91dGZpbGUubWFlPic=

> <r_lp_tautomer_probability>
1

> <r_epik_Ionization_Penalty>
0.737271

> <r_epik_Ionization_Penalty_Charging>
0

> <r_epik_Ionization_Penalty_Neutral>
0.737271

> <r_epik_State_Penalty>
0.761204

> <r_epik_Charging_Adjusted_Penalty>
0.761204

> <i_epik_Tot_Q>
0

> <i_epik_Tot_abs_Q>
0

> <r_epik_Metal_State_Penalty>
0.759956

> <b_epik_Metal_Only>
0

> <s_lp_Force_Field>
OPLS_2005

> <r_lp_Energy>
25.4177

> <b_lp_Chiralities_Consistent>
1

> <s_lp_Variant>
AV-unprocessed.smi:3138-2

> <Gold.Version>
5.8.1

> <Gold.Id.Protein>
6NUR|6NUR_protein|mol2

> <Gold.PLP.Fitness>
49.0640

> <Gold.PLP.PLP>
-43.6870

> <Gold.PLP.part.hbond>
-2.0000

> <Gold.PLP.part.metal>
0.0000

> <Gold.PLP.part.buried>
-3.4453

> <Gold.PLP.part.nonpolar>
-39.1428

> <Gold.PLP.part.repulsive>
0.0551

> <Gold.PLP.ligand.clash>
0.0000

> <Gold.PLP.ligand.torsion>
0.7057

> <Gold.PLP.Chemscore.Hbond>
1.3540

> <Gold.PLP.Chemscore.CHOScore>
0.8947

> <Gold.PLP.Chemscore.Metal>
0.0000

> <Gold.Chemscore.Hbonds>
donor molecule, donor type, donor heavy atom, donor atom, acceptor molecule, acceptor atom, score
      L1  H     4    20       P1  8028  0.69
      P1  H  7989  7998       L1    11  0.65
      L1  C     8    25       P1  7948  0.87

> <Gold.PLP.Chemscore.Internal.Correction>
0.0422

> <Gold.Rescore>
     Score         DG    S(hbond)    S(metal)    S(lipo)     H(rot)  DE(clash)    DE(int)     intcor
     14.76     -16.78       1.25        0.00      99.59       1.77       0.17       1.85       ----

> <Gold.Chemscore.Fitness>
14.7639

> <Gold.Chemscore.DG>
-16.7844

> <Gold.Chemscore.ZeroCoef>
-5.4800

> <Gold.Chemscore.Hbond>
1.2532

> <Gold.Chemscore.Metal>
0.0000

> <Gold.Chemscore.Lipo>
99.5865

> <Gold.Chemscore.Internal_Hbond>
0.0000

> <Gold.Chemscore.DEClash>
0.1722

> <Gold.Chemscore.DEInternal>
1.8484

> <Gold.Chemscore.Rot>
1.7707

> <Gold.Chemscore.Internal.Correction>
   9.000000E+99

> <Gold.Chemscore.Hbonds>
donor molecule, donor type, donor heavy atom, donor atom, acceptor molecule, acceptor atom, score
      L1  H     4    20       P1  8028  0.65
      P1  H  7989  7998       L1    11  0.04

> <Gold.Chemscore.Hbond.Weighted>
-4.1859

> <Gold.Chemscore.Metal.Weighted>
-0.0000

> <Gold.Chemscore.Lipo.Weighted>
-11.6516

> <Gold.Chemscore.Internal_Hbond.Weighted>
0.0000

> <Gold.Chemscore.DEClash.Weighted>
0.1722

> <Gold.Chemscore.DEInternal.Weighted>
1.8484

> <Gold.Chemscore.Rot.Weighted>
4.5331

> <Gold.Chemscore.Internal.Correction.Weighted>
   9.000000E+99

> <Gold.Protein.RotatedTorsions>
[ 6907 6896 6895 6894 ] final  179.42 input  -60.11 | X-H torsion
[ 7974 7965 7964 7962 ] final  -20.62 input  175.53 | X-H torsion
[ 8008 7997 7996 7995 ] final -174.36 input   59.86 | X-H torsion
[ 10167 10162 10161 10158 ] final -118.04 input  -65.29 | X-H torsion
[ 10718 10713 10712 10709 ] final  110.52 input   66.30 | X-H torsion
[ 10763 10752 10751 10750 ] final  120.16 input  -60.55 | X-H torsion
[ 11005 11000 10999 10996 ] final   41.47 input  -57.11 | X-H torsion

> <Gold.Protein.ActiveResidues>
 VAL166  LYS551  ARG553  GLY616  TRP617  ASP618  TYR619  PRO620  LYS621  CYS622 
 ASP623  PHE694  ASN695  SER759  ASP760  ASP761  ALA762  ILE779  LEU786  VAL792 
 PHE793  MET794  SER795  GLU796  ALA797  LYS798  CYS799  TRP800  GLU811  SER814 

> <Gold.Protein.RotatedAtoms>
  151.6720  133.3313  159.3198 H   0  0  0  0  0  0  0  0  0  0  0  0  # atno 6907 bound_to 6896
  150.7863  134.6854  159.6476 H   0  0  0  0  0  0  0  0  0  0  0  0  # atno 6908 bound_to 6896
  152.3933  134.6409  160.0151 H   0  0  0  0  0  0  0  0  0  0  0  0  # atno 6909 bound_to 6896
  146.1778  140.4228  142.8506 H   0  0  0  0  0  0  0  0  0  0  0  0  # atno 7974 bound_to 7965
  155.9692  140.1159  157.0828 H   0  0  0  0  0  0  0  0  0  0  0  0  # atno 8008 bound_to 7997
  154.4152  140.1166  156.5350 H   0  0  0  0  0  0  0  0  0  0  0  0  # atno 8009 bound_to 7997
  155.6619  140.3473  155.4788 H   0  0  0  0  0  0  0  0  0  0  0  0  # atno 8010 bound_to 7997
  140.0618  143.4960  152.2027 H   0  0  0  0  0  0  0  0  0  0  0  0  # atno 10167 bound_to 10162
  157.6490  131.0934  150.6614 H   0  0  0  0  0  0  0  0  0  0  0  0  # atno 10718 bound_to 10713
  153.5941  135.3460  155.2922 H   0  0  0  0  0  0  0  0  0  0  0  0  # atno 10763 bound_to 10752
  154.8647  135.4212  154.2483 H   0  0  0  0  0  0  0  0  0  0  0  0  # atno 10764 bound_to 10752
  153.3297  135.7043  153.7029 H   0  0  0  0  0  0  0  0  0  0  0  0  # atno 10765 bound_to 10752
  140.1831  134.4079  155.8188 H   0  0  0  0  0  0  0  0  0  0  0  0  # atno 11005 bound_to 11000
  144.8264  140.6636  143.6319 LP  0  0  0  0  0  0  0  0  0  0  0  0  # atno 17320 bound_to 7965
  145.4163  139.1571  143.4098 LP  0  0  0  0  0  0  0  0  0  0  0  0  # atno 17321 bound_to 7965
  139.5889  144.7542  151.3451 LP  0  0  0  0  0  0  0  0  0  0  0  0  # atno 17342 bound_to 10162
  140.7168  143.7245  150.7671 LP  0  0  0  0  0  0  0  0  0  0  0  0  # atno 17343 bound_to 10162
  156.6927  130.4600  149.5595 LP  0  0  0  0  0  0  0  0  0  0  0  0  # atno 17370 bound_to 10713
  156.1850  130.6523  151.0996 LP  0  0  0  0  0  0  0  0  0  0  0  0  # atno 17371 bound_to 10713
  141.2224  133.7010  156.7965 LP  0  0  0  0  0  0  0  0  0  0  0  0  # atno 17394 bound_to 11000
  140.2244  134.8732  157.3411 LP  0  0  0  0  0  0  0  0  0  0  0  0  # atno 17395 bound_to 11000

$$$$
