AV-unprocessed.smi:2|AV-procd|sdf|26|dock9
  -GOLD-   2262015143D 1   1.00000     0.00000
 Structure written by MMmdl.
 52 54  0  0  0  0  0  0  0  0  3 V2000
  147.7906  135.9965  162.8340 C   0  0  0  0  0  0  0  0  0  0  0  0
  147.7654  134.8117  161.8553 C   0  0  0  0  0  0  0  0  0  0  0  0
  146.8432  135.0220  160.6440 C   0  0  0  0  0  0  0  0  0  0  0  0
  145.8895  134.2634  160.4623 O   0  0  0  0  0  0  0  0  0  0  0  0
  147.1594  136.1580  159.7304 C   0  0  0  0  0  0  0  0  0  0  0  0
  146.1357  136.7107  158.9288 C   0  0  0  0  0  0  0  0  0  0  0  0
  146.4081  137.7786  158.0526 C   0  0  0  0  0  0  0  0  0  0  0  0
  147.7046  138.3188  157.9503 C   0  0  0  0  0  0  0  0  0  0  0  0
  147.8807  139.3533  157.0538 O   0  0  0  0  0  0  0  0  0  0  0  0
  148.8840  140.3359  157.2986 C   0  0  0  0  0  0  0  0  0  0  0  0
  149.2191  141.1348  156.0203 C   0  0  1  0  0  0  0  0  0  0  0  0
  148.0940  141.9231  155.6849 O   0  0  0  0  0  0  0  0  0  0  0  0
  150.4639  142.0318  156.2150 C   0  0  0  0  0  0  0  0  0  0  0  0
  151.4815  141.4309  157.0860 N   0  0  0  0  0  0  0  0  0  0  0  0
  152.1336  140.2442  156.8917 C   0  0  0  0  0  0  0  0  0  0  0  0
  151.9795  139.3275  155.7688 N   0  3  0  0  0  0  0  0  0  0  0  0
  152.5458  138.2420  155.7917 O   0  0  0  0  0  0  0  0  0  0  0  0
  151.3011  139.7121  154.8209 O   0  5  0  0  0  0  0  0  0  0  0  0
  152.9648  139.9123  157.8804 N   0  0  0  0  0  0  0  0  0  0  0  0
  152.8409  140.9523  158.7790 C   0  0  0  0  0  0  0  0  0  0  0  0
  153.4632  141.1187  160.1075 C   0  0  0  0  0  0  0  0  0  0  0  0
  154.2850  140.3047  160.5311 O   0  0  0  0  0  0  0  0  0  0  0  0
  153.0185  142.2147  160.7983 N   0  0  0  0  0  0  0  0  0  0  0  0
  153.5119  142.4168  162.1742 C   0  0  0  0  0  0  0  0  0  0  0  0
  152.1550  143.1739  160.3009 C   0  0  0  0  0  0  0  0  0  0  0  0
  151.7960  144.1208  161.0069 O   0  0  0  0  0  0  0  0  0  0  0  0
  151.7271  143.0610  158.9976 N   0  0  0  0  0  0  0  0  0  0  0  0
  151.0962  144.2209  158.3554 C   0  0  0  0  0  0  0  0  0  0  0  0
  151.9988  141.9093  158.3109 C   0  0  0  0  0  0  0  0  0  0  0  0
  148.7291  137.7748  158.7631 C   0  0  0  0  0  0  0  0  0  0  0  0
  148.4601  136.7057  159.6389 C   0  0  0  0  0  0  0  0  0  0  0  0
  148.4492  135.7831  163.6759 H   0  0  0  0  0  0  0  0  0  0  0  0
  146.7985  136.2035  163.2375 H   0  0  0  0  0  0  0  0  0  0  0  0
  148.1570  136.9036  162.3517 H   0  0  0  0  0  0  0  0  0  0  0  0
  148.7769  134.6230  161.4946 H   0  0  0  0  0  0  0  0  0  0  0  0
  147.4426  133.9153  162.3856 H   0  0  0  0  0  0  0  0  0  0  0  0
  145.1290  136.3205  158.9737 H   0  0  0  0  0  0  0  0  0  0  0  0
  145.6115  138.1830  157.4454 H   0  0  0  0  0  0  0  0  0  0  0  0
  148.5222  141.0103  158.0760 H   0  0  0  0  0  0  0  0  0  0  0  0
  149.7704  139.8731  157.7318 H   0  0  0  0  0  0  0  0  0  0  0  0
  149.3941  140.4583  155.1855 H   0  0  0  0  0  0  0  0  0  0  0  0
  148.3243  142.8346  155.7800 H   0  0  0  0  0  0  0  0  0  0  0  0
  150.9036  142.2829  155.2532 H   0  0  0  0  0  0  0  0  0  0  0  0
  150.1754  143.0063  156.5918 H   0  0  0  0  0  0  0  0  0  0  0  0
  152.6797  142.5345  162.8703 H   0  0  0  0  0  0  0  0  0  0  0  0
  154.1222  143.3198  162.2269 H   0  0  0  0  0  0  0  0  0  0  0  0
  154.1196  141.6013  162.5677 H   0  0  0  0  0  0  0  0  0  0  0  0
  151.6025  144.4555  157.4199 H   0  0  0  0  0  0  0  0  0  0  0  0
  151.1473  145.1420  158.9368 H   0  0  0  0  0  0  0  0  0  0  0  0
  150.0425  144.0355  158.1708 H   0  0  0  0  0  0  0  0  0  0  0  0
  149.7380  138.1542  158.7337 H   0  0  0  0  0  0  0  0  0  0  0  0
  149.2752  136.3207  160.2330 H   0  0  0  0  0  0  0  0  0  0  0  0
  1  2  1  0  0  0  0
  1 32  1  0  0  0  0
  1 33  1  0  0  0  0
  1 34  1  0  0  0  0
  2  3  1  0  0  0  0
  2 35  1  0  0  0  0
  2 36  1  0  0  0  0
  3  4  2  0  0  0  0
  3  5  1  0  0  0  0
  5 31  1  0  0  0  0
  5  6  2  0  0  0  0
  6  7  1  0  0  0  0
  6 37  1  0  0  0  0
  7  8  2  0  0  0  0
  7 38  1  0  0  0  0
  8  9  1  0  0  0  0
  8 30  1  0  0  0  0
  9 10  1  0  0  0  0
 10 11  1  0  0  0  0
 10 39  1  0  0  0  0
 10 40  1  0  0  0  0
 11 12  1  0  0  0  0
 11 13  1  0  0  0  0
 11 41  1  0  0  0  0
 12 42  1  0  0  0  0
 13 14  1  0  0  0  0
 13 43  1  0  0  0  0
 13 44  1  0  0  0  0
 14 29  1  0  0  0  0
 14 15  1  0  0  0  0
 15 16  1  0  0  0  0
 15 19  2  0  0  0  0
 16 17  2  0  0  0  0
 16 18  1  0  0  0  0
 19 20  1  0  0  0  0
 20 29  2  0  0  0  0
 20 21  1  0  0  0  0
 21 22  2  0  0  0  0
 21 23  1  0  0  0  0
 23 24  1  0  0  0  0
 23 25  1  0  0  0  0
 24 45  1  0  0  0  0
 24 46  1  0  0  0  0
 24 47  1  0  0  0  0
 25 26  2  0  0  0  0
 25 27  1  0  0  0  0
 27 28  1  0  0  0  0
 27 29  1  0  0  0  0
 28 48  1  0  0  0  0
 28 49  1  0  0  0  0
 28 50  1  0  0  0  0
 30 31  2  0  0  0  0
 30 51  1  0  0  0  0
 31 52  1  0  0  0  0
M  CHG  1  16   1
M  CHG  1  18  -1
M  END
> <s_m_source_file>
AV-unprocessed.smi

> <i_m_source_file_index>
2

> <i_lp_mmshare_version>
43012

> <i_f3d_flags>
0

> <s_epik_input>
W0NIM11bQ0gyXUMoPU8pYzFbY0hdW2NIXWMoW2NIXVtjSF0xKU9bQ0gyXVtDQEhdKFtPSF0pW0NIMl1uKGMobjIpW04rXSg9TylbTy1dKWMoYzIzKW4oW0NIM10pYyg9TyluKGMzPU8pW0NIM10=

> <s_epik_cmdline>
J2VwaWtfcHl0aG9uJywgJy1waCcsICc3LjAnLCAnLXRuJywgJzgnLCAnLW1hJywgJzIwMCcsICctbWV0YWxfYmluZGluZycsICctaW1hZScsICc8aW5maWxlLm1hZT4nLCAnLW9tYWUnLCAnPG91dGZpbGUubWFlPic=

> <r_lp_tautomer_probability>
1

> <r_epik_Ionization_Penalty>
1.02275e-06

> <r_epik_Ionization_Penalty_Charging>
4.46226e-11

> <r_epik_Ionization_Penalty_Neutral>
1.02271e-06

> <r_epik_State_Penalty>
-0

> <r_epik_Charging_Adjusted_Penalty>
4.46226e-11

> <i_epik_Tot_Q>
0

> <i_epik_Tot_abs_Q>
2

> <r_epik_Metal_State_Penalty>
-0

> <b_epik_Metal_Only>
0

> <s_lp_Force_Field>
OPLS_2005

> <r_lp_Energy>
60.3612

> <b_lp_Chiralities_Consistent>
1

> <s_lp_Variant>
AV-unprocessed.smi:2-2

> <Gold.Version>
5.8.1

> <Gold.Id.Protein>
6NUR|6NUR_protein|mol2

> <Gold.PLP.Fitness>
60.6111

> <Gold.PLP.PLP>
-53.4900

> <Gold.PLP.part.hbond>
-3.0000

> <Gold.PLP.part.metal>
0.0000

> <Gold.PLP.part.buried>
-8.2849

> <Gold.PLP.part.nonpolar>
-41.5740

> <Gold.PLP.part.repulsive>
0.1983

> <Gold.PLP.ligand.clash>
0.0000

> <Gold.PLP.ligand.torsion>
1.0228

> <Gold.PLP.Chemscore.Hbond>
3.0000

> <Gold.PLP.Chemscore.CHOScore>
0.0000

> <Gold.PLP.Chemscore.Metal>
0.0000

> <Gold.Chemscore.Hbonds>
donor molecule, donor type, donor heavy atom, donor atom, acceptor molecule, acceptor atom, score
      L1  H    12    42       P1  8028  1.00
      P1  H  7989  7998       L1    18  1.00
      P1  H  7997  8009       L1    19  1.00

> <Gold.PLP.Chemscore.Internal.Correction>
0.1668

> <Gold.Rescore>
     Score         DG    S(hbond)    S(metal)    S(lipo)     H(rot)  DE(clash)    DE(int)     intcor
      9.54     -13.24       1.98        0.00      79.00       3.16       0.05       3.65       ----

> <Gold.Chemscore.Fitness>
9.5420

> <Gold.Chemscore.DG>
-13.2374

> <Gold.Chemscore.ZeroCoef>
-5.4800

> <Gold.Chemscore.Hbond>
1.9771

> <Gold.Chemscore.Metal>
0.0000

> <Gold.Chemscore.Lipo>
78.9977

> <Gold.Chemscore.Internal_Hbond>
0.0000

> <Gold.Chemscore.DEClash>
0.0500

> <Gold.Chemscore.DEInternal>
3.6454

> <Gold.Chemscore.Rot>
3.1597

> <Gold.Chemscore.Internal.Correction>
   9.000000E+99

> <Gold.Chemscore.Hbonds>
donor molecule, donor type, donor heavy atom, donor atom, acceptor molecule, acceptor atom, score
      L1  H    12    42       P1  8028  0.96
      P1  H  7989  7998       L1    18  1.00
      P1  H  7997  8009       L1    19  0.22

> <Gold.Chemscore.Hbond.Weighted>
-6.6035

> <Gold.Chemscore.Metal.Weighted>
-0.0000

> <Gold.Chemscore.Lipo.Weighted>
-9.2427

> <Gold.Chemscore.Internal_Hbond.Weighted>
0.0000

> <Gold.Chemscore.DEClash.Weighted>
0.0500

> <Gold.Chemscore.DEInternal.Weighted>
3.6454

> <Gold.Chemscore.Rot.Weighted>
8.0888

> <Gold.Chemscore.Internal.Correction.Weighted>
   9.000000E+99

> <Gold.Protein.RotatedTorsions>
[ 6907 6896 6895 6894 ] final  171.70 input  -60.11 | X-H torsion
[ 7974 7965 7964 7962 ] final -120.18 input  175.53 | X-H torsion
[ 8008 7997 7996 7995 ] final  151.96 input   59.86 | X-H torsion
[ 10167 10162 10161 10158 ] final -163.37 input  -65.29 | X-H torsion
[ 10718 10713 10712 10709 ] final  -66.53 input   66.30 | X-H torsion
[ 10763 10752 10751 10750 ] final  177.09 input  -60.55 | X-H torsion
[ 11005 11000 10999 10996 ] final    3.36 input  -57.11 | X-H torsion

> <Gold.Protein.ActiveResidues>
 VAL166  LYS551  ARG553  GLY616  TRP617  ASP618  TYR619  PRO620  LYS621  CYS622 
 ASP623  PHE694  ASN695  SER759  ASP760  ASP761  ALA762  ILE779  LEU786  VAL792 
 PHE793  MET794  SER795  GLU796  ALA797  LYS798  CYS799  TRP800  GLU811  SER814 

> <Gold.Protein.RotatedAtoms>
  151.7961  133.3364  159.3512 H   0  0  0  0  0  0  0  0  0  0  0  0  # atno 6907 bound_to 6896
  150.7375  134.5797  159.5942 H   0  0  0  0  0  0  0  0  0  0  0  0  # atno 6908 bound_to 6896
  152.3176  134.7422  160.0373 H   0  0  0  0  0  0  0  0  0  0  0  0  # atno 6909 bound_to 6896
  145.0542  140.8242  143.4191 H   0  0  0  0  0  0  0  0  0  0  0  0  # atno 7974 bound_to 7965
  156.2651  140.2034  156.6257 H   0  0  0  0  0  0  0  0  0  0  0  0  # atno 8008 bound_to 7997
  154.6722  140.0549  157.0201 H   0  0  0  0  0  0  0  0  0  0  0  0  # atno 8009 bound_to 7997
  155.1121  140.3216  155.4522 H   0  0  0  0  0  0  0  0  0  0  0  0  # atno 8010 bound_to 7997
  139.6325  144.0412  152.2028 H   0  0  0  0  0  0  0  0  0  0  0  0  # atno 10167 bound_to 10162
  156.0607  130.4263  150.1722 H   0  0  0  0  0  0  0  0  0  0  0  0  # atno 10718 bound_to 10713
  154.4899  135.2778  155.1505 H   0  0  0  0  0  0  0  0  0  0  0  0  # atno 10763 bound_to 10752
  154.3181  135.6215  153.5499 H   0  0  0  0  0  0  0  0  0  0  0  0  # atno 10764 bound_to 10752
  152.9886  135.5736  154.5318 H   0  0  0  0  0  0  0  0  0  0  0  0  # atno 10765 bound_to 10752
  140.5940  133.9898  155.8101 H   0  0  0  0  0  0  0  0  0  0  0  0  # atno 11005 bound_to 11000
  145.1489  139.2527  143.5451 LP  0  0  0  0  0  0  0  0  0  0  0  0  # atno 17320 bound_to 7965
  146.3520  140.1186  142.8601 LP  0  0  0  0  0  0  0  0  0  0  0  0  # atno 17321 bound_to 7965
  140.0081  144.6244  150.7671 LP  0  0  0  0  0  0  0  0  0  0  0  0  # atno 17342 bound_to 10162
  140.7447  143.2865  151.3450 LP  0  0  0  0  0  0  0  0  0  0  0  0  # atno 17343 bound_to 10162
  156.9791  130.9858  151.3441 LP  0  0  0  0  0  0  0  0  0  0  0  0  # atno 17370 bound_to 10713
  157.5614  130.8248  149.8270 LP  0  0  0  0  0  0  0  0  0  0  0  0  # atno 17371 bound_to 10713
  141.0916  133.9907  157.3227 LP  0  0  0  0  0  0  0  0  0  0  0  0  # atno 17394 bound_to 11000
  139.9262  135.0201  156.8241 LP  0  0  0  0  0  0  0  0  0  0  0  0  # atno 17395 bound_to 11000

$$$$
