AV-unprocessed.smi:2729|AV-procd|sdf|10527|dock5
  -GOLD-   2272014573D 1   1.00000     0.00000
 Structure written by MMmdl.
 33 34  0  0  0  0  0  0  0  0  1 V2000
  150.0324  131.9442  154.6760 C   0  0  0  0  0  0  0  0  0  0  0  0
  149.4922  133.3510  155.0077 C   0  0  2  0  0  0  0  0  0  0  0  0
  148.6347  133.8423  153.9198 N   0  0  0  0  0  0  0  0  0  0  0  0
  147.5857  133.2325  153.3439 C   0  0  0  0  0  0  0  0  0  0  0  0
  147.1640  132.1264  153.6793 O   0  0  0  0  0  0  0  0  0  0  0  0
  147.0594  134.0000  152.3745 N   0  0  0  0  0  0  0  0  0  0  0  0
  145.9635  133.7136  151.5167 C   0  0  0  0  0  0  0  0  0  0  0  0
  145.6236  132.4153  151.0647 C   0  0  0  0  0  0  0  0  0  0  0  0
  144.5248  132.2641  150.1972 C   0  0  0  0  0  0  0  0  0  0  0  0
  143.8116  133.4144  149.8083 C   0  0  0  0  0  0  0  0  0  0  0  0
  144.1324  134.6588  150.2203 N   0  0  0  0  0  0  0  0  0  0  0  0
  145.1876  134.7962  151.0511 C   0  0  0  0  0  0  0  0  0  0  0  0
  150.6418  134.3501  155.3073 C   0  0  0  0  0  0  0  0  0  0  0  0
  150.0742  135.5915  156.0056 C   0  0  0  0  0  0  0  0  0  0  0  0
  148.6622  134.9924  157.0035 S   0  0  0  0  0  0  0  0  0  0  0  0
  149.0560  134.9056  158.4178 O   0  0  0  0  0  0  0  0  0  0  0  0
  147.4498  135.7196  156.5975 O   0  0  0  0  0  0  0  0  0  0  0  0
  148.6299  133.3043  156.2854 C   0  0  0  0  0  0  0  0  0  0  0  0
  150.6096  131.5370  155.5067 H   0  0  0  0  0  0  0  0  0  0  0  0
  150.6903  131.9524  153.8072 H   0  0  0  0  0  0  0  0  0  0  0  0
  149.2190  131.2472  154.4706 H   0  0  0  0  0  0  0  0  0  0  0  0
  148.8800  134.7514  153.5556 H   0  0  0  0  0  0  0  0  0  0  0  0
  147.4599  134.9210  152.2704 H   0  0  0  0  0  0  0  0  0  0  0  0
  146.1870  131.5408  151.3504 H   0  0  0  0  0  0  0  0  0  0  0  0
  144.2385  131.2883  149.8339 H   0  0  0  0  0  0  0  0  0  0  0  0
  142.9643  133.3334  149.1435 H   0  0  0  0  0  0  0  0  0  0  0  0
  145.4164  135.8067  151.3575 H   0  0  0  0  0  0  0  0  0  0  0  0
  151.3457  133.8736  155.9912 H   0  0  0  0  0  0  0  0  0  0  0  0
  151.2206  134.6202  154.4245 H   0  0  0  0  0  0  0  0  0  0  0  0
  150.8029  136.0929  156.6427 H   0  0  0  0  0  0  0  0  0  0  0  0
  149.6951  136.3078  155.2763 H   0  0  0  0  0  0  0  0  0  0  0  0
  147.6007  132.9869  156.1129 H   0  0  0  0  0  0  0  0  0  0  0  0
  149.0677  132.6332  157.0254 H   0  0  0  0  0  0  0  0  0  0  0  0
  1  2  1  0  0  0  0
  1 19  1  0  0  0  0
  1 20  1  0  0  0  0
  1 21  1  0  0  0  0
  2 18  1  0  0  0  0
  2  3  1  0  0  0  0
  2 13  1  0  0  0  0
  3  4  1  0  0  0  0
  3 22  1  0  0  0  0
  4  5  2  0  0  0  0
  4  6  1  0  0  0  0
  6  7  1  0  0  0  0
  6 23  1  0  0  0  0
  7 12  1  0  0  0  0
  7  8  2  0  0  0  0
  8  9  1  0  0  0  0
  8 24  1  0  0  0  0
  9 10  2  0  0  0  0
  9 25  1  0  0  0  0
 10 11  1  0  0  0  0
 10 26  1  0  0  0  0
 11 12  2  0  0  0  0
 12 27  1  0  0  0  0
 13 14  1  0  0  0  0
 13 28  1  0  0  0  0
 13 29  1  0  0  0  0
 14 15  1  0  0  0  0
 14 30  1  0  0  0  0
 14 31  1  0  0  0  0
 15 16  2  0  0  0  0
 15 17  2  0  0  0  0
 15 18  1  0  0  0  0
 18 32  1  0  0  0  0
 18 33  1  0  0  0  0
M  END
> <s_m_source_file>
AV-unprocessed.smi

> <i_m_source_file_index>
2729

> <i_lp_mmshare_version>
43012

> <i_f3d_flags>
0

> <s_epik_input>
Tz1TKD1PKShbQ0gyXTEpW0NIMl1bQ0gyXVtDQEBdMShbQ0gzXSlbTkhdQyg9TylbTkhdYzJbY0hdW2NIXVtjSF1uW2NIXTI=

> <s_epik_cmdline>
J2VwaWtfcHl0aG9uJywgJy1waCcsICc3LjAnLCAnLXRuJywgJzgnLCAnLW1hJywgJzIwMCcsICctbWV0YWxfYmluZGluZycsICctaW1hZScsICc8aW5maWxlLm1hZT4nLCAnLW9tYWUnLCAnPG91dGZpbGUubWFlPic=

> <r_epik_Ionization_Penalty>
0.00438887

> <r_epik_Ionization_Penalty_Charging>
0

> <r_epik_Ionization_Penalty_Neutral>
0.00438887

> <r_epik_State_Penalty>
0.00314315

> <r_epik_Charging_Adjusted_Penalty>
0.00314315

> <i_epik_Tot_Q>
0

> <i_epik_Tot_abs_Q>
0

> <r_epik_Metal_State_Penalty>
-0

> <b_epik_Metal_Only>
0

> <s_lp_Force_Field>
OPLS_2005

> <r_lp_Energy>
5.04322

> <b_lp_Chiralities_Consistent>
1

> <s_lp_Variant>
AV-unprocessed.smi:2729-2

> <Gold.Version>
5.8.1

> <Gold.Id.Protein>
6NUR|6NUR_protein|mol2

> <Gold.PLP.Fitness>
35.7833

> <Gold.PLP.PLP>
-25.5812

> <Gold.PLP.part.hbond>
-2.9645

> <Gold.PLP.part.metal>
0.0000

> <Gold.PLP.part.buried>
-5.3374

> <Gold.PLP.part.nonpolar>
-18.0492

> <Gold.PLP.part.repulsive>
0.5091

> <Gold.PLP.ligand.clash>
0.0000

> <Gold.PLP.ligand.torsion>
0.2634

> <Gold.PLP.Chemscore.Hbond>
2.7843

> <Gold.PLP.Chemscore.CHOScore>
0.7871

> <Gold.PLP.Chemscore.Metal>
0.0000

> <Gold.Chemscore.Hbonds>
donor molecule, donor type, donor heavy atom, donor atom, acceptor molecule, acceptor atom, score
      L1  H     3    22       P1  7948  0.54
      L1  H     6    23       P1  7948  1.00
      P1  H  6896  6909       L1    16  1.00
      L1  C    10    26       P1 10186  0.85

> <Gold.PLP.Chemscore.Internal.Correction>
0.0150

> <Gold.Rescore>
     Score         DG    S(hbond)    S(metal)    S(lipo)     H(rot)  DE(clash)    DE(int)     intcor
     15.08     -17.09       2.15        0.00      59.66       1.00       0.21       1.79       ----

> <Gold.Chemscore.Fitness>
15.0844

> <Gold.Chemscore.DG>
-17.0909

> <Gold.Chemscore.ZeroCoef>
-5.4800

> <Gold.Chemscore.Hbond>
2.1531

> <Gold.Chemscore.Metal>
0.0000

> <Gold.Chemscore.Lipo>
59.6557

> <Gold.Chemscore.Internal_Hbond>
0.0000

> <Gold.Chemscore.DEClash>
0.2128

> <Gold.Chemscore.DEInternal>
1.7938

> <Gold.Chemscore.Rot>
1.0000

> <Gold.Chemscore.Internal.Correction>
   9.000000E+99

> <Gold.Chemscore.Hbonds>
donor molecule, donor type, donor heavy atom, donor atom, acceptor molecule, acceptor atom, score
      L1  H     3    22       P1  7948  0.18
      L1  H     6    23       P1  7948  0.90
      P1  H  6896  6909       L1    16  0.99

> <Gold.Chemscore.Hbond.Weighted>
-7.1912

> <Gold.Chemscore.Metal.Weighted>
-0.0000

> <Gold.Chemscore.Lipo.Weighted>
-6.9797

> <Gold.Chemscore.Internal_Hbond.Weighted>
0.0000

> <Gold.Chemscore.DEClash.Weighted>
0.2128

> <Gold.Chemscore.DEInternal.Weighted>
1.7938

> <Gold.Chemscore.Rot.Weighted>
2.5600

> <Gold.Chemscore.Internal.Correction.Weighted>
   9.000000E+99

> <Gold.Protein.RotatedTorsions>
[ 6907 6896 6895 6894 ] final   37.58 input  -60.11 | X-H torsion
[ 7974 7965 7964 7962 ] final  -31.58 input  175.53 | X-H torsion
[ 8008 7997 7996 7995 ] final -152.37 input   59.86 | X-H torsion
[ 10167 10162 10161 10158 ] final -151.23 input  -65.29 | X-H torsion
[ 10718 10713 10712 10709 ] final   10.98 input   66.30 | X-H torsion
[ 10763 10752 10751 10750 ] final  -68.20 input  -60.55 | X-H torsion
[ 11005 11000 10999 10996 ] final  -44.07 input  -57.11 | X-H torsion

> <Gold.Protein.ActiveResidues>
 VAL166  LYS551  ARG553  GLY616  TRP617  ASP618  TYR619  PRO620  LYS621  CYS622 
 ASP623  PHE694  ASN695  SER759  ASP760  ASP761  ALA762  ILE779  LEU786  VAL792 
 PHE793  MET794  SER795  GLU796  ALA797  LYS798  CYS799  TRP800  GLU811  SER814 

> <Gold.Protein.RotatedAtoms>
  152.1450  134.9032  160.0551 H   0  0  0  0  0  0  0  0  0  0  0  0  # atno 6907 bound_to 6896
  152.0086  133.3847  159.4219 H   0  0  0  0  0  0  0  0  0  0  0  0  # atno 6908 bound_to 6896
  150.6869  134.3677  159.5022 H   0  0  0  0  0  0  0  0  0  0  0  0  # atno 6909 bound_to 6896
  146.1056  140.5685  142.8801 H   0  0  0  0  0  0  0  0  0  0  0  0  # atno 7974 bound_to 7965
  155.6541  140.0715  157.2577 H   0  0  0  0  0  0  0  0  0  0  0  0  # atno 8008 bound_to 7997
  154.4156  140.1728  156.1756 H   0  0  0  0  0  0  0  0  0  0  0  0  # atno 8009 bound_to 7997
  155.9752  140.3358  155.6615 H   0  0  0  0  0  0  0  0  0  0  0  0  # atno 8010 bound_to 7997
  139.7285  143.8845  152.2527 H   0  0  0  0  0  0  0  0  0  0  0  0  # atno 10167 bound_to 10162
  156.9888  130.6034  149.5684 H   0  0  0  0  0  0  0  0  0  0  0  0  # atno 10718 bound_to 10713
  154.3856  135.6064  153.5815 H   0  0  0  0  0  0  0  0  0  0  0  0  # atno 10763 bound_to 10752
  152.9787  135.5871  154.4358 H   0  0  0  0  0  0  0  0  0  0  0  0  # atno 10764 bound_to 10752
  154.4134  135.2844  155.2000 H   0  0  0  0  0  0  0  0  0  0  0  0  # atno 10765 bound_to 10752
  141.0426  133.6774  156.2822 H   0  0  0  0  0  0  0  0  0  0  0  0  # atno 11005 bound_to 11000
  144.7468  140.5089  143.6830 LP  0  0  0  0  0  0  0  0  0  0  0  0  # atno 17320 bound_to 7965
  145.5767  139.1486  143.3258 LP  0  0  0  0  0  0  0  0  0  0  0  0  # atno 17321 bound_to 7965
  139.8761  144.7042  150.8931 LP  0  0  0  0  0  0  0  0  0  0  0  0  # atno 17342 bound_to 10162
  140.7767  143.3698  151.1670 LP  0  0  0  0  0  0  0  0  0  0  0  0  # atno 17343 bound_to 10162
  156.0215  130.5310  150.8289 LP  0  0  0  0  0  0  0  0  0  0  0  0  # atno 17370 bound_to 10713
  157.5473  131.0943  150.9744 LP  0  0  0  0  0  0  0  0  0  0  0  0  # atno 17371 bound_to 10713
  140.6206  134.5366  157.5547 LP  0  0  0  0  0  0  0  0  0  0  0  0  # atno 17394 bound_to 11000
  139.9287  134.8005  156.0992 LP  0  0  0  0  0  0  0  0  0  0  0  0  # atno 17395 bound_to 11000

$$$$
