#       Name:                AV-unprocessed.smi:189
#       Creating user name   scv26
#       Creation time:       Thu Mar 26 19:30:36 2020


#       File generated by GOLD software.
#

@<TRIPOS>MOLECULE
AV-unprocessed.smi:189
    61    65     1
SMALL
NO_CHARGES


@<TRIPOS>ATOM
      1 ****        -2.6488  -0.1354  -2.3855 C.3            1 S1                 0.0000
      2 ****        -2.8227   0.7730  -1.1598 C.3            1 S1                 0.0000
      3 ****        -4.2822   0.8611  -0.6505 C.3            1 S1                 0.0000
      4 ****        -4.1837   0.4065   0.8055 C.3            1 S1                 0.0000
      5 ****        -5.1459   1.0052   1.8384 C.3            1 S1                 0.0000
      6 ****        -4.7852   0.4595   3.2372 C.3            1 S1                 0.0000
      7 ****        -3.2942   0.6709   3.5900 C.3            1 S1                 0.0000
      8 ****        -2.3456   0.1421   2.4932 C.3            1 S1                 0.0000
      9 ****        -2.7475   0.7632   1.1466 C.3            1 S1                 0.0000
     10 ****        -2.0155   0.3154  -0.0242 N.3            1 S1                 0.0000
     11 ****        -0.7051   0.6484  -0.0464 C.ar           1 S1                 0.0000
     12 ****        -0.3245   1.9519  -0.1110 N.ar           1 S1                 0.0000
     13 ****         0.9741   2.2674  -0.1133 C.ar           1 S1                 0.0000
     14 ****         2.0313   1.4542  -0.0558 N.ar           1 S1                 0.0000
     15 ****         1.6488   0.1462   0.0093 C.ar           1 S1                 0.0000
     16 ****         0.3116  -0.3385   0.0211 C.ar           1 S1                 0.0000
     17 ****         0.3050  -1.7244   0.1047 N.2            1 S1                 0.0000
     18 ****         1.5705  -2.0429   0.1403 C.2            1 S1                 0.0000
     19 ****         2.4474  -0.9822   0.0788 N.pl3          1 S1                 0.0000
     20 ****         3.9011  -1.0504   0.1042 C.3            1 S1                 0.0000
     21 ****         4.5318  -1.4209  -1.2598 C.3            1 S1                 0.0000
     22 ****         4.1268  -2.7322  -1.6097 O.3            1 S1                 0.0000
     23 ****         6.0608  -1.3630  -1.2290 C.3            1 S1                 0.0000
     24 ****         6.3895  -0.1310  -2.0633 C.3            1 S1                 0.0000
     25 ****         5.3806  -0.1526  -3.0569 O.3            1 S1                 0.0000
     26 ****         4.1572  -0.4533  -2.4009 C.3            1 S1                 0.0000
     27 ****        -3.2638   0.2096  -3.2169 H              1 S1                 0.0000
     28 ****        -2.9371  -1.1625  -2.1597 H              1 S1                 0.0000
     29 ****        -1.6124  -0.1468  -2.7243 H              1 S1                 0.0000
     30 ****        -2.5122   1.7795  -1.4440 H              1 S1                 0.0000
     31 ****        -4.6351   1.8914  -0.7121 H              1 S1                 0.0000
     32 ****        -4.9733   0.2377  -1.2189 H              1 S1                 0.0000
     33 ****        -4.2899  -0.6805   0.8199 H              1 S1                 0.0000
     34 ****        -5.0760   2.0937   1.8327 H              1 S1                 0.0000
     35 ****        -6.1766   0.7524   1.5885 H              1 S1                 0.0000
     36 ****        -5.4155   0.9296   3.9927 H              1 S1                 0.0000
     37 ****        -5.0102  -0.6072   3.2731 H              1 S1                 0.0000
     38 ****        -3.1110   1.7361   3.7361 H              1 S1                 0.0000
     39 ****        -3.0659   0.1892   4.5412 H              1 S1                 0.0000
     40 ****        -1.3137   0.3934   2.7401 H              1 S1                 0.0000
     41 ****        -2.4017  -0.9461   2.4399 H              1 S1                 0.0000
     42 ****        -2.6550   1.8491   1.2207 H              1 S1                 0.0000
     43 ****         1.1981   3.3226  -0.1673 H              1 S1                 0.0000
     44 ****         1.9023  -3.0688   0.2097 H              1 S1                 0.0000
     45 ****         4.2832  -0.0857   0.4408 H              1 S1                 0.0000
     46 ****         4.1938  -1.7746   0.8657 H              1 S1                 0.0000
     47 ****         4.4925  -2.9411  -2.4560 H              1 S1                 0.0000
     48 ****         6.4746  -1.3028  -0.2218 H              1 S1                 0.0000
     49 ****         6.4967  -2.2415  -1.7082 H              1 S1                 0.0000
     50 ****         6.3042   0.7804  -1.4691 H              1 S1                 0.0000
     51 ****         7.3884  -0.1696  -2.4984 H              1 S1                 0.0000
     52 ****         3.4212  -0.8594  -3.0962 H              1 S1                 0.0000
     53 ****         3.7582   0.4827  -2.0099 H              1 S1                 0.0000
     54 ****        -1.9172  -0.6796  -0.0423 LP             1 S1                 0.0000
     55 ****        -1.0152   2.6736  -0.1568 LP             1 S1                 0.0000
     56 ****         2.9821   1.7642  -0.0599 LP             1 S1                 0.0000
     57 ****        -0.4854  -2.3363   0.1314 LP             1 S1                 0.0000
     58 ****         3.1288  -2.7774  -1.6525 LP             1 S1                 0.0000
     59 ****         4.4610  -3.3824  -0.9274 LP             1 S1                 0.0000
     60 ****         5.5858  -0.8542  -3.7393 LP             1 S1                 0.0000
     61 ****         5.3201   0.7398  -3.5042 LP             1 S1                 0.0000
@<TRIPOS>BOND
    1    1    2 1     
    2    1   27 1     
    3    1   28 1     
    4    1   29 1     
    5    2   10 1     
    6    2    3 1     
    7    2   30 1     
    8    3    4 1     
    9    3   31 1     
   10    3   32 1     
   11    4    9 1     
   12    4    5 1     
   13    4   33 1     
   14    5    6 1     
   15    5   34 1     
   16    5   35 1     
   17    6    7 1     
   18    6   36 1     
   19    6   37 1     
   20    7    8 1     
   21    7   38 1     
   22    7   39 1     
   23    8    9 1     
   24    8   40 1     
   25    8   41 1     
   26    9   10 1     
   27    9   42 1     
   28   10   11 1     
   29   11   16 ar    
   30   11   12 ar    
   31   12   13 ar    
   32   13   14 ar    
   33   13   43 1     
   34   14   15 ar    
   35   15   19 1     
   36   15   16 ar    
   37   16   17 1     
   38   17   18 2     
   39   18   19 1     
   40   18   44 1     
   41   19   20 1     
   42   20   21 1     
   43   20   45 1     
   44   20   46 1     
   45   21   26 1     
   46   21   22 1     
   47   21   23 1     
   48   22   47 1     
   49   23   24 1     
   50   23   48 1     
   51   23   49 1     
   52   24   25 1     
   53   24   50 1     
   54   24   51 1     
   55   25   26 1     
   56   26   52 1     
   57   26   53 1     
   58   10   54 1     
   59   12   55 1     
   60   14   56 1     
   61   17   57 1     
   62   22   58 1     
   63   22   59 1     
   64   25   60 1     
   65   25   61 1     
@<TRIPOS>SUBSTRUCTURE
      1 S1             1
@<TRIPOS>SET
LONE_PAIRS      STATIC     ATOMS    <user>   **** ""
8 54 55 56 57 58 59 60 61
DONOR_HYDROGENS      STATIC     ATOMS    <user>   **** ""
1 47
ATOM$BLUE        STATIC     ATOMS    COLORGROUP SYSTEM
8 54 55 56 57 58 59 60 61
ATOM$RED        STATIC     ATOMS    COLORGROUP SYSTEM
1 47
