AV-unprocessed.smi:1998|AV-procd|sdf|8090|dock1
  -GOLD-   2272010303D 1   1.00000     0.00000
 Structure written by MMmdl.
 47 48  0  0  0  0  0  0  0  0  1 V2000
  151.6847  143.9552  157.4809 C   0  0  0  0  0  0  0  0  0  0  0  0
  152.1792  143.1712  158.6607 C   0  0  0  0  0  0  0  0  0  0  0  0
  152.4855  143.6471  159.9660 C   0  0  0  0  0  0  0  0  0  0  0  0
  152.9042  142.5358  160.6414 C   0  0  0  0  0  0  0  0  0  0  0  0
  153.3659  142.3858  162.0541 C   0  0  0  0  0  0  0  0  0  0  0  0
  152.8319  141.4755  159.7546 N   0  0  0  0  0  0  0  0  0  0  0  0
  153.1447  140.0698  159.9764 C   0  0  0  0  0  0  0  0  0  0  0  0
  152.9009  139.2489  158.7091 C   0  0  0  0  0  0  0  0  0  0  0  0
  153.8513  138.7839  158.0808 O   0  0  0  0  0  0  0  0  0  0  0  0
  151.6178  139.0505  158.3737 N   0  0  0  0  0  0  0  0  0  0  0  0
  151.1248  138.1306  157.3516 C   0  0  0  0  0  0  0  0  0  0  0  0
  150.8837  138.8468  155.9882 C   0  0  0  0  0  0  0  0  0  0  0  0
  152.0808  139.7967  155.7461 C   0  0  0  0  0  0  0  0  0  0  0  0
  150.9448  137.7509  154.8934 C   0  0  0  0  0  0  0  0  0  0  0  0
  149.5689  139.5475  155.9682 N   0  0  0  0  0  0  0  0  0  0  0  0
  149.3941  140.5609  157.0146 C   0  0  0  0  0  0  0  0  0  0  0  0
  147.9681  141.1342  157.0276 C   0  0  0  0  0  0  0  0  0  0  0  0
  147.6560  141.6749  155.7491 O   0  0  0  0  0  0  0  0  0  0  0  0
  147.7660  140.7120  154.7076 C   0  0  0  0  0  0  0  0  0  0  0  0
  149.1919  140.1352  154.6788 C   0  0  0  0  0  0  0  0  0  0  0  0
  152.3855  141.8698  158.5409 N   0  0  0  0  0  0  0  0  0  0  0  0
  151.4616  144.9853  157.7590 H   0  0  0  0  0  0  0  0  0  0  0  0
  150.7744  143.5210  157.0691 H   0  0  0  0  0  0  0  0  0  0  0  0
  152.4313  143.9799  156.6866 H   0  0  0  0  0  0  0  0  0  0  0  0
  152.4129  144.6547  160.3477 H   0  0  0  0  0  0  0  0  0  0  0  0
  153.3471  143.3441  162.5733 H   0  0  0  0  0  0  0  0  0  0  0  0
  154.3865  142.0046  162.0912 H   0  0  0  0  0  0  0  0  0  0  0  0
  152.7255  141.6961  162.6040 H   0  0  0  0  0  0  0  0  0  0  0  0
  154.1860  139.9686  160.2862 H   0  0  0  0  0  0  0  0  0  0  0  0
  152.5286  139.6948  160.7943 H   0  0  0  0  0  0  0  0  0  0  0  0
  150.9164  139.4818  158.9587 H   0  0  0  0  0  0  0  0  0  0  0  0
  151.8569  137.3300  157.2469 H   0  0  0  0  0  0  0  0  0  0  0  0
  150.2162  137.6288  157.6895 H   0  0  0  0  0  0  0  0  0  0  0  0
  153.0220  139.2459  155.7483 H   0  0  0  0  0  0  0  0  0  0  0  0
  152.1628  140.5605  156.5189 H   0  0  0  0  0  0  0  0  0  0  0  0
  152.0150  140.3045  154.7841 H   0  0  0  0  0  0  0  0  0  0  0  0
  151.8123  137.1026  155.0217 H   0  0  0  0  0  0  0  0  0  0  0  0
  151.0268  138.1732  153.8919 H   0  0  0  0  0  0  0  0  0  0  0  0
  150.0585  137.1162  154.9086 H   0  0  0  0  0  0  0  0  0  0  0  0
  149.5935  140.1443  158.0002 H   0  0  0  0  0  0  0  0  0  0  0  0
  150.0998  141.3787  156.8680 H   0  0  0  0  0  0  0  0  0  0  0  0
  147.2476  140.3602  157.2930 H   0  0  0  0  0  0  0  0  0  0  0  0
  147.8830  141.9209  157.7774 H   0  0  0  0  0  0  0  0  0  0  0  0
  147.0331  139.9177  154.8564 H   0  0  0  0  0  0  0  0  0  0  0  0
  147.5314  141.1892  153.7560 H   0  0  0  0  0  0  0  0  0  0  0  0
  149.8903  140.9265  154.4061 H   0  0  0  0  0  0  0  0  0  0  0  0
  149.2292  139.3910  153.8855 H   0  0  0  0  0  0  0  0  0  0  0  0
  1  2  1  0  0  0  0
  1 22  1  0  0  0  0
  1 23  1  0  0  0  0
  1 24  1  0  0  0  0
  2 21  2  0  0  0  0
  2  3  1  0  0  0  0
  3  4  2  0  0  0  0
  3 25  1  0  0  0  0
  4  5  1  0  0  0  0
  4  6  1  0  0  0  0
  5 26  1  0  0  0  0
  5 27  1  0  0  0  0
  5 28  1  0  0  0  0
  6  7  1  0  0  0  0
  6 21  1  0  0  0  0
  7  8  1  0  0  0  0
  7 29  1  0  0  0  0
  7 30  1  0  0  0  0
  8  9  2  0  0  0  0
  8 10  1  0  0  0  0
 10 11  1  0  0  0  0
 10 31  1  0  0  0  0
 11 12  1  0  0  0  0
 11 32  1  0  0  0  0
 11 33  1  0  0  0  0
 12 13  1  0  0  0  0
 12 14  1  0  0  0  0
 12 15  1  0  0  0  0
 13 34  1  0  0  0  0
 13 35  1  0  0  0  0
 13 36  1  0  0  0  0
 14 37  1  0  0  0  0
 14 38  1  0  0  0  0
 14 39  1  0  0  0  0
 15 20  1  0  0  0  0
 15 16  1  0  0  0  0
 16 17  1  0  0  0  0
 16 40  1  0  0  0  0
 16 41  1  0  0  0  0
 17 18  1  0  0  0  0
 17 42  1  0  0  0  0
 17 43  1  0  0  0  0
 18 19  1  0  0  0  0
 19 20  1  0  0  0  0
 19 44  1  0  0  0  0
 19 45  1  0  0  0  0
 20 46  1  0  0  0  0
 20 47  1  0  0  0  0
M  END
> <s_m_source_file>
AV-unprocessed.smi

> <i_m_source_file_index>
1998

> <i_lp_mmshare_version>
43012

> <i_f3d_flags>
0

> <s_epik_input>
W0NIM11jMVtjSF1jKFtDSDNdKW4objEpW0NIMl1DKD1PKVtOSF1bQ0gyXUMoW0NIM10pKFtDSDNdKU4yW0NIMl1bQ0gyXU9bQ0gyXVtDSDJdMg==

> <s_epik_cmdline>
J2VwaWtfcHl0aG9uJywgJy1waCcsICc3LjAnLCAnLXRuJywgJzgnLCAnLW1hJywgJzIwMCcsICctbWV0YWxfYmluZGluZycsICctaW1hZScsICc8aW5maWxlLm1hZT4nLCAnLW9tYWUnLCAnPG91dGZpbGUubWFlPic=

> <r_lp_tautomer_probability>
1

> <r_epik_Ionization_Penalty>
0.197271

> <r_epik_Ionization_Penalty_Charging>
0

> <r_epik_Ionization_Penalty_Neutral>
0.197271

> <r_epik_State_Penalty>
0.186684

> <r_epik_Charging_Adjusted_Penalty>
0.186684

> <i_epik_Tot_Q>
0

> <i_epik_Tot_abs_Q>
0

> <r_epik_Metal_State_Penalty>
0.186642

> <b_epik_Metal_Only>
0

> <s_lp_Force_Field>
OPLS_2005

> <r_lp_Energy>
37.8286

> <b_lp_Chiralities_Consistent>
1

> <s_lp_Variant>
AV-unprocessed.smi:1998-1

> <Gold.Version>
5.8.1

> <Gold.Id.Protein>
6NUR|6NUR_protein|mol2

> <Gold.PLP.Fitness>
43.0711

> <Gold.PLP.PLP>
-41.1288

> <Gold.PLP.part.hbond>
-1.0000

> <Gold.PLP.part.metal>
0.0000

> <Gold.PLP.part.buried>
-3.6080

> <Gold.PLP.part.nonpolar>
-37.0954

> <Gold.PLP.part.repulsive>
1.6229

> <Gold.PLP.ligand.clash>
0.0000

> <Gold.PLP.ligand.torsion>
0.6090

> <Gold.PLP.Chemscore.Hbond>
1.0000

> <Gold.PLP.Chemscore.CHOScore>
0.0000

> <Gold.PLP.Chemscore.Metal>
0.0000

> <Gold.Chemscore.Hbonds>
donor molecule, donor type, donor heavy atom, donor atom, acceptor molecule, acceptor atom, score
      P1  H  7997  8009       L1     9  1.00

> <Gold.PLP.Chemscore.Internal.Correction>
0.1603

> <Gold.Rescore>
     Score         DG    S(hbond)    S(metal)    S(lipo)     H(rot)  DE(clash)    DE(int)     intcor
     15.54     -17.58       0.95        0.00     112.84       1.67       0.08       1.96       ----

> <Gold.Chemscore.Fitness>
15.5405

> <Gold.Chemscore.DG>
-17.5797

> <Gold.Chemscore.ZeroCoef>
-5.4800

> <Gold.Chemscore.Hbond>
0.9473

> <Gold.Chemscore.Metal>
0.0000

> <Gold.Chemscore.Lipo>
112.8417

> <Gold.Chemscore.Internal_Hbond>
0.0000

> <Gold.Chemscore.DEClash>
0.0753

> <Gold.Chemscore.DEInternal>
1.9639

> <Gold.Chemscore.Rot>
1.6666

> <Gold.Chemscore.Internal.Correction>
   9.000000E+99

> <Gold.Chemscore.Hbonds>
donor molecule, donor type, donor heavy atom, donor atom, acceptor molecule, acceptor atom, score
      P1  H  7997  8009       L1     9  0.88

> <Gold.Chemscore.Hbond.Weighted>
-3.1638

> <Gold.Chemscore.Metal.Weighted>
-0.0000

> <Gold.Chemscore.Lipo.Weighted>
-13.2025

> <Gold.Chemscore.Internal_Hbond.Weighted>
0.0000

> <Gold.Chemscore.DEClash.Weighted>
0.0753

> <Gold.Chemscore.DEInternal.Weighted>
1.9639

> <Gold.Chemscore.Rot.Weighted>
4.2666

> <Gold.Chemscore.Internal.Correction.Weighted>
   9.000000E+99

> <Gold.Protein.RotatedTorsions>
[ 6907 6896 6895 6894 ] final   93.36 input  -60.11 | X-H torsion
[ 7974 7965 7964 7962 ] final   49.48 input  175.53 | X-H torsion
[ 8008 7997 7996 7995 ] final  141.82 input   59.86 | X-H torsion
[ 10167 10162 10161 10158 ] final  -75.59 input  -65.29 | X-H torsion
[ 10718 10713 10712 10709 ] final    0.06 input   66.30 | X-H torsion
[ 10763 10752 10751 10750 ] final  -76.12 input  -60.55 | X-H torsion
[ 11005 11000 10999 10996 ] final  -41.21 input  -57.11 | X-H torsion

> <Gold.Protein.ActiveResidues>
 VAL166  LYS551  ARG553  GLY616  TRP617  ASP618  TYR619  PRO620  LYS621  CYS622 
 ASP623  PHE694  ASN695  SER759  ASP760  ASP761  ALA762  ILE779  LEU786  VAL792 
 PHE793  MET794  SER795  GLU796  ALA797  LYS798  CYS799  TRP800  GLU811  SER814 

> <Gold.Protein.RotatedAtoms>
  152.5452  134.1360  159.8458 H   0  0  0  0  0  0  0  0  0  0  0  0  # atno 6907 bound_to 6896
  151.1401  133.4970  159.2604 H   0  0  0  0  0  0  0  0  0  0  0  0  # atno 6908 bound_to 6896
  151.1583  135.0271  159.8753 H   0  0  0  0  0  0  0  0  0  0  0  0  # atno 6909 bound_to 6896
  146.0104  139.4537  142.9959 H   0  0  0  0  0  0  0  0  0  0  0  0  # atno 7974 bound_to 7965
  156.2960  140.2305  156.4627 H   0  0  0  0  0  0  0  0  0  0  0  0  # atno 8008 bound_to 7997
  154.8004  140.0449  157.1289 H   0  0  0  0  0  0  0  0  0  0  0  0  # atno 8009 bound_to 7997
  154.9540  140.3045  155.5065 H   0  0  0  0  0  0  0  0  0  0  0  0  # atno 8010 bound_to 7997
  140.4929  143.2376  151.7877 H   0  0  0  0  0  0  0  0  0  0  0  0  # atno 10167 bound_to 10162
  156.8278  130.5478  149.5690 H   0  0  0  0  0  0  0  0  0  0  0  0  # atno 10718 bound_to 10713
  154.4956  135.5808  153.6492 H   0  0  0  0  0  0  0  0  0  0  0  0  # atno 10763 bound_to 10752
  152.9869  135.6123  154.3069 H   0  0  0  0  0  0  0  0  0  0  0  0  # atno 10764 bound_to 10752
  154.2972  135.2847  155.2607 H   0  0  0  0  0  0  0  0  0  0  0  0  # atno 10765 bound_to 10752
  141.0230  133.6854  156.2427 H   0  0  0  0  0  0  0  0  0  0  0  0  # atno 11005 bound_to 11000
  145.7350  141.0029  143.1331 LP  0  0  0  0  0  0  0  0  0  0  0  0  # atno 17320 bound_to 7965
  144.6951  139.9030  143.7459 LP  0  0  0  0  0  0  0  0  0  0  0  0  # atno 17321 bound_to 7965
  139.4855  144.4625  151.9524 LP  0  0  0  0  0  0  0  0  0  0  0  0  # atno 17342 bound_to 10162
  140.3712  144.2853  150.5920 LP  0  0  0  0  0  0  0  0  0  0  0  0  # atno 17343 bound_to 10162
  156.0951  130.5926  150.9800 LP  0  0  0  0  0  0  0  0  0  0  0  0  # atno 17370 bound_to 10713
  157.6423  131.0908  150.8226 LP  0  0  0  0  0  0  0  0  0  0  0  0  # atno 17371 bound_to 10713
  140.6540  134.5037  157.5579 LP  0  0  0  0  0  0  0  0  0  0  0  0  # atno 17394 bound_to 11000
  139.9158  134.8250  156.1372 LP  0  0  0  0  0  0  0  0  0  0  0  0  # atno 17395 bound_to 11000

$$$$
