AV-unprocessed.smi:2069|AV-procd|sdf|8434|dock1
  -GOLD-   2272011133D 1   1.00000     0.00000
 Structure written by MMmdl.
 39 40  0  0  0  0  0  0  0  0  2 V2000
  138.0919  137.1291  154.4504 C   0  0  0  0  0  0  0  0  0  0  0  0
  139.5649  137.3346  154.5455 C   0  0  0  0  0  0  0  0  0  0  0  0
  140.3420  136.6255  155.3732 N   0  0  0  0  0  0  0  0  0  0  0  0
  141.6780  136.9901  155.2822 N   0  0  0  0  0  0  0  0  0  0  0  0
  141.8695  137.9659  154.3839 C   0  0  0  0  0  0  0  0  0  0  0  0
  143.1403  138.5246  154.0850 N   0  0  0  0  0  0  0  0  0  0  0  0
  144.3374  138.1920  154.5988 C   0  0  0  0  0  0  0  0  0  0  0  0
  144.5320  137.3322  155.4586 O   0  0  0  0  0  0  0  0  0  0  0  0
  145.3215  138.9197  154.0518 N   0  0  0  0  0  0  0  0  0  0  0  0
  146.7366  138.7880  154.3861 C   0  0  0  0  0  0  0  0  0  0  0  0
  147.4471  140.1552  154.5741 C   0  0  1  0  0  0  0  0  0  0  0  0
  146.5926  141.0789  155.4761 C   0  0  0  0  0  0  0  0  0  0  0  0
  148.8431  139.9478  155.0806 N   0  3  0  0  0  0  0  0  0  0  0  0
  149.6346  139.0354  154.2102 C   0  0  0  0  0  0  0  0  0  0  0  0
  151.0240  138.7659  154.8096 C   0  0  0  0  0  0  0  0  0  0  0  0
  151.7096  139.9968  154.9837 O   0  0  0  0  0  0  0  0  0  0  0  0
  151.0254  140.8510  155.8882 C   0  0  0  0  0  0  0  0  0  0  0  0
  149.6276  141.1868  155.3399 C   0  0  0  0  0  0  0  0  0  0  0  0
  140.4184  138.5237  153.5692 S   0  0  0  0  0  0  0  0  0  0  0  0
  137.6891  136.8102  155.4123 H   0  0  0  0  0  0  0  0  0  0  0  0
  137.8706  136.3645  153.7055 H   0  0  0  0  0  0  0  0  0  0  0  0
  137.6000  138.0569  154.1580 H   0  0  0  0  0  0  0  0  0  0  0  0
  143.1371  139.2578  153.3913 H   0  0  0  0  0  0  0  0  0  0  0  0
  145.0777  139.6075  153.3540 H   0  0  0  0  0  0  0  0  0  0  0  0
  146.8087  138.2076  155.3064 H   0  0  0  0  0  0  0  0  0  0  0  0
  147.2094  138.1830  153.6134 H   0  0  0  0  0  0  0  0  0  0  0  0
  147.5240  140.6506  153.6048 H   0  0  0  0  0  0  0  0  0  0  0  0
  145.5768  141.1869  155.0965 H   0  0  0  0  0  0  0  0  0  0  0  0
  146.9959  142.0904  155.5247 H   0  0  0  0  0  0  0  0  0  0  0  0
  146.5207  140.6892  156.4921 H   0  0  0  0  0  0  0  0  0  0  0  0
  149.1279  138.0824  154.0703 H   0  0  0  0  0  0  0  0  0  0  0  0
  149.7429  139.4804  153.2197 H   0  0  0  0  0  0  0  0  0  0  0  0
  150.9452  138.2367  155.7608 H   0  0  0  0  0  0  0  0  0  0  0  0
  151.6046  138.1314  154.1395 H   0  0  0  0  0  0  0  0  0  0  0  0
  150.9545  140.3791  156.8698 H   0  0  0  0  0  0  0  0  0  0  0  0
  151.6064  141.7644  156.0173 H   0  0  0  0  0  0  0  0  0  0  0  0
  149.7147  141.7663  154.4193 H   0  0  0  0  0  0  0  0  0  0  0  0
  149.1308  141.8152  156.0782 H   0  0  0  0  0  0  0  0  0  0  0  0
  148.7510  139.4921  155.9771 H   0  0  0  0  0  0  0  0  0  0  0  0
  1  2  1  0  0  0  0
  1 20  1  0  0  0  0
  1 21  1  0  0  0  0
  1 22  1  0  0  0  0
  2 19  1  0  0  0  0
  2  3  2  0  0  0  0
  3  4  1  0  0  0  0
  4  5  2  0  0  0  0
  5  6  1  0  0  0  0
  5 19  1  0  0  0  0
  6  7  1  0  0  0  0
  6 23  1  0  0  0  0
  7  8  2  0  0  0  0
  7  9  1  0  0  0  0
  9 10  1  0  0  0  0
  9 24  1  0  0  0  0
 10 11  1  0  0  0  0
 10 25  1  0  0  0  0
 10 26  1  0  0  0  0
 11 12  1  0  0  0  0
 11 13  1  0  0  0  0
 11 27  1  0  0  0  0
 12 28  1  0  0  0  0
 12 29  1  0  0  0  0
 12 30  1  0  0  0  0
 13 18  1  0  0  0  0
 13 14  1  0  0  0  0
 13 39  1  0  0  0  0
 14 15  1  0  0  0  0
 14 31  1  0  0  0  0
 14 32  1  0  0  0  0
 15 16  1  0  0  0  0
 15 33  1  0  0  0  0
 15 34  1  0  0  0  0
 16 17  1  0  0  0  0
 17 18  1  0  0  0  0
 17 35  1  0  0  0  0
 17 36  1  0  0  0  0
 18 37  1  0  0  0  0
 18 38  1  0  0  0  0
M  CHG  1  13   1
M  END
> <s_m_source_file>
AV-unprocessed.smi

> <i_m_source_file_index>
2069

> <i_lp_mmshare_version>
43012

> <i_f3d_flags>
0

> <s_epik_input>
W0NIM11jMW5uYyhzMSlbTkhdQyg9TylbTkhdW0NIMl1bQ0BIXShbQ0gzXSlOMltDSDJdW0NIMl1PW0NIMl1bQ0gyXTI=

> <s_epik_cmdline>
J2VwaWtfcHl0aG9uJywgJy1waCcsICc3LjAnLCAnLXRuJywgJzgnLCAnLW1hJywgJzIwMCcsICctbWV0YWxfYmluZGluZycsICctaW1hZScsICc8aW5maWxlLm1hZT4nLCAnLW9tYWUnLCAnPG91dGZpbGUubWFlPic=

> <r_lp_tautomer_probability>
1

> <r_epik_Ionization_Penalty>
0.70016

> <r_epik_Ionization_Penalty_Charging>
0.695697

> <r_epik_Ionization_Penalty_Neutral>
0.00446266

> <r_epik_State_Penalty>
0.717972

> <r_epik_Charging_Adjusted_Penalty>
1.41367

> <i_epik_Tot_Q>
1

> <i_epik_Tot_abs_Q>
1

> <r_epik_Metal_State_Penalty>
1.06969

> <b_epik_Metal_Only>
0

> <s_lp_Force_Field>
OPLS_2005

> <r_lp_Energy>
18.8851

> <b_lp_Chiralities_Consistent>
1

> <s_lp_Variant>
AV-unprocessed.smi:2069-4

> <Gold.Version>
5.8.1

> <Gold.Id.Protein>
6NUR|6NUR_protein|mol2

> <Gold.PLP.Fitness>
38.1689

> <Gold.PLP.PLP>
-27.2672

> <Gold.PLP.part.hbond>
-3.9917

> <Gold.PLP.part.metal>
0.0000

> <Gold.PLP.part.buried>
-4.3170

> <Gold.PLP.part.nonpolar>
-20.0363

> <Gold.PLP.part.repulsive>
0.1447

> <Gold.PLP.ligand.clash>
0.0000

> <Gold.PLP.ligand.torsion>
0.1704

> <Gold.PLP.Chemscore.Hbond>
3.7280

> <Gold.PLP.Chemscore.CHOScore>
0.0000

> <Gold.PLP.Chemscore.Metal>
0.0000

> <Gold.Chemscore.Hbonds>
donor molecule, donor type, donor heavy atom, donor atom, acceptor molecule, acceptor atom, score
      L1  H     6    23       P1 10175  1.00
      L1  H     9    24       P1 10175  0.91
      P1  H  7989  7998       L1    16  1.00
      P1  H 11000 11005       L1     3  0.82

> <Gold.PLP.Chemscore.Internal.Correction>
0.0585

> <Gold.Rescore>
     Score         DG    S(hbond)    S(metal)    S(lipo)     H(rot)  DE(clash)    DE(int)     intcor
     17.84     -19.36       3.40        0.00      57.67       1.65       0.03       1.49       ----

> <Gold.Chemscore.Fitness>
17.8401

> <Gold.Chemscore.DG>
-19.3601

> <Gold.Chemscore.ZeroCoef>
-5.4800

> <Gold.Chemscore.Hbond>
3.3982

> <Gold.Chemscore.Metal>
0.0000

> <Gold.Chemscore.Lipo>
57.6749

> <Gold.Chemscore.Internal_Hbond>
0.0000

> <Gold.Chemscore.DEClash>
0.0319

> <Gold.Chemscore.DEInternal>
1.4881

> <Gold.Chemscore.Rot>
1.6476

> <Gold.Chemscore.Internal.Correction>
   9.000000E+99

> <Gold.Chemscore.Hbonds>
donor molecule, donor type, donor heavy atom, donor atom, acceptor molecule, acceptor atom, score
      L1  H     6    23       P1 10175  0.97
      L1  H     9    24       P1 10175  0.88
      P1  H  7989  7998       L1    16  0.26
      P1  H 11000 11005       L1     3  0.75

> <Gold.Chemscore.Hbond.Weighted>
-11.3500

> <Gold.Chemscore.Metal.Weighted>
-0.0000

> <Gold.Chemscore.Lipo.Weighted>
-6.7480

> <Gold.Chemscore.Internal_Hbond.Weighted>
0.0000

> <Gold.Chemscore.DEClash.Weighted>
0.0319

> <Gold.Chemscore.DEInternal.Weighted>
1.4881

> <Gold.Chemscore.Rot.Weighted>
4.2179

> <Gold.Chemscore.Internal.Correction.Weighted>
   9.000000E+99

> <Gold.Protein.RotatedTorsions>
[ 6907 6896 6895 6894 ] final  114.73 input  -60.11 | X-H torsion
[ 7974 7965 7964 7962 ] final -110.30 input  175.53 | X-H torsion
[ 8008 7997 7996 7995 ] final -162.99 input   59.86 | X-H torsion
[ 10167 10162 10161 10158 ] final   48.90 input  -65.29 | X-H torsion
[ 10718 10713 10712 10709 ] final -165.52 input   66.30 | X-H torsion
[ 10763 10752 10751 10750 ] final  -18.86 input  -60.55 | X-H torsion
[ 11005 11000 10999 10996 ] final   79.85 input  -57.11 | X-H torsion

> <Gold.Protein.ActiveResidues>
 VAL166  LYS551  ARG553  GLY616  TRP617  ASP618  TYR619  PRO620  LYS621  CYS622 
 ASP623  PHE694  ASN695  SER759  ASP760  ASP761  ALA762  ILE779  LEU786  VAL792 
 PHE793  MET794  SER795  GLU796  ALA797  LYS798  CYS799  TRP800  GLU811  SER814 

> <Gold.Protein.RotatedAtoms>
  152.4785  133.8196  159.7046 H   0  0  0  0  0  0  0  0  0  0  0  0  # atno 6907 bound_to 6896
  150.8818  133.7352  159.2936 H   0  0  0  0  0  0  0  0  0  0  0  0  # atno 6908 bound_to 6896
  151.4854  135.1058  159.9841 H   0  0  0  0  0  0  0  0  0  0  0  0  # atno 6909 bound_to 6896
  145.1700  140.8921  143.3541 H   0  0  0  0  0  0  0  0  0  0  0  0  # atno 7974 bound_to 7965
  155.8148  140.0911  157.1883 H   0  0  0  0  0  0  0  0  0  0  0  0  # atno 8008 bound_to 7997
  154.3979  140.1448  156.3490 H   0  0  0  0  0  0  0  0  0  0  0  0  # atno 8009 bound_to 7997
  155.8327  140.3442  155.5585 H   0  0  0  0  0  0  0  0  0  0  0  0  # atno 8010 bound_to 7997
  140.2884  144.3074  150.6246 H   0  0  0  0  0  0  0  0  0  0  0  0  # atno 10167 bound_to 10162
  156.6545  130.9021  151.3019 H   0  0  0  0  0  0  0  0  0  0  0  0  # atno 10718 bound_to 10713
  153.5958  135.7001  153.5404 H   0  0  0  0  0  0  0  0  0  0  0  0  # atno 10763 bound_to 10752
  153.3139  135.4093  155.1359 H   0  0  0  0  0  0  0  0  0  0  0  0  # atno 10764 bound_to 10752
  154.8592  135.3679  154.5491 H   0  0  0  0  0  0  0  0  0  0  0  0  # atno 10765 bound_to 10752
  139.9157  134.7875  156.1832 H   0  0  0  0  0  0  0  0  0  0  0  0  # atno 11005 bound_to 11000
  145.0243  139.3396  143.6056 LP  0  0  0  0  0  0  0  0  0  0  0  0  # atno 17320 bound_to 7965
  146.3470  139.9556  142.8723 LP  0  0  0  0  0  0  0  0  0  0  0  0  # atno 17321 bound_to 7965
  140.5753  143.2177  151.7527 LP  0  0  0  0  0  0  0  0  0  0  0  0  # atno 17342 bound_to 10162
  139.4944  144.4159  152.0031 LP  0  0  0  0  0  0  0  0  0  0  0  0  # atno 17343 bound_to 10162
  157.7130  130.9463  150.1155 LP  0  0  0  0  0  0  0  0  0  0  0  0  # atno 17370 bound_to 10713
  156.2058  130.3663  149.8731 LP  0  0  0  0  0  0  0  0  0  0  0  0  # atno 17371 bound_to 10713
  141.0629  133.6833  156.1988 LP  0  0  0  0  0  0  0  0  0  0  0  0  # atno 17394 bound_to 11000
  140.6632  134.4946  157.5584 LP  0  0  0  0  0  0  0  0  0  0  0  0  # atno 17395 bound_to 11000

$$$$
