AV-unprocessed.smi:2053|AV-procd|sdf|8331|dock1
  -GOLD-   2272010593D 1   1.00000     0.00000
 Structure written by MMmdl.
 44 45  0  0  0  0  0  0  0  0  1 V2000
  143.6466  132.6606  148.2880 C   0  0  0  0  0  0  0  0  0  0  0  0
  143.7488  131.8341  149.4341 O   0  0  0  0  0  0  0  0  0  0  0  0
  144.9016  132.1205  150.2085 C   0  0  0  0  0  0  0  0  0  0  0  0
  144.8227  133.5637  150.7152 C   0  0  0  0  0  0  0  0  0  0  0  0
  144.0275  133.5914  151.8967 O   0  0  0  0  0  0  0  0  0  0  0  0
  143.5117  134.8001  152.3167 C   0  0  0  0  0  0  0  0  0  0  0  0
  142.3198  134.7977  153.0678 C   0  0  0  0  0  0  0  0  0  0  0  0
  141.7837  136.0258  153.4999 C   0  0  0  0  0  0  0  0  0  0  0  0
  142.4557  137.2234  153.1575 C   0  0  0  0  0  0  0  0  0  0  0  0
  142.0340  138.5227  153.5484 N   0  0  0  0  0  0  0  0  0  0  0  0
  140.9408  138.8880  154.2433 C   0  0  0  0  0  0  0  0  0  0  0  0
  140.0709  138.1083  154.6317 O   0  0  0  0  0  0  0  0  0  0  0  0
  140.8214  140.3953  154.5233 C   0  0  1  0  0  0  0  0  0  0  0  0
  139.5129  141.0291  154.0178 C   0  0  0  0  0  0  0  0  0  0  0  0
  138.5954  140.9812  155.2314 C   0  0  0  0  0  0  0  0  0  0  0  0
  139.5532  141.2313  156.3944 C   0  0  0  0  0  0  0  0  0  0  0  0
  140.8565  140.7040  155.9629 N   0  0  0  0  0  0  0  0  0  0  0  0
  142.2948  141.4037  156.6256 S   0  0  0  0  0  0  0  0  0  0  0  0
  142.0157  141.2675  158.4378 C   0  0  0  0  0  0  0  0  0  0  0  0
  143.4213  140.5284  156.2670 O   0  0  0  0  0  0  0  0  0  0  0  0
  142.3207  142.8241  156.2451 O   0  0  0  0  0  0  0  0  0  0  0  0
  143.6492  137.1159  152.4140 C   0  0  0  0  0  0  0  0  0  0  0  0
  144.1684  135.9421  151.9964 N   0  0  0  0  0  0  0  0  0  0  0  0
  142.7483  132.4011  147.7278 H   0  0  0  0  0  0  0  0  0  0  0  0
  144.5046  132.5284  147.6278 H   0  0  0  0  0  0  0  0  0  0  0  0
  143.5776  133.7131  148.5661 H   0  0  0  0  0  0  0  0  0  0  0  0
  144.9390  131.4385  151.0592 H   0  0  0  0  0  0  0  0  0  0  0  0
  145.8125  131.9701  149.6268 H   0  0  0  0  0  0  0  0  0  0  0  0
  145.8246  133.9543  150.9014 H   0  0  0  0  0  0  0  0  0  0  0  0
  144.3566  134.1850  149.9488 H   0  0  0  0  0  0  0  0  0  0  0  0
  141.8272  133.8686  153.3136 H   0  0  0  0  0  0  0  0  0  0  0  0
  140.8827  136.0194  154.0924 H   0  0  0  0  0  0  0  0  0  0  0  0
  142.6234  139.2800  153.2324 H   0  0  0  0  0  0  0  0  0  0  0  0
  141.6560  140.8900  154.0236 H   0  0  0  0  0  0  0  0  0  0  0  0
  139.6958  142.0673  153.7365 H   0  0  0  0  0  0  0  0  0  0  0  0
  139.0804  140.5340  153.1475 H   0  0  0  0  0  0  0  0  0  0  0  0
  137.7890  141.7135  155.1827 H   0  0  0  0  0  0  0  0  0  0  0  0
  138.1470  139.9910  155.3229 H   0  0  0  0  0  0  0  0  0  0  0  0
  139.6377  142.3021  156.5834 H   0  0  0  0  0  0  0  0  0  0  0  0
  139.2249  140.7477  157.3148 H   0  0  0  0  0  0  0  0  0  0  0  0
  142.8859  141.6545  158.9678 H   0  0  0  0  0  0  0  0  0  0  0  0
  141.8655  140.2216  158.7047 H   0  0  0  0  0  0  0  0  0  0  0  0
  141.1363  141.8456  158.7196 H   0  0  0  0  0  0  0  0  0  0  0  0
  144.2058  138.0006  152.1413 H   0  0  0  0  0  0  0  0  0  0  0  0
  1  2  1  0  0  0  0
  1 24  1  0  0  0  0
  1 25  1  0  0  0  0
  1 26  1  0  0  0  0
  2  3  1  0  0  0  0
  3  4  1  0  0  0  0
  3 27  1  0  0  0  0
  3 28  1  0  0  0  0
  4  5  1  0  0  0  0
  4 29  1  0  0  0  0
  4 30  1  0  0  0  0
  5  6  1  0  0  0  0
  6 23  1  0  0  0  0
  6  7  2  0  0  0  0
  7  8  1  0  0  0  0
  7 31  1  0  0  0  0
  8  9  2  0  0  0  0
  8 32  1  0  0  0  0
  9 10  1  0  0  0  0
  9 22  1  0  0  0  0
 10 11  1  0  0  0  0
 10 33  1  0  0  0  0
 11 12  2  0  0  0  0
 11 13  1  0  0  0  0
 13 17  1  0  0  0  0
 13 14  1  0  0  0  0
 13 34  1  0  0  0  0
 14 15  1  0  0  0  0
 14 35  1  0  0  0  0
 14 36  1  0  0  0  0
 15 16  1  0  0  0  0
 15 37  1  0  0  0  0
 15 38  1  0  0  0  0
 16 17  1  0  0  0  0
 16 39  1  0  0  0  0
 16 40  1  0  0  0  0
 17 18  1  0  0  0  0
 18 19  1  0  0  0  0
 18 20  2  0  0  0  0
 18 21  2  0  0  0  0
 19 41  1  0  0  0  0
 19 42  1  0  0  0  0
 19 43  1  0  0  0  0
 22 23  2  0  0  0  0
 22 44  1  0  0  0  0
M  END
> <s_m_source_file>
AV-unprocessed.smi

> <i_m_source_file_index>
2053

> <i_lp_mmshare_version>
43012

> <i_f3d_flags>
0

> <s_epik_input>
W0NIM11PW0NIMl1bQ0gyXU9jMVtjSF1bY0hdYyhbY0hdbjEpW05IXUMoPU8pW0NAQEhdMltDSDJdW0NIMl1bQ0gyXU4yUyg9TykoPU8pW0NIM10=

> <s_epik_cmdline>
J2VwaWtfcHl0aG9uJywgJy1waCcsICc3LjAnLCAnLXRuJywgJzgnLCAnLW1hJywgJzIwMCcsICctbWV0YWxfYmluZGluZycsICctaW1hZScsICc8aW5maWxlLm1hZT4nLCAnLW9tYWUnLCAnPG91dGZpbGUubWFlPic=

> <r_lp_tautomer_probability>
1

> <r_epik_Ionization_Penalty>
1.28704e-05

> <r_epik_Ionization_Penalty_Charging>
0

> <r_epik_Ionization_Penalty_Neutral>
1.28704e-05

> <r_epik_State_Penalty>
-0

> <r_epik_Charging_Adjusted_Penalty>
0

> <i_epik_Tot_Q>
0

> <i_epik_Tot_abs_Q>
0

> <r_epik_Metal_State_Penalty>
-0

> <b_epik_Metal_Only>
0

> <s_lp_Force_Field>
OPLS_2005

> <r_lp_Energy>
12.3258

> <b_lp_Chiralities_Consistent>
1

> <s_lp_Variant>
AV-unprocessed.smi:2053-2

> <Gold.Version>
5.8.1

> <Gold.Id.Protein>
6NUR|6NUR_protein|mol2

> <Gold.PLP.Fitness>
37.9586

> <Gold.PLP.PLP>
-28.7822

> <Gold.PLP.part.hbond>
-2.0000

> <Gold.PLP.part.metal>
0.0000

> <Gold.PLP.part.buried>
-5.8552

> <Gold.PLP.part.nonpolar>
-21.9011

> <Gold.PLP.part.repulsive>
0.7012

> <Gold.PLP.ligand.clash>
0.0000

> <Gold.PLP.ligand.torsion>
0.8675

> <Gold.PLP.Chemscore.Hbond>
1.8480

> <Gold.PLP.Chemscore.CHOScore>
1.5965

> <Gold.PLP.Chemscore.Metal>
0.0000

> <Gold.Chemscore.Hbonds>
donor molecule, donor type, donor heavy atom, donor atom, acceptor molecule, acceptor atom, score
      L1  H    10    33       P1 10175  1.00
      P1  H 10785 10796       L1     2  0.86
      L1  C    22    44       P1 10171  0.63
      L1  C    22    44       P1 10175  1.00

> <Gold.PLP.Chemscore.Internal.Correction>
0.5777

> <Gold.Rescore>
     Score         DG    S(hbond)    S(metal)    S(lipo)     H(rot)  DE(clash)    DE(int)     intcor
     10.96     -13.12       1.75        0.00      64.92       2.26       0.08       2.09       ----

> <Gold.Chemscore.Fitness>
10.9601

> <Gold.Chemscore.DG>
-13.1244

> <Gold.Chemscore.ZeroCoef>
-5.4800

> <Gold.Chemscore.Hbond>
1.7451

> <Gold.Chemscore.Metal>
0.0000

> <Gold.Chemscore.Lipo>
64.9169

> <Gold.Chemscore.Internal_Hbond>
0.0000

> <Gold.Chemscore.DEClash>
0.0781

> <Gold.Chemscore.DEInternal>
2.0863

> <Gold.Chemscore.Rot>
2.2576

> <Gold.Chemscore.Internal.Correction>
   9.000000E+99

> <Gold.Chemscore.Hbonds>
donor molecule, donor type, donor heavy atom, donor atom, acceptor molecule, acceptor atom, score
      L1  H    10    33       P1 10175  1.00
      P1  H 10785 10796       L1     2  0.29

> <Gold.Chemscore.Hbond.Weighted>
-5.8287

> <Gold.Chemscore.Metal.Weighted>
-0.0000

> <Gold.Chemscore.Lipo.Weighted>
-7.5953

> <Gold.Chemscore.Internal_Hbond.Weighted>
0.0000

> <Gold.Chemscore.DEClash.Weighted>
0.0781

> <Gold.Chemscore.DEInternal.Weighted>
2.0863

> <Gold.Chemscore.Rot.Weighted>
5.7796

> <Gold.Chemscore.Internal.Correction.Weighted>
   9.000000E+99

> <Gold.Protein.RotatedTorsions>
[ 6907 6896 6895 6894 ] final   61.03 input  -60.11 | X-H torsion
[ 7974 7965 7964 7962 ] final -129.10 input  175.53 | X-H torsion
[ 8008 7997 7996 7995 ] final  -20.90 input   59.86 | X-H torsion
[ 10167 10162 10161 10158 ] final   69.93 input  -65.29 | X-H torsion
[ 10718 10713 10712 10709 ] final  -77.81 input   66.30 | X-H torsion
[ 10763 10752 10751 10750 ] final -114.16 input  -60.55 | X-H torsion
[ 11005 11000 10999 10996 ] final  -51.95 input  -57.11 | X-H torsion

> <Gold.Protein.ActiveResidues>
 VAL166  LYS551  ARG553  GLY616  TRP617  ASP618  TYR619  PRO620  LYS621  CYS622 
 ASP623  PHE694  ASN695  SER759  ASP760  ASP761  ALA762  ILE779  LEU786  VAL792 
 PHE793  MET794  SER795  GLU796  ALA797  LYS798  CYS799  TRP800  GLU811  SER814 

> <Gold.Protein.RotatedAtoms>
  152.4054  134.6216  160.0052 H   0  0  0  0  0  0  0  0  0  0  0  0  # atno 6907 bound_to 6896
  151.6409  133.3320  159.3138 H   0  0  0  0  0  0  0  0  0  0  0  0  # atno 6908 bound_to 6896
  150.7949  134.7043  159.6612 H   0  0  0  0  0  0  0  0  0  0  0  0  # atno 6909 bound_to 6896
  144.9605  140.7442  143.4732 H   0  0  0  0  0  0  0  0  0  0  0  0  # atno 7974 bound_to 7965
  154.4740  140.2049  155.9925 H   0  0  0  0  0  0  0  0  0  0  0  0  # atno 8008 bound_to 7997
  156.1058  140.3237  155.7974 H   0  0  0  0  0  0  0  0  0  0  0  0  # atno 8009 bound_to 7997
  155.4720  140.0532  157.2969 H   0  0  0  0  0  0  0  0  0  0  0  0  # atno 8010 bound_to 7997
  140.0625  144.5221  150.7284 H   0  0  0  0  0  0  0  0  0  0  0  0  # atno 10167 bound_to 10162
  156.0134  130.4501  150.3401 H   0  0  0  0  0  0  0  0  0  0  0  0  # atno 10718 bound_to 10713
  154.8428  135.4428  154.1462 H   0  0  0  0  0  0  0  0  0  0  0  0  # atno 10763 bound_to 10752
  153.2634  135.6938  153.7560 H   0  0  0  0  0  0  0  0  0  0  0  0  # atno 10764 bound_to 10752
  153.6828  135.3400  155.3158 H   0  0  0  0  0  0  0  0  0  0  0  0  # atno 10765 bound_to 10752
  141.0898  133.6635  156.3953 H   0  0  0  0  0  0  0  0  0  0  0  0  # atno 11005 bound_to 11000
  145.2707  139.1956  143.4843 LP  0  0  0  0  0  0  0  0  0  0  0  0  # atno 17320 bound_to 7965
  146.3351  140.2652  142.8603 LP  0  0  0  0  0  0  0  0  0  0  0  0  # atno 17321 bound_to 7965
  140.7165  143.2549  151.4418 LP  0  0  0  0  0  0  0  0  0  0  0  0  # atno 17342 bound_to 10162
  139.5885  144.1551  152.2059 LP  0  0  0  0  0  0  0  0  0  0  0  0  # atno 17343 bound_to 10162
  157.1496  131.0317  151.2891 LP  0  0  0  0  0  0  0  0  0  0  0  0  # atno 17370 bound_to 10713
  157.4403  130.7540  149.7063 LP  0  0  0  0  0  0  0  0  0  0  0  0  # atno 17371 bound_to 10713
  140.5277  134.6242  157.5340 LP  0  0  0  0  0  0  0  0  0  0  0  0  # atno 17394 bound_to 11000
  139.9722  134.7273  156.0018 LP  0  0  0  0  0  0  0  0  0  0  0  0  # atno 17395 bound_to 11000

$$$$
