AV-unprocessed.smi:1827|AV-procd|sdf|7419|dock9
  -GOLD-   22720 9103D 1   1.00000     0.00000
 Structure written by MMmdl.
 43 44  0  0  0  0  0  0  0  0  1 V2000
  151.0816  139.2740  154.8068 C   0  0  0  0  0  0  0  0  0  0  0  0
  149.9106  140.2132  154.7167 C   0  0  0  0  0  0  0  0  0  0  0  0
  149.9639  141.3633  155.3762 N   0  0  0  0  0  0  0  0  0  0  0  0
  148.8186  141.9997  155.0495 N   0  0  0  0  0  0  0  0  0  0  0  0
  148.0187  141.2839  154.1874 C   0  0  0  0  0  0  0  0  0  0  0  0
  146.7147  141.8055  153.6831 C   0  0  0  0  0  0  0  0  0  0  0  0
  148.6887  140.1131  153.9805 C   0  0  0  0  0  0  0  0  0  0  0  0
  148.2415  139.0752  153.1255 N   0  0  0  0  0  0  0  0  0  0  0  0
  147.1365  138.3295  153.2753 C   0  0  0  0  0  0  0  0  0  0  0  0
  146.3087  138.4698  154.1753 O   0  0  0  0  0  0  0  0  0  0  0  0
  147.0293  137.4137  152.3023 N   0  0  0  0  0  0  0  0  0  0  0  0
  145.9456  136.4441  152.1759 C   0  0  0  0  0  0  0  0  0  0  0  0
  146.4611  135.0108  152.3866 C   0  0  0  0  0  0  0  0  0  0  0  0
  145.3526  133.9788  152.1178 C   0  0  0  0  0  0  0  0  0  0  0  0
  144.8362  134.1178  150.7523 N   0  0  0  0  0  0  0  0  0  0  0  0
  143.8680  133.0298  150.4848 C   0  0  0  0  0  0  0  0  0  0  0  0
  143.7401  132.6424  149.0066 C   0  0  0  0  0  0  0  0  0  0  0  0
  142.5751  132.8990  148.4067 N   0  0  0  0  0  0  0  0  0  0  0  0
  144.6835  132.1230  148.4141 O   0  0  0  0  0  0  0  0  0  0  0  0
  144.2516  135.4537  150.5638 C   0  0  0  0  0  0  0  0  0  0  0  0
  145.3151  136.5451  150.7799 C   0  0  0  0  0  0  0  0  0  0  0  0
  148.6025  142.9167  155.4138 H   0  0  0  0  0  0  0  0  0  0  0  0
  151.2229  138.7276  153.8744 H   0  0  0  0  0  0  0  0  0  0  0  0
  150.9390  138.5464  155.6059 H   0  0  0  0  0  0  0  0  0  0  0  0
  152.0087  139.8105  155.0110 H   0  0  0  0  0  0  0  0  0  0  0  0
  146.3139  141.1686  152.8946 H   0  0  0  0  0  0  0  0  0  0  0  0
  146.8305  142.8102  153.2761 H   0  0  0  0  0  0  0  0  0  0  0  0
  145.9796  141.8481  154.4868 H   0  0  0  0  0  0  0  0  0  0  0  0
  148.7677  138.9442  152.2742 H   0  0  0  0  0  0  0  0  0  0  0  0
  147.7548  137.3774  151.6013 H   0  0  0  0  0  0  0  0  0  0  0  0
  145.1775  136.6633  152.9201 H   0  0  0  0  0  0  0  0  0  0  0  0
  147.3059  134.8163  151.7238 H   0  0  0  0  0  0  0  0  0  0  0  0
  146.8334  134.8896  153.4045 H   0  0  0  0  0  0  0  0  0  0  0  0
  145.7645  132.9784  152.2574 H   0  0  0  0  0  0  0  0  0  0  0  0
  144.5458  134.0931  152.8442 H   0  0  0  0  0  0  0  0  0  0  0  0
  144.1776  132.1313  151.0207 H   0  0  0  0  0  0  0  0  0  0  0  0
  142.8883  133.3035  150.8817 H   0  0  0  0  0  0  0  0  0  0  0  0
  142.4444  132.6610  147.4345 H   0  0  0  0  0  0  0  0  0  0  0  0
  141.8277  133.3310  148.9307 H   0  0  0  0  0  0  0  0  0  0  0  0
  143.8546  135.5666  149.5552 H   0  0  0  0  0  0  0  0  0  0  0  0
  143.4156  135.5981  151.2503 H   0  0  0  0  0  0  0  0  0  0  0  0
  144.8643  137.5289  150.6450 H   0  0  0  0  0  0  0  0  0  0  0  0
  146.0867  136.4514  150.0139 H   0  0  0  0  0  0  0  0  0  0  0  0
  1  2  1  0  0  0  0
  1 23  1  0  0  0  0
  1 24  1  0  0  0  0
  1 25  1  0  0  0  0
  2  7  1  0  0  0  0
  2  3  2  0  0  0  0
  3  4  1  0  0  0  0
  4 22  1  0  0  0  0
  4  5  1  0  0  0  0
  5  6  1  0  0  0  0
  5  7  2  0  0  0  0
  6 26  1  0  0  0  0
  6 27  1  0  0  0  0
  6 28  1  0  0  0  0
  7  8  1  0  0  0  0
  8  9  1  0  0  0  0
  8 29  1  0  0  0  0
  9 10  2  0  0  0  0
  9 11  1  0  0  0  0
 11 12  1  0  0  0  0
 11 30  1  0  0  0  0
 12 21  1  0  0  0  0
 12 13  1  0  0  0  0
 12 31  1  0  0  0  0
 13 14  1  0  0  0  0
 13 32  1  0  0  0  0
 13 33  1  0  0  0  0
 14 15  1  0  0  0  0
 14 34  1  0  0  0  0
 14 35  1  0  0  0  0
 15 16  1  0  0  0  0
 15 20  1  0  0  0  0
 16 17  1  0  0  0  0
 16 36  1  0  0  0  0
 16 37  1  0  0  0  0
 17 18  1  0  0  0  0
 17 19  2  0  0  0  0
 18 38  1  0  0  0  0
 18 39  1  0  0  0  0
 20 21  1  0  0  0  0
 20 40  1  0  0  0  0
 20 41  1  0  0  0  0
 21 42  1  0  0  0  0
 21 43  1  0  0  0  0
M  END
> <s_m_source_file>
AV-unprocessed.smi

> <i_m_source_file_index>
1827

> <i_lp_mmshare_version>
43012

> <i_f3d_flags>
0

> <s_epik_input>
W0NIM11jMW5bbkhdYyhbQ0gzXSljMVtOSF1DKD1PKVtOSF1bQ0hdMltDSDJdW0NIMl1OKFtDSDJdW0NIMl0yKVtDSDJdQyg9TylbTkgyXQ==

> <s_epik_cmdline>
J2VwaWtfcHl0aG9uJywgJy1waCcsICc3LjAnLCAnLXRuJywgJzgnLCAnLW1hJywgJzIwMCcsICctbWV0YWxfYmluZGluZycsICctaW1hZScsICc8aW5maWxlLm1hZT4nLCAnLW9tYWUnLCAnPG91dGZpbGUubWFlPic=

> <r_lp_tautomer_probability>
0.5

> <r_epik_Ionization_Penalty>
0.165173

> <r_epik_Ionization_Penalty_Charging>
0

> <r_epik_Ionization_Penalty_Neutral>
0.165173

> <r_epik_State_Penalty>
0.154069

> <r_epik_Charging_Adjusted_Penalty>
0.154069

> <i_epik_Tot_Q>
0

> <i_epik_Tot_abs_Q>
0

> <r_epik_Metal_State_Penalty>
0.171338

> <b_epik_Metal_Only>
0

> <s_lp_Force_Field>
OPLS_2005

> <r_lp_Energy>
14.0389

> <b_lp_Chiralities_Consistent>
1

> <s_lp_Variant>
AV-unprocessed.smi:1827-1

> <Gold.Version>
5.8.1

> <Gold.Id.Protein>
6NUR|6NUR_protein|mol2

> <Gold.PLP.Fitness>
46.3593

> <Gold.PLP.PLP>
-35.7809

> <Gold.PLP.part.hbond>
-6.8919

> <Gold.PLP.part.metal>
0.0000

> <Gold.PLP.part.buried>
0.3377

> <Gold.PLP.part.nonpolar>
-30.8164

> <Gold.PLP.part.repulsive>
1.1377

> <Gold.PLP.ligand.clash>
0.0000

> <Gold.PLP.ligand.torsion>
0.9550

> <Gold.PLP.Chemscore.Hbond>
4.0644

> <Gold.PLP.Chemscore.CHOScore>
0.0000

> <Gold.PLP.Chemscore.Metal>
0.0000

> <Gold.Chemscore.Hbonds>
donor molecule, donor type, donor heavy atom, donor atom, acceptor molecule, acceptor atom, score
      L1  H     4    22       P1  8028  1.00
      L1  H     8    29       P1  7957  0.70
      L1  H    11    30       P1  7948  0.35
      L1  H    18    38       P1 10195  0.90
      L1  H    18    39       P1 10186  0.88

> <Gold.PLP.Chemscore.Internal.Correction>
0.2952

> <Gold.Rescore>
     Score         DG    S(hbond)    S(metal)    S(lipo)     H(rot)  DE(clash)    DE(int)     intcor
     18.86     -21.65       3.97        0.00      67.88       1.96       1.63       1.16       ----

> <Gold.Chemscore.Fitness>
18.8598

> <Gold.Chemscore.DG>
-21.6508

> <Gold.Chemscore.ZeroCoef>
-5.4800

> <Gold.Chemscore.Hbond>
3.9671

> <Gold.Chemscore.Metal>
0.0000

> <Gold.Chemscore.Lipo>
67.8842

> <Gold.Chemscore.Internal_Hbond>
0.0000

> <Gold.Chemscore.DEClash>
1.6297

> <Gold.Chemscore.DEInternal>
1.1613

> <Gold.Chemscore.Rot>
1.9616

> <Gold.Chemscore.Internal.Correction>
   9.000000E+99

> <Gold.Chemscore.Hbonds>
donor molecule, donor type, donor heavy atom, donor atom, acceptor molecule, acceptor atom, score
      L1  H     4    22       P1  8028  0.98
      L1  H     8    29       P1  7957  0.68
      L1  H    11    30       P1  7948  0.34
      L1  H    18    38       P1 10195  0.81
      L1  H    18    39       P1 10186  0.85

> <Gold.Chemscore.Hbond.Weighted>
-13.2500

> <Gold.Chemscore.Metal.Weighted>
-0.0000

> <Gold.Chemscore.Lipo.Weighted>
-7.9424

> <Gold.Chemscore.Internal_Hbond.Weighted>
0.0000

> <Gold.Chemscore.DEClash.Weighted>
1.6297

> <Gold.Chemscore.DEInternal.Weighted>
1.1613

> <Gold.Chemscore.Rot.Weighted>
5.0216

> <Gold.Chemscore.Internal.Correction.Weighted>
   9.000000E+99

> <Gold.Protein.RotatedTorsions>
[ 6907 6896 6895 6894 ] final -121.41 input  -60.11 | X-H torsion
[ 7974 7965 7964 7962 ] final   70.90 input  175.53 | X-H torsion
[ 8008 7997 7996 7995 ] final -122.49 input   59.86 | X-H torsion
[ 10167 10162 10161 10158 ] final  139.07 input  -65.29 | X-H torsion
[ 10718 10713 10712 10709 ] final  -62.83 input   66.30 | X-H torsion
[ 10763 10752 10751 10750 ] final   83.20 input  -60.55 | X-H torsion
[ 11005 11000 10999 10996 ] final -149.90 input  -57.11 | X-H torsion

> <Gold.Protein.ActiveResidues>
 VAL166  LYS551  ARG553  GLY616  TRP617  ASP618  TYR619  PRO620  LYS621  CYS622 
 ASP623  PHE694  ASN695  SER759  ASP760  ASP761  ALA762  ILE779  LEU786  VAL792 
 PHE793  MET794  SER795  GLU796  ALA797  LYS798  CYS799  TRP800  GLU811  SER814 

> <Gold.Protein.RotatedAtoms>
  150.8481  133.7830  159.3035 H   0  0  0  0  0  0  0  0  0  0  0  0  # atno 6907 bound_to 6896
  151.5511  135.1066  159.9959 H   0  0  0  0  0  0  0  0  0  0  0  0  # atno 6908 bound_to 6896
  152.4530  133.7624  159.6810 H   0  0  0  0  0  0  0  0  0  0  0  0  # atno 6909 bound_to 6896
  145.7724  139.2849  143.1313 H   0  0  0  0  0  0  0  0  0  0  0  0  # atno 7974 bound_to 7965
  155.1651  140.0407  157.2851 H   0  0  0  0  0  0  0  0  0  0  0  0  # atno 8008 bound_to 7997
  154.6309  140.2524  155.7408 H   0  0  0  0  0  0  0  0  0  0  0  0  # atno 8009 bound_to 7997
  156.2484  140.2875  156.0660 H   0  0  0  0  0  0  0  0  0  0  0  0  # atno 8010 bound_to 7997
  139.5090  144.6316  151.5802 H   0  0  0  0  0  0  0  0  0  0  0  0  # atno 10167 bound_to 10162
  156.0830  130.4213  150.1190 H   0  0  0  0  0  0  0  0  0  0  0  0  # atno 10718 bound_to 10713
  153.1270  135.4700  154.9287 H   0  0  0  0  0  0  0  0  0  0  0  0  # atno 10763 bound_to 10752
  154.7629  135.3136  154.8346 H   0  0  0  0  0  0  0  0  0  0  0  0  # atno 10764 bound_to 10752
  153.8897  135.6886  153.4815 H   0  0  0  0  0  0  0  0  0  0  0  0  # atno 10765 bound_to 10752
  140.7459  134.3462  157.5137 H   0  0  0  0  0  0  0  0  0  0  0  0  # atno 11005 bound_to 11000
  146.0156  140.8395  142.9949 LP  0  0  0  0  0  0  0  0  0  0  0  0  # atno 17320 bound_to 7965
  144.6810  140.2554  143.7326 LP  0  0  0  0  0  0  0  0  0  0  0  0  # atno 17321 bound_to 7965
  140.6051  143.9539  150.6413 LP  0  0  0  0  0  0  0  0  0  0  0  0  # atno 17342 bound_to 10162
  140.2763  143.3420  152.1192 LP  0  0  0  0  0  0  0  0  0  0  0  0  # atno 17343 bound_to 10162
  156.9218  130.9685  151.3547 LP  0  0  0  0  0  0  0  0  0  0  0  0  # atno 17370 bound_to 10713
  157.5954  130.8474  149.8721 LP  0  0  0  0  0  0  0  0  0  0  0  0  # atno 17371 bound_to 10713
  139.8797  134.9110  156.3028 LP  0  0  0  0  0  0  0  0  0  0  0  0  # atno 17394 bound_to 11000
  140.9795  133.7276  156.0651 LP  0  0  0  0  0  0  0  0  0  0  0  0  # atno 17395 bound_to 11000

$$$$
