AV-unprocessed.smi:1|AV-procd|sdf|20|dock6
  -GOLD-   2262015123D 1   1.00000     0.00000
 Structure written by MMmdl.
 56 61  0  0  0  0  0  0  0  0  2 V2000
  152.8405  140.0825  157.8979 O   0  0  0  0  0  0  0  0  0  0  0  0
  152.0968  140.9453  157.4259 C   0  0  0  0  0  0  0  0  0  0  0  0
  151.4209  140.9089  156.2495 N   0  5  0  0  0  0  0  0  0  0  0  0
  150.9736  139.7359  155.7754 C   0  0  0  0  0  0  0  0  0  0  0  0
  150.6505  139.6046  154.4636 N   0  0  0  0  0  0  0  0  0  0  0  0
  150.2109  138.4335  153.9897 C   0  0  0  0  0  0  0  0  0  0  0  0
  150.0212  137.2822  154.6410 N   0  0  0  0  0  0  0  0  0  0  0  0
  150.3300  137.4022  155.9649 C   0  0  0  0  0  0  0  0  0  0  0  0
  150.8018  138.5889  156.5987 C   0  0  0  0  0  0  0  0  0  0  0  0
  151.0144  138.3734  157.9516 N   0  0  0  0  0  0  0  0  0  0  0  0
  150.6754  137.0926  158.0758 C   0  0  0  0  0  0  0  0  0  0  0  0
  150.2732  136.4433  156.9651 N   0  0  0  0  0  0  0  0  0  0  0  0
  149.8457  135.0138  156.8666 C   0  0  1  0  0  0  0  0  0  0  0  0
  148.6017  134.9477  156.2344 O   0  0  0  0  0  0  0  0  0  0  0  0
  148.7040  134.2529  154.9943 C   0  0  2  0  0  0  0  0  0  0  0  0
  147.3946  133.5310  154.6580 C   0  0  0  0  0  0  0  0  0  0  0  0
  147.7032  132.3103  154.0065 O   0  0  0  0  0  0  0  0  0  0  0  0
  146.8308  131.7658  153.1383 C   0  0  0  0  0  0  0  0  0  0  0  0
  145.7801  132.3110  152.7944 O   0  0  0  0  0  0  0  0  0  0  0  0
  147.2706  130.4318  152.6370 C   0  0  0  0  0  0  0  0  0  0  0  0
  148.4372  129.8393  153.1740 C   0  0  0  0  0  0  0  0  0  0  0  0
  148.8753  128.5796  152.7215 C   0  0  0  0  0  0  0  0  0  0  0  0
  148.1524  127.8968  151.7263 C   0  0  0  0  0  0  0  0  0  0  0  0
  146.9905  128.4757  151.1835 C   0  0  0  0  0  0  0  0  0  0  0  0
  146.5505  129.7354  151.6348 C   0  0  0  0  0  0  0  0  0  0  0  0
  149.9085  133.3331  155.1824 C   0  0  2  0  0  0  0  0  0  0  0  0
  149.5599  132.1655  155.9081 O   0  0  0  0  0  0  0  0  0  0  0  0
  150.7547  131.8722  157.0383 S   0  0  0  0  0  0  0  0  0  0  0  0
  150.1292  131.8317  158.3689 O   0  0  0  0  0  0  0  0  0  0  0  0
  151.6147  130.7916  156.5325 O   0  0  0  0  0  0  0  0  0  0  0  0
  151.5880  133.3136  156.8925 O   0  0  0  0  0  0  0  0  0  0  0  0
  150.8445  134.1776  156.0516 C   0  0  2  0  0  0  0  0  0  0  0  0
  151.9278  142.2428  158.1698 C   0  0  0  0  0  0  0  0  0  0  0  0
  152.3960  142.3539  159.4990 C   0  0  0  0  0  0  0  0  0  0  0  0
  152.2228  143.5504  160.2218 C   0  0  0  0  0  0  0  0  0  0  0  0
  151.5702  144.6460  159.6262 C   0  0  0  0  0  0  0  0  0  0  0  0
  151.0879  144.5428  158.3081 C   0  0  0  0  0  0  0  0  0  0  0  0
  151.2611  143.3468  157.5843 C   0  0  0  0  0  0  0  0  0  0  0  0
  149.9808  138.4155  152.9349 H   0  0  0  0  0  0  0  0  0  0  0  0
  150.7275  136.5951  159.0330 H   0  0  0  0  0  0  0  0  0  0  0  0
  149.7421  134.6799  157.8999 H   0  0  0  0  0  0  0  0  0  0  0  0
  148.9373  134.9671  154.2050 H   0  0  0  0  0  0  0  0  0  0  0  0
  146.8451  133.3142  155.5750 H   0  0  0  0  0  0  0  0  0  0  0  0
  146.7583  134.1553  154.0291 H   0  0  0  0  0  0  0  0  0  0  0  0
  149.0082  130.3446  153.9393 H   0  0  0  0  0  0  0  0  0  0  0  0
  149.7677  128.1372  153.1391 H   0  0  0  0  0  0  0  0  0  0  0  0
  148.4886  126.9307  151.3798 H   0  0  0  0  0  0  0  0  0  0  0  0
  146.4336  127.9530  150.4198 H   0  0  0  0  0  0  0  0  0  0  0  0
  145.6540  130.1502  151.1977 H   0  0  0  0  0  0  0  0  0  0  0  0
  150.3654  133.0427  154.2358 H   0  0  0  0  0  0  0  0  0  0  0  0
  151.4908  134.8115  155.4439 H   0  0  0  0  0  0  0  0  0  0  0  0
  152.8968  141.5212  159.9714 H   0  0  0  0  0  0  0  0  0  0  0  0
  152.5898  143.6261  161.2347 H   0  0  0  0  0  0  0  0  0  0  0  0
  151.4364  145.5628  160.1806 H   0  0  0  0  0  0  0  0  0  0  0  0
  150.5807  145.3799  157.8516 H   0  0  0  0  0  0  0  0  0  0  0  0
  150.8735  143.2844  156.5777 H   0  0  0  0  0  0  0  0  0  0  0  0
  1  2  2  0  0  0  0
  2  3  1  0  0  0  0
  2 33  1  0  0  0  0
  3  4  1  0  0  0  0
  4  9  1  0  0  0  0
  4  5  2  0  0  0  0
  5  6  1  0  0  0  0
  6  7  2  0  0  0  0
  6 39  1  0  0  0  0
  7  8  1  0  0  0  0
  8 12  1  0  0  0  0
  8  9  2  0  0  0  0
  9 10  1  0  0  0  0
 10 11  2  0  0  0  0
 11 12  1  0  0  0  0
 11 40  1  0  0  0  0
 12 13  1  0  0  0  0
 13 32  1  0  0  0  0
 13 14  1  0  0  0  0
 13 41  1  0  0  0  0
 14 15  1  0  0  0  0
 15 16  1  0  0  0  0
 15 26  1  0  0  0  0
 15 42  1  0  0  0  0
 16 17  1  0  0  0  0
 16 43  1  0  0  0  0
 16 44  1  0  0  0  0
 17 18  1  0  0  0  0
 18 19  2  0  0  0  0
 18 20  1  0  0  0  0
 20 25  1  0  0  0  0
 20 21  2  0  0  0  0
 21 22  1  0  0  0  0
 21 45  1  0  0  0  0
 22 23  2  0  0  0  0
 22 46  1  0  0  0  0
 23 24  1  0  0  0  0
 23 47  1  0  0  0  0
 24 25  2  0  0  0  0
 24 48  1  0  0  0  0
 25 49  1  0  0  0  0
 26 32  1  0  0  0  0
 26 27  1  0  0  0  0
 26 50  1  0  0  0  0
 27 28  1  0  0  0  0
 28 29  2  0  0  0  0
 28 30  2  0  0  0  0
 28 31  1  0  0  0  0
 31 32  1  0  0  0  0
 32 51  1  0  0  0  0
 33 38  1  0  0  0  0
 33 34  2  0  0  0  0
 34 35  1  0  0  0  0
 34 52  1  0  0  0  0
 35 36  2  0  0  0  0
 35 53  1  0  0  0  0
 36 37  1  0  0  0  0
 36 54  1  0  0  0  0
 37 38  2  0  0  0  0
 37 55  1  0  0  0  0
 38 56  1  0  0  0  0
M  CHG  1   3  -1
M  END
> <s_m_source_file>
AV-unprocessed.smi

> <i_m_source_file_index>
1

> <i_lp_mmshare_version>
43012

> <i_f3d_flags>
0

> <s_epik_input>
W2NIXTFbY0hdW2NIXVtjSF1bY0hdYzFDKD1PKVtOSF1jKG5bY0hdbjIpYyhjMjMpbltjSF1uM1tDQEBIXShbQ0BIXShbQ0BIXTQ1KU9TKE81KSg9Tyk9TylPW0NASF00W0NIMl1PQyg9TyljNltjSF1bY0hdW2NIXVtjSF1bY0hdNg==

> <s_epik_cmdline>
J2VwaWtfcHl0aG9uJywgJy1waCcsICc3LjAnLCAnLXRuJywgJzgnLCAnLW1hJywgJzIwMCcsICctbWV0YWxfYmluZGluZycsICctaW1hZScsICc8aW5maWxlLm1hZT4nLCAnLW9tYWUnLCAnPG91dGZpbGUubWFlPic=

> <r_lp_tautomer_probability>
1

> <r_epik_Ionization_Penalty>
4.39121

> <r_epik_Ionization_Penalty_Charging>
3.39398

> <r_epik_Ionization_Penalty_Neutral>
0.997232

> <r_epik_State_Penalty>
3.39839

> <r_epik_Charging_Adjusted_Penalty>
6.79237

> <i_epik_Tot_Q>
-1

> <i_epik_Tot_abs_Q>
1

> <r_epik_Metal_State_Penalty>
0.497663

> <b_epik_Metal_Only>
1

> <s_epik_Chemistry_Notes>
This compound has an ester and may undergo hydrolysis at high or low pH. This compound contains an acetal/aminal-like group ( X-CH(R)-Y where X, Y are N, S, or O) that may be acid/base labile, releasing an aldehyde.

> <s_lp_Force_Field>
OPLS_2005

> <r_lp_Energy>
42.8802

> <b_lp_Chiralities_Consistent>
1

> <s_lp_Variant>
AV-unprocessed.smi:1-20

> <Gold.Version>
5.8.1

> <Gold.Id.Protein>
6NUR|6NUR_protein|mol2

> <Gold.PLP.Fitness>
66.8159

> <Gold.PLP.PLP>
-54.0819

> <Gold.PLP.part.hbond>
-4.0000

> <Gold.PLP.part.metal>
0.0000

> <Gold.PLP.part.buried>
-7.7960

> <Gold.PLP.part.nonpolar>
-43.8907

> <Gold.PLP.part.repulsive>
0.5292

> <Gold.PLP.ligand.clash>
0.0000

> <Gold.PLP.ligand.torsion>
1.1178

> <Gold.PLP.Chemscore.Hbond>
2.9833

> <Gold.PLP.Chemscore.CHOScore>
1.7946

> <Gold.PLP.Chemscore.Metal>
0.0000

> <Gold.Chemscore.Hbonds>
donor molecule, donor type, donor heavy atom, donor atom, acceptor molecule, acceptor atom, score
      P1  H  6896  6909       L1    29  0.80
      P1  H  7989  7998       L1     5  1.00
      P1  H  7997  8009       L1     1  1.00
      L1  C     6    39       P1  7948  0.69
      L1  C     6    39       P1  7957  1.00

> <Gold.PLP.Chemscore.Internal.Correction>
0.6358

> <Gold.Rescore>
     Score         DG    S(hbond)    S(metal)    S(lipo)     H(rot)  DE(clash)    DE(int)     intcor
     14.86     -22.22       1.88        0.00     135.55       2.11       0.18       7.18       ----

> <Gold.Chemscore.Fitness>
14.8615

> <Gold.Chemscore.DG>
-22.2162

> <Gold.Chemscore.ZeroCoef>
-5.4800

> <Gold.Chemscore.Hbond>
1.8825

> <Gold.Chemscore.Metal>
0.0000

> <Gold.Chemscore.Lipo>
135.5493

> <Gold.Chemscore.Internal_Hbond>
0.0000

> <Gold.Chemscore.DEClash>
0.1787

> <Gold.Chemscore.DEInternal>
7.1760

> <Gold.Chemscore.Rot>
2.1136

> <Gold.Chemscore.Internal.Correction>
   9.000000E+99

> <Gold.Chemscore.Hbonds>
donor molecule, donor type, donor heavy atom, donor atom, acceptor molecule, acceptor atom, score
      P1  H  6896  6909       L1    29  0.23
      P1  H  7989  7998       L1     5  0.70
      P1  H  7997  8009       L1     1  0.52

> <Gold.Chemscore.Hbond.Weighted>
-6.2876

> <Gold.Chemscore.Metal.Weighted>
-0.0000

> <Gold.Chemscore.Lipo.Weighted>
-15.8593

> <Gold.Chemscore.Internal_Hbond.Weighted>
0.0000

> <Gold.Chemscore.DEClash.Weighted>
0.1787

> <Gold.Chemscore.DEInternal.Weighted>
7.1760

> <Gold.Chemscore.Rot.Weighted>
5.4107

> <Gold.Chemscore.Internal.Correction.Weighted>
   9.000000E+99

> <Gold.Protein.RotatedTorsions>
[ 6907 6896 6895 6894 ] final  -13.40 input  -60.11 | X-H torsion
[ 7974 7965 7964 7962 ] final   31.57 input  175.53 | X-H torsion
[ 8008 7997 7996 7995 ] final  171.79 input   59.86 | X-H torsion
[ 10167 10162 10161 10158 ] final  -94.43 input  -65.29 | X-H torsion
[ 10718 10713 10712 10709 ] final   -8.43 input   66.30 | X-H torsion
[ 10763 10752 10751 10750 ] final   60.17 input  -60.55 | X-H torsion
[ 11005 11000 10999 10996 ] final   99.39 input  -57.11 | X-H torsion

> <Gold.Protein.ActiveResidues>
 VAL166  LYS551  ARG553  GLY616  TRP617  ASP618  TYR619  PRO620  LYS621  CYS622 
 ASP623  PHE694  ASN695  SER759  ASP760  ASP761  ALA762  ILE779  LEU786  VAL792 
 PHE793  MET794  SER795  GLU796  ALA797  LYS798  CYS799  TRP800  GLU811  SER814 

> <Gold.Protein.RotatedAtoms>
  151.3555  135.0893  159.9416 H   0  0  0  0  0  0  0  0  0  0  0  0  # atno 6907 bound_to 6896
  152.5176  133.9310  159.7591 H   0  0  0  0  0  0  0  0  0  0  0  0  # atno 6908 bound_to 6896
  150.9694  133.6306  159.2770 H   0  0  0  0  0  0  0  0  0  0  0  0  # atno 6909 bound_to 6896
  146.1541  139.6639  142.9078 H   0  0  0  0  0  0  0  0  0  0  0  0  # atno 7974 bound_to 7965
  156.1237  140.1502  156.9168 H   0  0  0  0  0  0  0  0  0  0  0  0  # atno 8008 bound_to 7997
  154.4855  140.0866  156.7517 H   0  0  0  0  0  0  0  0  0  0  0  0  # atno 8009 bound_to 7997
  155.4382  140.3430  155.4289 H   0  0  0  0  0  0  0  0  0  0  0  0  # atno 8010 bound_to 7997
  140.3145  143.3085  152.0112 H   0  0  0  0  0  0  0  0  0  0  0  0  # atno 10167 bound_to 10162
  156.7026  130.5098  149.5913 H   0  0  0  0  0  0  0  0  0  0  0  0  # atno 10718 bound_to 10713
  152.9914  135.5546  154.5831 H   0  0  0  0  0  0  0  0  0  0  0  0  # atno 10763 bound_to 10752
  154.5208  135.2807  155.1266 H   0  0  0  0  0  0  0  0  0  0  0  0  # atno 10764 bound_to 10752
  154.2620  135.6379  153.5331 H   0  0  0  0  0  0  0  0  0  0  0  0  # atno 10765 bound_to 10752
  139.8771  134.9093  156.4598 H   0  0  0  0  0  0  0  0  0  0  0  0  # atno 11005 bound_to 11000
  145.4751  141.0437  143.2677 LP  0  0  0  0  0  0  0  0  0  0  0  0  # atno 17320 bound_to 7965
  144.7941  139.6269  143.7100 LP  0  0  0  0  0  0  0  0  0  0  0  0  # atno 17321 bound_to 7965
  139.4887  144.6359  151.6977 LP  0  0  0  0  0  0  0  0  0  0  0  0  # atno 17342 bound_to 10162
  140.5538  144.0381  150.6139 LP  0  0  0  0  0  0  0  0  0  0  0  0  # atno 17343 bound_to 10162
  156.1717  130.6441  151.0846 LP  0  0  0  0  0  0  0  0  0  0  0  0  # atno 17370 bound_to 10713
  157.6967  131.0791  150.6947 LP  0  0  0  0  0  0  0  0  0  0  0  0  # atno 17371 bound_to 10713
  140.8872  133.7874  155.9531 LP  0  0  0  0  0  0  0  0  0  0  0  0  # atno 17394 bound_to 11000
  140.8792  134.2632  157.5153 LP  0  0  0  0  0  0  0  0  0  0  0  0  # atno 17395 bound_to 11000

$$$$
