AV-unprocessed.smi:2451|AV-procd|sdf|9671|dock7
  -GOLD-   2272013313D 1   1.00000     0.00000
 Structure written by MMmdl.
 38 39  0  0  0  0  0  0  0  0  1 V2000
  152.8848  141.7881  160.5954 C   0  0  0  0  0  0  0  0  0  0  0  0
  152.7495  142.4584  159.2158 C   0  0  2  0  0  0  0  0  0  0  0  0
  152.8056  143.9904  159.3792 C   0  0  0  0  0  0  0  0  0  0  0  0
  152.7131  144.7095  158.0294 C   0  0  0  0  0  0  0  0  0  0  0  0
  151.4220  144.3211  157.3044 C   0  0  0  0  0  0  0  0  0  0  0  0
  151.3227  142.7974  157.1152 C   0  0  2  0  0  0  0  0  0  0  0  0
  150.0319  142.4920  156.4900 N   0  0  0  0  0  0  0  0  0  0  0  0
  149.9494  141.2158  155.3333 S   0  0  0  0  0  0  0  0  0  0  0  0
  149.3323  141.7605  154.1144 O   0  0  0  0  0  0  0  0  0  0  0  0
  151.2785  140.5884  155.2662 O   0  0  0  0  0  0  0  0  0  0  0  0
  148.7824  140.0350  156.1304 C   0  0  0  0  0  0  0  0  0  0  0  0
  147.3734  140.5234  155.9556 C   0  0  0  0  0  0  0  0  0  0  0  0
  146.6555  140.7324  154.7455 C   0  0  0  0  0  0  0  0  0  0  0  0
  145.4359  141.1739  155.1709 C   0  0  0  0  0  0  0  0  0  0  0  0
  145.3975  141.2305  156.5261 O   0  0  0  0  0  0  0  0  0  0  0  0
  146.6387  140.8111  157.0184 N   0  0  0  0  0  0  0  0  0  0  0  0
  151.4698  142.0177  158.4488 C   0  0  1  0  0  0  0  0  0  0  0  0
  151.4591  140.4948  158.1909 C   0  0  0  0  0  0  0  0  0  0  0  0
  152.0027  141.9662  161.2110 H   0  0  0  0  0  0  0  0  0  0  0  0
  153.7486  142.1763  161.1359 H   0  0  0  0  0  0  0  0  0  0  0  0
  153.0266  140.7111  160.5133 H   0  0  0  0  0  0  0  0  0  0  0  0
  153.6162  142.1627  158.6226 H   0  0  0  0  0  0  0  0  0  0  0  0
  151.9930  144.3237  160.0267 H   0  0  0  0  0  0  0  0  0  0  0  0
  153.7325  144.2792  159.8764 H   0  0  0  0  0  0  0  0  0  0  0  0
  152.7457  145.7891  158.1790 H   0  0  0  0  0  0  0  0  0  0  0  0
  153.5757  144.4538  157.4128 H   0  0  0  0  0  0  0  0  0  0  0  0
  150.5662  144.6806  157.8775 H   0  0  0  0  0  0  0  0  0  0  0  0
  151.3793  144.8229  156.3368 H   0  0  0  0  0  0  0  0  0  0  0  0
  152.1252  142.4849  156.4454 H   0  0  0  0  0  0  0  0  0  0  0  0
  149.5794  143.3376  156.1434 H   0  0  0  0  0  0  0  0  0  0  0  0
  148.9138  139.0588  155.6640 H   0  0  0  0  0  0  0  0  0  0  0  0
  149.0492  139.9398  157.1832 H   0  0  0  0  0  0  0  0  0  0  0  0
  146.9851  140.5858  153.7277 H   0  0  0  0  0  0  0  0  0  0  0  0
  144.5342  141.4732  154.6573 H   0  0  0  0  0  0  0  0  0  0  0  0
  150.6076  142.2569  159.0738 H   0  0  0  0  0  0  0  0  0  0  0  0
  152.3318  140.1855  157.6148 H   0  0  0  0  0  0  0  0  0  0  0  0
  150.5744  140.1844  157.6352 H   0  0  0  0  0  0  0  0  0  0  0  0
  151.4497  139.9250  159.1189 H   0  0  0  0  0  0  0  0  0  0  0  0
  1  2  1  0  0  0  0
  1 19  1  0  0  0  0
  1 20  1  0  0  0  0
  1 21  1  0  0  0  0
  2 17  1  0  0  0  0
  2  3  1  0  0  0  0
  2 22  1  0  0  0  0
  3  4  1  0  0  0  0
  3 23  1  0  0  0  0
  3 24  1  0  0  0  0
  4  5  1  0  0  0  0
  4 25  1  0  0  0  0
  4 26  1  0  0  0  0
  5  6  1  0  0  0  0
  5 27  1  0  0  0  0
  5 28  1  0  0  0  0
  6  7  1  0  0  0  0
  6 17  1  0  0  0  0
  6 29  1  0  0  0  0
  7  8  1  0  0  0  0
  7 30  1  0  0  0  0
  8  9  2  0  0  0  0
  8 10  2  0  0  0  0
  8 11  1  0  0  0  0
 11 12  1  0  0  0  0
 11 31  1  0  0  0  0
 11 32  1  0  0  0  0
 12 16  2  0  0  0  0
 12 13  1  0  0  0  0
 13 14  2  0  0  0  0
 13 33  1  0  0  0  0
 14 15  1  0  0  0  0
 14 34  1  0  0  0  0
 15 16  1  0  0  0  0
 17 18  1  0  0  0  0
 17 35  1  0  0  0  0
 18 36  1  0  0  0  0
 18 37  1  0  0  0  0
 18 38  1  0  0  0  0
M  END
> <s_m_source_file>
AV-unprocessed.smi

> <i_m_source_file_index>
2451

> <i_lp_mmshare_version>
43012

> <i_f3d_flags>
0

> <s_epik_input>
W0NIM11bQ0BASF0xW0NIMl1bQ0gyXVtDSDJdW0NASF0oW0NASF0xW0NIM10pW05IXVMoPU8pKD1PKVtDSDJdYzJbY0hdW2NIXW9uMg==

> <s_epik_cmdline>
J2VwaWtfcHl0aG9uJywgJy1waCcsICc3LjAnLCAnLXRuJywgJzgnLCAnLW1hJywgJzIwMCcsICctbWV0YWxfYmluZGluZycsICctaW1hZScsICc8aW5maWxlLm1hZT4nLCAnLW9tYWUnLCAnPG91dGZpbGUubWFlPic=

> <r_lp_tautomer_probability>
1

> <r_epik_Ionization_Penalty>
8.73668e-05

> <r_epik_Ionization_Penalty_Charging>
0

> <r_epik_Ionization_Penalty_Neutral>
8.73668e-05

> <r_epik_State_Penalty>
-0

> <r_epik_Charging_Adjusted_Penalty>
0

> <i_epik_Tot_Q>
0

> <i_epik_Tot_abs_Q>
0

> <r_epik_Metal_State_Penalty>
0.0716439

> <b_epik_Metal_Only>
0

> <s_lp_Force_Field>
OPLS_2005

> <r_lp_Energy>
6.58047

> <b_lp_Chiralities_Consistent>
1

> <s_lp_Variant>
AV-unprocessed.smi:2451-3

> <Gold.Version>
5.8.1

> <Gold.Id.Protein>
6NUR|6NUR_protein|mol2

> <Gold.PLP.Fitness>
42.8714

> <Gold.PLP.PLP>
-34.3538

> <Gold.PLP.part.hbond>
-4.0000

> <Gold.PLP.part.metal>
0.0000

> <Gold.PLP.part.buried>
-1.8995

> <Gold.PLP.part.nonpolar>
-27.8401

> <Gold.PLP.part.repulsive>
0.2629

> <Gold.PLP.ligand.clash>
0.0000

> <Gold.PLP.ligand.torsion>
0.8590

> <Gold.PLP.Chemscore.Hbond>
2.4112

> <Gold.PLP.Chemscore.CHOScore>
0.9525

> <Gold.PLP.Chemscore.Metal>
0.0000

> <Gold.Chemscore.Hbonds>
donor molecule, donor type, donor heavy atom, donor atom, acceptor molecule, acceptor atom, score
      L1  H     7    30       P1  8028  1.00
      P1  H  7989  7998       L1    10  0.82
      P1  H  8011  8017       L1     9  0.53
      L1  C    14    34       P1 10175  0.93

> <Gold.PLP.Chemscore.Internal.Correction>
0.1445

> <Gold.Rescore>
     Score         DG    S(hbond)    S(metal)    S(lipo)     H(rot)  DE(clash)    DE(int)     intcor
     16.64     -19.48       2.08        0.00      96.43       1.66       0.40       2.43       ----

> <Gold.Chemscore.Fitness>
16.6444

> <Gold.Chemscore.DG>
-19.4772

> <Gold.Chemscore.ZeroCoef>
-5.4800

> <Gold.Chemscore.Hbond>
2.0844

> <Gold.Chemscore.Metal>
0.0000

> <Gold.Chemscore.Lipo>
96.4259

> <Gold.Chemscore.Internal_Hbond>
0.0000

> <Gold.Chemscore.DEClash>
0.3990

> <Gold.Chemscore.DEInternal>
2.4338

> <Gold.Chemscore.Rot>
1.6588

> <Gold.Chemscore.Internal.Correction>
   9.000000E+99

> <Gold.Chemscore.Hbonds>
donor molecule, donor type, donor heavy atom, donor atom, acceptor molecule, acceptor atom, score
      L1  H     7    30       P1  8028  0.99
      P1  H  7989  7998       L1    10  0.18
      P1  H  8011  8017       L1     9  0.51

> <Gold.Chemscore.Hbond.Weighted>
-6.9620

> <Gold.Chemscore.Metal.Weighted>
-0.0000

> <Gold.Chemscore.Lipo.Weighted>
-11.2818

> <Gold.Chemscore.Internal_Hbond.Weighted>
0.0000

> <Gold.Chemscore.DEClash.Weighted>
0.3990

> <Gold.Chemscore.DEInternal.Weighted>
2.4338

> <Gold.Chemscore.Rot.Weighted>
4.2466

> <Gold.Chemscore.Internal.Correction.Weighted>
   9.000000E+99

> <Gold.Protein.RotatedTorsions>
[ 6907 6896 6895 6894 ] final  -16.67 input  -60.11 | X-H torsion
[ 7974 7965 7964 7962 ] final   48.66 input  175.53 | X-H torsion
[ 8008 7997 7996 7995 ] final  -48.40 input   59.86 | X-H torsion
[ 10167 10162 10161 10158 ] final -127.82 input  -65.29 | X-H torsion
[ 10718 10713 10712 10709 ] final   79.52 input   66.30 | X-H torsion
[ 10763 10752 10751 10750 ] final   24.71 input  -60.55 | X-H torsion
[ 11005 11000 10999 10996 ] final   -2.51 input  -57.11 | X-H torsion

> <Gold.Protein.ActiveResidues>
 VAL166  LYS551  ARG553  GLY616  TRP617  ASP618  TYR619  PRO620  LYS621  CYS622 
 ASP623  PHE694  ASN695  SER759  ASP760  ASP761  ALA762  ILE779  LEU786  VAL792 
 PHE793  MET794  SER795  GLU796  ALA797  LYS798  CYS799  TRP800  GLU811  SER814 

> <Gold.Protein.RotatedAtoms>
  151.3050  135.0779  159.9251 H   0  0  0  0  0  0  0  0  0  0  0  0  # atno 6907 bound_to 6896
  152.5290  133.9794  159.7810 H   0  0  0  0  0  0  0  0  0  0  0  0  # atno 6908 bound_to 6896
  151.0087  133.5934  159.2716 H   0  0  0  0  0  0  0  0  0  0  0  0  # atno 6909 bound_to 6896
  146.0183  139.4622  142.9913 H   0  0  0  0  0  0  0  0  0  0  0  0  # atno 7974 bound_to 7965
  154.4028  140.1322  156.4333 H   0  0  0  0  0  0  0  0  0  0  0  0  # atno 8008 bound_to 7997
  155.7530  140.3487  155.5139 H   0  0  0  0  0  0  0  0  0  0  0  0  # atno 8009 bound_to 7997
  155.8932  140.1006  157.1394 H   0  0  0  0  0  0  0  0  0  0  0  0  # atno 8010 bound_to 7997
  139.9568  143.5995  152.2458 H   0  0  0  0  0  0  0  0  0  0  0  0  # atno 10167 bound_to 10162
  157.6779  130.9918  150.1945 H   0  0  0  0  0  0  0  0  0  0  0  0  # atno 10718 bound_to 10713
  153.0744  135.6599  154.0177 H   0  0  0  0  0  0  0  0  0  0  0  0  # atno 10763 bound_to 10752
  153.9815  135.2955  155.3421 H   0  0  0  0  0  0  0  0  0  0  0  0  # atno 10764 bound_to 10752
  154.7128  135.5198  153.8763 H   0  0  0  0  0  0  0  0  0  0  0  0  # atno 10765 bound_to 10752
  140.6592  133.9335  155.8426 H   0  0  0  0  0  0  0  0  0  0  0  0  # atno 11005 bound_to 11000
  145.7233  141.0067  143.1391 LP  0  0  0  0  0  0  0  0  0  0  0  0  # atno 17320 bound_to 7965
  144.6980  139.8896  143.7452 LP  0  0  0  0  0  0  0  0  0  0  0  0  # atno 17321 bound_to 7965
  139.6585  144.7662  151.2008 LP  0  0  0  0  0  0  0  0  0  0  0  0  # atno 17342 bound_to 10162
  140.7566  143.6047  150.8665 LP  0  0  0  0  0  0  0  0  0  0  0  0  # atno 17343 bound_to 10162
  156.2649  130.3715  149.8092 LP  0  0  0  0  0  0  0  0  0  0  0  0  # atno 17370 bound_to 10713
  156.5826  130.8472  151.3387 LP  0  0  0  0  0  0  0  0  0  0  0  0  # atno 17371 bound_to 10713
  141.0478  134.0528  157.3822 LP  0  0  0  0  0  0  0  0  0  0  0  0  # atno 17394 bound_to 11000
  139.9019  135.0167  156.7307 LP  0  0  0  0  0  0  0  0  0  0  0  0  # atno 17395 bound_to 11000

$$$$
