#       Name:                AV-unprocessed.smi:3308
#       Creating user name   scv26
#       Creation time:       Fri Mar 27 19:04:31 2020


#       File generated by GOLD software.
#

@<TRIPOS>MOLECULE
AV-unprocessed.smi:3308
    44    45     1
SMALL
NO_CHARGES


@<TRIPOS>ATOM
      1 ****        -2.4654  -2.0540  -2.0254 C.3            1 S1                 0.0000
      2 ****        -1.8875  -1.3709  -0.7763 C.3            1 S1                 0.0000
      3 ****        -0.4229  -1.2068  -0.9221 N.4            1 S1                 1.0000
      4 ****         0.0688   0.1797  -0.7704 C.3            1 S1                 0.0000
      5 ****         1.6017   0.2580  -0.7696 C.2            1 S1                 0.0000
      6 ****         2.2655  -0.7797  -0.7961 O.2            1 S1                 0.0000
      7 ****         2.1760   1.4778  -0.7344 N.am           1 S1                 0.0000
      8 ****         3.6218   1.6921  -0.7434 C.3            1 S1                 0.0000
      9 ****         3.8161   3.1902  -0.9780 C.3            1 S1                 0.0000
     10 ****         2.5338   3.8199  -0.4518 C.3            1 S1                 0.0000
     11 ****         1.4634   2.7546  -0.6928 C.3            1 S1                 0.0000
     12 ****        -2.2519  -2.1090   0.5387 C.3            1 S1                 0.0000
     13 ****        -1.7164  -3.5547   0.6207 C.3            1 S1                 0.0000
     14 ****        -1.8753  -1.3226   1.7092 N.pl3          1 S1                 0.0000
     15 ****        -2.6389  -0.3943   2.3869 C.2            1 S1                 0.0000
     16 ****        -1.8642   0.1265   3.3833 C.2            1 S1                 0.0000
     17 ****        -0.6190  -0.5431   3.2288 C.2            1 S1                 0.0000
     18 ****        -0.6248  -1.4006   2.2215 N.2            1 S1                 0.0000
     19 ****        -3.5429  -2.1942  -1.9342 H              1 S1                 0.0000
     20 ****        -2.0146  -3.0309  -2.2007 H              1 S1                 0.0000
     21 ****        -2.2895  -1.4492  -2.9156 H              1 S1                 0.0000
     22 ****        -2.3456  -0.3809  -0.7332 H              1 S1                 0.0000
     23 ****         0.0290  -1.7807  -0.2238 H              1 S1                 0.0000
     24 ****        -0.3313   0.7854  -1.5843 H              1 S1                 0.0000
     25 ****        -0.3031   0.5955   0.1666 H              1 S1                 0.0000
     26 ****         4.0299   1.3996   0.2253 H              1 S1                 0.0000
     27 ****         4.1217   1.1030  -1.5140 H              1 S1                 0.0000
     28 ****         4.7103   3.5823  -0.4927 H              1 S1                 0.0000
     29 ****         3.9046   3.3842  -2.0478 H              1 S1                 0.0000
     30 ****         2.6318   4.0048   0.6188 H              1 S1                 0.0000
     31 ****         2.3006   4.7695  -0.9341 H              1 S1                 0.0000
     32 ****         0.9709   2.9209  -1.6518 H              1 S1                 0.0000
     33 ****         0.7048   2.7809   0.0907 H              1 S1                 0.0000
     34 ****        -3.3400  -2.1844   0.5709 H              1 S1                 0.0000
     35 ****        -2.1363  -4.1821  -0.1651 H              1 S1                 0.0000
     36 ****        -1.9858  -4.0138   1.5726 H              1 S1                 0.0000
     37 ****        -0.6304  -3.5962   0.5317 H              1 S1                 0.0000
     38 ****        -3.6605  -0.1828   2.1071 H              1 S1                 0.0000
     39 ****        -2.1436   0.8746   4.1104 H              1 S1                 0.0000
     40 ****         0.2837  -0.4283   3.8102 H              1 S1                 0.0000
     41 ****        -0.1463  -1.5405  -1.8343 H              1 S1                 0.0000
     42 ****         1.8053  -1.6672  -0.8180 LP             1 S1                 0.0000
     43 ****         3.2645  -0.7344  -0.7958 LP             1 S1                 0.0000
     44 ****         0.1284  -1.9788   1.9077 LP             1 S1                 0.0000
@<TRIPOS>BOND
    1    1    2 1     
    2    1   19 1     
    3    1   20 1     
    4    1   21 1     
    5    2    3 1     
    6    2   12 1     
    7    2   22 1     
    8    3    4 1     
    9    3   23 1     
   10    3   41 1     
   11    4    5 1     
   12    4   24 1     
   13    4   25 1     
   14    5    6 2     
   15    5    7 am    
   16    7   11 1     
   17    7    8 1     
   18    8    9 1     
   19    8   26 1     
   20    8   27 1     
   21    9   10 1     
   22    9   28 1     
   23    9   29 1     
   24   10   11 1     
   25   10   30 1     
   26   10   31 1     
   27   11   32 1     
   28   11   33 1     
   29   12   13 1     
   30   12   14 1     
   31   12   34 1     
   32   13   35 1     
   33   13   36 1     
   34   13   37 1     
   35   14   18 1     
   36   14   15 1     
   37   15   16 2     
   38   15   38 1     
   39   16   17 1     
   40   16   39 1     
   41   17   18 2     
   42   17   40 1     
   43    6   42 1     
   44    6   43 1     
   45   18   44 1     
@<TRIPOS>SUBSTRUCTURE
      1 S1             1
@<TRIPOS>SET
LONE_PAIRS      STATIC     ATOMS    <user>   **** ""
3 42 43 44
DONOR_HYDROGENS      STATIC     ATOMS    <user>   **** ""
2 23 41
ATOM$BLUE        STATIC     ATOMS    COLORGROUP SYSTEM
3 42 43 44
ATOM$RED        STATIC     ATOMS    COLORGROUP SYSTEM
2 23 41
