#       Name:                AV-unprocessed.smi:2007
#       Creating user name   scv26
#       Creation time:       Fri Mar 27 10:37:37 2020


#       File generated by GOLD software.
#

@<TRIPOS>MOLECULE
AV-unprocessed.smi:2007
    42    43     1
SMALL
NO_CHARGES


@<TRIPOS>ATOM
      1 ****         0.2706   3.8475   0.1078 C.3            1 S1                 0.0000
      2 ****         0.1462   2.3369   0.3472 C.3            1 S1                 0.0000
      3 ****         1.5312   1.6754   0.5309 C.3            1 S1                 0.0000
      4 ****         1.4446   0.2002   0.6733 N.4            1 S1                 1.0000
      5 ****         2.6529  -0.5140   0.2027 C.3            1 S1                 0.0000
      6 ****         2.4278  -2.0338   0.2828 C.3            1 S1                 0.0000
      7 ****         2.0902  -2.3998   1.6161 O.3            1 S1                 0.0000
      8 ****         0.8905  -1.7723   2.0550 C.3            1 S1                 0.0000
      9 ****         1.0752  -0.2463   2.0373 C.3            1 S1                 0.0000
     10 ****        -0.5727   1.7264  -0.7730 N.am           1 S1                 0.0000
     11 ****        -1.4514   0.7147  -0.7054 C.2            1 S1                 0.0000
     12 ****        -1.7802   0.2536   0.3898 O.2            1 S1                 0.0000
     13 ****        -1.8699   0.2786  -1.9134 N.pl3          1 S1                -1.0000
     14 ****        -2.7048  -0.7701  -1.9930 C.2            1 S1                 0.0000
     15 ****        -2.2811  -2.0308  -2.1429 N.2            1 S1                 0.0000
     16 ****        -3.3202  -2.9614  -2.2039 C.2            1 S1                 0.0000
     17 ****        -4.5633  -2.3948  -2.1046 C.2            1 S1                 0.0000
     18 ****        -4.4656  -0.6657  -1.9297 S.3            1 S1                 0.0000
     19 ****         0.7797   4.3353   0.9394 H              1 S1                 0.0000
     20 ****        -0.7116   4.3105   0.0065 H              1 S1                 0.0000
     21 ****         0.8349   4.0621  -0.8003 H              1 S1                 0.0000
     22 ****        -0.4318   2.2091   1.2633 H              1 S1                 0.0000
     23 ****         2.1348   1.9106  -0.3472 H              1 S1                 0.0000
     24 ****         2.0589   2.1027   1.3848 H              1 S1                 0.0000
     25 ****         2.8731  -0.2326  -0.8278 H              1 S1                 0.0000
     26 ****         3.5124  -0.2242   0.8092 H              1 S1                 0.0000
     27 ****         1.6383  -2.3463  -0.4029 H              1 S1                 0.0000
     28 ****         3.3337  -2.5640  -0.0112 H              1 S1                 0.0000
     29 ****         0.0539  -2.0707   1.4207 H              1 S1                 0.0000
     30 ****         0.6623  -2.1122   3.0653 H              1 S1                 0.0000
     31 ****         1.8524   0.0465   2.7448 H              1 S1                 0.0000
     32 ****         0.1531   0.2370   2.3590 H              1 S1                 0.0000
     33 ****        -0.3509   2.0753  -1.6944 H              1 S1                 0.0000
     34 ****        -3.0830  -4.0084  -2.3207 H              1 S1                 0.0000
     35 ****        -5.5250  -2.8849  -2.1246 H              1 S1                 0.0000
     36 ****         0.6951  -0.0899   0.0596 H              1 S1                 0.0000
     37 ****         2.8368  -2.1292   2.2238 LP             1 S1                 0.0000
     38 ****         1.9694  -3.3916   1.6576 LP             1 S1                 0.0000
     39 ****        -1.3919   0.6337   1.2293 LP             1 S1                 0.0000
     40 ****        -2.4352  -0.5004   0.4386 LP             1 S1                 0.0000
     41 ****        -1.5587   0.7357  -2.7466 LP             1 S1                 0.0000
     42 ****        -1.3151  -2.2816  -2.2051 LP             1 S1                 0.0000
@<TRIPOS>BOND
    1    1    2 1     
    2    1   19 1     
    3    1   20 1     
    4    1   21 1     
    5    2    3 1     
    6    2   10 1     
    7    2   22 1     
    8    3    4 1     
    9    3   23 1     
   10    3   24 1     
   11    4    9 1     
   12    4    5 1     
   13    4   36 1     
   14    5    6 1     
   15    5   25 1     
   16    5   26 1     
   17    6    7 1     
   18    6   27 1     
   19    6   28 1     
   20    7    8 1     
   21    8    9 1     
   22    8   29 1     
   23    8   30 1     
   24    9   31 1     
   25    9   32 1     
   26   10   11 am    
   27   10   33 1     
   28   11   12 2     
   29   11   13 1     
   30   13   14 1     
   31   14   18 1     
   32   14   15 2     
   33   15   16 1     
   34   16   17 2     
   35   16   34 1     
   36   17   18 1     
   37   17   35 1     
   38    7   37 1     
   39    7   38 1     
   40   12   39 1     
   41   12   40 1     
   42   13   41 1     
   43   15   42 1     
@<TRIPOS>SUBSTRUCTURE
      1 S1             1
@<TRIPOS>SET
LONE_PAIRS      STATIC     ATOMS    <user>   **** ""
6 37 38 39 40 41 42
DONOR_HYDROGENS      STATIC     ATOMS    <user>   **** ""
2 36 33
ATOM$BLUE        STATIC     ATOMS    COLORGROUP SYSTEM
6 37 38 39 40 41 42
ATOM$RED        STATIC     ATOMS    COLORGROUP SYSTEM
2 36 33
