#       Name:                AV-unprocessed.smi:2928
#       Creating user name   scv26
#       Creation time:       Fri Mar 27 16:13:18 2020


#       File generated by GOLD software.
#

@<TRIPOS>MOLECULE
AV-unprocessed.smi:2928
    59    62     1
SMALL
NO_CHARGES


@<TRIPOS>ATOM
      1 ****        -5.5630  -1.3351  -0.5587 C.3            1 S1                 0.0000
      2 ****        -4.1596  -1.8121  -0.5499 N.4            1 S1                 1.0000
      3 ****        -3.3977  -1.4831   0.6782 C.3            1 S1                 0.0000
      4 ****        -2.1406  -2.3803   0.7481 C.3            1 S1                 0.0000
      5 ****        -1.2695  -2.3351  -0.5217 C.3            1 S1                 0.0000
      6 ****        -2.1086  -2.3427  -1.8143 C.3            1 S1                 0.0000
      7 ****        -3.3699  -1.4500  -1.7508 C.3            1 S1                 0.0000
      8 ****        -3.1025   0.0751  -1.8160 C.3            1 S1                 0.0000
      9 ****        -2.6126   0.7336  -0.5024 C.3            1 S1                 0.0000
     10 ****        -1.1647   0.9319  -0.5102 N.am           1 S1                 0.0000
     11 ****        -0.4897   1.8171   0.2376 C.2            1 S1                 0.0000
     12 ****        -1.0282   2.5892   1.0303 O.2            1 S1                 0.0000
     13 ****         0.8329   1.7255   0.0221 N.am           1 S1                 0.0000
     14 ****         1.8812   2.4331   0.6760 C.ar           1 S1                 0.0000
     15 ****         1.7146   3.7430   1.1937 C.ar           1 S1                 0.0000
     16 ****         2.8008   4.3920   1.8138 C.ar           1 S1                 0.0000
     17 ****         4.0387   3.7284   1.8973 C.ar           1 S1                 0.0000
     18 ****         4.1692   2.4887   1.3803 N.pl3          1 S1                 1.0000
     19 ****         3.1566   1.8208   0.7752 C.ar           1 S1                 0.0000
     20 ****         3.3970   0.5313   0.2703 N.3            1 S1                 0.0000
     21 ****         4.4030   0.4486  -0.7751 C.3            1 S1                 0.0000
     22 ****         4.7616  -1.0361  -0.8790 C.3            1 S1                 0.0000
     23 ****         4.3359  -1.6406   0.4649 C.3            1 S1                 0.0000
     24 ****         3.7644  -0.4653   1.2620 C.3            1 S1                 0.0000
     25 ****        -3.1259   0.0382   0.7880 C.3            1 S1                 0.0000
     26 ****        -5.6304  -0.2476  -0.5389 H              1 S1                 0.0000
     27 ****        -6.1006  -1.7222   0.3071 H              1 S1                 0.0000
     28 ****        -6.0790  -1.6888  -1.4517 H              1 S1                 0.0000
     29 ****        -4.0154  -1.7603   1.5338 H              1 S1                 0.0000
     30 ****        -1.5404  -2.1286   1.6230 H              1 S1                 0.0000
     31 ****        -2.4668  -3.4103   0.8986 H              1 S1                 0.0000
     32 ****        -0.6153  -1.4704  -0.4990 H              1 S1                 0.0000
     33 ****        -0.5897  -3.1879  -0.5257 H              1 S1                 0.0000
     34 ****        -1.4870  -2.0656  -2.6664 H              1 S1                 0.0000
     35 ****        -2.4294  -3.3683  -2.0022 H              1 S1                 0.0000
     36 ****        -3.9668  -1.7076  -2.6272 H              1 S1                 0.0000
     37 ****        -2.4250   0.3044  -2.6398 H              1 S1                 0.0000
     38 ****        -4.0402   0.5584  -2.0925 H              1 S1                 0.0000
     39 ****        -3.0276   1.7436  -0.5023 H              1 S1                 0.0000
     40 ****        -0.6337   0.3404  -1.1326 H              1 S1                 0.0000
     41 ****         1.1308   0.9904  -0.6024 H              1 S1                 0.0000
     42 ****         0.7751   4.2682   1.1144 H              1 S1                 0.0000
     43 ****         2.6858   5.3885   2.2148 H              1 S1                 0.0000
     44 ****         4.9234   4.1498   2.3525 H              1 S1                 0.0000
     45 ****         4.0205   0.8366  -1.7197 H              1 S1                 0.0000
     46 ****         5.2861   1.0291  -0.5048 H              1 S1                 0.0000
     47 ****         4.2043  -1.5059  -1.6903 H              1 S1                 0.0000
     48 ****         5.8239  -1.1781  -1.0802 H              1 S1                 0.0000
     49 ****         3.5684  -2.3989   0.3044 H              1 S1                 0.0000
     50 ****         5.1664  -2.1147   0.9889 H              1 S1                 0.0000
     51 ****         4.5212  -0.0697   1.9409 H              1 S1                 0.0000
     52 ****         2.9015  -0.7652   1.8575 H              1 S1                 0.0000
     53 ****        -4.0662   0.5186   1.0609 H              1 S1                 0.0000
     54 ****        -2.4664   0.2368   1.6334 H              1 S1                 0.0000
     55 ****        -4.2312  -2.8196  -0.5645 H              1 S1                 0.0000
     56 ****         5.0784   2.0311   1.4489 H              1 S1                 0.0000
     57 ****        -2.0217   2.5774   1.1431 LP             1 S1                 0.0000
     58 ****        -0.4722   3.2283   1.5617 LP             1 S1                 0.0000
     59 ****         2.4933   0.3273  -0.1060 LP             1 S1                 0.0000
@<TRIPOS>BOND
    1    1    2 1     
    2    1   26 1     
    3    1   27 1     
    4    1   28 1     
    5    2    7 1     
    6    2    3 1     
    7    2   55 1     
    8    3   25 1     
    9    3    4 1     
   10    3   29 1     
   11    4    5 1     
   12    4   30 1     
   13    4   31 1     
   14    5    6 1     
   15    5   32 1     
   16    5   33 1     
   17    6    7 1     
   18    6   34 1     
   19    6   35 1     
   20    7    8 1     
   21    7   36 1     
   22    8    9 1     
   23    8   37 1     
   24    8   38 1     
   25    9   10 1     
   26    9   25 1     
   27    9   39 1     
   28   10   11 am    
   29   10   40 1     
   30   11   12 2     
   31   11   13 am    
   32   13   14 1     
   33   13   41 1     
   34   14   19 ar    
   35   14   15 ar    
   36   15   16 ar    
   37   15   42 1     
   38   16   17 ar    
   39   16   43 1     
   40   17   18 ar    
   41   17   44 1     
   42   18   19 ar    
   43   18   56 1     
   44   19   20 1     
   45   20   24 1     
   46   20   21 1     
   47   21   22 1     
   48   21   45 1     
   49   21   46 1     
   50   22   23 1     
   51   22   47 1     
   52   22   48 1     
   53   23   24 1     
   54   23   49 1     
   55   23   50 1     
   56   24   51 1     
   57   24   52 1     
   58   25   53 1     
   59   25   54 1     
   60   12   57 1     
   61   12   58 1     
   62   20   59 1     
@<TRIPOS>SUBSTRUCTURE
      1 S1             1
@<TRIPOS>SET
LONE_PAIRS      STATIC     ATOMS    <user>   **** ""
3 57 58 59
DONOR_HYDROGENS      STATIC     ATOMS    <user>   **** ""
4 55 40 41 56
ATOM$BLUE        STATIC     ATOMS    COLORGROUP SYSTEM
3 57 58 59
ATOM$RED        STATIC     ATOMS    COLORGROUP SYSTEM
4 55 40 41 56
