AV-unprocessed.smi:2149|AV-procd|sdf|8753|dock2
  -GOLD-   2272011533D 1   1.00000     0.00000
 Structure written by MMmdl.
 42 43  0  0  0  0  0  0  0  0  1 V2000
  151.7615  137.3333  154.6502 C   0  0  0  0  0  0  0  0  0  0  0  0
  151.5415  138.9539  155.4940 S   0  0  0  0  0  0  0  0  0  0  0  0
  151.3139  138.6837  156.9221 O   0  0  0  0  0  0  0  0  0  0  0  0
  152.6210  139.8637  155.0815 O   0  0  0  0  0  0  0  0  0  0  0  0
  150.0581  139.5533  154.8231 N   0  0  0  0  0  0  0  0  0  0  0  0
  149.5972  140.8840  155.2689 C   0  0  0  0  0  0  0  0  0  0  0  0
  148.5308  141.4580  154.3225 C   0  0  0  0  0  0  0  0  0  0  0  0
  147.3645  140.4818  154.1462 C   0  0  0  0  0  0  0  0  0  0  0  0
  147.9029  139.1380  153.6302 C   0  0  2  0  0  0  0  0  0  0  0  0
  146.7636  138.1306  153.4244 C   0  0  0  0  0  0  0  0  0  0  0  0
  146.0716  137.7709  154.3773 O   0  0  0  0  0  0  0  0  0  0  0  0
  146.5819  137.6828  152.1723 N   0  0  0  0  0  0  0  0  0  0  0  0
  145.5625  136.7247  151.7611 C   0  0  0  0  0  0  0  0  0  0  0  0
  145.6998  135.3920  152.5157 C   0  0  0  0  0  0  0  0  0  0  0  0
  145.4392  134.1959  151.6192 C   0  0  0  0  0  0  0  0  0  0  0  0
  146.5050  133.3857  151.1721 C   0  0  0  0  0  0  0  0  0  0  0  0
  146.2109  132.2921  150.3346 C   0  0  0  0  0  0  0  0  0  0  0  0
  144.8699  132.0529  149.9772 C   0  0  0  0  0  0  0  0  0  0  0  0
  143.8783  132.9216  150.4756 C   0  0  0  0  0  0  0  0  0  0  0  0
  144.1498  133.9729  151.2788 N   0  0  0  0  0  0  0  0  0  0  0  0
  148.9677  138.5810  154.5992 C   0  0  0  0  0  0  0  0  0  0  0  0
  152.6273  136.8241  155.0726 H   0  0  0  0  0  0  0  0  0  0  0  0
  151.9242  137.4839  153.5841 H   0  0  0  0  0  0  0  0  0  0  0  0
  150.8734  136.7204  154.8022 H   0  0  0  0  0  0  0  0  0  0  0  0
  149.1975  140.7986  156.2803 H   0  0  0  0  0  0  0  0  0  0  0  0
  150.4404  141.5709  155.3220 H   0  0  0  0  0  0  0  0  0  0  0  0
  148.1643  142.4088  154.7100 H   0  0  0  0  0  0  0  0  0  0  0  0
  148.9802  141.6733  153.3520 H   0  0  0  0  0  0  0  0  0  0  0  0
  146.8491  140.3490  155.0989 H   0  0  0  0  0  0  0  0  0  0  0  0
  146.6359  140.8965  153.4483 H   0  0  0  0  0  0  0  0  0  0  0  0
  148.3836  139.3115  152.6652 H   0  0  0  0  0  0  0  0  0  0  0  0
  147.1964  138.0318  151.4511 H   0  0  0  0  0  0  0  0  0  0  0  0
  144.5672  137.1487  151.9053 H   0  0  0  0  0  0  0  0  0  0  0  0
  145.6753  136.5554  150.6899 H   0  0  0  0  0  0  0  0  0  0  0  0
  146.7000  135.3073  152.9433 H   0  0  0  0  0  0  0  0  0  0  0  0
  145.0046  135.3599  153.3560 H   0  0  0  0  0  0  0  0  0  0  0  0
  147.5242  133.5962  151.4614 H   0  0  0  0  0  0  0  0  0  0  0  0
  146.9998  131.6495  149.9722 H   0  0  0  0  0  0  0  0  0  0  0  0
  144.6073  131.2243  149.3364 H   0  0  0  0  0  0  0  0  0  0  0  0
  142.8397  132.7686  150.2216 H   0  0  0  0  0  0  0  0  0  0  0  0
  149.3782  137.6590  154.1871 H   0  0  0  0  0  0  0  0  0  0  0  0
  148.5253  138.3252  155.5636 H   0  0  0  0  0  0  0  0  0  0  0  0
  1  2  1  0  0  0  0
  1 22  1  0  0  0  0
  1 23  1  0  0  0  0
  1 24  1  0  0  0  0
  2  3  2  0  0  0  0
  2  4  2  0  0  0  0
  2  5  1  0  0  0  0
  5 21  1  0  0  0  0
  5  6  1  0  0  0  0
  6  7  1  0  0  0  0
  6 25  1  0  0  0  0
  6 26  1  0  0  0  0
  7  8  1  0  0  0  0
  7 27  1  0  0  0  0
  7 28  1  0  0  0  0
  8  9  1  0  0  0  0
  8 29  1  0  0  0  0
  8 30  1  0  0  0  0
  9 10  1  0  0  0  0
  9 21  1  0  0  0  0
  9 31  1  0  0  0  0
 10 11  2  0  0  0  0
 10 12  1  0  0  0  0
 12 13  1  0  0  0  0
 12 32  1  0  0  0  0
 13 14  1  0  0  0  0
 13 33  1  0  0  0  0
 13 34  1  0  0  0  0
 14 15  1  0  0  0  0
 14 35  1  0  0  0  0
 14 36  1  0  0  0  0
 15 20  1  0  0  0  0
 15 16  2  0  0  0  0
 16 17  1  0  0  0  0
 16 37  1  0  0  0  0
 17 18  2  0  0  0  0
 17 38  1  0  0  0  0
 18 19  1  0  0  0  0
 18 39  1  0  0  0  0
 19 20  2  0  0  0  0
 19 40  1  0  0  0  0
 21 41  1  0  0  0  0
 21 42  1  0  0  0  0
M  END
> <s_m_source_file>
AV-unprocessed.smi

> <i_m_source_file_index>
2149

> <i_lp_mmshare_version>
43012

> <i_f3d_flags>
0

> <s_epik_input>
W0NIM11TKD1PKSg9TylOMVtDSDJdW0NIMl1bQ0gyXVtDQEhdKFtDSDJdMSlDKD1PKVtOSF1bQ0gyXVtDSDJdYzJbY0hdW2NIXVtjSF1bY0hdbjI=

> <s_epik_cmdline>
J2VwaWtfcHl0aG9uJywgJy1waCcsICc3LjAnLCAnLXRuJywgJzgnLCAnLW1hJywgJzIwMCcsICctbWV0YWxfYmluZGluZycsICctaW1hZScsICc8aW5maWxlLm1hZT4nLCAnLW9tYWUnLCAnPG91dGZpbGUubWFlPic=

> <r_epik_Ionization_Penalty>
0.0273806

> <r_epik_Ionization_Penalty_Charging>
0

> <r_epik_Ionization_Penalty_Neutral>
0.0273806

> <r_epik_State_Penalty>
0.0224071

> <r_epik_Charging_Adjusted_Penalty>
0.0224071

> <i_epik_Tot_Q>
0

> <i_epik_Tot_abs_Q>
0

> <r_epik_Metal_State_Penalty>
0.0214134

> <b_epik_Metal_Only>
0

> <s_lp_Force_Field>
OPLS_2005

> <r_lp_Energy>
5.16122

> <b_lp_Chiralities_Consistent>
1

> <s_lp_Variant>
AV-unprocessed.smi:2149-2

> <Gold.Version>
5.8.1

> <Gold.Id.Protein>
6NUR|6NUR_protein|mol2

> <Gold.PLP.Fitness>
41.1202

> <Gold.PLP.PLP>
-34.6465

> <Gold.PLP.part.hbond>
-2.9586

> <Gold.PLP.part.metal>
0.0000

> <Gold.PLP.part.buried>
-1.4641

> <Gold.PLP.part.nonpolar>
-31.8012

> <Gold.PLP.part.repulsive>
0.4291

> <Gold.PLP.ligand.clash>
0.0000

> <Gold.PLP.ligand.torsion>
0.8912

> <Gold.PLP.Chemscore.Hbond>
1.4870

> <Gold.PLP.Chemscore.CHOScore>
1.0000

> <Gold.PLP.Chemscore.Metal>
0.0000

> <Gold.Chemscore.Hbonds>
donor molecule, donor type, donor heavy atom, donor atom, acceptor molecule, acceptor atom, score
      P1  H  7989  7998       L1     4  0.47
      P1  H  7997  8008       L1     4  1.00
      L1  C    19    40       P1 10186  0.94

> <Gold.PLP.Chemscore.Internal.Correction>
0.7952

> <Gold.Rescore>
     Score         DG    S(hbond)    S(metal)    S(lipo)     H(rot)  DE(clash)    DE(int)     intcor
     12.93     -14.74       1.07        0.00      88.81       1.84       0.14       1.68       ----

> <Gold.Chemscore.Fitness>
12.9273

> <Gold.Chemscore.DG>
-14.7445

> <Gold.Chemscore.ZeroCoef>
-5.4800

> <Gold.Chemscore.Hbond>
1.0746

> <Gold.Chemscore.Metal>
0.0000

> <Gold.Chemscore.Lipo>
88.8088

> <Gold.Chemscore.Internal_Hbond>
0.0000

> <Gold.Chemscore.DEClash>
0.1359

> <Gold.Chemscore.DEInternal>
1.6813

> <Gold.Chemscore.Rot>
1.8419

> <Gold.Chemscore.Internal.Correction>
   9.000000E+99

> <Gold.Chemscore.Hbonds>
donor molecule, donor type, donor heavy atom, donor atom, acceptor molecule, acceptor atom, score
      P1  H  7989  7998       L1     4  0.14
      P1  H  7997  8008       L1     4  0.93

> <Gold.Chemscore.Hbond.Weighted>
-3.5892

> <Gold.Chemscore.Metal.Weighted>
-0.0000

> <Gold.Chemscore.Lipo.Weighted>
-10.3906

> <Gold.Chemscore.Internal_Hbond.Weighted>
0.0000

> <Gold.Chemscore.DEClash.Weighted>
0.1359

> <Gold.Chemscore.DEInternal.Weighted>
1.6813

> <Gold.Chemscore.Rot.Weighted>
4.7153

> <Gold.Chemscore.Internal.Correction.Weighted>
   9.000000E+99

> <Gold.Protein.RotatedTorsions>
[ 6907 6896 6895 6894 ] final  150.40 input  -60.11 | X-H torsion
[ 7974 7965 7964 7962 ] final  -88.32 input  175.53 | X-H torsion
[ 8008 7997 7996 7995 ] final  -17.28 input   59.86 | X-H torsion
[ 10167 10162 10161 10158 ] final   17.70 input  -65.29 | X-H torsion
[ 10718 10713 10712 10709 ] final   -2.62 input   66.30 | X-H torsion
[ 10763 10752 10751 10750 ] final  -56.78 input  -60.55 | X-H torsion
[ 11005 11000 10999 10996 ] final   61.51 input  -57.11 | X-H torsion

> <Gold.Protein.ActiveResidues>
 VAL166  LYS551  ARG553  GLY616  TRP617  ASP618  TYR619  PRO620  LYS621  CYS622 
 ASP623  PHE694  ASN695  SER759  ASP760  ASP761  ALA762  ILE779  LEU786  VAL792 
 PHE793  MET794  SER795  GLU796  ALA797  LYS798  CYS799  TRP800  GLU811  SER814 

> <Gold.Protein.RotatedAtoms>
  152.1149  133.4321  159.4648 H   0  0  0  0  0  0  0  0  0  0  0  0  # atno 6907 bound_to 6896
  150.6869  134.2604  159.4556 H   0  0  0  0  0  0  0  0  0  0  0  0  # atno 6908 bound_to 6896
  152.0476  134.9673  160.0625 H   0  0  0  0  0  0  0  0  0  0  0  0  # atno 6909 bound_to 6896
  145.4547  140.9561  143.2003 H   0  0  0  0  0  0  0  0  0  0  0  0  # atno 7974 bound_to 7965
  154.4990  140.2147  155.9386 H   0  0  0  0  0  0  0  0  0  0  0  0  # atno 8008 bound_to 7997
  156.1409  140.3180  155.8461 H   0  0  0  0  0  0  0  0  0  0  0  0  # atno 8009 bound_to 7997
  155.4122  140.0491  157.3021 H   0  0  0  0  0  0  0  0  0  0  0  0  # atno 8010 bound_to 7997
  140.5707  143.9167  150.6710 H   0  0  0  0  0  0  0  0  0  0  0  0  # atno 10167 bound_to 10162
  156.7882  130.5353  149.5740 H   0  0  0  0  0  0  0  0  0  0  0  0  # atno 10718 bound_to 10713
  154.2121  135.6392  153.5118 H   0  0  0  0  0  0  0  0  0  0  0  0  # atno 10763 bound_to 10752
  152.9987  135.5476  154.6204 H   0  0  0  0  0  0  0  0  0  0  0  0  # atno 10764 bound_to 10752
  154.5643  135.2911  155.0863 H   0  0  0  0  0  0  0  0  0  0  0  0  # atno 10765 bound_to 10752
  140.0156  134.6230  155.9715 H   0  0  0  0  0  0  0  0  0  0  0  0  # atno 11005 bound_to 11000
  144.8039  139.6087  143.7059 LP  0  0  0  0  0  0  0  0  0  0  0  0  # atno 17320 bound_to 7965
  146.2485  139.6148  142.9443 LP  0  0  0  0  0  0  0  0  0  0  0  0  # atno 17321 bound_to 7965
  140.2642  143.3502  152.1296 LP  0  0  0  0  0  0  0  0  0  0  0  0  # atno 17342 bound_to 10162
  139.5116  144.6903  151.5778 LP  0  0  0  0  0  0  0  0  0  0  0  0  # atno 17343 bound_to 10162
  156.1175  130.6086  151.0143 LP  0  0  0  0  0  0  0  0  0  0  0  0  # atno 17370 bound_to 10713
  157.6613  131.0880  150.7831 LP  0  0  0  0  0  0  0  0  0  0  0  0  # atno 17371 bound_to 10713
  141.1740  133.6539  156.4759 LP  0  0  0  0  0  0  0  0  0  0  0  0  # atno 17394 bound_to 11000
  140.4477  134.6957  157.5024 LP  0  0  0  0  0  0  0  0  0  0  0  0  # atno 17395 bound_to 11000

$$$$
