AV-unprocessed.smi:2929|AV-procd|sdf|11239|dock6
  -GOLD-   2272016133D 1   1.00000     0.00000
 Structure written by MMmdl.
 33 34  0  0  0  0  0  0  0  0  1 V2000
  153.2077  130.4375  156.1006 C   0  0  0  0  0  0  0  0  0  0  0  0
  151.8770  131.1464  157.1532 S   0  0  0  0  0  0  0  0  0  0  0  0
  151.0659  130.0316  157.6672 O   0  0  0  0  0  0  0  0  0  0  0  0
  152.4902  132.0940  158.0970 O   0  0  0  0  0  0  0  0  0  0  0  0
  150.8791  132.0836  156.0013 C   0  0  0  0  0  0  0  0  0  0  0  0
  150.8151  133.4884  156.0924 C   0  0  0  0  0  0  0  0  0  0  0  0
  149.9803  134.1750  155.1900 C   0  0  0  0  0  0  0  0  0  0  0  0
  149.2414  133.4304  154.2371 C   0  0  0  0  0  0  0  0  0  0  0  0
  148.3535  133.9958  153.2811 N   0  0  0  0  0  0  0  0  0  0  0  0
  147.1619  133.5402  152.8571 C   0  0  0  0  0  0  0  0  0  0  0  0
  146.6020  132.5208  153.2591 O   0  0  0  0  0  0  0  0  0  0  0  0
  146.6360  134.3549  151.9318 N   0  0  0  0  0  0  0  0  0  0  0  0
  145.3592  134.1425  151.2621 C   0  0  0  0  0  0  0  0  0  0  0  0
  145.1167  132.7218  150.7902 C   0  0  0  0  0  0  0  0  0  0  0  0
  145.8116  132.1993  149.5547 C   0  0  0  0  0  0  0  0  0  0  0  0
  144.3214  132.4376  149.5367 C   0  0  0  0  0  0  0  0  0  0  0  0
  149.3677  132.0245  154.2589 C   0  0  0  0  0  0  0  0  0  0  0  0
  150.1621  131.3551  155.1201 N   0  0  0  0  0  0  0  0  0  0  0  0
  153.8785  129.8398  156.7171 H   0  0  0  0  0  0  0  0  0  0  0  0
  153.7688  131.2456  155.6312 H   0  0  0  0  0  0  0  0  0  0  0  0
  152.7642  129.8079  155.3296 H   0  0  0  0  0  0  0  0  0  0  0  0
  151.3842  134.0300  156.8330 H   0  0  0  0  0  0  0  0  0  0  0  0
  149.9170  135.2490  155.2614 H   0  0  0  0  0  0  0  0  0  0  0  0
  148.6459  134.8826  152.8972 H   0  0  0  0  0  0  0  0  0  0  0  0
  147.1604  135.1748  151.6638 H   0  0  0  0  0  0  0  0  0  0  0  0
  144.5386  134.4618  151.9072 H   0  0  0  0  0  0  0  0  0  0  0  0
  145.3327  134.7972  150.3908 H   0  0  0  0  0  0  0  0  0  0  0  0
  145.0109  132.0040  151.6017 H   0  0  0  0  0  0  0  0  0  0  0  0
  146.4363  132.8902  148.9922 H   0  0  0  0  0  0  0  0  0  0  0  0
  146.1556  131.1670  149.5711 H   0  0  0  0  0  0  0  0  0  0  0  0
  143.6707  131.5656  149.5435 H   0  0  0  0  0  0  0  0  0  0  0  0
  143.9555  133.2875  148.9637 H   0  0  0  0  0  0  0  0  0  0  0  0
  148.8115  131.4144  153.5623 H   0  0  0  0  0  0  0  0  0  0  0  0
  1  2  1  0  0  0  0
  1 19  1  0  0  0  0
  1 20  1  0  0  0  0
  1 21  1  0  0  0  0
  2  3  2  0  0  0  0
  2  4  2  0  0  0  0
  2  5  1  0  0  0  0
  5 18  1  0  0  0  0
  5  6  2  0  0  0  0
  6  7  1  0  0  0  0
  6 22  1  0  0  0  0
  7  8  2  0  0  0  0
  7 23  1  0  0  0  0
  8  9  1  0  0  0  0
  8 17  1  0  0  0  0
  9 10  1  0  0  0  0
  9 24  1  0  0  0  0
 10 11  2  0  0  0  0
 10 12  1  0  0  0  0
 12 13  1  0  0  0  0
 12 25  1  0  0  0  0
 13 14  1  0  0  0  0
 13 26  1  0  0  0  0
 13 27  1  0  0  0  0
 14 16  1  0  0  0  0
 14 15  1  0  0  0  0
 14 28  1  0  0  0  0
 15 16  1  0  0  0  0
 15 29  1  0  0  0  0
 15 30  1  0  0  0  0
 16 31  1  0  0  0  0
 16 32  1  0  0  0  0
 17 18  2  0  0  0  0
 17 33  1  0  0  0  0
M  END
> <s_m_source_file>
AV-unprocessed.smi

> <i_m_source_file_index>
2929

> <i_lp_mmshare_version>
43012

> <i_f3d_flags>
0

> <s_epik_input>
W0NIM11TKD1PKSg9TyljMVtjSF1bY0hdYyhbY0hdbjEpW05IXUMoPU8pW05IXVtDSDJdW0NIXTJbQ0gyXVtDSDJdMg==

> <s_epik_cmdline>
J2VwaWtfcHl0aG9uJywgJy1waCcsICc3LjAnLCAnLXRuJywgJzgnLCAnLW1hJywgJzIwMCcsICctbWV0YWxfYmluZGluZycsICctaW1hZScsICc8aW5maWxlLm1hZT4nLCAnLW9tYWUnLCAnPG91dGZpbGUubWFlPic=

> <r_lp_tautomer_probability>
1

> <r_epik_Ionization_Penalty>
4.04513e-05

> <r_epik_Ionization_Penalty_Charging>
0

> <r_epik_Ionization_Penalty_Neutral>
4.04513e-05

> <r_epik_State_Penalty>
-0

> <r_epik_Charging_Adjusted_Penalty>
0

> <i_epik_Tot_Q>
0

> <i_epik_Tot_abs_Q>
0

> <r_epik_Metal_State_Penalty>
-0

> <b_epik_Metal_Only>
0

> <s_lp_Force_Field>
OPLS_2005

> <r_lp_Energy>
13.7936

> <b_lp_Chiralities_Consistent>
1

> <s_lp_Variant>
AV-unprocessed.smi:2929-1

> <Gold.Version>
5.8.1

> <Gold.Id.Protein>
6NUR|6NUR_protein|mol2

> <Gold.PLP.Fitness>
39.6839

> <Gold.PLP.PLP>
-31.7561

> <Gold.PLP.part.hbond>
-3.0000

> <Gold.PLP.part.metal>
0.0000

> <Gold.PLP.part.buried>
-4.1847

> <Gold.PLP.part.nonpolar>
-24.0186

> <Gold.PLP.part.repulsive>
0.1426

> <Gold.PLP.ligand.clash>
0.0000

> <Gold.PLP.ligand.torsion>
1.7081

> <Gold.PLP.Chemscore.Hbond>
2.9280

> <Gold.PLP.Chemscore.CHOScore>
0.0000

> <Gold.PLP.Chemscore.Metal>
0.0000

> <Gold.Chemscore.Hbonds>
donor molecule, donor type, donor heavy atom, donor atom, acceptor molecule, acceptor atom, score
      L1  H     9    24       P1  7948  1.00
      L1  H    12    25       P1  7948  0.89
      P1  H  6896  6909       L1     4  1.00

> <Gold.PLP.Chemscore.Internal.Correction>
2.5601

> <Gold.Rescore>
     Score         DG    S(hbond)    S(metal)    S(lipo)     H(rot)  DE(clash)    DE(int)     intcor
     13.48     -17.53       2.50        0.00      58.52       1.23       0.08       3.96       ----

> <Gold.Chemscore.Fitness>
13.4845

> <Gold.Chemscore.DG>
-17.5299

> <Gold.Chemscore.ZeroCoef>
-5.4800

> <Gold.Chemscore.Hbond>
2.5045

> <Gold.Chemscore.Metal>
0.0000

> <Gold.Chemscore.Lipo>
58.5178

> <Gold.Chemscore.Internal_Hbond>
0.0000

> <Gold.Chemscore.DEClash>
0.0820

> <Gold.Chemscore.DEInternal>
3.9634

> <Gold.Chemscore.Rot>
1.2350

> <Gold.Chemscore.Internal.Correction>
   9.000000E+99

> <Gold.Chemscore.Hbonds>
donor molecule, donor type, donor heavy atom, donor atom, acceptor molecule, acceptor atom, score
      L1  H     9    24       P1  7948  0.30
      L1  H    12    25       P1  7948  0.77
      P1  H  6896  6909       L1     4  1.00

> <Gold.Chemscore.Hbond.Weighted>
-8.3649

> <Gold.Chemscore.Metal.Weighted>
-0.0000

> <Gold.Chemscore.Lipo.Weighted>
-6.8466

> <Gold.Chemscore.Internal_Hbond.Weighted>
0.0000

> <Gold.Chemscore.DEClash.Weighted>
0.0820

> <Gold.Chemscore.DEInternal.Weighted>
3.9634

> <Gold.Chemscore.Rot.Weighted>
3.1616

> <Gold.Chemscore.Internal.Correction.Weighted>
   9.000000E+99

> <Gold.Protein.RotatedTorsions>
[ 6907 6896 6895 6894 ] final  -80.76 input  -60.11 | X-H torsion
[ 7974 7965 7964 7962 ] final  -28.98 input  175.53 | X-H torsion
[ 8008 7997 7996 7995 ] final  -38.94 input   59.86 | X-H torsion
[ 10167 10162 10161 10158 ] final -140.59 input  -65.29 | X-H torsion
[ 10718 10713 10712 10709 ] final  -47.03 input   66.30 | X-H torsion
[ 10763 10752 10751 10750 ] final -144.84 input  -60.55 | X-H torsion
[ 11005 11000 10999 10996 ] final -127.49 input  -57.11 | X-H torsion

> <Gold.Protein.ActiveResidues>
 VAL166  LYS551  ARG553  GLY616  TRP617  ASP618  TYR619  PRO620  LYS621  CYS622 
 ASP623  PHE694  ASN695  SER759  ASP760  ASP761  ALA762  ILE779  LEU786  VAL792 
 PHE793  MET794  SER795  GLU796  ALA797  LYS798  CYS799  TRP800  GLU811  SER814 

> <Gold.Protein.RotatedAtoms>
  150.6924  134.3921  159.5080 H   0  0  0  0  0  0  0  0  0  0  0  0  # atno 6907 bound_to 6896
  152.1708  134.8833  160.0543 H   0  0  0  0  0  0  0  0  0  0  0  0  # atno 6908 bound_to 6896
  151.9860  133.3739  159.4163 H   0  0  0  0  0  0  0  0  0  0  0  0  # atno 6909 bound_to 6896
  146.1249  140.5353  142.8719 H   0  0  0  0  0  0  0  0  0  0  0  0  # atno 7974 bound_to 7965
  154.4030  140.1565  156.2781 H   0  0  0  0  0  0  0  0  0  0  0  0  # atno 8008 bound_to 7997
  155.8894  140.3439  155.5923 H   0  0  0  0  0  0  0  0  0  0  0  0  # atno 8009 bound_to 7997
  155.7576  140.0813  157.2161 H   0  0  0  0  0  0  0  0  0  0  0  0  # atno 8010 bound_to 7997
  139.8266  143.7502  152.2666 H   0  0  0  0  0  0  0  0  0  0  0  0  # atno 10167 bound_to 10162
  156.2125  130.4161  149.9097 H   0  0  0  0  0  0  0  0  0  0  0  0  # atno 10718 bound_to 10713
  154.8410  135.3429  154.6410 H   0  0  0  0  0  0  0  0  0  0  0  0  # atno 10763 bound_to 10752
  153.7021  135.6969  153.5065 H   0  0  0  0  0  0  0  0  0  0  0  0  # atno 10764 bound_to 10752
  153.2515  135.4352  155.0756 H   0  0  0  0  0  0  0  0  0  0  0  0  # atno 10765 bound_to 10752
  140.9595  134.0956  157.3983 H   0  0  0  0  0  0  0  0  0  0  0  0  # atno 11005 bound_to 11000
  144.7633  140.5472  143.6720 LP  0  0  0  0  0  0  0  0  0  0  0  0  # atno 17320 bound_to 7965
  145.5386  139.1475  143.3460 LP  0  0  0  0  0  0  0  0  0  0  0  0  # atno 17321 bound_to 7965
  139.7697  144.7480  151.0243 LP  0  0  0  0  0  0  0  0  0  0  0  0  # atno 17342 bound_to 10162
  140.7810  143.4659  151.0213 LP  0  0  0  0  0  0  0  0  0  0  0  0  # atno 17343 bound_to 10162
  156.6770  130.8843  151.3570 LP  0  0  0  0  0  0  0  0  0  0  0  0  # atno 17370 bound_to 10713
  157.7046  130.9370  150.0890 LP  0  0  0  0  0  0  0  0  0  0  0  0  # atno 17371 bound_to 10713
  139.8873  135.0089  156.6553 LP  0  0  0  0  0  0  0  0  0  0  0  0  # atno 17394 bound_to 11000
  140.7488  133.8915  155.8332 LP  0  0  0  0  0  0  0  0  0  0  0  0  # atno 17395 bound_to 11000

$$$$
