AV-unprocessed.smi:2756|AV-procd|sdf|10618|dock4
  -GOLD-   2272015 63D 1   1.00000     0.00000
 Structure written by MMmdl.
 19 19  0  0  0  0  0  0  0  0  3 V2000
  149.7043  142.1609  156.7518 N   0  0  0  0  0  0  0  0  0  0  0  0
  150.8037  142.5982  157.4908 C   0  0  0  0  0  0  0  0  0  0  0  0
  151.1934  143.8816  157.3226 N   0  3  0  0  0  0  0  0  0  0  0  0
  152.2349  144.4303  157.9846 C   0  0  0  0  0  0  0  0  0  0  0  0
  152.9703  143.6529  158.9001 C   0  0  0  0  0  0  0  0  0  0  0  0
  152.6024  142.3080  159.1066 C   0  0  0  0  0  0  0  0  0  0  0  0
  151.5083  141.7647  158.3959 C   0  0  0  0  0  0  0  0  0  0  0  0
  151.1159  140.3105  158.6203 C   0  0  0  0  0  0  0  0  0  0  0  0
  152.3461  139.4421  158.3565 C   0  0  0  0  0  0  0  0  0  0  0  0
  152.7709  138.7557  159.3115 O   0  0  0  0  0  0  0  0  0  0  0  0
  152.8454  139.4918  157.2113 O   0  5  0  0  0  0  0  0  0  0  0  0
  149.3683  141.2120  156.8418 H   0  0  0  0  0  0  0  0  0  0  0  0
  149.1003  142.8127  156.2728 H   0  0  0  0  0  0  0  0  0  0  0  0
  152.4445  145.4670  157.7656 H   0  0  0  0  0  0  0  0  0  0  0  0
  153.8031  144.0810  159.4382 H   0  0  0  0  0  0  0  0  0  0  0  0
  153.1541  141.7000  159.8085 H   0  0  0  0  0  0  0  0  0  0  0  0
  150.7457  140.1589  159.6349 H   0  0  0  0  0  0  0  0  0  0  0  0
  150.3108  140.0236  157.9426 H   0  0  0  0  0  0  0  0  0  0  0  0
  150.6734  144.4661  156.6680 H   0  0  0  0  0  0  0  0  0  0  0  0
  1  2  1  0  0  0  0
  1 12  1  0  0  0  0
  1 13  1  0  0  0  0
  2  7  1  0  0  0  0
  2  3  2  0  0  0  0
  3  4  1  0  0  0  0
  3 19  1  0  0  0  0
  4  5  2  0  0  0  0
  4 14  1  0  0  0  0
  5  6  1  0  0  0  0
  5 15  1  0  0  0  0
  6  7  2  0  0  0  0
  6 16  1  0  0  0  0
  7  8  1  0  0  0  0
  8  9  1  0  0  0  0
  8 17  1  0  0  0  0
  8 18  1  0  0  0  0
  9 10  2  0  0  0  0
  9 11  1  0  0  0  0
M  CHG  1   3   1
M  CHG  1  11  -1
M  END
> <s_m_source_file>
AV-unprocessed.smi

> <i_m_source_file_index>
2756

> <i_lp_mmshare_version>
43012

> <i_f3d_flags>
0

> <s_epik_input>
W05IMl1jMW5bY0hdW2NIXVtjSF1jMVtDSDJdQyg9TylbT0hd

> <s_epik_cmdline>
J2VwaWtfcHl0aG9uJywgJy1waCcsICc3LjAnLCAnLXRuJywgJzgnLCAnLW1hJywgJzIwMCcsICctbWV0YWxfYmluZGluZycsICctaW1hZScsICc8aW5maWxlLm1hZT4nLCAnLW9tYWUnLCAnPG91dGZpbGUubWFlPic=

> <r_lp_tautomer_probability>
0.999994

> <r_epik_Ionization_Penalty>
0.0994946

> <r_epik_Ionization_Penalty_Charging>
0.0994944

> <r_epik_Ionization_Penalty_Neutral>
2.48807e-07

> <r_epik_State_Penalty>
0.0891183

> <r_epik_Charging_Adjusted_Penalty>
0.188613

> <i_epik_Tot_Q>
0

> <i_epik_Tot_abs_Q>
2

> <r_epik_Metal_State_Penalty>
3.01912

> <b_epik_Metal_Only>
0

> <s_lp_Force_Field>
OPLS_2005

> <r_lp_Energy>
1.50311

> <b_lp_Chiralities_Consistent>
1

> <s_lp_Variant>
AV-unprocessed.smi:2756-1

> <Gold.Version>
5.8.1

> <Gold.Id.Protein>
6NUR|6NUR_protein|mol2

> <Gold.PLP.Fitness>
41.7610

> <Gold.PLP.PLP>
-24.6688

> <Gold.PLP.part.hbond>
-3.0000

> <Gold.PLP.part.metal>
0.0000

> <Gold.PLP.part.buried>
-3.8846

> <Gold.PLP.part.nonpolar>
-18.6761

> <Gold.PLP.part.repulsive>
0.0426

> <Gold.PLP.ligand.clash>
0.0000

> <Gold.PLP.ligand.torsion>
0.0222

> <Gold.PLP.Chemscore.Hbond>
5.7120

> <Gold.PLP.Chemscore.CHOScore>
0.0000

> <Gold.PLP.Chemscore.Metal>
0.0000

> <Gold.Chemscore.Hbonds>
donor molecule, donor type, donor heavy atom, donor atom, acceptor molecule, acceptor atom, score
      L1  H     1    13       P1  8028  1.82
      L1  H     3    19       P1  8028  1.87
      P1  H  7997  8009       L1    11  2.00

> <Gold.PLP.Chemscore.Internal.Correction>
0.0007

> <Gold.Rescore>
     Score         DG    S(hbond)    S(metal)    S(lipo)     H(rot)  DE(clash)    DE(int)     intcor
     16.44     -16.46       2.73        0.00      50.52       1.58       0.00       0.02       ----

> <Gold.Chemscore.Fitness>
16.4404

> <Gold.Chemscore.DG>
-16.4601

> <Gold.Chemscore.ZeroCoef>
-5.4800

> <Gold.Chemscore.Hbond>
2.7320

> <Gold.Chemscore.Metal>
0.0000

> <Gold.Chemscore.Lipo>
50.5167

> <Gold.Chemscore.Internal_Hbond>
0.0000

> <Gold.Chemscore.DEClash>
0.0000

> <Gold.Chemscore.DEInternal>
0.0197

> <Gold.Chemscore.Rot>
1.5841

> <Gold.Chemscore.Internal.Correction>
   9.000000E+99

> <Gold.Chemscore.Hbonds>
donor molecule, donor type, donor heavy atom, donor atom, acceptor molecule, acceptor atom, score
      L1  H     1    13       P1  8028  0.84
      L1  H     3    19       P1  8028  0.82
      P1  H  7997  8009       L1    11  1.00

> <Gold.Chemscore.Hbond.Weighted>
-9.1250

> <Gold.Chemscore.Metal.Weighted>
-0.0000

> <Gold.Chemscore.Lipo.Weighted>
-5.9105

> <Gold.Chemscore.Internal_Hbond.Weighted>
0.0000

> <Gold.Chemscore.DEClash.Weighted>
0.0000

> <Gold.Chemscore.DEInternal.Weighted>
0.0197

> <Gold.Chemscore.Rot.Weighted>
4.0554

> <Gold.Chemscore.Internal.Correction.Weighted>
   9.000000E+99

> <Gold.Protein.RotatedTorsions>
[ 6907 6896 6895 6894 ] final  -20.01 input  -60.11 | X-H torsion
[ 7974 7965 7964 7962 ] final    4.59 input  175.53 | X-H torsion
[ 8008 7997 7996 7995 ] final  176.16 input   59.86 | X-H torsion
[ 10167 10162 10161 10158 ] final   56.49 input  -65.29 | X-H torsion
[ 10718 10713 10712 10709 ] final   96.03 input   66.30 | X-H torsion
[ 10763 10752 10751 10750 ] final  168.05 input  -60.55 | X-H torsion
[ 11005 11000 10999 10996 ] final  -45.18 input  -57.11 | X-H torsion

> <Gold.Protein.ActiveResidues>
 VAL166  LYS551  ARG553  GLY616  TRP617  ASP618  TYR619  PRO620  LYS621  CYS622 
 ASP623  PHE694  ASN695  SER759  ASP760  ASP761  ALA762  ILE779  LEU786  VAL792 
 PHE793  MET794  SER795  GLU796  ALA797  LYS798  CYS799  TRP800  GLU811  SER814 

> <Gold.Protein.RotatedAtoms>
  151.2545  135.0633  159.9074 H   0  0  0  0  0  0  0  0  0  0  0  0  # atno 6907 bound_to 6896
  152.5375  134.0296  159.8029 H   0  0  0  0  0  0  0  0  0  0  0  0  # atno 6908 bound_to 6896
  151.0510  133.5575  159.2673 H   0  0  0  0  0  0  0  0  0  0  0  0  # atno 6909 bound_to 6896
  146.2443  140.0511  142.8375 H   0  0  0  0  0  0  0  0  0  0  0  0  # atno 7974 bound_to 7965
  156.0794  140.1390  156.9731 H   0  0  0  0  0  0  0  0  0  0  0  0  # atno 8008 bound_to 7997
  154.4576  140.0955  156.6852 H   0  0  0  0  0  0  0  0  0  0  0  0  # atno 8009 bound_to 7997
  155.5101  140.3453  155.4389 H   0  0  0  0  0  0  0  0  0  0  0  0  # atno 8010 bound_to 7997
  140.2082  144.3917  150.6500 H   0  0  0  0  0  0  0  0  0  0  0  0  # atno 10167 bound_to 10162
  157.6932  131.0565  150.4429 H   0  0  0  0  0  0  0  0  0  0  0  0  # atno 10718 bound_to 10713
  154.3628  135.2753  155.2310 H   0  0  0  0  0  0  0  0  0  0  0  0  # atno 10763 bound_to 10752
  154.4491  135.5935  153.6183 H   0  0  0  0  0  0  0  0  0  0  0  0  # atno 10764 bound_to 10752
  152.9842  135.6037  154.3851 H   0  0  0  0  0  0  0  0  0  0  0  0  # atno 10765 bound_to 10752
  141.0499  133.6747  156.2977 H   0  0  0  0  0  0  0  0  0  0  0  0  # atno 11005 bound_to 11000
  145.0983  140.9329  143.4728 LP  0  0  0  0  0  0  0  0  0  0  0  0  # atno 17320 bound_to 7965
  145.0699  139.3040  143.5837 LP  0  0  0  0  0  0  0  0  0  0  0  0  # atno 17321 bound_to 7965
  140.6342  143.2192  151.6430 LP  0  0  0  0  0  0  0  0  0  0  0  0  # atno 17342 bound_to 10162
  139.5190  144.3266  152.0863 LP  0  0  0  0  0  0  0  0  0  0  0  0  # atno 17343 bound_to 10162
  156.4786  130.4069  149.6475 LP  0  0  0  0  0  0  0  0  0  0  0  0  # atno 17370 bound_to 10713
  156.3528  130.7441  151.2403 LP  0  0  0  0  0  0  0  0  0  0  0  0  # atno 17371 bound_to 10713
  140.6076  134.5491  157.5528 LP  0  0  0  0  0  0  0  0  0  0  0  0  # atno 17394 bound_to 11000
  139.9342  134.7907  156.0849 LP  0  0  0  0  0  0  0  0  0  0  0  0  # atno 17395 bound_to 11000

$$$$
