AV-unprocessed.smi:2332|AV-procd|sdf|9318|dock6
  -GOLD-   2272012543D 1   1.00000     0.00000
 Structure written by MMmdl.
 32 33  0  0  0  0  0  0  0  0  1 V2000
  146.7359  140.4377  152.5313 C   0  0  0  0  0  0  0  0  0  0  0  0
  147.8619  139.8655  153.2529 N   0  0  0  0  0  0  0  0  0  0  0  0
  148.4871  140.4627  154.2789 C   0  0  0  0  0  0  0  0  0  0  0  0
  148.1497  141.5644  154.7137 O   0  0  0  0  0  0  0  0  0  0  0  0
  149.6535  139.6990  154.9247 C   0  0  2  0  0  0  0  0  0  0  0  0
  150.2753  140.4788  156.1061 C   0  0  0  0  0  0  0  0  0  0  0  0
  151.4529  139.7853  156.6232 N   0  0  0  0  0  0  0  0  0  0  0  0
  151.9455  140.2614  157.8579 C   0  0  0  0  0  0  0  0  0  0  0  0
  151.2985  141.3350  158.5161 C   0  0  0  0  0  0  0  0  0  0  0  0
  151.8093  141.7973  159.7446 C   0  0  0  0  0  0  0  0  0  0  0  0
  152.9506  141.1736  160.2832 C   0  0  0  0  0  0  0  0  0  0  0  0
  153.5153  141.6140  161.5471 C   0  0  0  0  0  0  0  0  0  0  0  0
  153.9649  141.9646  162.5540 N   0  0  0  0  0  0  0  0  0  0  0  0
  153.5280  140.1085  159.5653 C   0  0  0  0  0  0  0  0  0  0  0  0
  153.0409  139.6614  158.3879 N   0  0  0  0  0  0  0  0  0  0  0  0
  152.4245  139.4372  155.5890 C   0  0  0  0  0  0  0  0  0  0  0  0
  151.7356  138.6779  154.4450 C   0  0  0  0  0  0  0  0  0  0  0  0
  150.6590  139.4582  153.9391 O   0  0  0  0  0  0  0  0  0  0  0  0
  146.4406  139.7755  151.7176 H   0  0  0  0  0  0  0  0  0  0  0  0
  146.9987  141.4064  152.1043 H   0  0  0  0  0  0  0  0  0  0  0  0
  145.8787  140.5694  153.1926 H   0  0  0  0  0  0  0  0  0  0  0  0
  148.1953  138.9608  152.9521 H   0  0  0  0  0  0  0  0  0  0  0  0
  149.2626  138.7430  155.2775 H   0  0  0  0  0  0  0  0  0  0  0  0
  150.5731  141.4779  155.7843 H   0  0  0  0  0  0  0  0  0  0  0  0
  149.5235  140.6087  156.8834 H   0  0  0  0  0  0  0  0  0  0  0  0
  150.4137  141.7968  158.1037 H   0  0  0  0  0  0  0  0  0  0  0  0
  151.3262  142.6145  160.2608 H   0  0  0  0  0  0  0  0  0  0  0  0
  154.4030  139.5969  159.9400 H   0  0  0  0  0  0  0  0  0  0  0  0
  152.8887  140.3474  155.2069 H   0  0  0  0  0  0  0  0  0  0  0  0
  153.2169  138.8159  156.0089 H   0  0  0  0  0  0  0  0  0  0  0  0
  152.4452  138.4878  153.6398 H   0  0  0  0  0  0  0  0  0  0  0  0
  151.3702  137.7073  154.7842 H   0  0  0  0  0  0  0  0  0  0  0  0
  1  2  1  0  0  0  0
  1 19  1  0  0  0  0
  1 20  1  0  0  0  0
  1 21  1  0  0  0  0
  2  3  1  0  0  0  0
  2 22  1  0  0  0  0
  3  4  2  0  0  0  0
  3  5  1  0  0  0  0
  5 18  1  0  0  0  0
  5  6  1  0  0  0  0
  5 23  1  0  0  0  0
  6  7  1  0  0  0  0
  6 24  1  0  0  0  0
  6 25  1  0  0  0  0
  7  8  1  0  0  0  0
  7 16  1  0  0  0  0
  8 15  1  0  0  0  0
  8  9  2  0  0  0  0
  9 10  1  0  0  0  0
  9 26  1  0  0  0  0
 10 11  2  0  0  0  0
 10 27  1  0  0  0  0
 11 12  1  0  0  0  0
 11 14  1  0  0  0  0
 12 13  3  0  0  0  0
 14 15  2  0  0  0  0
 14 28  1  0  0  0  0
 16 17  1  0  0  0  0
 16 29  1  0  0  0  0
 16 30  1  0  0  0  0
 17 18  1  0  0  0  0
 17 31  1  0  0  0  0
 17 32  1  0  0  0  0
M  END
> <s_m_source_file>
AV-unprocessed.smi

> <i_m_source_file_index>
2332

> <i_lp_mmshare_version>
43012

> <i_f3d_flags>
0

> <s_epik_input>
W0NIM11bTkhdQyg9TylbQ0BASF0xW0NIMl1OKFtDSDJdW0NIMl1PMSljMltjSF1bY0hdYyhDI04pW2NIXW4y

> <s_epik_cmdline>
J2VwaWtfcHl0aG9uJywgJy1waCcsICc3LjAnLCAnLXRuJywgJzgnLCAnLW1hJywgJzIwMCcsICctbWV0YWxfYmluZGluZycsICctaW1hZScsICc8aW5maWxlLm1hZT4nLCAnLW9tYWUnLCAnPG91dGZpbGUubWFlPic=

> <r_lp_tautomer_probability>
1

> <r_epik_Ionization_Penalty>
6.95229e-08

> <r_epik_Ionization_Penalty_Charging>
0

> <r_epik_Ionization_Penalty_Neutral>
6.95229e-08

> <r_epik_State_Penalty>
-0

> <r_epik_Charging_Adjusted_Penalty>
0

> <i_epik_Tot_Q>
0

> <i_epik_Tot_abs_Q>
0

> <r_epik_Metal_State_Penalty>
-0

> <b_epik_Metal_Only>
0

> <s_lp_Force_Field>
OPLS_2005

> <r_lp_Energy>
17.7289

> <b_lp_Chiralities_Consistent>
1

> <s_lp_Variant>
AV-unprocessed.smi:2332-1

> <Gold.Version>
5.8.1

> <Gold.Id.Protein>
6NUR|6NUR_protein|mol2

> <Gold.PLP.Fitness>
37.8681

> <Gold.PLP.PLP>
-32.0915

> <Gold.PLP.part.hbond>
-4.0000

> <Gold.PLP.part.metal>
0.0000

> <Gold.PLP.part.buried>
-0.5577

> <Gold.PLP.part.nonpolar>
-27.5761

> <Gold.PLP.part.repulsive>
0.4177

> <Gold.PLP.ligand.clash>
0.0000

> <Gold.PLP.ligand.torsion>
0.2660

> <Gold.PLP.Chemscore.Hbond>
1.9913

> <Gold.PLP.Chemscore.CHOScore>
0.0000

> <Gold.PLP.Chemscore.Metal>
0.0000

> <Gold.Chemscore.Hbonds>
donor molecule, donor type, donor heavy atom, donor atom, acceptor molecule, acceptor atom, score
      P1  H  7989  7998       L1    18  0.85
      P1  H  7997  8008       L1    15  0.83

> <Gold.PLP.Chemscore.Internal.Correction>
0.3348

> <Gold.Rescore>
     Score         DG    S(hbond)    S(metal)    S(lipo)     H(rot)  DE(clash)    DE(int)     intcor
     10.60     -11.39       0.55        0.00      64.31       1.35       0.31       0.48       ----

> <Gold.Chemscore.Fitness>
10.6004

> <Gold.Chemscore.DG>
-11.3875

> <Gold.Chemscore.ZeroCoef>
-5.4800

> <Gold.Chemscore.Hbond>
0.5504

> <Gold.Chemscore.Metal>
0.0000

> <Gold.Chemscore.Lipo>
64.3137

> <Gold.Chemscore.Internal_Hbond>
0.0000

> <Gold.Chemscore.DEClash>
0.3079

> <Gold.Chemscore.DEInternal>
0.4791

> <Gold.Chemscore.Rot>
1.3498

> <Gold.Chemscore.Internal.Correction>
   9.000000E+99

> <Gold.Chemscore.Hbonds>
donor molecule, donor type, donor heavy atom, donor atom, acceptor molecule, acceptor atom, score
      P1  H  7989  7998       L1    18  0.13
      P1  H  7997  8008       L1    15  0.17

> <Gold.Chemscore.Hbond.Weighted>
-1.8383

> <Gold.Chemscore.Metal.Weighted>
-0.0000

> <Gold.Chemscore.Lipo.Weighted>
-7.5247

> <Gold.Chemscore.Internal_Hbond.Weighted>
0.0000

> <Gold.Chemscore.DEClash.Weighted>
0.3079

> <Gold.Chemscore.DEInternal.Weighted>
0.4791

> <Gold.Chemscore.Rot.Weighted>
3.4556

> <Gold.Chemscore.Internal.Correction.Weighted>
   9.000000E+99

> <Gold.Protein.RotatedTorsions>
[ 6907 6896 6895 6894 ] final  112.85 input  -60.11 | X-H torsion
[ 7974 7965 7964 7962 ] final -176.64 input  175.53 | X-H torsion
[ 8008 7997 7996 7995 ] final  -88.82 input   59.86 | X-H torsion
[ 10167 10162 10161 10158 ] final   99.69 input  -65.29 | X-H torsion
[ 10718 10713 10712 10709 ] final    1.86 input   66.30 | X-H torsion
[ 10763 10752 10751 10750 ] final  -71.55 input  -60.55 | X-H torsion
[ 11005 11000 10999 10996 ] final -138.30 input  -57.11 | X-H torsion

> <Gold.Protein.ActiveResidues>
 VAL166  LYS551  ARG553  GLY616  TRP617  ASP618  TYR619  PRO620  LYS621  CYS622 
 ASP623  PHE694  ASN695  SER759  ASP760  ASP761  ALA762  ILE779  LEU786  VAL792 
 PHE793  MET794  SER795  GLU796  ALA797  LYS798  CYS799  TRP800  GLU811  SER814 

> <Gold.Protein.RotatedAtoms>
  152.4893  133.8457  159.7175 H   0  0  0  0  0  0  0  0  0  0  0  0  # atno 6907 bound_to 6896
  150.9008  133.7111  159.2886 H   0  0  0  0  0  0  0  0  0  0  0  0  # atno 6908 bound_to 6896
  151.4553  135.1037  159.9762 H   0  0  0  0  0  0  0  0  0  0  0  0  # atno 6909 bound_to 6896
  144.7127  140.1139  143.6409 H   0  0  0  0  0  0  0  0  0  0  0  0  # atno 7974 bound_to 7965
  154.6794  140.0549  157.0249 H   0  0  0  0  0  0  0  0  0  0  0  0  # atno 8008 bound_to 7997
  155.0974  140.3225  155.4538 H   0  0  0  0  0  0  0  0  0  0  0  0  # atno 8009 bound_to 7997
  156.2688  140.2037  156.6100 H   0  0  0  0  0  0  0  0  0  0  0  0  # atno 8010 bound_to 7997
  139.7594  144.6959  151.0314 H   0  0  0  0  0  0  0  0  0  0  0  0  # atno 10167 bound_to 10162
  156.8544  130.5565  149.5667 H   0  0  0  0  0  0  0  0  0  0  0  0  # atno 10718 bound_to 10713
  154.4333  135.5958  153.6083 H   0  0  0  0  0  0  0  0  0  0  0  0  # atno 10763 bound_to 10752
  152.9800  135.5980  154.3812 H   0  0  0  0  0  0  0  0  0  0  0  0  # atno 10764 bound_to 10752
  154.3652  135.2841  155.2276 H   0  0  0  0  0  0  0  0  0  0  0  0  # atno 10765 bound_to 10752
  140.8629  134.2147  157.4697 H   0  0  0  0  0  0  0  0  0  0  0  0  # atno 11005 bound_to 11000
  145.9430  139.2682  143.1257 LP  0  0  0  0  0  0  0  0  0  0  0  0  # atno 17320 bound_to 7965
  145.9403  140.8984  143.0311 LP  0  0  0  0  0  0  0  0  0  0  0  0  # atno 17321 bound_to 7965
  140.7806  143.4714  151.0141 LP  0  0  0  0  0  0  0  0  0  0  0  0  # atno 17342 bound_to 10162
  139.8401  143.7576  152.3180 LP  0  0  0  0  0  0  0  0  0  0  0  0  # atno 17343 bound_to 10162
  156.0810  130.5821  150.9563 LP  0  0  0  0  0  0  0  0  0  0  0  0  # atno 17370 bound_to 10713
  157.6285  131.0923  150.8487 LP  0  0  0  0  0  0  0  0  0  0  0  0  # atno 17371 bound_to 10713
  139.8708  134.9738  156.4822 LP  0  0  0  0  0  0  0  0  0  0  0  0  # atno 17394 bound_to 11000
  140.8663  133.8022  155.9317 LP  0  0  0  0  0  0  0  0  0  0  0  0  # atno 17395 bound_to 11000

$$$$
