AV-unprocessed.smi:3348|AV-procd|sdf|12927|dock10
  -GOLD-   2272019353D 1   1.00000     0.00000
 Structure written by MMmdl.
 46 47  0  0  0  0  0  0  0  0  1 V2000
  147.2027  140.8422  153.6343 C   0  0  0  0  0  0  0  0  0  0  0  0
  147.3046  139.3697  153.2007 C   0  0  2  0  0  0  0  0  0  0  0  0
  146.4752  138.4250  154.1049 C   0  0  0  0  0  0  0  0  0  0  0  0
  145.9458  137.2746  153.3944 N   0  0  0  0  0  0  0  0  0  0  0  0
  145.0027  137.2459  152.3882 C   0  0  0  0  0  0  0  0  0  0  0  0
  144.8186  135.9379  152.0415 C   0  0  0  0  0  0  0  0  0  0  0  0
  145.7007  135.2316  152.9065 C   0  0  0  0  0  0  0  0  0  0  0  0
  146.3707  136.0338  153.7179 N   0  0  0  0  0  0  0  0  0  0  0  0
  148.7176  138.9810  153.1547 N   0  0  0  0  0  0  0  0  0  0  0  0
  149.3869  138.8813  154.4516 C   0  0  0  0  0  0  0  0  0  0  0  0
  150.1437  140.1725  154.7792 C   0  0  0  0  0  0  0  0  0  0  0  0
  150.9111  139.9643  155.9554 O   0  0  0  0  0  0  0  0  0  0  0  0
  150.2074  140.1893  157.1724 C   0  0  2  0  0  0  0  0  0  0  0  0
  149.8254  141.6793  157.3040 C   0  0  0  0  0  0  0  0  0  0  0  0
  151.0681  142.5776  157.4201 C   0  0  0  0  0  0  0  0  0  0  0  0
  151.9684  142.1347  158.5835 C   0  0  0  0  0  0  0  0  0  0  0  0
  152.3554  140.6524  158.4588 C   0  0  0  0  0  0  0  0  0  0  0  0
  151.1096  139.7504  158.3474 C   0  0  2  0  0  0  0  0  0  0  0  0
  151.4856  138.2630  158.2604 C   0  0  0  0  0  0  0  0  0  0  0  0
  146.1785  141.2102  153.5737 H   0  0  0  0  0  0  0  0  0  0  0  0
  147.8103  141.4829  152.9941 H   0  0  0  0  0  0  0  0  0  0  0  0
  147.5453  140.9769  154.6610 H   0  0  0  0  0  0  0  0  0  0  0  0
  146.8984  139.3087  152.1902 H   0  0  0  0  0  0  0  0  0  0  0  0
  147.0749  138.0474  154.9333 H   0  0  0  0  0  0  0  0  0  0  0  0
  145.6389  138.9684  154.5468 H   0  0  0  0  0  0  0  0  0  0  0  0
  144.5480  138.1480  152.0061 H   0  0  0  0  0  0  0  0  0  0  0  0
  144.1542  135.5451  151.2862 H   0  0  0  0  0  0  0  0  0  0  0  0
  145.8718  134.1671  152.9698 H   0  0  0  0  0  0  0  0  0  0  0  0
  148.8116  138.1015  152.6571 H   0  0  0  0  0  0  0  0  0  0  0  0
  148.6774  138.6636  155.2496 H   0  0  0  0  0  0  0  0  0  0  0  0
  150.0988  138.0557  154.4276 H   0  0  0  0  0  0  0  0  0  0  0  0
  150.8003  140.4219  153.9457 H   0  0  0  0  0  0  0  0  0  0  0  0
  149.4496  141.0048  154.9076 H   0  0  0  0  0  0  0  0  0  0  0  0
  149.3016  139.5802  157.1927 H   0  0  0  0  0  0  0  0  0  0  0  0
  149.2123  142.0004  156.4625 H   0  0  0  0  0  0  0  0  0  0  0  0
  149.2059  141.8119  158.1919 H   0  0  0  0  0  0  0  0  0  0  0  0
  151.6323  142.5446  156.4871 H   0  0  0  0  0  0  0  0  0  0  0  0
  150.7639  143.6153  157.5603 H   0  0  0  0  0  0  0  0  0  0  0  0
  152.8667  142.7522  158.6144 H   0  0  0  0  0  0  0  0  0  0  0  0
  151.4492  142.2978  159.5289 H   0  0  0  0  0  0  0  0  0  0  0  0
  152.9930  140.5138  157.5845 H   0  0  0  0  0  0  0  0  0  0  0  0
  152.9521  140.3589  159.3230 H   0  0  0  0  0  0  0  0  0  0  0  0
  150.5333  139.8772  159.2651 H   0  0  0  0  0  0  0  0  0  0  0  0
  152.0855  138.0536  157.3742 H   0  0  0  0  0  0  0  0  0  0  0  0
  150.5951  137.6353  158.2151 H   0  0  0  0  0  0  0  0  0  0  0  0
  152.0628  137.9532  159.1319 H   0  0  0  0  0  0  0  0  0  0  0  0
  1  2  1  0  0  0  0
  1 20  1  0  0  0  0
  1 21  1  0  0  0  0
  1 22  1  0  0  0  0
  2  3  1  0  0  0  0
  2  9  1  0  0  0  0
  2 23  1  0  0  0  0
  3  4  1  0  0  0  0
  3 24  1  0  0  0  0
  3 25  1  0  0  0  0
  4  8  1  0  0  0  0
  4  5  1  0  0  0  0
  5  6  2  0  0  0  0
  5 26  1  0  0  0  0
  6  7  1  0  0  0  0
  6 27  1  0  0  0  0
  7  8  2  0  0  0  0
  7 28  1  0  0  0  0
  9 10  1  0  0  0  0
  9 29  1  0  0  0  0
 10 11  1  0  0  0  0
 10 30  1  0  0  0  0
 10 31  1  0  0  0  0
 11 12  1  0  0  0  0
 11 32  1  0  0  0  0
 11 33  1  0  0  0  0
 12 13  1  0  0  0  0
 13 18  1  0  0  0  0
 13 14  1  0  0  0  0
 13 34  1  0  0  0  0
 14 15  1  0  0  0  0
 14 35  1  0  0  0  0
 14 36  1  0  0  0  0
 15 16  1  0  0  0  0
 15 37  1  0  0  0  0
 15 38  1  0  0  0  0
 16 17  1  0  0  0  0
 16 39  1  0  0  0  0
 16 40  1  0  0  0  0
 17 18  1  0  0  0  0
 17 41  1  0  0  0  0
 17 42  1  0  0  0  0
 18 19  1  0  0  0  0
 18 43  1  0  0  0  0
 19 44  1  0  0  0  0
 19 45  1  0  0  0  0
 19 46  1  0  0  0  0
M  END
> <s_m_source_file>
AV-unprocessed.smi

> <i_m_source_file_index>
3348

> <i_lp_mmshare_version>
43012

> <i_f3d_flags>
0

> <s_epik_input>
bjFbY0hdW2NIXVtjSF1uMVtDSDJdW0NAQEhdKFtDSDNdKVtOSF1bQ0gyXVtDSDJdT1tDQEBIXTJbQ0gyXVtDSDJdW0NIMl1bQ0gyXVtDQEhdMltDSDNd

> <s_epik_cmdline>
J2VwaWtfcHl0aG9uJywgJy1waCcsICc3LjAnLCAnLXRuJywgJzgnLCAnLW1hJywgJzIwMCcsICctbWV0YWxfYmluZGluZycsICctaW1hZScsICc8aW5maWxlLm1hZT4nLCAnLW9tYWUnLCAnPG91dGZpbGUubWFlPic=

> <r_lp_tautomer_probability>
1

> <r_epik_Ionization_Penalty>
2.46945

> <r_epik_Ionization_Penalty_Charging>
0

> <r_epik_Ionization_Penalty_Neutral>
2.46945

> <r_epik_State_Penalty>
2.6322

> <r_epik_Charging_Adjusted_Penalty>
2.6322

> <i_epik_Tot_Q>
0

> <i_epik_Tot_abs_Q>
0

> <r_epik_Metal_State_Penalty>
2.63217

> <b_epik_Metal_Only>
0

> <s_lp_Force_Field>
OPLS_2005

> <r_lp_Energy>
16.5117

> <b_lp_Chiralities_Consistent>
1

> <s_lp_Variant>
AV-unprocessed.smi:3348-13

> <Gold.Version>
5.8.1

> <Gold.Id.Protein>
6NUR|6NUR_protein|mol2

> <Gold.PLP.Fitness>
35.4376

> <Gold.PLP.PLP>
-28.1242

> <Gold.PLP.part.hbond>
-1.6240

> <Gold.PLP.part.metal>
0.0000

> <Gold.PLP.part.buried>
-2.8669

> <Gold.PLP.part.nonpolar>
-24.0496

> <Gold.PLP.part.repulsive>
0.0960

> <Gold.PLP.ligand.clash>
0.0000

> <Gold.PLP.ligand.torsion>
0.8724

> <Gold.PLP.Chemscore.Hbond>
1.0000

> <Gold.PLP.Chemscore.CHOScore>
2.0000

> <Gold.PLP.Chemscore.Metal>
0.0000

> <Gold.Chemscore.Hbonds>
donor molecule, donor type, donor heavy atom, donor atom, acceptor molecule, acceptor atom, score
      L1  H     9    29       P1  7948  1.00
      L1  C     5    26       P1 10171  0.97
      L1  C     5    26       P1 10175  1.00

> <Gold.PLP.Chemscore.Internal.Correction>
0.0583

> <Gold.Rescore>
     Score         DG    S(hbond)    S(metal)    S(lipo)     H(rot)  DE(clash)    DE(int)     intcor
     13.79     -14.52       0.99        0.00      86.63       1.72       0.11       0.61       ----

> <Gold.Chemscore.Fitness>
13.7906

> <Gold.Chemscore.DG>
-14.5152

> <Gold.Chemscore.ZeroCoef>
-5.4800

> <Gold.Chemscore.Hbond>
0.9918

> <Gold.Chemscore.Metal>
0.0000

> <Gold.Chemscore.Lipo>
86.6264

> <Gold.Chemscore.Internal_Hbond>
0.0000

> <Gold.Chemscore.DEClash>
0.1124

> <Gold.Chemscore.DEInternal>
0.6122

> <Gold.Chemscore.Rot>
1.7237

> <Gold.Chemscore.Internal.Correction>
   9.000000E+99

> <Gold.Chemscore.Hbonds>
donor molecule, donor type, donor heavy atom, donor atom, acceptor molecule, acceptor atom, score
      L1  H     9    29       P1  7948  0.95

> <Gold.Chemscore.Hbond.Weighted>
-3.3125

> <Gold.Chemscore.Metal.Weighted>
-0.0000

> <Gold.Chemscore.Lipo.Weighted>
-10.1353

> <Gold.Chemscore.Internal_Hbond.Weighted>
0.0000

> <Gold.Chemscore.DEClash.Weighted>
0.1124

> <Gold.Chemscore.DEInternal.Weighted>
0.6122

> <Gold.Chemscore.Rot.Weighted>
4.4126

> <Gold.Chemscore.Internal.Correction.Weighted>
   9.000000E+99

> <Gold.Protein.RotatedTorsions>
[ 6907 6896 6895 6894 ] final  -74.37 input  -60.11 | X-H torsion
[ 7974 7965 7964 7962 ] final  111.66 input  175.53 | X-H torsion
[ 8008 7997 7996 7995 ] final  -71.00 input   59.86 | X-H torsion
[ 10167 10162 10161 10158 ] final  -33.91 input  -65.29 | X-H torsion
[ 10718 10713 10712 10709 ] final   82.94 input   66.30 | X-H torsion
[ 10763 10752 10751 10750 ] final   26.67 input  -60.55 | X-H torsion
[ 11005 11000 10999 10996 ] final   12.51 input  -57.11 | X-H torsion

> <Gold.Protein.ActiveResidues>
 VAL166  LYS551  ARG553  GLY616  TRP617  ASP618  TYR619  PRO620  LYS621  CYS622 
 ASP623  PHE694  ASN695  SER759  ASP760  ASP761  ALA762  ILE779  LEU786  VAL792 
 PHE793  MET794  SER795  GLU796  ALA797  LYS798  CYS799  TRP800  GLU811  SER814 

> <Gold.Protein.RotatedAtoms>
  150.7095  134.4879  159.5501 H   0  0  0  0  0  0  0  0  0  0  0  0  # atno 6907 bound_to 6896
  152.2502  134.8137  160.0456 H   0  0  0  0  0  0  0  0  0  0  0  0  # atno 6908 bound_to 6896
  151.8887  133.3476  159.3827 H   0  0  0  0  0  0  0  0  0  0  0  0  # atno 6909 bound_to 6896
  145.2394  139.2785  143.4126 H   0  0  0  0  0  0  0  0  0  0  0  0  # atno 7974 bound_to 7965
  154.5054  140.0824  156.7884 H   0  0  0  0  0  0  0  0  0  0  0  0  # atno 8008 bound_to 7997
  155.3905  140.3432  155.4233 H   0  0  0  0  0  0  0  0  0  0  0  0  # atno 8009 bound_to 7997
  156.1509  140.1558  156.8759 H   0  0  0  0  0  0  0  0  0  0  0  0  # atno 8010 bound_to 7997
  140.7196  143.3586  151.2008 H   0  0  0  0  0  0  0  0  0  0  0  0  # atno 10167 bound_to 10162
  157.6868  131.0070  150.2450 H   0  0  0  0  0  0  0  0  0  0  0  0  # atno 10718 bound_to 10713
  153.0607  135.6555  154.0470 H   0  0  0  0  0  0  0  0  0  0  0  0  # atno 10763 bound_to 10752
  154.0139  135.2926  155.3390 H   0  0  0  0  0  0  0  0  0  0  0  0  # atno 10764 bound_to 10752
  154.6943  135.5270  153.8505 H   0  0  0  0  0  0  0  0  0  0  0  0  # atno 10765 bound_to 10752
  140.4912  134.0838  155.7772 H   0  0  0  0  0  0  0  0  0  0  0  0  # atno 11005 bound_to 11000
  146.3332  140.2753  142.8607 LP  0  0  0  0  0  0  0  0  0  0  0  0  # atno 17320 bound_to 7965
  144.9603  140.8268  143.5518 LP  0  0  0  0  0  0  0  0  0  0  0  0  # atno 17321 bound_to 7965
  139.7133  143.9341  152.2956 LP  0  0  0  0  0  0  0  0  0  0  0  0  # atno 17342 bound_to 10162
  139.9073  144.6877  150.8600 LP  0  0  0  0  0  0  0  0  0  0  0  0  # atno 17343 bound_to 10162
  156.3057  130.3765  149.7708 LP  0  0  0  0  0  0  0  0  0  0  0  0  # atno 17370 bound_to 10713
  156.5324  130.8263  151.3241 LP  0  0  0  0  0  0  0  0  0  0  0  0  # atno 17371 bound_to 10713
  141.1483  133.9015  157.2161 LP  0  0  0  0  0  0  0  0  0  0  0  0  # atno 17394 bound_to 11000
  139.9768  135.0111  156.9651 LP  0  0  0  0  0  0  0  0  0  0  0  0  # atno 17395 bound_to 11000

$$$$
