#       Name:                AV-unprocessed.smi:3149
#       Creating user name   scv26
#       Creation time:       Fri Mar 27 17:40:23 2020


#       File generated by GOLD software.
#

@<TRIPOS>MOLECULE
AV-unprocessed.smi:3149
    41    42     1
SMALL
NO_CHARGES


@<TRIPOS>ATOM
      1 ****        -1.9179  -1.7904  -2.4105 C.3            1 S1                 0.0000
      2 ****        -1.5053  -1.0407  -1.1332 C.3            1 S1                 0.0000
      3 ****        -0.0292  -0.9175  -1.1143 N.4            1 S1                 1.0000
      4 ****         0.4819   0.4676  -1.0890 C.3            1 S1                 0.0000
      5 ****         2.0068   0.4868  -0.9625 C.2            1 S1                 0.0000
      6 ****         2.6963  -0.2592  -1.6576 O.2            1 S1                 0.0000
      7 ****         2.5746   1.4269  -0.0998 N.am           1 S1                 0.0000
      8 ****         2.0290   2.7703   0.0273 C.3            1 S1                 0.0000
      9 ****         3.4643   3.2073   0.3371 C.3            1 S1                 0.0000
     10 ****         3.9400   1.8933  -0.2905 C.3            1 S1                 0.0000
     11 ****        -2.0065  -1.7371   0.1613 C.3            1 S1                 0.0000
     12 ****        -3.5416  -1.8467   0.2366 C.3            1 S1                 0.0000
     13 ****        -1.4968  -1.0737   1.3566 N.pl3          1 S1                 0.0000
     14 ****        -0.6339  -1.5773   2.3086 C.2            1 S1                 0.0000
     15 ****        -0.4204  -0.5918   3.2290 C.2            1 S1                 0.0000
     16 ****        -1.2089   0.4924   2.7536 C.2            1 S1                 0.0000
     17 ****        -1.8506   0.2019   1.6336 N.2            1 S1                 0.0000
     18 ****        -3.0004  -1.8147  -2.5334 H              1 S1                 0.0000
     19 ****        -1.5581  -2.8199  -2.4022 H              1 S1                 0.0000
     20 ****        -1.5094  -1.3039  -3.2970 H              1 S1                 0.0000
     21 ****        -1.9456  -0.0432  -1.1846 H              1 S1                 0.0000
     22 ****         0.3165  -1.3939  -0.2936 H              1 S1                 0.0000
     23 ****         0.1904   0.9851  -2.0036 H              1 S1                 0.0000
     24 ****         0.0275   0.9980  -0.2522 H              1 S1                 0.0000
     25 ****         1.6477   3.1782  -0.9111 H              1 S1                 0.0000
     26 ****         1.3302   2.8906   0.8558 H              1 S1                 0.0000
     27 ****         3.7860   4.1010  -0.1985 H              1 S1                 0.0000
     28 ****         3.6744   3.2773   1.4059 H              1 S1                 0.0000
     29 ****         4.6804   1.3497   0.2972 H              1 S1                 0.0000
     30 ****         4.2271   1.9982  -1.3389 H              1 S1                 0.0000
     31 ****        -1.6081  -2.7529   0.1734 H              1 S1                 0.0000
     32 ****        -3.9393  -2.4900  -0.5477 H              1 S1                 0.0000
     33 ****        -4.0183  -0.8705   0.1410 H              1 S1                 0.0000
     34 ****        -3.8556  -2.2764   1.1885 H              1 S1                 0.0000
     35 ****        -0.2440  -2.5830   2.2516 H              1 S1                 0.0000
     36 ****         0.2030  -0.6389   4.1097 H              1 S1                 0.0000
     37 ****        -1.3318   1.4750   3.1848 H              1 S1                 0.0000
     38 ****         0.3469  -1.3775  -1.9311 H              1 S1                 0.0000
     39 ****         2.2602  -0.8810  -2.3082 LP             1 S1                 0.0000
     40 ****         3.6924  -0.2435  -1.5718 LP             1 S1                 0.0000
     41 ****        -2.4617   0.7942   1.1084 LP             1 S1                 0.0000
@<TRIPOS>BOND
    1    1    2 1     
    2    1   18 1     
    3    1   19 1     
    4    1   20 1     
    5    2    3 1     
    6    2   11 1     
    7    2   21 1     
    8    3    4 1     
    9    3   22 1     
   10    3   38 1     
   11    4    5 1     
   12    4   23 1     
   13    4   24 1     
   14    5    6 2     
   15    5    7 am    
   16    7   10 1     
   17    7    8 1     
   18    8    9 1     
   19    8   25 1     
   20    8   26 1     
   21    9   10 1     
   22    9   27 1     
   23    9   28 1     
   24   10   29 1     
   25   10   30 1     
   26   11   12 1     
   27   11   13 1     
   28   11   31 1     
   29   12   32 1     
   30   12   33 1     
   31   12   34 1     
   32   13   17 1     
   33   13   14 1     
   34   14   15 2     
   35   14   35 1     
   36   15   16 1     
   37   15   36 1     
   38   16   17 2     
   39   16   37 1     
   40    6   39 1     
   41    6   40 1     
   42   17   41 1     
@<TRIPOS>SUBSTRUCTURE
      1 S1             1
@<TRIPOS>SET
LONE_PAIRS      STATIC     ATOMS    <user>   **** ""
3 39 40 41
DONOR_HYDROGENS      STATIC     ATOMS    <user>   **** ""
2 22 38
ATOM$BLUE        STATIC     ATOMS    COLORGROUP SYSTEM
3 39 40 41
ATOM$RED        STATIC     ATOMS    COLORGROUP SYSTEM
2 22 38
