AV-unprocessed.smi:2547|AV-procd|sdf|10005|dock2
  -GOLD-   2272014 53D 1   1.00000     0.00000
 Structure written by MMmdl.
 44 45  0  0  0  0  0  0  0  0  2 V2000
  146.5496  142.7035  154.0025 C   0  0  0  0  0  0  0  0  0  0  0  0
  147.6399  142.2499  154.8923 N   0  3  2  0  0  0  0  0  0  0  0  0
  148.6553  141.4401  154.1742 C   0  0  0  0  0  0  0  0  0  0  0  0
  149.8375  141.0934  155.0947 C   0  0  0  0  0  0  0  0  0  0  0  0
  149.3596  140.3727  156.3665 C   0  0  1  0  0  0  0  0  0  0  0  0
  150.4871  140.1614  157.2712 N   0  0  0  0  0  0  0  0  0  0  0  0
  151.6719  139.6167  156.9543 C   0  0  0  0  0  0  0  0  0  0  0  0
  151.9190  139.2282  155.8090 O   0  0  0  0  0  0  0  0  0  0  0  0
  152.4870  139.5841  158.0805 N   0  0  0  0  0  0  0  0  0  0  0  0
  152.7111  140.6317  158.8205 C   0  0  0  0  0  0  0  0  0  0  0  0
  153.5749  140.5226  159.9838 C   0  0  0  0  0  0  0  0  0  0  0  0
  153.8246  141.5911  160.7680 C   0  0  0  0  0  0  0  0  0  0  0  0
  153.2401  142.8840  160.4774 C   0  0  0  0  0  0  0  0  0  0  0  0
  152.4343  143.0234  159.4075 C   0  0  0  0  0  0  0  0  0  0  0  0
  151.8784  144.2583  159.1333 N   0  0  0  0  0  0  0  0  0  0  0  0
  151.0039  144.4507  157.9889 C   0  0  0  0  0  0  0  0  0  0  0  0
  151.8477  145.3076  160.1382 C   0  0  0  0  0  0  0  0  0  0  0  0
  152.1793  141.9163  158.6001 N   0  0  0  0  0  0  0  0  0  0  0  0
  148.2780  141.2126  157.0661 C   0  0  0  0  0  0  0  0  0  0  0  0
  147.1305  141.5568  156.1019 C   0  0  0  0  0  0  0  0  0  0  0  0
  145.9872  141.8556  153.6090 H   0  0  0  0  0  0  0  0  0  0  0  0
  146.9498  143.2694  153.1606 H   0  0  0  0  0  0  0  0  0  0  0  0
  145.8582  143.3530  154.5405 H   0  0  0  0  0  0  0  0  0  0  0  0
  148.1941  140.5268  153.7950 H   0  0  0  0  0  0  0  0  0  0  0  0
  149.0196  141.9946  153.3084 H   0  0  0  0  0  0  0  0  0  0  0  0
  150.5527  140.4692  154.5573 H   0  0  0  0  0  0  0  0  0  0  0  0
  150.3669  142.0090  155.3632 H   0  0  0  0  0  0  0  0  0  0  0  0
  148.9150  139.4202  156.0723 H   0  0  0  0  0  0  0  0  0  0  0  0
  150.3578  140.4558  158.2287 H   0  0  0  0  0  0  0  0  0  0  0  0
  154.0399  139.5848  160.2519 H   0  0  0  0  0  0  0  0  0  0  0  0
  154.4705  141.4815  161.6265 H   0  0  0  0  0  0  0  0  0  0  0  0
  153.4536  143.7267  161.1193 H   0  0  0  0  0  0  0  0  0  0  0  0
  151.2876  143.7864  157.1719 H   0  0  0  0  0  0  0  0  0  0  0  0
  151.0586  145.4768  157.6243 H   0  0  0  0  0  0  0  0  0  0  0  0
  149.9709  144.2352  158.2625 H   0  0  0  0  0  0  0  0  0  0  0  0
  152.7115  145.2326  160.7996 H   0  0  0  0  0  0  0  0  0  0  0  0
  150.9447  145.2245  160.7434 H   0  0  0  0  0  0  0  0  0  0  0  0
  151.8632  146.2937  159.6731 H   0  0  0  0  0  0  0  0  0  0  0  0
  147.8854  140.6733  157.9291 H   0  0  0  0  0  0  0  0  0  0  0  0
  148.7153  142.1353  157.4511 H   0  0  0  0  0  0  0  0  0  0  0  0
  146.4067  142.1944  156.6113 H   0  0  0  0  0  0  0  0  0  0  0  0
  146.6015  140.6485  155.8080 H   0  0  0  0  0  0  0  0  0  0  0  0
  148.1113  143.0831  155.2150 H   0  0  0  0  0  0  0  0  0  0  0  0
  151.5679  142.0858  157.8144 H   0  0  0  0  0  0  0  0  0  0  0  0
  1  2  1  0  0  0  0
  1 21  1  0  0  0  0
  1 22  1  0  0  0  0
  1 23  1  0  0  0  0
  2 20  1  0  0  0  0
  2  3  1  0  0  0  0
  2 43  1  0  0  0  0
  3  4  1  0  0  0  0
  3 24  1  0  0  0  0
  3 25  1  0  0  0  0
  4  5  1  0  0  0  0
  4 26  1  0  0  0  0
  4 27  1  0  0  0  0
  5  6  1  0  0  0  0
  5 19  1  0  0  0  0
  5 28  1  0  0  0  0
  6  7  1  0  0  0  0
  6 29  1  0  0  0  0
  7  8  2  0  0  0  0
  7  9  1  0  0  0  0
  9 10  2  0  0  0  0
 10 18  1  0  0  0  0
 10 11  1  0  0  0  0
 11 12  2  0  0  0  0
 11 30  1  0  0  0  0
 12 13  1  0  0  0  0
 12 31  1  0  0  0  0
 13 14  2  0  0  0  0
 13 32  1  0  0  0  0
 14 15  1  0  0  0  0
 14 18  1  0  0  0  0
 15 16  1  0  0  0  0
 15 17  1  0  0  0  0
 16 33  1  0  0  0  0
 16 34  1  0  0  0  0
 16 35  1  0  0  0  0
 17 36  1  0  0  0  0
 17 37  1  0  0  0  0
 17 38  1  0  0  0  0
 18 44  1  0  0  0  0
 19 20  1  0  0  0  0
 19 39  1  0  0  0  0
 19 40  1  0  0  0  0
 20 41  1  0  0  0  0
 20 42  1  0  0  0  0
M  CHG  1   2   1
M  END
> <s_m_source_file>
AV-unprocessed.smi

> <i_m_source_file_index>
2547

> <i_lp_mmshare_version>
43012

> <i_f3d_flags>
0

> <s_epik_input>
W0NIM11OMVtDSDJdW0NIMl1bQ0hdKFtDSDJdW0NIMl0xKVtOSF1DKD1PKVtOSF1jMltjSF1bY0hdW2NIXWMobjIpTihbQ0gzXSlbQ0gzXQ==

> <s_epik_cmdline>
J2VwaWtfcHl0aG9uJywgJy1waCcsICc3LjAnLCAnLXRuJywgJzgnLCAnLW1hJywgJzIwMCcsICctbWV0YWxfYmluZGluZycsICctaW1hZScsICc8aW5maWxlLm1hZT4nLCAnLW9tYWUnLCAnPG91dGZpbGUubWFlPic=

> <r_lp_tautomer_probability>
0.999994

> <r_epik_Ionization_Penalty>
1.33208

> <r_epik_Ionization_Penalty_Charging>
1.33208

> <r_epik_Ionization_Penalty_Neutral>
6.0327e-08

> <r_epik_State_Penalty>
3.49719

> <r_epik_Charging_Adjusted_Penalty>
4.82927

> <i_epik_Tot_Q>
1

> <i_epik_Tot_abs_Q>
1

> <r_epik_Metal_State_Penalty>
3.51567

> <b_epik_Metal_Only>
1

> <s_lp_Force_Field>
OPLS_2005

> <r_lp_Energy>
40.9112

> <b_lp_Chiralities_Consistent>
1

> <s_lp_Variant>
AV-unprocessed.smi:2547-5

> <Gold.Version>
5.8.1

> <Gold.Id.Protein>
6NUR|6NUR_protein|mol2

> <Gold.PLP.Fitness>
48.4213

> <Gold.PLP.PLP>
-43.5017

> <Gold.PLP.part.hbond>
-1.0000

> <Gold.PLP.part.metal>
0.0000

> <Gold.PLP.part.buried>
-4.7680

> <Gold.PLP.part.nonpolar>
-37.6102

> <Gold.PLP.part.repulsive>
0.2300

> <Gold.PLP.ligand.clash>
0.0000

> <Gold.PLP.ligand.torsion>
0.6002

> <Gold.PLP.Chemscore.Hbond>
2.0000

> <Gold.PLP.Chemscore.CHOScore>
0.0000

> <Gold.PLP.Chemscore.Metal>
0.0000

> <Gold.Chemscore.Hbonds>
donor molecule, donor type, donor heavy atom, donor atom, acceptor molecule, acceptor atom, score
      L1  H     2    43       P1  8028  2.00

> <Gold.PLP.Chemscore.Internal.Correction>
0.1200

> <Gold.Rescore>
     Score         DG    S(hbond)    S(metal)    S(lipo)     H(rot)  DE(clash)    DE(int)     intcor
     12.07     -15.64       0.94        0.00      81.77       1.00       0.00       3.57       ----

> <Gold.Chemscore.Fitness>
12.0680

> <Gold.Chemscore.DG>
-15.6385

> <Gold.Chemscore.ZeroCoef>
-5.4800

> <Gold.Chemscore.Hbond>
0.9434

> <Gold.Chemscore.Metal>
0.0000

> <Gold.Chemscore.Lipo>
81.7748

> <Gold.Chemscore.Internal_Hbond>
0.0000

> <Gold.Chemscore.DEClash>
0.0029

> <Gold.Chemscore.DEInternal>
3.5676

> <Gold.Chemscore.Rot>
1.0000

> <Gold.Chemscore.Internal.Correction>
   9.000000E+99

> <Gold.Chemscore.Hbonds>
donor molecule, donor type, donor heavy atom, donor atom, acceptor molecule, acceptor atom, score
      L1  H     2    43       P1  8028  0.93

> <Gold.Chemscore.Hbond.Weighted>
-3.1509

> <Gold.Chemscore.Metal.Weighted>
-0.0000

> <Gold.Chemscore.Lipo.Weighted>
-9.5677

> <Gold.Chemscore.Internal_Hbond.Weighted>
0.0000

> <Gold.Chemscore.DEClash.Weighted>
0.0029

> <Gold.Chemscore.DEInternal.Weighted>
3.5676

> <Gold.Chemscore.Rot.Weighted>
2.5600

> <Gold.Chemscore.Internal.Correction.Weighted>
   9.000000E+99

> <Gold.Protein.RotatedTorsions>
[ 6907 6896 6895 6894 ] final  -58.32 input  -60.11 | X-H torsion
[ 7974 7965 7964 7962 ] final -126.78 input  175.53 | X-H torsion
[ 8008 7997 7996 7995 ] final -138.61 input   59.86 | X-H torsion
[ 10167 10162 10161 10158 ] final -139.00 input  -65.29 | X-H torsion
[ 10718 10713 10712 10709 ] final  -41.14 input   66.30 | X-H torsion
[ 10763 10752 10751 10750 ] final  167.75 input  -60.55 | X-H torsion
[ 11005 11000 10999 10996 ] final   57.44 input  -57.11 | X-H torsion

> <Gold.Protein.ActiveResidues>
 VAL166  LYS551  ARG553  GLY616  TRP617  ASP618  TYR619  PRO620  LYS621  CYS622 
 ASP623  PHE694  ASN695  SER759  ASP760  ASP761  ALA762  ILE779  LEU786  VAL792 
 PHE793  MET794  SER795  GLU796  ALA797  LYS798  CYS799  TRP800  GLU811  SER814 

> <Gold.Protein.RotatedAtoms>
  150.8016  134.7113  159.6605 H   0  0  0  0  0  0  0  0  0  0  0  0  # atno 6907 bound_to 6896
  152.4133  134.6082  160.0028 H   0  0  0  0  0  0  0  0  0  0  0  0  # atno 6908 bound_to 6896
  151.6319  133.3294  159.3147 H   0  0  0  0  0  0  0  0  0  0  0  0  # atno 6909 bound_to 6896
  144.9837  140.7666  143.4596 H   0  0  0  0  0  0  0  0  0  0  0  0  # atno 7974 bound_to 7965
  155.4311  140.0525  157.3018 H   0  0  0  0  0  0  0  0  0  0  0  0  # atno 8008 bound_to 7997
  154.4859  140.2100  155.9614 H   0  0  0  0  0  0  0  0  0  0  0  0  # atno 8009 bound_to 7997
  156.1274  140.3178  155.8303 H   0  0  0  0  0  0  0  0  0  0  0  0  # atno 8010 bound_to 7997
  139.8423  143.7306  152.2662 H   0  0  0  0  0  0  0  0  0  0  0  0  # atno 10167 bound_to 10162
  156.2736  130.4209  149.8412 H   0  0  0  0  0  0  0  0  0  0  0  0  # atno 10718 bound_to 10713
  154.3584  135.2753  155.2334 H   0  0  0  0  0  0  0  0  0  0  0  0  # atno 10763 bound_to 10752
  154.4533  135.5925  153.6209 H   0  0  0  0  0  0  0  0  0  0  0  0  # atno 10764 bound_to 10752
  152.9845  135.6047  154.3802 H   0  0  0  0  0  0  0  0  0  0  0  0  # atno 10765 bound_to 10752
  140.0453  134.5815  155.9331 H   0  0  0  0  0  0  0  0  0  0  0  0  # atno 11005 bound_to 11000
  145.2383  139.2083  143.5006 LP  0  0  0  0  0  0  0  0  0  0  0  0  # atno 17320 bound_to 7965
  146.3415  140.2274  142.8592 LP  0  0  0  0  0  0  0  0  0  0  0  0  # atno 17321 bound_to 7965
  139.7547  144.7524  151.0454 LP  0  0  0  0  0  0  0  0  0  0  0  0  # atno 17342 bound_to 10162
  140.7797  143.4820  151.0006 LP  0  0  0  0  0  0  0  0  0  0  0  0  # atno 17343 bound_to 10162
  156.5884  130.8496  151.3401 LP  0  0  0  0  0  0  0  0  0  0  0  0  # atno 17370 bound_to 10713
  157.7292  130.9667  150.1776 LP  0  0  0  0  0  0  0  0  0  0  0  0  # atno 17371 bound_to 10713
  141.1903  133.6568  156.5408 LP  0  0  0  0  0  0  0  0  0  0  0  0  # atno 17394 bound_to 11000
  140.4004  134.7362  157.4776 LP  0  0  0  0  0  0  0  0  0  0  0  0  # atno 17395 bound_to 11000

$$$$
