AV-unprocessed.smi:3142|AV-procd|sdf|11973|dock3
  -GOLD-   2272017373D 1   1.00000     0.00000
 Structure written by MMmdl.
 37 39  0  0  0  0  0  0  0  0  2 V2000
  148.4521  141.7026  154.9846 C   0  0  0  0  0  0  0  0  0  0  0  0
  149.9282  141.3188  155.1987 C   0  0  1  0  0  0  0  0  0  0  0  0
  150.3557  141.4256  156.6695 C   0  0  0  0  0  0  0  0  0  0  0  0
  150.6217  140.4125  157.3172 O   0  0  0  0  0  0  0  0  0  0  0  0
  150.4303  142.6667  157.1758 N   0  0  0  0  0  0  0  0  0  0  0  0
  150.8379  143.0113  158.5335 C   0  0  0  0  0  0  0  0  0  0  0  0
  150.8323  144.5111  158.7779 C   0  0  0  0  0  0  0  0  0  0  0  0
  152.1184  145.2982  158.8695 C   0  0  0  0  0  0  0  0  0  0  0  0
  151.2668  145.0951  160.1016 C   0  0  0  0  0  0  0  0  0  0  0  0
  152.1971  142.4255  158.8683 C   0  0  0  0  0  0  0  0  0  0  0  0
  152.3236  141.0279  159.4254 C   0  0  0  0  0  0  0  0  0  0  0  0
  152.6391  142.2227  160.2979 C   0  0  0  0  0  0  0  0  0  0  0  0
  150.2117  139.9685  154.6870 N   0  0  0  0  0  0  0  0  0  0  0  0
  151.3967  139.2764  154.7500 C   0  0  0  0  0  0  0  0  0  0  0  0
  151.1837  138.0740  154.1270 C   0  0  0  0  0  0  0  0  0  0  0  0
  149.8824  138.0829  153.7029 N   0  3  0  0  0  0  0  0  0  0  0  0
  149.2946  139.2355  154.0400 C   0  0  0  0  0  0  0  0  0  0  0  0
  148.2567  142.7180  155.3315 H   0  0  0  0  0  0  0  0  0  0  0  0
  147.7729  141.0349  155.5159 H   0  0  0  0  0  0  0  0  0  0  0  0
  148.1907  141.6635  153.9269 H   0  0  0  0  0  0  0  0  0  0  0  0
  150.5337  142.0205  154.6217 H   0  0  0  0  0  0  0  0  0  0  0  0
  150.1893  143.4384  156.5710 H   0  0  0  0  0  0  0  0  0  0  0  0
  150.1250  142.5640  159.2296 H   0  0  0  0  0  0  0  0  0  0  0  0
  150.0071  145.0238  158.2866 H   0  0  0  0  0  0  0  0  0  0  0  0
  153.0581  144.7520  158.8191 H   0  0  0  0  0  0  0  0  0  0  0  0
  152.1317  146.2910  158.4245 H   0  0  0  0  0  0  0  0  0  0  0  0
  150.7110  145.9515  160.4780 H   0  0  0  0  0  0  0  0  0  0  0  0
  151.6433  144.4133  160.8618 H   0  0  0  0  0  0  0  0  0  0  0  0
  152.9807  142.7280  158.1756 H   0  0  0  0  0  0  0  0  0  0  0  0
  151.4069  140.4809  159.6366 H   0  0  0  0  0  0  0  0  0  0  0  0
  153.1581  140.4228  159.0772 H   0  0  0  0  0  0  0  0  0  0  0  0
  153.6844  142.4146  160.5311 H   0  0  0  0  0  0  0  0  0  0  0  0
  151.9331  142.4622  161.0904 H   0  0  0  0  0  0  0  0  0  0  0  0
  152.2811  139.6814  155.2207 H   0  0  0  0  0  0  0  0  0  0  0  0
  151.8440  137.2363  153.9560 H   0  0  0  0  0  0  0  0  0  0  0  0
  148.2779  139.5165  153.8301 H   0  0  0  0  0  0  0  0  0  0  0  0
  149.4285  137.3282  153.2038 H   0  0  0  0  0  0  0  0  0  0  0  0
  1  2  1  0  0  0  0
  1 18  1  0  0  0  0
  1 19  1  0  0  0  0
  1 20  1  0  0  0  0
  2  3  1  0  0  0  0
  2 13  1  0  0  0  0
  2 21  1  0  0  0  0
  3  4  2  0  0  0  0
  3  5  1  0  0  0  0
  5  6  1  0  0  0  0
  5 22  1  0  0  0  0
  6  7  1  0  0  0  0
  6 10  1  0  0  0  0
  6 23  1  0  0  0  0
  7  9  1  0  0  0  0
  7  8  1  0  0  0  0
  7 24  1  0  0  0  0
  8  9  1  0  0  0  0
  8 25  1  0  0  0  0
  8 26  1  0  0  0  0
  9 27  1  0  0  0  0
  9 28  1  0  0  0  0
 10 12  1  0  0  0  0
 10 11  1  0  0  0  0
 10 29  1  0  0  0  0
 11 12  1  0  0  0  0
 11 30  1  0  0  0  0
 11 31  1  0  0  0  0
 12 32  1  0  0  0  0
 12 33  1  0  0  0  0
 13 17  1  0  0  0  0
 13 14  1  0  0  0  0
 14 15  2  0  0  0  0
 14 34  1  0  0  0  0
 15 16  1  0  0  0  0
 15 35  1  0  0  0  0
 16 17  2  0  0  0  0
 16 37  1  0  0  0  0
 17 36  1  0  0  0  0
M  CHG  1  16   1
M  END
> <s_m_source_file>
AV-unprocessed.smi

> <i_m_source_file_index>
3142

> <i_lp_mmshare_version>
43012

> <i_f3d_flags>
0

> <s_epik_input>
W2NIXTFuW2NIXVtjSF1uMVtDQEhdKFtDSDNdKUMoPU8pW05IXVtDSF0oW0NIXTJbQ0gyXVtDSDJdMilbQ0hdM1tDSDJdW0NIMl0z

> <s_epik_cmdline>
J2VwaWtfcHl0aG9uJywgJy1waCcsICc3LjAnLCAnLXRuJywgJzgnLCAnLW1hJywgJzIwMCcsICctbWV0YWxfYmluZGluZycsICctaW1hZScsICc8aW5maWxlLm1hZT4nLCAnLW9tYWUnLCAnPG91dGZpbGUubWFlPic=

> <r_lp_tautomer_probability>
1

> <r_epik_Ionization_Penalty>
0.513834

> <r_epik_Ionization_Penalty_Charging>
0

> <r_epik_Ionization_Penalty_Neutral>
0.513834

> <r_epik_State_Penalty>
0.521297

> <r_epik_Charging_Adjusted_Penalty>
0.521297

> <i_epik_Tot_Q>
1

> <i_epik_Tot_abs_Q>
1

> <r_epik_Metal_State_Penalty>
0.730424

> <b_epik_Metal_Only>
0

> <s_lp_Force_Field>
OPLS_2005

> <r_lp_Energy>
30.6007

> <b_lp_Chiralities_Consistent>
1

> <s_lp_Variant>
AV-unprocessed.smi:3142-4

> <Gold.Version>
5.8.1

> <Gold.Id.Protein>
6NUR|6NUR_protein|mol2

> <Gold.PLP.Fitness>
50.9697

> <Gold.PLP.PLP>
-42.8149

> <Gold.PLP.part.hbond>
-2.1567

> <Gold.PLP.part.metal>
0.0000

> <Gold.PLP.part.buried>
-1.8238

> <Gold.PLP.part.nonpolar>
-37.8901

> <Gold.PLP.part.repulsive>
0.0599

> <Gold.PLP.ligand.clash>
0.0000

> <Gold.PLP.ligand.torsion>
1.5113

> <Gold.PLP.Chemscore.Hbond>
3.0000

> <Gold.PLP.Chemscore.CHOScore>
0.0000

> <Gold.PLP.Chemscore.Metal>
0.0000

> <Gold.Chemscore.Hbonds>
donor molecule, donor type, donor heavy atom, donor atom, acceptor molecule, acceptor atom, score
      L1  H     5    22       P1  8028  0.99
      L1  H    16    37       P1  7948  2.00

> <Gold.PLP.Chemscore.Internal.Correction>
2.1774

> <Gold.Rescore>
     Score         DG    S(hbond)    S(metal)    S(lipo)     H(rot)  DE(clash)    DE(int)     intcor
     15.05     -19.00       1.97        0.00     101.49       1.92       0.50       3.45       ----

> <Gold.Chemscore.Fitness>
15.0466

> <Gold.Chemscore.DG>
-18.9964

> <Gold.Chemscore.ZeroCoef>
-5.4800

> <Gold.Chemscore.Hbond>
1.9656

> <Gold.Chemscore.Metal>
0.0000

> <Gold.Chemscore.Lipo>
101.4913

> <Gold.Chemscore.Internal_Hbond>
0.0000

> <Gold.Chemscore.DEClash>
0.4990

> <Gold.Chemscore.DEInternal>
3.4507

> <Gold.Chemscore.Rot>
1.9232

> <Gold.Chemscore.Internal.Correction>
   9.000000E+99

> <Gold.Chemscore.Hbonds>
donor molecule, donor type, donor heavy atom, donor atom, acceptor molecule, acceptor atom, score
      L1  H     5    22       P1  8028  0.91
      L1  H    16    37       P1  7948  0.92

> <Gold.Chemscore.Hbond.Weighted>
-6.5652

> <Gold.Chemscore.Metal.Weighted>
-0.0000

> <Gold.Chemscore.Lipo.Weighted>
-11.8745

> <Gold.Chemscore.Internal_Hbond.Weighted>
0.0000

> <Gold.Chemscore.DEClash.Weighted>
0.4990

> <Gold.Chemscore.DEInternal.Weighted>
3.4507

> <Gold.Chemscore.Rot.Weighted>
4.9233

> <Gold.Chemscore.Internal.Correction.Weighted>
   9.000000E+99

> <Gold.Protein.RotatedTorsions>
[ 6907 6896 6895 6894 ] final  -20.33 input  -60.11 | X-H torsion
[ 7974 7965 7964 7962 ] final    9.29 input  175.53 | X-H torsion
[ 8008 7997 7996 7995 ] final  160.80 input   59.86 | X-H torsion
[ 10167 10162 10161 10158 ] final  -54.28 input  -65.29 | X-H torsion
[ 10718 10713 10712 10709 ] final  -92.50 input   66.30 | X-H torsion
[ 10763 10752 10751 10750 ] final  154.55 input  -60.55 | X-H torsion
[ 11005 11000 10999 10996 ] final   43.02 input  -57.11 | X-H torsion

> <Gold.Protein.ActiveResidues>
 VAL166  LYS551  ARG553  GLY616  TRP617  ASP618  TYR619  PRO620  LYS621  CYS622 
 ASP623  PHE694  ASN695  SER759  ASP760  ASP761  ALA762  ILE779  LEU786  VAL792 
 PHE793  MET794  SER795  GLU796  ALA797  LYS798  CYS799  TRP800  GLU811  SER814 

> <Gold.Protein.RotatedAtoms>
  151.2497  135.0618  159.9056 H   0  0  0  0  0  0  0  0  0  0  0  0  # atno 6907 bound_to 6896
  152.5382  134.0345  159.8050 H   0  0  0  0  0  0  0  0  0  0  0  0  # atno 6908 bound_to 6896
  151.0551  133.5542  159.2670 H   0  0  0  0  0  0  0  0  0  0  0  0  # atno 6909 bound_to 6896
  146.2405  139.9806  142.8436 H   0  0  0  0  0  0  0  0  0  0  0  0  # atno 7974 bound_to 7965
  156.2148  140.1794  156.7615 H   0  0  0  0  0  0  0  0  0  0  0  0  # atno 8008 bound_to 7997
  154.5775  140.0672  156.9084 H   0  0  0  0  0  0  0  0  0  0  0  0  # atno 8009 bound_to 7997
  155.2562  140.3332  155.4280 H   0  0  0  0  0  0  0  0  0  0  0  0  # atno 8010 bound_to 7997
  140.6439  143.2523  151.4914 H   0  0  0  0  0  0  0  0  0  0  0  0  # atno 10167 bound_to 10162
  156.0003  130.4989  150.5635 H   0  0  0  0  0  0  0  0  0  0  0  0  # atno 10718 bound_to 10713
  154.1542  135.2813  155.3127 H   0  0  0  0  0  0  0  0  0  0  0  0  # atno 10763 bound_to 10752
  154.6195  135.5472  153.7563 H   0  0  0  0  0  0  0  0  0  0  0  0  # atno 10764 bound_to 10752
  153.0212  135.6435  154.1685 H   0  0  0  0  0  0  0  0  0  0  0  0  # atno 10765 bound_to 10752
  140.1684  134.4253  155.8273 H   0  0  0  0  0  0  0  0  0  0  0  0  # atno 11005 bound_to 11000
  145.1595  140.9665  143.4385 LP  0  0  0  0  0  0  0  0  0  0  0  0  # atno 17320 bound_to 7965
  145.0129  139.3493  143.6111 LP  0  0  0  0  0  0  0  0  0  0  0  0  # atno 17321 bound_to 7965
  139.5649  144.2067  152.1749 LP  0  0  0  0  0  0  0  0  0  0  0  0  # atno 17342 bound_to 10162
  140.1346  144.5257  150.6781 LP  0  0  0  0  0  0  0  0  0  0  0  0  # atno 17343 bound_to 10162
  157.3540  131.0738  151.1690 LP  0  0  0  0  0  0  0  0  0  0  0  0  # atno 17370 bound_to 10713
  157.2497  130.6608  149.5926 LP  0  0  0  0  0  0  0  0  0  0  0  0  # atno 17371 bound_to 10713
  141.2215  133.6945  156.7719 LP  0  0  0  0  0  0  0  0  0  0  0  0  # atno 17394 bound_to 11000
  140.2407  134.8616  157.3570 LP  0  0  0  0  0  0  0  0  0  0  0  0  # atno 17395 bound_to 11000

$$$$
