AV-unprocessed.smi:1844|AV-procd|sdf|7511|dock10
  -GOLD-   22720 9213D 1   1.00000     0.00000
 Structure written by MMmdl.
 45 46  0  0  0  0  0  0  0  0  1 V2000
  144.3182  144.3447  155.3044 C   0  0  0  0  0  0  0  0  0  0  0  0
  145.4645  143.4924  155.0269 N   0  0  0  0  0  0  0  0  0  0  0  0
  146.1478  142.8082  155.9593 C   0  0  0  0  0  0  0  0  0  0  0  0
  145.8412  142.8571  157.1517 O   0  0  0  0  0  0  0  0  0  0  0  0
  147.2619  142.0243  155.4205 C   0  0  0  0  0  0  0  0  0  0  0  0
  147.4643  141.8012  153.9965 C   0  0  0  0  0  0  0  0  0  0  0  0
  148.5236  141.0937  153.5573 C   0  0  0  0  0  0  0  0  0  0  0  0
  149.5079  140.5229  154.4813 C   0  0  0  0  0  0  0  0  0  0  0  0
  150.4912  139.8982  154.0836 O   0  0  0  0  0  0  0  0  0  0  0  0
  149.2681  140.7366  155.8104 N   0  0  0  0  0  0  0  0  0  0  0  0
  150.1917  140.2260  156.8399 C   0  0  0  0  0  0  0  0  0  0  0  0
  150.5752  141.2507  157.9219 C   0  0  0  0  0  0  0  0  0  0  0  0
  149.6865  141.7731  158.5935 O   0  0  0  0  0  0  0  0  0  0  0  0
  151.8773  141.5410  158.0840 N   0  0  0  0  0  0  0  0  0  0  0  0
  152.4302  142.5165  159.0180 C   0  0  1  0  0  0  0  0  0  0  0  0
  151.5472  143.7818  159.0427 C   0  0  0  0  0  0  0  0  0  0  0  0
  152.0614  144.8093  160.0614 C   0  0  0  0  0  0  0  0  0  0  0  0
  152.1715  144.1906  161.4618 C   0  0  0  0  0  0  0  0  0  0  0  0
  153.0583  142.9363  161.4430 C   0  0  0  0  0  0  0  0  0  0  0  0
  152.5504  141.8906  160.4299 C   0  0  2  0  0  0  0  0  0  0  0  0
  153.4437  140.6364  160.4479 C   0  0  0  0  0  0  0  0  0  0  0  0
  148.1627  141.4831  156.2635 C   0  0  0  0  0  0  0  0  0  0  0  0
  143.9360  144.7671  154.3751 H   0  0  0  0  0  0  0  0  0  0  0  0
  144.5971  145.1675  155.9641 H   0  0  0  0  0  0  0  0  0  0  0  0
  143.5154  143.7762  155.7759 H   0  0  0  0  0  0  0  0  0  0  0  0
  145.7591  143.4149  154.0641 H   0  0  0  0  0  0  0  0  0  0  0  0
  146.7757  142.1930  153.2625 H   0  0  0  0  0  0  0  0  0  0  0  0
  148.6526  140.9418  152.4958 H   0  0  0  0  0  0  0  0  0  0  0  0
  149.7460  139.3630  157.3366 H   0  0  0  0  0  0  0  0  0  0  0  0
  151.1074  139.8435  156.3859 H   0  0  0  0  0  0  0  0  0  0  0  0
  152.5399  141.0632  157.4907 H   0  0  0  0  0  0  0  0  0  0  0  0
  153.4316  142.7956  158.6837 H   0  0  0  0  0  0  0  0  0  0  0  0
  151.5144  144.2387  158.0530 H   0  0  0  0  0  0  0  0  0  0  0  0
  150.5199  143.5102  159.2902 H   0  0  0  0  0  0  0  0  0  0  0  0
  153.0376  145.1794  159.7460 H   0  0  0  0  0  0  0  0  0  0  0  0
  151.3965  145.6729  160.0866 H   0  0  0  0  0  0  0  0  0  0  0  0
  152.5781  144.9222  162.1606 H   0  0  0  0  0  0  0  0  0  0  0  0
  151.1772  143.9321  161.8277 H   0  0  0  0  0  0  0  0  0  0  0  0
  154.0823  143.2203  161.1963 H   0  0  0  0  0  0  0  0  0  0  0  0
  153.0928  142.5018  162.4427 H   0  0  0  0  0  0  0  0  0  0  0  0
  151.5531  141.5826  160.7484 H   0  0  0  0  0  0  0  0  0  0  0  0
  154.4530  140.8659  160.1051 H   0  0  0  0  0  0  0  0  0  0  0  0
  153.0465  139.8466  159.8097 H   0  0  0  0  0  0  0  0  0  0  0  0
  153.5210  140.2263  161.4551 H   0  0  0  0  0  0  0  0  0  0  0  0
  148.1140  141.5942  157.3381 H   0  0  0  0  0  0  0  0  0  0  0  0
  1  2  1  0  0  0  0
  1 23  1  0  0  0  0
  1 24  1  0  0  0  0
  1 25  1  0  0  0  0
  2  3  1  0  0  0  0
  2 26  1  0  0  0  0
  3  4  2  0  0  0  0
  3  5  1  0  0  0  0
  5 22  2  0  0  0  0
  5  6  1  0  0  0  0
  6  7  2  0  0  0  0
  6 27  1  0  0  0  0
  7  8  1  0  0  0  0
  7 28  1  0  0  0  0
  8  9  2  0  0  0  0
  8 10  1  0  0  0  0
 10 11  1  0  0  0  0
 10 22  1  0  0  0  0
 11 12  1  0  0  0  0
 11 29  1  0  0  0  0
 11 30  1  0  0  0  0
 12 13  2  0  0  0  0
 12 14  1  0  0  0  0
 14 15  1  0  0  0  0
 14 31  1  0  0  0  0
 15 20  1  0  0  0  0
 15 16  1  0  0  0  0
 15 32  1  0  0  0  0
 16 17  1  0  0  0  0
 16 33  1  0  0  0  0
 16 34  1  0  0  0  0
 17 18  1  0  0  0  0
 17 35  1  0  0  0  0
 17 36  1  0  0  0  0
 18 19  1  0  0  0  0
 18 37  1  0  0  0  0
 18 38  1  0  0  0  0
 19 20  1  0  0  0  0
 19 39  1  0  0  0  0
 19 40  1  0  0  0  0
 20 21  1  0  0  0  0
 20 41  1  0  0  0  0
 21 42  1  0  0  0  0
 21 43  1  0  0  0  0
 21 44  1  0  0  0  0
 22 45  1  0  0  0  0
M  END
> <s_m_source_file>
AV-unprocessed.smi

> <i_m_source_file_index>
1844

> <i_lp_mmshare_version>
43012

> <i_f3d_flags>
0

> <s_epik_input>
W0NIM11bTkhdQyg9TyljMVtjSF1bY0hdYyg9TyluKFtjSF0xKVtDSDJdQyg9TylbTkhdW0NAQEhdMltDSDJdW0NIMl1bQ0gyXVtDSDJdW0NASF0yW0NIM10=

> <s_epik_cmdline>
J2VwaWtfcHl0aG9uJywgJy1waCcsICc3LjAnLCAnLXRuJywgJzgnLCAnLW1hJywgJzIwMCcsICctbWV0YWxfYmluZGluZycsICctaW1hZScsICc8aW5maWxlLm1hZT4nLCAnLW9tYWUnLCAnPG91dGZpbGUubWFlPic=

> <r_lp_tautomer_probability>
1

> <r_epik_Ionization_Penalty>
3.66612e-07

> <r_epik_Ionization_Penalty_Charging>
5.18929e-08

> <r_epik_Ionization_Penalty_Neutral>
3.14719e-07

> <r_epik_State_Penalty>
-0

> <r_epik_Charging_Adjusted_Penalty>
5.18929e-08

> <i_epik_Tot_Q>
0

> <i_epik_Tot_abs_Q>
0

> <r_epik_Metal_State_Penalty>
-0

> <b_epik_Metal_Only>
0

> <s_lp_Force_Field>
OPLS_2005

> <r_lp_Energy>
22.567

> <b_lp_Chiralities_Consistent>
1

> <s_lp_Variant>
AV-unprocessed.smi:1844-4

> <Gold.Version>
5.8.1

> <Gold.Id.Protein>
6NUR|6NUR_protein|mol2

> <Gold.PLP.Fitness>
45.2830

> <Gold.PLP.PLP>
-43.2928

> <Gold.PLP.part.hbond>
-1.6496

> <Gold.PLP.part.metal>
0.0000

> <Gold.PLP.part.buried>
-3.6322

> <Gold.PLP.part.nonpolar>
-37.5643

> <Gold.PLP.part.repulsive>
1.0030

> <Gold.PLP.ligand.clash>
0.0000

> <Gold.PLP.ligand.torsion>
0.5144

> <Gold.PLP.Chemscore.Hbond>
1.0000

> <Gold.PLP.Chemscore.CHOScore>
0.0000

> <Gold.PLP.Chemscore.Metal>
0.0000

> <Gold.Chemscore.Hbonds>
donor molecule, donor type, donor heavy atom, donor atom, acceptor molecule, acceptor atom, score
      P1  H  7989  7998       L1     9  1.00

> <Gold.PLP.Chemscore.Internal.Correction>
0.0190

> <Gold.Rescore>
     Score         DG    S(hbond)    S(metal)    S(lipo)     H(rot)  DE(clash)    DE(int)     intcor
     13.95     -17.22       0.97        0.00     105.37       1.49       0.14       3.13       ----

> <Gold.Chemscore.Fitness>
13.9468

> <Gold.Chemscore.DG>
-17.2154

> <Gold.Chemscore.ZeroCoef>
-5.4800

> <Gold.Chemscore.Hbond>
0.9665

> <Gold.Chemscore.Metal>
0.0000

> <Gold.Chemscore.Lipo>
105.3653

> <Gold.Chemscore.Internal_Hbond>
0.0000

> <Gold.Chemscore.DEClash>
0.1361

> <Gold.Chemscore.DEInternal>
3.1325

> <Gold.Chemscore.Rot>
1.4923

> <Gold.Chemscore.Internal.Correction>
   9.000000E+99

> <Gold.Chemscore.Hbonds>
donor molecule, donor type, donor heavy atom, donor atom, acceptor molecule, acceptor atom, score
      P1  H  7989  7998       L1     9  0.80

> <Gold.Chemscore.Hbond.Weighted>
-3.2280

> <Gold.Chemscore.Metal.Weighted>
-0.0000

> <Gold.Chemscore.Lipo.Weighted>
-12.3277

> <Gold.Chemscore.Internal_Hbond.Weighted>
0.0000

> <Gold.Chemscore.DEClash.Weighted>
0.1361

> <Gold.Chemscore.DEInternal.Weighted>
3.1325

> <Gold.Chemscore.Rot.Weighted>
3.8204

> <Gold.Chemscore.Internal.Correction.Weighted>
   9.000000E+99

> <Gold.Protein.RotatedTorsions>
[ 6907 6896 6895 6894 ] final  -11.67 input  -60.11 | X-H torsion
[ 7974 7965 7964 7962 ] final   80.64 input  175.53 | X-H torsion
[ 8008 7997 7996 7995 ] final  -17.25 input   59.86 | X-H torsion
[ 10167 10162 10161 10158 ] final   52.22 input  -65.29 | X-H torsion
[ 10718 10713 10712 10709 ] final   83.12 input   66.30 | X-H torsion
[ 10763 10752 10751 10750 ] final  157.06 input  -60.55 | X-H torsion
[ 11005 11000 10999 10996 ] final  -20.99 input  -57.11 | X-H torsion

> <Gold.Protein.ActiveResidues>
 VAL166  LYS551  ARG553  GLY616  TRP617  ASP618  TYR619  PRO620  LYS621  CYS622 
 ASP623  PHE694  ASN695  SER759  ASP760  ASP761  ALA762  ILE779  LEU786  VAL792 
 PHE793  MET794  SER795  GLU796  ALA797  LYS798  CYS799  TRP800  GLU811  SER814 

> <Gold.Protein.RotatedAtoms>
  151.3826  135.0942  159.9500 H   0  0  0  0  0  0  0  0  0  0  0  0  # atno 6907 bound_to 6896
  152.5104  133.9057  159.7473 H   0  0  0  0  0  0  0  0  0  0  0  0  # atno 6908 bound_to 6896
  150.9494  133.6511  159.2804 H   0  0  0  0  0  0  0  0  0  0  0  0  # atno 6909 bound_to 6896
  145.6485  139.2442  143.1990 H   0  0  0  0  0  0  0  0  0  0  0  0  # atno 7974 bound_to 7965
  154.4992  140.2148  155.9382 H   0  0  0  0  0  0  0  0  0  0  0  0  # atno 8008 bound_to 7997
  156.1411  140.3179  155.8465 H   0  0  0  0  0  0  0  0  0  0  0  0  # atno 8009 bound_to 7997
  155.4118  140.0491  157.3022 H   0  0  0  0  0  0  0  0  0  0  0  0  # atno 8010 bound_to 7997
  140.2537  144.3450  150.6340 H   0  0  0  0  0  0  0  0  0  0  0  0  # atno 10167 bound_to 10162
  157.6872  131.0077  150.2476 H   0  0  0  0  0  0  0  0  0  0  0  0  # atno 10718 bound_to 10713
  154.1943  135.2793  155.3012 H   0  0  0  0  0  0  0  0  0  0  0  0  # atno 10763 bound_to 10752
  154.5904  135.5561  153.7276 H   0  0  0  0  0  0  0  0  0  0  0  0  # atno 10764 bound_to 10752
  153.0104  135.6367  154.2081 H   0  0  0  0  0  0  0  0  0  0  0  0  # atno 10765 bound_to 10752
  140.8518  133.7851  155.9974 H   0  0  0  0  0  0  0  0  0  0  0  0  # atno 11005 bound_to 11000
  146.1223  140.7293  142.9452 LP  0  0  0  0  0  0  0  0  0  0  0  0  # atno 17320 bound_to 7965
  144.7131  140.4112  143.7065 LP  0  0  0  0  0  0  0  0  0  0  0  0  # atno 17321 bound_to 7965
  140.6020  143.2167  151.7053 LP  0  0  0  0  0  0  0  0  0  0  0  0  # atno 17342 bound_to 10162
  139.5038  144.3777  152.0407 LP  0  0  0  0  0  0  0  0  0  0  0  0  # atno 17343 bound_to 10162
  156.3078  130.3767  149.7689 LP  0  0  0  0  0  0  0  0  0  0  0  0  # atno 17370 bound_to 10713
  156.5299  130.8253  151.3233 LP  0  0  0  0  0  0  0  0  0  0  0  0  # atno 17371 bound_to 10713
  140.8782  134.2644  157.5157 LP  0  0  0  0  0  0  0  0  0  0  0  0  # atno 17394 bound_to 11000
  139.8704  134.9601  156.4354 LP  0  0  0  0  0  0  0  0  0  0  0  0  # atno 17395 bound_to 11000

$$$$
