#       Name:                AV-unprocessed.smi:183
#       Creating user name   scv26
#       Creation time:       Thu Mar 26 19:26:54 2020


#       File generated by GOLD software.
#

@<TRIPOS>MOLECULE
AV-unprocessed.smi:183
    65    67     1
SMALL
NO_CHARGES


@<TRIPOS>ATOM
      1 ****        -2.5900  -4.6500   1.3296 C.3            1 S1                 0.0000
      2 ****        -2.2686  -3.2605   0.7909 C.2            1 S1                 0.0000
      3 ****        -1.1008  -2.9372   0.5735 O.2            1 S1                 0.0000
      4 ****        -3.3156  -2.4480   0.5780 N.am           1 S1                 0.0000
      5 ****        -3.2129  -1.0859   0.0707 C.3            1 S1                 0.0000
      6 ****        -3.0944  -1.0683  -1.4674 C.3            1 S1                 0.0000
      7 ****        -2.5617   0.1897  -1.9995 N.3            1 S1                 0.0000
      8 ****        -1.2057   0.2027  -1.9571 C.ar           1 S1                 0.0000
      9 ****        -0.5527  -0.4600  -2.9450 N.ar           1 S1                 0.0000
     10 ****         0.7817  -0.5204  -2.9450 C.ar           1 S1                 0.0000
     11 ****         1.6402  -0.0081  -2.0616 N.ar           1 S1                 0.0000
     12 ****         0.9886   0.6497  -1.0604 C.ar           1 S1                 0.0000
     13 ****        -0.4203   0.8131  -0.9363 C.ar           1 S1                 0.0000
     14 ****        -0.7100   1.5480   0.2077 N.2            1 S1                 0.0000
     15 ****         0.4581   1.7999   0.7307 C.2            1 S1                 0.0000
     16 ****         1.5323   1.2801   0.0450 N.pl3          1 S1                 0.0000
     17 ****         2.9346   1.3899   0.4137 C.3            1 S1                 0.0000
     18 ****         3.4690   0.1798   1.2301 C.3            1 S1                 0.0000
     19 ****         3.4300  -0.9880   0.4320 O.3            1 S1                 0.0000
     20 ****         2.7059  -0.0826   2.5233 C.3            1 S1                 0.0000
     21 ****         3.3514   0.9008   3.4948 C.3            1 S1                 0.0000
     22 ****         4.6958   1.0565   3.0492 O.3            1 S1                 0.0000
     23 ****         4.8834   0.3868   1.8048 C.3            1 S1                 0.0000
     24 ****         5.8842   1.1465   0.9215 C.3            1 S1                 0.0000
     25 ****        -3.2797   1.4526  -1.7580 C.3            1 S1                 0.0000
     26 ****        -4.7761   1.3316  -2.1049 C.3            1 S1                 0.0000
     27 ****        -2.6841   2.6344  -2.5543 C.3            1 S1                 0.0000
     28 ****        -3.1799  -5.2114   0.6046 H              1 S1                 0.0000
     29 ****        -3.1575  -4.5784   2.2579 H              1 S1                 0.0000
     30 ****        -1.6750  -5.2083   1.5315 H              1 S1                 0.0000
     31 ****        -4.2417  -2.7952   0.7819 H              1 S1                 0.0000
     32 ****        -4.0891  -0.5213   0.3896 H              1 S1                 0.0000
     33 ****        -2.3553  -0.6056   0.5410 H              1 S1                 0.0000
     34 ****        -2.4513  -1.8887  -1.7908 H              1 S1                 0.0000
     35 ****        -4.0630  -1.2791  -1.9199 H              1 S1                 0.0000
     36 ****         1.2250  -1.0627  -3.7669 H              1 S1                 0.0000
     37 ****         0.5688   2.3617   1.6468 H              1 S1                 0.0000
     38 ****         3.5124   1.5153  -0.5027 H              1 S1                 0.0000
     39 ****         3.0600   2.3139   0.9794 H              1 S1                 0.0000
     40 ****         3.7373  -1.7165   0.9491 H              1 S1                 0.0000
     41 ****         1.6250   0.0300   2.4514 H              1 S1                 0.0000
     42 ****         2.8977  -1.0981   2.8747 H              1 S1                 0.0000
     43 ****         2.8534   1.8699   3.4490 H              1 S1                 0.0000
     44 ****         3.3123   0.5490   4.5259 H              1 S1                 0.0000
     45 ****         5.3098  -0.5884   2.0485 H              1 S1                 0.0000
     46 ****         6.0060   0.6545  -0.0439 H              1 S1                 0.0000
     47 ****         6.8635   1.1879   1.3983 H              1 S1                 0.0000
     48 ****         5.5669   2.1735   0.7408 H              1 S1                 0.0000
     49 ****        -3.2076   1.6867  -0.6959 H              1 S1                 0.0000
     50 ****        -5.2896   2.2823  -1.9598 H              1 S1                 0.0000
     51 ****        -5.2846   0.6032  -1.4741 H              1 S1                 0.0000
     52 ****        -4.9190   1.0344  -3.1444 H              1 S1                 0.0000
     53 ****        -3.2590   3.5455  -2.3872 H              1 S1                 0.0000
     54 ****        -2.6924   2.4317  -3.6257 H              1 S1                 0.0000
     55 ****        -1.6576   2.8588  -2.2668 H              1 S1                 0.0000
     56 ****        -0.3610  -3.5864   0.7503 LP             1 S1                 0.0000
     57 ****        -0.8919  -2.0253   0.2202 LP             1 S1                 0.0000
     58 ****        -2.8189   0.1740  -2.9657 LP             1 S1                 0.0000
     59 ****        -1.0719  -0.9043  -3.6750 LP             1 S1                 0.0000
     60 ****         2.6344  -0.0953  -2.1254 LP             1 S1                 0.0000
     61 ****        -1.6085   1.8211   0.5512 LP             1 S1                 0.0000
     62 ****         4.0193  -0.8697  -0.3672 LP             1 S1                 0.0000
     63 ****         2.4917  -1.1598   0.1319 LP             1 S1                 0.0000
     64 ****         5.3165   0.6679   3.7302 LP             1 S1                 0.0000
     65 ****         4.8948   2.0297   2.9338 LP             1 S1                 0.0000
@<TRIPOS>BOND
    1    1    2 1     
    2    1   28 1     
    3    1   29 1     
    4    1   30 1     
    5    2    3 2     
    6    2    4 am    
    7    4    5 1     
    8    4   31 1     
    9    5    6 1     
   10    5   32 1     
   11    5   33 1     
   12    6    7 1     
   13    6   34 1     
   14    6   35 1     
   15    7    8 1     
   16    7   25 1     
   17    8   13 ar    
   18    8    9 ar    
   19    9   10 ar    
   20   10   11 ar    
   21   10   36 1     
   22   11   12 ar    
   23   12   16 1     
   24   12   13 ar    
   25   13   14 1     
   26   14   15 2     
   27   15   16 1     
   28   15   37 1     
   29   16   17 1     
   30   17   18 1     
   31   17   38 1     
   32   17   39 1     
   33   18   23 1     
   34   18   19 1     
   35   18   20 1     
   36   19   40 1     
   37   20   21 1     
   38   20   41 1     
   39   20   42 1     
   40   21   22 1     
   41   21   43 1     
   42   21   44 1     
   43   22   23 1     
   44   23   24 1     
   45   23   45 1     
   46   24   46 1     
   47   24   47 1     
   48   24   48 1     
   49   25   26 1     
   50   25   27 1     
   51   25   49 1     
   52   26   50 1     
   53   26   51 1     
   54   26   52 1     
   55   27   53 1     
   56   27   54 1     
   57   27   55 1     
   58    3   56 1     
   59    3   57 1     
   60    7   58 1     
   61    9   59 1     
   62   11   60 1     
   63   14   61 1     
   64   19   62 1     
   65   19   63 1     
   66   22   64 1     
   67   22   65 1     
@<TRIPOS>SUBSTRUCTURE
      1 S1             1
@<TRIPOS>SET
LONE_PAIRS      STATIC     ATOMS    <user>   **** ""
10 56 57 58 59 60 61 62 63 64 65
DONOR_HYDROGENS      STATIC     ATOMS    <user>   **** ""
2 31 40
ATOM$BLUE        STATIC     ATOMS    COLORGROUP SYSTEM
10 56 57 58 59 60 61 62 63 64 65
ATOM$RED        STATIC     ATOMS    COLORGROUP SYSTEM
2 31 40
