AV-unprocessed.smi:2282|AV-procd|sdf|9195|dock6
  -GOLD-   2272012413D 1   1.00000     0.00000
 Structure written by MMmdl.
 32 33  0  0  0  0  0  0  0  0  1 V2000
  151.1906  135.2525  156.5731 C   0  0  0  0  0  0  0  0  0  0  0  0
  151.2668  136.6539  155.9962 C   0  0  0  0  0  0  0  0  0  0  0  0
  151.4440  136.7268  154.6589 N   0  0  0  0  0  0  0  0  0  0  0  0
  151.5263  137.9493  154.0955 C   0  0  0  0  0  0  0  0  0  0  0  0
  151.4310  139.1479  154.8277 C   0  0  0  0  0  0  0  0  0  0  0  0
  151.2281  139.0757  156.2267 C   0  0  0  0  0  0  0  0  0  0  0  0
  151.1396  140.2225  157.0637 N   0  0  0  0  0  0  0  0  0  0  0  0
  150.7456  141.4698  156.7485 C   0  0  0  0  0  0  0  0  0  0  0  0
  150.3792  141.8229  155.6271 O   0  0  0  0  0  0  0  0  0  0  0  0
  150.7690  142.4787  157.9091 C   0  0  2  0  0  0  0  0  0  0  0  0
  151.6576  143.7146  157.6587 C   0  0  0  0  0  0  0  0  0  0  0  0
  152.7106  143.6497  158.7528 C   0  0  0  0  0  0  0  0  0  0  0  0
  152.7017  142.1792  159.1555 C   0  0  1  0  0  0  0  0  0  0  0  0
  153.2244  141.9120  160.5708 C   0  0  0  0  0  0  0  0  0  0  0  0
  151.3254  141.8425  159.0579 O   0  0  0  0  0  0  0  0  0  0  0  0
  151.1580  137.7955  156.8248 C   0  0  0  0  0  0  0  0  0  0  0  0
  150.9366  137.6275  158.5347 Cl  0  0  0  0  0  0  0  0  0  0  0  0
  150.2303  135.0970  157.0655 H   0  0  0  0  0  0  0  0  0  0  0  0
  151.9829  135.1007  157.3063 H   0  0  0  0  0  0  0  0  0  0  0  0
  151.2991  134.4926  155.7981 H   0  0  0  0  0  0  0  0  0  0  0  0
  151.6799  137.9738  153.0271 H   0  0  0  0  0  0  0  0  0  0  0  0
  151.5287  140.0883  154.3082 H   0  0  0  0  0  0  0  0  0  0  0  0
  151.3331  140.0573  158.0409 H   0  0  0  0  0  0  0  0  0  0  0  0
  149.7504  142.7889  158.1476 H   0  0  0  0  0  0  0  0  0  0  0  0
  152.1308  143.6977  156.6760 H   0  0  0  0  0  0  0  0  0  0  0  0
  151.0851  144.6409  157.7202 H   0  0  0  0  0  0  0  0  0  0  0  0
  153.6912  143.9924  158.4215 H   0  0  0  0  0  0  0  0  0  0  0  0
  152.4017  144.2723  159.5936 H   0  0  0  0  0  0  0  0  0  0  0  0
  153.2671  141.5900  158.4318 H   0  0  0  0  0  0  0  0  0  0  0  0
  154.2707  142.2044  160.6622 H   0  0  0  0  0  0  0  0  0  0  0  0
  153.1511  140.8526  160.8178 H   0  0  0  0  0  0  0  0  0  0  0  0
  152.6539  142.4676  161.3156 H   0  0  0  0  0  0  0  0  0  0  0  0
  1  2  1  0  0  0  0
  1 18  1  0  0  0  0
  1 19  1  0  0  0  0
  1 20  1  0  0  0  0
  2 16  1  0  0  0  0
  2  3  2  0  0  0  0
  3  4  1  0  0  0  0
  4  5  2  0  0  0  0
  4 21  1  0  0  0  0
  5  6  1  0  0  0  0
  5 22  1  0  0  0  0
  6  7  1  0  0  0  0
  6 16  2  0  0  0  0
  7  8  1  0  0  0  0
  7 23  1  0  0  0  0
  8  9  2  0  0  0  0
  8 10  1  0  0  0  0
 10 15  1  0  0  0  0
 10 11  1  0  0  0  0
 10 24  1  0  0  0  0
 11 12  1  0  0  0  0
 11 25  1  0  0  0  0
 11 26  1  0  0  0  0
 12 13  1  0  0  0  0
 12 27  1  0  0  0  0
 12 28  1  0  0  0  0
 13 14  1  0  0  0  0
 13 15  1  0  0  0  0
 13 29  1  0  0  0  0
 14 30  1  0  0  0  0
 14 31  1  0  0  0  0
 14 32  1  0  0  0  0
 16 17  1  0  0  0  0
M  END
> <s_m_source_file>
AV-unprocessed.smi

> <i_m_source_file_index>
2282

> <i_lp_mmshare_version>
43012

> <i_f3d_flags>
0

> <s_epik_input>
W0NIM11jMW5bY0hdW2NIXWMoYzFDbClbTkhdQyg9TylbQ0BASF0yW0NIMl1bQ0gyXVtDQEhdKE8yKVtDSDNd

> <s_epik_cmdline>
J2VwaWtfcHl0aG9uJywgJy1waCcsICc3LjAnLCAnLXRuJywgJzgnLCAnLW1hJywgJzIwMCcsICctbWV0YWxfYmluZGluZycsICctaW1hZScsICc8aW5maWxlLm1hZT4nLCAnLW9tYWUnLCAnPG91dGZpbGUubWFlPic=

> <r_epik_Ionization_Penalty>
0.00037231

> <r_epik_Ionization_Penalty_Charging>
0

> <r_epik_Ionization_Penalty_Neutral>
0.00037231

> <r_epik_State_Penalty>
0.000225113

> <r_epik_Charging_Adjusted_Penalty>
0.000225113

> <i_epik_Tot_Q>
0

> <i_epik_Tot_abs_Q>
0

> <r_epik_Metal_State_Penalty>
-0

> <b_epik_Metal_Only>
0

> <s_lp_Force_Field>
OPLS_2005

> <r_lp_Energy>
24.6828

> <b_lp_Chiralities_Consistent>
1

> <s_lp_Variant>
AV-unprocessed.smi:2282-1

> <Gold.Version>
5.8.1

> <Gold.Id.Protein>
6NUR|6NUR_protein|mol2

> <Gold.PLP.Fitness>
38.0601

> <Gold.PLP.PLP>
-32.4965

> <Gold.PLP.part.hbond>
-1.0202

> <Gold.PLP.part.metal>
0.0000

> <Gold.PLP.part.buried>
-4.3398

> <Gold.PLP.part.nonpolar>
-28.5521

> <Gold.PLP.part.repulsive>
0.3107

> <Gold.PLP.ligand.clash>
0.0000

> <Gold.PLP.ligand.torsion>
0.1625

> <Gold.PLP.Chemscore.Hbond>
1.0000

> <Gold.PLP.Chemscore.CHOScore>
0.9601

> <Gold.PLP.Chemscore.Metal>
0.0000

> <Gold.Chemscore.Hbonds>
donor molecule, donor type, donor heavy atom, donor atom, acceptor molecule, acceptor atom, score
      P1  H 10752 10765       L1     3  1.00
      L1  C     4    21       P1  7949  0.82

> <Gold.PLP.Chemscore.Internal.Correction>
0.0083

> <Gold.Rescore>
     Score         DG    S(hbond)    S(metal)    S(lipo)     H(rot)  DE(clash)    DE(int)     intcor
     15.51     -16.84       0.82        0.00      95.65       1.00       0.03       1.31       ----

> <Gold.Chemscore.Fitness>
15.5106

> <Gold.Chemscore.DG>
-16.8426

> <Gold.Chemscore.ZeroCoef>
-5.4800

> <Gold.Chemscore.Hbond>
0.8177

> <Gold.Chemscore.Metal>
0.0000

> <Gold.Chemscore.Lipo>
95.6545

> <Gold.Chemscore.Internal_Hbond>
0.0000

> <Gold.Chemscore.DEClash>
0.0251

> <Gold.Chemscore.DEInternal>
1.3069

> <Gold.Chemscore.Rot>
1.0000

> <Gold.Chemscore.Internal.Correction>
   9.000000E+99

> <Gold.Chemscore.Hbonds>
donor molecule, donor type, donor heavy atom, donor atom, acceptor molecule, acceptor atom, score
      P1  H 10752 10765       L1     3  0.39

> <Gold.Chemscore.Hbond.Weighted>
-2.7310

> <Gold.Chemscore.Metal.Weighted>
-0.0000

> <Gold.Chemscore.Lipo.Weighted>
-11.1916

> <Gold.Chemscore.Internal_Hbond.Weighted>
0.0000

> <Gold.Chemscore.DEClash.Weighted>
0.0251

> <Gold.Chemscore.DEInternal.Weighted>
1.3069

> <Gold.Chemscore.Rot.Weighted>
2.5600

> <Gold.Chemscore.Internal.Correction.Weighted>
   9.000000E+99

> <Gold.Protein.RotatedTorsions>
[ 6907 6896 6895 6894 ] final   85.92 input  -60.11 | X-H torsion
[ 7974 7965 7964 7962 ] final   72.11 input  175.53 | X-H torsion
[ 8008 7997 7996 7995 ] final  172.59 input   59.86 | X-H torsion
[ 10167 10162 10161 10158 ] final  -81.93 input  -65.29 | X-H torsion
[ 10718 10713 10712 10709 ] final  -71.12 input   66.30 | X-H torsion
[ 10763 10752 10751 10750 ] final  165.46 input  -60.55 | X-H torsion
[ 11005 11000 10999 10996 ] final   81.01 input  -57.11 | X-H torsion

> <Gold.Protein.ActiveResidues>
 VAL166  LYS551  ARG553  GLY616  TRP617  ASP618  TYR619  PRO620  LYS621  CYS622 
 ASP623  PHE694  ASN695  SER759  ASP760  ASP761  ALA762  ILE779  LEU786  VAL792 
 PHE793  MET794  SER795  GLU796  ALA797  LYS798  CYS799  TRP800  GLU811  SER814 

> <Gold.Protein.RotatedAtoms>
  152.5384  134.2511  159.8898 H   0  0  0  0  0  0  0  0  0  0  0  0  # atno 6907 bound_to 6896
  151.2475  133.4361  159.2617 H   0  0  0  0  0  0  0  0  0  0  0  0  # atno 6908 bound_to 6896
  151.0570  134.9725  159.8297 H   0  0  0  0  0  0  0  0  0  0  0  0  # atno 6909 bound_to 6896
  145.7575  139.2786  143.1395 H   0  0  0  0  0  0  0  0  0  0  0  0  # atno 7974 bound_to 7965
  156.1160  140.1482  156.9273 H   0  0  0  0  0  0  0  0  0  0  0  0  # atno 8008 bound_to 7997
  154.4800  140.0882  156.7398 H   0  0  0  0  0  0  0  0  0  0  0  0  # atno 8009 bound_to 7997
  155.4514  140.3435  155.4303 H   0  0  0  0  0  0  0  0  0  0  0  0  # atno 8010 bound_to 7997
  140.4366  143.2529  151.8684 H   0  0  0  0  0  0  0  0  0  0  0  0  # atno 10167 bound_to 10162
  156.0377  130.4345  150.2396 H   0  0  0  0  0  0  0  0  0  0  0  0  # atno 10718 bound_to 10713
  154.3244  135.2755  155.2503 H   0  0  0  0  0  0  0  0  0  0  0  0  # atno 10763 bound_to 10752
  154.4843  135.5850  153.6415 H   0  0  0  0  0  0  0  0  0  0  0  0  # atno 10764 bound_to 10752
  152.9873  135.6119  154.3431 H   0  0  0  0  0  0  0  0  0  0  0  0  # atno 10765 bound_to 10752
  139.9113  134.7964  156.1985 H   0  0  0  0  0  0  0  0  0  0  0  0  # atno 11005 bound_to 11000
  146.0296  140.8270  142.9882 LP  0  0  0  0  0  0  0  0  0  0  0  0  # atno 17320 bound_to 7965
  144.6837  140.2750  143.7300 LP  0  0  0  0  0  0  0  0  0  0  0  0  # atno 17321 bound_to 7965
  139.4787  144.5275  151.8713 LP  0  0  0  0  0  0  0  0  0  0  0  0  # atno 17342 bound_to 10162
  140.4366  144.2043  150.5889 LP  0  0  0  0  0  0  0  0  0  0  0  0  # atno 17343 bound_to 10162
  157.0494  131.0058  151.3258 LP  0  0  0  0  0  0  0  0  0  0  0  0  # atno 17370 bound_to 10713
  157.5151  130.7963  149.7747 LP  0  0  0  0  0  0  0  0  0  0  0  0  # atno 17371 bound_to 10713
  141.0539  133.6875  156.1824 LP  0  0  0  0  0  0  0  0  0  0  0  0  # atno 17394 bound_to 11000
  140.6766  134.4811  157.5588 LP  0  0  0  0  0  0  0  0  0  0  0  0  # atno 17395 bound_to 11000

$$$$
