AV-unprocessed.smi:31|AV-procd|sdf|196|dock1
  -GOLD-   2262015463D 1   1.00000     0.00000
 Structure written by MMmdl.
 49 52  0  0  0  0  0  0  0  0  1 V2000
  151.3804  135.8311  155.9581 O   0  0  0  0  0  0  0  0  0  0  0  0
  151.0905  137.0092  156.1694 C   0  0  0  0  0  0  0  0  0  0  0  0
  151.7271  138.1287  155.3306 C   0  0  0  0  0  0  0  0  0  0  0  0
  151.1368  139.4627  155.5777 N   0  0  0  0  0  0  0  0  0  0  0  0
  150.0352  139.8802  154.7901 C   0  0  0  0  0  0  0  0  0  0  0  0
  149.5718  139.1584  153.9060 O   0  0  0  0  0  0  0  0  0  0  0  0
  149.4998  141.2000  155.1053 C   0  0  0  0  0  0  0  0  0  0  0  0
  148.4550  141.6778  154.4082 F   0  0  0  0  0  0  0  0  0  0  0  0
  150.0366  141.9518  156.0884 C   0  0  0  0  0  0  0  0  0  0  0  0
  151.1119  141.5308  156.8504 N   0  0  0  0  0  0  0  0  0  0  0  0
  151.6982  142.3836  157.9556 C   0  0  1  0  0  0  0  0  0  0  0  0
  152.0293  143.7942  157.4328 C   0  0  0  0  0  0  0  0  0  0  0  0
  151.3663  144.6931  158.4572 C   0  0  0  0  0  0  0  0  0  0  0  0
  150.1928  143.8376  158.9096 C   0  0  0  0  0  0  0  0  0  0  0  0
  150.7630  142.5375  158.9854 O   0  0  0  0  0  0  0  0  0  0  0  0
  151.6803  140.2607  156.6123 C   0  0  0  0  0  0  0  0  0  0  0  0
  152.6275  139.8593  157.2924 O   0  0  0  0  0  0  0  0  0  0  0  0
  150.2529  137.4296  157.1350 N   0  0  0  0  0  0  0  0  0  0  0  0
  149.5031  136.6644  158.0700 C   0  0  0  0  0  0  0  0  0  0  0  0
  149.3021  135.3043  157.7679 C   0  0  0  0  0  0  0  0  0  0  0  0
  148.5758  134.4800  158.6455 C   0  0  0  0  0  0  0  0  0  0  0  0
  148.0417  134.9930  159.8437 C   0  0  0  0  0  0  0  0  0  0  0  0
  148.2962  136.3523  160.1910 C   0  0  0  0  0  0  0  0  0  0  0  0
  149.0036  137.1763  159.2909 C   0  0  0  0  0  0  0  0  0  0  0  0
  147.9145  136.9319  161.3814 O   0  0  0  0  0  0  0  0  0  0  0  0
  147.9381  136.0880  162.5232 C   0  0  0  0  0  0  0  0  0  0  0  0
  146.6423  135.2836  162.6435 C   0  0  0  0  0  0  0  0  0  0  0  0
  146.1925  134.6968  161.3042 C   0  0  0  0  0  0  0  0  0  0  0  0
  147.2853  134.1248  160.6003 O   0  0  0  0  0  0  0  0  0  0  0  0
  152.8017  138.1467  155.5207 H   0  0  0  0  0  0  0  0  0  0  0  0
  151.6518  137.8495  154.2787 H   0  0  0  0  0  0  0  0  0  0  0  0
  149.5914  142.9175  156.2725 H   0  0  0  0  0  0  0  0  0  0  0  0
  152.5613  141.8310  158.3312 H   0  0  0  0  0  0  0  0  0  0  0  0
  153.1069  143.9428  157.3597 H   0  0  0  0  0  0  0  0  0  0  0  0
  151.5823  143.9467  156.4490 H   0  0  0  0  0  0  0  0  0  0  0  0
  152.0425  144.8731  159.2941 H   0  0  0  0  0  0  0  0  0  0  0  0
  151.0614  145.6565  158.0483 H   0  0  0  0  0  0  0  0  0  0  0  0
  149.7831  144.1530  159.8692 H   0  0  0  0  0  0  0  0  0  0  0  0
  149.3921  143.8557  158.1688 H   0  0  0  0  0  0  0  0  0  0  0  0
  150.1805  138.4306  157.2440 H   0  0  0  0  0  0  0  0  0  0  0  0
  149.6922  134.8881  156.8503 H   0  0  0  0  0  0  0  0  0  0  0  0
  148.4064  133.4458  158.3840 H   0  0  0  0  0  0  0  0  0  0  0  0
  149.1851  138.1990  159.5821 H   0  0  0  0  0  0  0  0  0  0  0  0
  148.8045  135.4243  162.4891 H   0  0  0  0  0  0  0  0  0  0  0  0
  148.0689  136.7064  163.4113 H   0  0  0  0  0  0  0  0  0  0  0  0
  146.7894  134.4840  163.3699 H   0  0  0  0  0  0  0  0  0  0  0  0
  145.8461  135.9154  163.0376 H   0  0  0  0  0  0  0  0  0  0  0  0
  145.4457  133.9217  161.4770 H   0  0  0  0  0  0  0  0  0  0  0  0
  145.7012  135.4562  160.6931 H   0  0  0  0  0  0  0  0  0  0  0  0
  1  2  2  0  0  0  0
  2  3  1  0  0  0  0
  2 18  1  0  0  0  0
  3  4  1  0  0  0  0
  3 30  1  0  0  0  0
  3 31  1  0  0  0  0
  4 16  1  0  0  0  0
  4  5  1  0  0  0  0
  5  6  2  0  0  0  0
  5  7  1  0  0  0  0
  7  8  1  0  0  0  0
  7  9  2  0  0  0  0
  9 10  1  0  0  0  0
  9 32  1  0  0  0  0
 10 11  1  0  0  0  0
 10 16  1  0  0  0  0
 11 15  1  0  0  0  0
 11 12  1  0  0  0  0
 11 33  1  0  0  0  0
 12 13  1  0  0  0  0
 12 34  1  0  0  0  0
 12 35  1  0  0  0  0
 13 14  1  0  0  0  0
 13 36  1  0  0  0  0
 13 37  1  0  0  0  0
 14 15  1  0  0  0  0
 14 38  1  0  0  0  0
 14 39  1  0  0  0  0
 16 17  2  0  0  0  0
 18 19  1  0  0  0  0
 18 40  1  0  0  0  0
 19 24  1  0  0  0  0
 19 20  2  0  0  0  0
 20 21  1  0  0  0  0
 20 41  1  0  0  0  0
 21 22  2  0  0  0  0
 21 42  1  0  0  0  0
 22 29  1  0  0  0  0
 22 23  1  0  0  0  0
 23 24  2  0  0  0  0
 23 25  1  0  0  0  0
 24 43  1  0  0  0  0
 25 26  1  0  0  0  0
 26 27  1  0  0  0  0
 26 44  1  0  0  0  0
 26 45  1  0  0  0  0
 27 28  1  0  0  0  0
 27 46  1  0  0  0  0
 27 47  1  0  0  0  0
 28 29  1  0  0  0  0
 28 48  1  0  0  0  0
 28 49  1  0  0  0  0
M  END
> <s_m_source_file>
AV-unprocessed.smi

> <i_m_source_file_index>
31

> <i_lp_mmshare_version>
43012

> <i_f3d_flags>
0

> <s_epik_input>
TzFbQ0gyXVtDSDJdW0NIMl1PYyhjMTIpW2NIXWMoW2NIXVtjSF0yKVtOSF1DKD1PKVtDSDJdbjNjKD1PKWMoRilbY0hdbihjMz1PKVtDQEBIXTRbQ0gyXVtDSDJdW0NIMl1PNA==

> <s_epik_cmdline>
J2VwaWtfcHl0aG9uJywgJy1waCcsICc3LjAnLCAnLXRuJywgJzgnLCAnLW1hJywgJzIwMCcsICctbWV0YWxfYmluZGluZycsICctaW1hZScsICc8aW5maWxlLm1hZT4nLCAnLW9tYWUnLCAnPG91dGZpbGUubWFlPic=

> <r_lp_tautomer_probability>
1

> <r_epik_Ionization_Penalty>
1.0483e-05

> <r_epik_Ionization_Penalty_Charging>
3.88729e-08

> <r_epik_Ionization_Penalty_Neutral>
1.04441e-05

> <r_epik_State_Penalty>
-0

> <r_epik_Charging_Adjusted_Penalty>
3.88729e-08

> <i_epik_Tot_Q>
0

> <i_epik_Tot_abs_Q>
0

> <r_epik_Metal_State_Penalty>
-0

> <b_epik_Metal_Only>
0

> <s_epik_Chemistry_Notes>
This compound contains an acetal/aminal-like group ( X-CH(R)-Y where X, Y are N, S, or O) that may be acid/base labile, releasing an aldehyde.

> <s_lp_Force_Field>
OPLS_2005

> <r_lp_Energy>
46.1803

> <b_lp_Chiralities_Consistent>
1

> <s_lp_Variant>
AV-unprocessed.smi:31-2

> <Gold.Version>
5.8.1

> <Gold.Id.Protein>
6NUR|6NUR_protein|mol2

> <Gold.PLP.Fitness>
61.7822

> <Gold.PLP.PLP>
-49.6655

> <Gold.PLP.part.hbond>
-3.9779

> <Gold.PLP.part.metal>
0.0000

> <Gold.PLP.part.buried>
-5.8431

> <Gold.PLP.part.nonpolar>
-42.1564

> <Gold.PLP.part.repulsive>
2.0889

> <Gold.PLP.ligand.clash>
0.0000

> <Gold.PLP.ligand.torsion>
0.6380

> <Gold.PLP.Chemscore.Hbond>
3.4410

> <Gold.PLP.Chemscore.CHOScore>
0.9996

> <Gold.PLP.Chemscore.Metal>
0.0000

> <Gold.Chemscore.Hbonds>
donor molecule, donor type, donor heavy atom, donor atom, acceptor molecule, acceptor atom, score
      P1  H  6931  6943       L1    25  1.00
      P1  H  6934  6947       L1    25  0.33
      P1  H  7997  8010       L1    17  1.00
      P1  H 10752 10765       L1     1  1.00
      L1  C     9    32       P1  8028  1.00

> <Gold.PLP.Chemscore.Internal.Correction>
0.0712

> <Gold.Rescore>
     Score         DG    S(hbond)    S(metal)    S(lipo)     H(rot)  DE(clash)    DE(int)     intcor
     17.24     -20.10       2.24        0.00      96.98       1.64       0.69       2.17       ----

> <Gold.Chemscore.Fitness>
17.2356

> <Gold.Chemscore.DG>
-20.1000

> <Gold.Chemscore.ZeroCoef>
-5.4800

> <Gold.Chemscore.Hbond>
2.2392

> <Gold.Chemscore.Metal>
0.0000

> <Gold.Chemscore.Lipo>
96.9770

> <Gold.Chemscore.Internal_Hbond>
0.0000

> <Gold.Chemscore.DEClash>
0.6942

> <Gold.Chemscore.DEInternal>
2.1702

> <Gold.Chemscore.Rot>
1.6427

> <Gold.Chemscore.Internal.Correction>
   9.000000E+99

> <Gold.Chemscore.Hbonds>
donor molecule, donor type, donor heavy atom, donor atom, acceptor molecule, acceptor atom, score
      P1  H  6931  6943       L1    25  0.25
      P1  H  6934  6947       L1    25  0.22
      P1  H  7997  8010       L1    17  0.89
      P1  H 10752 10765       L1     1  0.90

> <Gold.Chemscore.Hbond.Weighted>
-7.4790

> <Gold.Chemscore.Metal.Weighted>
-0.0000

> <Gold.Chemscore.Lipo.Weighted>
-11.3463

> <Gold.Chemscore.Internal_Hbond.Weighted>
0.0000

> <Gold.Chemscore.DEClash.Weighted>
0.6942

> <Gold.Chemscore.DEInternal.Weighted>
2.1702

> <Gold.Chemscore.Rot.Weighted>
4.2053

> <Gold.Chemscore.Internal.Correction.Weighted>
   9.000000E+99

> <Gold.Protein.RotatedTorsions>
[ 6907 6896 6895 6894 ] final -156.55 input  -60.11 | X-H torsion
[ 7974 7965 7964 7962 ] final   77.56 input  175.53 | X-H torsion
[ 8008 7997 7996 7995 ] final   69.01 input   59.86 | X-H torsion
[ 10167 10162 10161 10158 ] final    9.97 input  -65.29 | X-H torsion
[ 10718 10713 10712 10709 ] final   -3.33 input   66.30 | X-H torsion
[ 10763 10752 10751 10750 ] final -162.07 input  -60.55 | X-H torsion
[ 11005 11000 10999 10996 ] final  170.20 input  -57.11 | X-H torsion

> <Gold.Protein.ActiveResidues>
 VAL166  LYS551  ARG553  GLY616  TRP617  ASP618  TYR619  PRO620  LYS621  CYS622 
 ASP623  PHE694  ASN695  SER759  ASP760  ASP761  ALA762  ILE779  LEU786  VAL792 
 PHE793  MET794  SER795  GLU796  ALA797  LYS798  CYS799  TRP800  GLU811  SER814 

> <Gold.Protein.RotatedAtoms>
  151.2894  133.4172  159.2631 H   0  0  0  0  0  0  0  0  0  0  0  0  # atno 6907 bound_to 6896
  151.0291  134.9526  159.8111 H   0  0  0  0  0  0  0  0  0  0  0  0  # atno 6908 bound_to 6896
  152.5341  134.2855  159.9076 H   0  0  0  0  0  0  0  0  0  0  0  0  # atno 6909 bound_to 6896
  145.6884  139.2545  143.1774 H   0  0  0  0  0  0  0  0  0  0  0  0  # atno 7974 bound_to 7965
  155.7170  140.3493  155.4999 H   0  0  0  0  0  0  0  0  0  0  0  0  # atno 8008 bound_to 7997
  155.9304  140.1083  157.1158 H   0  0  0  0  0  0  0  0  0  0  0  0  # atno 8009 bound_to 7997
  154.4084  140.1232  156.4782 H   0  0  0  0  0  0  0  0  0  0  0  0  # atno 8010 bound_to 7997
  140.6223  143.8178  150.7190 H   0  0  0  0  0  0  0  0  0  0  0  0  # atno 10167 bound_to 10162
  156.7777  130.5320  149.5756 H   0  0  0  0  0  0  0  0  0  0  0  0  # atno 10718 bound_to 10713
  154.7247  135.3033  154.8990 H   0  0  0  0  0  0  0  0  0  0  0  0  # atno 10763 bound_to 10752
  153.9851  135.6725  153.4755 H   0  0  0  0  0  0  0  0  0  0  0  0  # atno 10764 bound_to 10752
  153.0865  135.4981  154.8525 H   0  0  0  0  0  0  0  0  0  0  0  0  # atno 10765 bound_to 10752
  140.3058  134.7558  157.3952 H   0  0  0  0  0  0  0  0  0  0  0  0  # atno 11005 bound_to 11000
  146.0903  140.7663  142.9598 LP  0  0  0  0  0  0  0  0  0  0  0  0  # atno 17320 bound_to 7965
  144.7004  140.3627  143.7161 LP  0  0  0  0  0  0  0  0  0  0  0  0  # atno 17321 bound_to 7965
  140.1770  143.4146  152.1960 LP  0  0  0  0  0  0  0  0  0  0  0  0  # atno 17342 bound_to 10162
  139.5449  144.7290  151.4615 LP  0  0  0  0  0  0  0  0  0  0  0  0  # atno 17343 bound_to 10162
  156.1238  130.6129  151.0233 LP  0  0  0  0  0  0  0  0  0  0  0  0  # atno 17370 bound_to 10713
  157.6661  131.0871  150.7724 LP  0  0  0  0  0  0  0  0  0  0  0  0  # atno 17371 bound_to 10713
  140.1069  134.5398  155.8301 LP  0  0  0  0  0  0  0  0  0  0  0  0  # atno 17394 bound_to 11000
  141.2118  133.6712  156.6615 LP  0  0  0  0  0  0  0  0  0  0  0  0  # atno 17395 bound_to 11000

$$$$
