AV-unprocessed.smi:2339|AV-procd|sdf|9342|dock8
  -GOLD-   2272012563D 1   1.00000     0.00000
 Structure written by MMmdl.
 49 52  0  0  0  0  0  0  0  0  1 V2000
  144.3837  136.5159  162.2354 C   0  0  0  0  0  0  0  0  0  0  0  0
  145.8925  136.5781  162.4971 C   0  0  0  0  0  0  0  0  0  0  0  0
  146.6566  136.0359  161.3829 N   0  0  0  0  0  0  0  0  0  0  0  0
  146.6590  134.6728  161.1054 C   0  0  0  0  0  0  0  0  0  0  0  0
  147.3978  134.1010  160.1350 C   0  0  0  0  0  0  0  0  0  0  0  0
  148.2745  134.9467  159.3001 C   0  0  0  0  0  0  0  0  0  0  0  0
  148.9643  134.4583  158.4050 O   0  0  0  0  0  0  0  0  0  0  0  0
  148.2767  136.4025  159.6010 C   0  0  0  0  0  0  0  0  0  0  0  0
  149.1106  137.1965  158.7988 N   0  0  0  0  0  0  0  0  0  0  0  0
  148.8457  138.3582  158.1672 C   0  0  0  0  0  0  0  0  0  0  0  0
  147.7702  138.9523  158.1887 O   0  0  0  0  0  0  0  0  0  0  0  0
  149.9075  138.8704  157.5208 N   0  0  0  0  0  0  0  0  0  0  0  0
  149.9653  140.1127  156.7388 C   0  0  2  0  0  0  0  0  0  0  0  0
  150.7229  139.9776  155.3945 C   0  0  2  0  0  0  0  0  0  0  0  0
  151.1205  138.6517  154.7905 C   0  0  0  0  0  0  0  0  0  0  0  0
  152.5725  138.4879  155.2488 C   0  0  0  0  0  0  0  0  0  0  0  0
  152.7014  139.3561  156.3724 O   0  0  0  0  0  0  0  0  0  0  0  0
  151.9497  140.5353  156.0983 C   0  0  2  0  0  0  0  0  0  0  0  0
  151.0699  141.0706  157.2459 C   0  0  0  0  0  0  0  0  0  0  0  0
  151.6099  140.9492  158.6713 C   0  0  0  0  0  0  0  0  0  0  0  0
  152.4081  142.2236  158.9533 C   0  0  0  0  0  0  0  0  0  0  0  0
  151.8292  143.2861  158.0144 C   0  0  0  0  0  0  0  0  0  0  0  0
  150.7649  142.5667  157.1794 C   0  0  0  0  0  0  0  0  0  0  0  0
  147.4798  136.8482  160.6054 C   0  0  0  0  0  0  0  0  0  0  0  0
  143.8275  136.9170  163.0827 H   0  0  0  0  0  0  0  0  0  0  0  0
  144.0531  135.4893  162.0762 H   0  0  0  0  0  0  0  0  0  0  0  0
  144.1129  137.0970  161.3534 H   0  0  0  0  0  0  0  0  0  0  0  0
  146.1953  137.6101  162.6785 H   0  0  0  0  0  0  0  0  0  0  0  0
  146.1336  136.0254  163.4060 H   0  0  0  0  0  0  0  0  0  0  0  0
  146.0040  134.0890  161.7357 H   0  0  0  0  0  0  0  0  0  0  0  0
  147.3646  133.0366  159.9539 H   0  0  0  0  0  0  0  0  0  0  0  0
  150.0581  136.8567  158.7190 H   0  0  0  0  0  0  0  0  0  0  0  0
  150.7848  138.3830  157.6341 H   0  0  0  0  0  0  0  0  0  0  0  0
  149.0018  140.6150  156.6360 H   0  0  0  0  0  0  0  0  0  0  0  0
  150.3354  140.6903  154.6646 H   0  0  0  0  0  0  0  0  0  0  0  0
  150.5006  137.8297  155.1443 H   0  0  0  0  0  0  0  0  0  0  0  0
  151.0530  138.6596  153.7024 H   0  0  0  0  0  0  0  0  0  0  0  0
  152.8176  137.4581  155.5092 H   0  0  0  0  0  0  0  0  0  0  0  0
  153.2594  138.8156  154.4671 H   0  0  0  0  0  0  0  0  0  0  0  0
  152.4983  141.2795  155.5191 H   0  0  0  0  0  0  0  0  0  0  0  0
  150.7807  140.8816  159.3771 H   0  0  0  0  0  0  0  0  0  0  0  0
  152.2216  140.0587  158.8190 H   0  0  0  0  0  0  0  0  0  0  0  0
  152.3425  142.5175  160.0012 H   0  0  0  0  0  0  0  0  0  0  0  0
  153.4618  142.0629  158.7219 H   0  0  0  0  0  0  0  0  0  0  0  0
  151.4012  144.1259  158.5628 H   0  0  0  0  0  0  0  0  0  0  0  0
  152.6161  143.6809  157.3705 H   0  0  0  0  0  0  0  0  0  0  0  0
  150.7422  142.9441  156.1562 H   0  0  0  0  0  0  0  0  0  0  0  0
  149.7805  142.7638  157.6064 H   0  0  0  0  0  0  0  0  0  0  0  0
  147.4052  137.8885  160.8788 H   0  0  0  0  0  0  0  0  0  0  0  0
  1  2  1  0  0  0  0
  1 25  1  0  0  0  0
  1 26  1  0  0  0  0
  1 27  1  0  0  0  0
  2  3  1  0  0  0  0
  2 28  1  0  0  0  0
  2 29  1  0  0  0  0
  3 24  1  0  0  0  0
  3  4  1  0  0  0  0
  4  5  2  0  0  0  0
  4 30  1  0  0  0  0
  5  6  1  0  0  0  0
  5 31  1  0  0  0  0
  6  7  2  0  0  0  0
  6  8  1  0  0  0  0
  8  9  1  0  0  0  0
  8 24  2  0  0  0  0
  9 10  1  0  0  0  0
  9 32  1  0  0  0  0
 10 11  2  0  0  0  0
 10 12  1  0  0  0  0
 12 13  1  0  0  0  0
 12 33  1  0  0  0  0
 13 19  1  0  0  0  0
 13 14  1  0  0  0  0
 13 34  1  0  0  0  0
 14 18  1  0  0  0  0
 14 15  1  0  0  0  0
 14 35  1  0  0  0  0
 15 16  1  0  0  0  0
 15 36  1  0  0  0  0
 15 37  1  0  0  0  0
 16 17  1  0  0  0  0
 16 38  1  0  0  0  0
 16 39  1  0  0  0  0
 17 18  1  0  0  0  0
 18 19  1  0  0  0  0
 18 40  1  0  0  0  0
 19 23  1  0  0  0  0
 19 20  1  0  0  0  0
 20 21  1  0  0  0  0
 20 41  1  0  0  0  0
 20 42  1  0  0  0  0
 21 22  1  0  0  0  0
 21 43  1  0  0  0  0
 21 44  1  0  0  0  0
 22 23  1  0  0  0  0
 22 45  1  0  0  0  0
 22 46  1  0  0  0  0
 23 47  1  0  0  0  0
 23 48  1  0  0  0  0
 24 49  1  0  0  0  0
M  END
> <s_m_source_file>
AV-unprocessed.smi

> <i_m_source_file_index>
2339

> <i_lp_mmshare_version>
43012

> <i_f3d_flags>
0

> <s_epik_input>
W0NIM11bQ0gyXW4xW2NIXVtjSF1jKD1PKWMoW2NIXTEpW05IXUMoPU8pW05IXVtDQEBIXTJbQ0BASF0oW0NIMl1bQ0gyXU8zKVtDQEBIXTNDMjRbQ0gyXVtDSDJdW0NIMl1bQ0gyXTQ=

> <s_epik_cmdline>
J2VwaWtfcHl0aG9uJywgJy1waCcsICc3LjAnLCAnLXRuJywgJzgnLCAnLW1hJywgJzIwMCcsICctbWV0YWxfYmluZGluZycsICctaW1hZScsICc8aW5maWxlLm1hZT4nLCAnLW9tYWUnLCAnPG91dGZpbGUubWFlPic=

> <r_lp_tautomer_probability>
1

> <r_epik_Ionization_Penalty>
0.00145966

> <r_epik_Ionization_Penalty_Charging>
0.00143969

> <r_epik_Ionization_Penalty_Neutral>
1.99697e-05

> <r_epik_State_Penalty>
0.000961843

> <r_epik_Charging_Adjusted_Penalty>
0.00240153

> <i_epik_Tot_Q>
0

> <i_epik_Tot_abs_Q>
0

> <r_epik_Metal_State_Penalty>
-0

> <b_epik_Metal_Only>
0

> <s_lp_Force_Field>
OPLS_2005

> <r_lp_Energy>
59.2385

> <b_lp_Chiralities_Consistent>
1

> <s_lp_Variant>
AV-unprocessed.smi:2339-7

> <Gold.Version>
5.8.1

> <Gold.Id.Protein>
6NUR|6NUR_protein|mol2

> <Gold.PLP.Fitness>
43.9661

> <Gold.PLP.PLP>
-38.9382

> <Gold.PLP.part.hbond>
-3.0000

> <Gold.PLP.part.metal>
0.0000

> <Gold.PLP.part.buried>
-4.8088

> <Gold.PLP.part.nonpolar>
-32.4238

> <Gold.PLP.part.repulsive>
0.2431

> <Gold.PLP.ligand.clash>
0.0000

> <Gold.PLP.ligand.torsion>
0.5871

> <Gold.PLP.Chemscore.Hbond>
2.0000

> <Gold.PLP.Chemscore.CHOScore>
0.0000

> <Gold.PLP.Chemscore.Metal>
0.0000

> <Gold.Chemscore.Hbonds>
donor molecule, donor type, donor heavy atom, donor atom, acceptor molecule, acceptor atom, score
      P1  H  6896  6909       L1     7  1.00
      P1  H  7997  8009       L1    17  0.90

> <Gold.PLP.Chemscore.Internal.Correction>
0.2022

> <Gold.Rescore>
     Score         DG    S(hbond)    S(metal)    S(lipo)     H(rot)  DE(clash)    DE(int)     intcor
     18.28     -18.98       1.28        0.00     104.49       1.17       0.03       0.67       ----

> <Gold.Chemscore.Fitness>
18.2826

> <Gold.Chemscore.DG>
-18.9790

> <Gold.Chemscore.ZeroCoef>
-5.4800

> <Gold.Chemscore.Hbond>
1.2757

> <Gold.Chemscore.Metal>
0.0000

> <Gold.Chemscore.Lipo>
104.4930

> <Gold.Chemscore.Internal_Hbond>
0.0000

> <Gold.Chemscore.DEClash>
0.0258

> <Gold.Chemscore.DEInternal>
0.6706

> <Gold.Chemscore.Rot>
1.1670

> <Gold.Chemscore.Internal.Correction>
   9.000000E+99

> <Gold.Chemscore.Hbonds>
donor molecule, donor type, donor heavy atom, donor atom, acceptor molecule, acceptor atom, score
      P1  H  6896  6909       L1     7  0.34
      P1  H  7997  8009       L1    17  0.14

> <Gold.Chemscore.Hbond.Weighted>
-4.2607

> <Gold.Chemscore.Metal.Weighted>
-0.0000

> <Gold.Chemscore.Lipo.Weighted>
-12.2257

> <Gold.Chemscore.Internal_Hbond.Weighted>
0.0000

> <Gold.Chemscore.DEClash.Weighted>
0.0258

> <Gold.Chemscore.DEInternal.Weighted>
0.6706

> <Gold.Chemscore.Rot.Weighted>
2.9874

> <Gold.Chemscore.Internal.Correction.Weighted>
   9.000000E+99

> <Gold.Protein.RotatedTorsions>
[ 6907 6896 6895 6894 ] final   17.63 input  -60.11 | X-H torsion
[ 7974 7965 7964 7962 ] final  129.11 input  175.53 | X-H torsion
[ 8008 7997 7996 7995 ] final -168.87 input   59.86 | X-H torsion
[ 10167 10162 10161 10158 ] final   38.57 input  -65.29 | X-H torsion
[ 10718 10713 10712 10709 ] final  -70.73 input   66.30 | X-H torsion
[ 10763 10752 10751 10750 ] final  179.50 input  -60.55 | X-H torsion
[ 11005 11000 10999 10996 ] final  -41.49 input  -57.11 | X-H torsion

> <Gold.Protein.ActiveResidues>
 VAL166  LYS551  ARG553  GLY616  TRP617  ASP618  TYR619  PRO620  LYS621  CYS622 
 ASP623  PHE694  ASN695  SER759  ASP760  ASP761  ALA762  ILE779  LEU786  VAL792 
 PHE793  MET794  SER795  GLU796  ALA797  LYS798  CYS799  TRP800  GLU811  SER814 

> <Gold.Protein.RotatedAtoms>
  151.8526  135.0552  160.0460 H   0  0  0  0  0  0  0  0  0  0  0  0  # atno 6907 bound_to 6896
  152.2724  133.5390  159.5456 H   0  0  0  0  0  0  0  0  0  0  0  0  # atno 6908 bound_to 6896
  150.7157  134.0594  159.3868 H   0  0  0  0  0  0  0  0  0  0  0  0  # atno 6909 bound_to 6896
  145.0322  139.4036  143.5144 H   0  0  0  0  0  0  0  0  0  0  0  0  # atno 7974 bound_to 7965
  155.8972  140.1035  157.1376 H   0  0  0  0  0  0  0  0  0  0  0  0  # atno 8008 bound_to 7997
  154.4022  140.1299  156.4455 H   0  0  0  0  0  0  0  0  0  0  0  0  # atno 8009 bound_to 7997
  155.7465  140.3466  155.5131 H   0  0  0  0  0  0  0  0  0  0  0  0  # atno 8010 bound_to 7997
  140.3923  144.1835  150.6131 H   0  0  0  0  0  0  0  0  0  0  0  0  # atno 10167 bound_to 10162
  156.0394  130.4337  150.2339 H   0  0  0  0  0  0  0  0  0  0  0  0  # atno 10718 bound_to 10713
  154.5214  135.2794  155.1259 H   0  0  0  0  0  0  0  0  0  0  0  0  # atno 10763 bound_to 10752
  154.2815  135.6284  153.5352 H   0  0  0  0  0  0  0  0  0  0  0  0  # atno 10764 bound_to 10752
  152.9937  135.5652  154.5704 H   0  0  0  0  0  0  0  0  0  0  0  0  # atno 10765 bound_to 10752
  141.0249  133.6846  156.2464 H   0  0  0  0  0  0  0  0  0  0  0  0  # atno 11005 bound_to 11000
  146.3500  139.9878  142.8689 LP  0  0  0  0  0  0  0  0  0  0  0  0  # atno 17320 bound_to 7965
  145.1755  140.9742  143.4296 LP  0  0  0  0  0  0  0  0  0  0  0  0  # atno 17321 bound_to 7965
  140.4826  143.2374  151.8933 LP  0  0  0  0  0  0  0  0  0  0  0  0  # atno 17342 bound_to 10162
  139.4788  144.5252  151.8744 LP  0  0  0  0  0  0  0  0  0  0  0  0  # atno 17343 bound_to 10162
  157.0435  131.0042  151.3276 LP  0  0  0  0  0  0  0  0  0  0  0  0  # atno 17370 bound_to 10713
  157.5192  130.7987  149.7790 LP  0  0  0  0  0  0  0  0  0  0  0  0  # atno 17371 bound_to 10713
  140.6508  134.5069  157.5577 LP  0  0  0  0  0  0  0  0  0  0  0  0  # atno 17394 bound_to 11000
  139.9170  134.8227  156.1335 LP  0  0  0  0  0  0  0  0  0  0  0  0  # atno 17395 bound_to 11000

$$$$
