AV-unprocessed.smi:1451|AV-procd|sdf|5901|dock6
  -GOLD-   22720 5583D 1   1.00000     0.00000
 Structure written by MMmdl.
 47 48  0  0  0  0  0  0  0  0  2 V2000
  151.1652  130.1459  154.7154 C   0  0  0  0  0  0  0  0  0  0  0  0
  149.6551  130.4373  154.7678 C   0  0  2  0  0  0  0  0  0  0  0  0
  149.2202  131.5210  153.7642 C   0  0  0  0  0  0  0  0  0  0  0  0
  149.6542  132.9179  154.2299 C   0  0  0  0  0  0  0  0  0  0  0  0
  149.1701  133.1977  155.6613 C   0  0  0  0  0  0  0  0  0  0  0  0
  149.6441  132.1503  156.6025 N   0  3  1  0  0  0  0  0  0  0  0  0
  149.3214  132.4779  158.0144 C   0  0  0  0  0  0  0  0  0  0  0  0
  147.8215  132.3370  158.3225 C   0  0  0  0  0  0  0  0  0  0  0  0
  147.5550  132.6689  159.7156 N   0  0  0  0  0  0  0  0  0  0  0  0
  147.9829  133.7822  160.3278 C   0  0  0  0  0  0  0  0  0  0  0  0
  148.6346  134.6569  159.7561 O   0  0  0  0  0  0  0  0  0  0  0  0
  147.5951  133.9355  161.8050 C   0  0  0  0  0  0  0  0  0  0  0  0
  146.6484  135.0391  162.0368 N   0  0  0  0  0  0  0  0  0  0  0  0
  145.2834  134.7068  162.1442 C   0  0  0  0  0  0  0  0  0  0  0  0
  144.3186  135.6262  162.3393 C   0  0  0  0  0  0  0  0  0  0  0  0
  142.8589  135.2316  162.5021 C   0  0  0  0  0  0  0  0  0  0  0  0
  142.4066  134.6049  161.4156 F   0  0  0  0  0  0  0  0  0  0  0  0
  142.7252  134.4095  163.5417 F   0  0  0  0  0  0  0  0  0  0  0  0
  142.0924  136.3016  162.7175 F   0  0  0  0  0  0  0  0  0  0  0  0
  144.7554  137.0024  162.4707 C   0  0  0  0  0  0  0  0  0  0  0  0
  146.0573  137.3366  162.3775 C   0  0  0  0  0  0  0  0  0  0  0  0
  147.0924  136.3278  162.1410 C   0  0  0  0  0  0  0  0  0  0  0  0
  148.2841  136.6215  162.0424 O   0  0  0  0  0  0  0  0  0  0  0  0
  149.1800  130.7969  156.1910 C   0  0  0  0  0  0  0  0  0  0  0  0
  151.7588  131.0109  155.0107 H   0  0  0  0  0  0  0  0  0  0  0  0
  151.4742  129.8599  153.7097 H   0  0  0  0  0  0  0  0  0  0  0  0
  151.4277  129.3246  155.3830 H   0  0  0  0  0  0  0  0  0  0  0  0
  149.1550  129.5112  154.4810 H   0  0  0  0  0  0  0  0  0  0  0  0
  149.6215  131.3095  152.7723 H   0  0  0  0  0  0  0  0  0  0  0  0
  148.1340  131.5019  153.6641 H   0  0  0  0  0  0  0  0  0  0  0  0
  150.7401  133.0065  154.1841 H   0  0  0  0  0  0  0  0  0  0  0  0
  149.2583  133.6736  153.5507 H   0  0  0  0  0  0  0  0  0  0  0  0
  149.5406  134.1743  155.9752 H   0  0  0  0  0  0  0  0  0  0  0  0
  148.0803  133.2475  155.6890 H   0  0  0  0  0  0  0  0  0  0  0  0
  149.8643  131.7989  158.6737 H   0  0  0  0  0  0  0  0  0  0  0  0
  149.6737  133.4836  158.2498 H   0  0  0  0  0  0  0  0  0  0  0  0
  147.2328  132.9910  157.6787 H   0  0  0  0  0  0  0  0  0  0  0  0
  147.4901  131.3151  158.1327 H   0  0  0  0  0  0  0  0  0  0  0  0
  147.0168  132.0061  160.2550 H   0  0  0  0  0  0  0  0  0  0  0  0
  147.1751  132.9875  162.1436 H   0  0  0  0  0  0  0  0  0  0  0  0
  148.4923  134.0815  162.4100 H   0  0  0  0  0  0  0  0  0  0  0  0
  145.0684  133.6520  162.0526 H   0  0  0  0  0  0  0  0  0  0  0  0
  144.0262  137.7805  162.6413 H   0  0  0  0  0  0  0  0  0  0  0  0
  146.3464  138.3726  162.4776 H   0  0  0  0  0  0  0  0  0  0  0  0
  148.0899  130.7682  156.2326 H   0  0  0  0  0  0  0  0  0  0  0  0
  149.5333  130.0371  156.8869 H   0  0  0  0  0  0  0  0  0  0  0  0
  150.6519  132.1484  156.5339 H   0  0  0  0  0  0  0  0  0  0  0  0
  1  2  1  0  0  0  0
  1 25  1  0  0  0  0
  1 26  1  0  0  0  0
  1 27  1  0  0  0  0
  2 24  1  0  0  0  0
  2  3  1  0  0  0  0
  2 28  1  0  0  0  0
  3  4  1  0  0  0  0
  3 29  1  0  0  0  0
  3 30  1  0  0  0  0
  4  5  1  0  0  0  0
  4 31  1  0  0  0  0
  4 32  1  0  0  0  0
  5  6  1  0  0  0  0
  5 33  1  0  0  0  0
  5 34  1  0  0  0  0
  6  7  1  0  0  0  0
  6 24  1  0  0  0  0
  6 47  1  0  0  0  0
  7  8  1  0  0  0  0
  7 35  1  0  0  0  0
  7 36  1  0  0  0  0
  8  9  1  0  0  0  0
  8 37  1  0  0  0  0
  8 38  1  0  0  0  0
  9 10  1  0  0  0  0
  9 39  1  0  0  0  0
 10 11  2  0  0  0  0
 10 12  1  0  0  0  0
 12 13  1  0  0  0  0
 12 40  1  0  0  0  0
 12 41  1  0  0  0  0
 13 22  1  0  0  0  0
 13 14  1  0  0  0  0
 14 15  2  0  0  0  0
 14 42  1  0  0  0  0
 15 16  1  0  0  0  0
 15 20  1  0  0  0  0
 16 17  1  0  0  0  0
 16 18  1  0  0  0  0
 16 19  1  0  0  0  0
 20 21  2  0  0  0  0
 20 43  1  0  0  0  0
 21 22  1  0  0  0  0
 21 44  1  0  0  0  0
 22 23  2  0  0  0  0
 24 45  1  0  0  0  0
 24 46  1  0  0  0  0
M  CHG  1   6   1
M  END
> <s_m_source_file>
AV-unprocessed.smi

> <i_m_source_file_index>
1451

> <i_lp_mmshare_version>
43012

> <i_f3d_flags>
0

> <s_epik_input>
W0NIM11bQ0BASF0xW0NIMl1bQ0gyXVtDSDJdTihbQ0gyXTEpW0NIMl1bQ0gyXVtOSF1DKD1PKVtDSDJdbjJbY0hdYyhDKEYpKEYpRilbY0hdW2NIXWMyPU8=

> <s_epik_cmdline>
J2VwaWtfcHl0aG9uJywgJy1waCcsICc3LjAnLCAnLXRuJywgJzgnLCAnLW1hJywgJzIwMCcsICctbWV0YWxfYmluZGluZycsICctaW1hZScsICc8aW5maWxlLm1hZT4nLCAnLW9tYWUnLCAnPG91dGZpbGUubWFlPic=

> <r_lp_tautomer_probability>
1

> <r_epik_Ionization_Penalty>
0.00192452

> <r_epik_Ionization_Penalty_Charging>
0.00192444

> <r_epik_Ionization_Penalty_Neutral>
8.16761e-08

> <r_epik_State_Penalty>
0.00131115

> <r_epik_Charging_Adjusted_Penalty>
0.00323559

> <i_epik_Tot_Q>
1

> <i_epik_Tot_abs_Q>
1

> <r_epik_Metal_State_Penalty>
-0

> <b_epik_Metal_Only>
0

> <s_lp_Force_Field>
OPLS_2005

> <r_lp_Energy>
31.5843

> <b_lp_Chiralities_Consistent>
1

> <s_lp_Variant>
AV-unprocessed.smi:1451-3

> <Gold.Version>
5.8.1

> <Gold.Id.Protein>
6NUR|6NUR_protein|mol2

> <Gold.PLP.Fitness>
45.2487

> <Gold.PLP.PLP>
-40.3967

> <Gold.PLP.part.hbond>
-2.0000

> <Gold.PLP.part.metal>
0.0000

> <Gold.PLP.part.buried>
-4.6552

> <Gold.PLP.part.nonpolar>
-33.6352

> <Gold.PLP.part.repulsive>
0.0710

> <Gold.PLP.ligand.clash>
0.0000

> <Gold.PLP.ligand.torsion>
0.4587

> <Gold.PLP.Chemscore.Hbond>
1.8892

> <Gold.PLP.Chemscore.CHOScore>
0.0000

> <Gold.PLP.Chemscore.Metal>
0.0000

> <Gold.Chemscore.Hbonds>
donor molecule, donor type, donor heavy atom, donor atom, acceptor molecule, acceptor atom, score
      P1  H  6896  6909       L1    11  0.90
      P1  H  6931  6943       L1    23  1.00

> <Gold.PLP.Chemscore.Internal.Correction>
0.1017

> <Gold.Rescore>
     Score         DG    S(hbond)    S(metal)    S(lipo)     H(rot)  DE(clash)    DE(int)     intcor
     12.99     -14.85       1.88        0.00      71.76       2.08       0.04       1.83       ----

> <Gold.Chemscore.Fitness>
12.9853

> <Gold.Chemscore.DG>
-14.8499

> <Gold.Chemscore.ZeroCoef>
-5.4800

> <Gold.Chemscore.Hbond>
1.8830

> <Gold.Chemscore.Metal>
0.0000

> <Gold.Chemscore.Lipo>
71.7573

> <Gold.Chemscore.Internal_Hbond>
0.0000

> <Gold.Chemscore.DEClash>
0.0383

> <Gold.Chemscore.DEInternal>
1.8262

> <Gold.Chemscore.Rot>
2.0762

> <Gold.Chemscore.Internal.Correction>
   9.000000E+99

> <Gold.Chemscore.Hbonds>
donor molecule, donor type, donor heavy atom, donor atom, acceptor molecule, acceptor atom, score
      P1  H  6896  6909       L1    11  0.81
      P1  H  6931  6943       L1    23  1.00

> <Gold.Chemscore.Hbond.Weighted>
-6.2893

> <Gold.Chemscore.Metal.Weighted>
-0.0000

> <Gold.Chemscore.Lipo.Weighted>
-8.3956

> <Gold.Chemscore.Internal_Hbond.Weighted>
0.0000

> <Gold.Chemscore.DEClash.Weighted>
0.0383

> <Gold.Chemscore.DEInternal.Weighted>
1.8262

> <Gold.Chemscore.Rot.Weighted>
5.3150

> <Gold.Chemscore.Internal.Correction.Weighted>
   9.000000E+99

> <Gold.Protein.RotatedTorsions>
[ 6907 6896 6895 6894 ] final   38.74 input  -60.11 | X-H torsion
[ 7974 7965 7964 7962 ] final  -39.44 input  175.53 | X-H torsion
[ 8008 7997 7996 7995 ] final   76.78 input   59.86 | X-H torsion
[ 10167 10162 10161 10158 ] final  -82.72 input  -65.29 | X-H torsion
[ 10718 10713 10712 10709 ] final  -72.63 input   66.30 | X-H torsion
[ 10763 10752 10751 10750 ] final   83.96 input  -60.55 | X-H torsion
[ 11005 11000 10999 10996 ] final  -84.13 input  -57.11 | X-H torsion

> <Gold.Protein.ActiveResidues>
 VAL166  LYS551  ARG553  GLY616  TRP617  ASP618  TYR619  PRO620  LYS621  CYS622 
 ASP623  PHE694  ASN695  SER759  ASP760  ASP761  ALA762  ILE779  LEU786  VAL792 
 PHE793  MET794  SER795  GLU796  ALA797  LYS798  CYS799  TRP800  GLU811  SER814 

> <Gold.Protein.RotatedAtoms>
  152.1605  134.8916  160.0541 H   0  0  0  0  0  0  0  0  0  0  0  0  # atno 6907 bound_to 6896
  151.9914  133.3787  159.4154 H   0  0  0  0  0  0  0  0  0  0  0  0  # atno 6908 bound_to 6896
  150.6887  134.3855  159.5097 H   0  0  0  0  0  0  0  0  0  0  0  0  # atno 6909 bound_to 6896
  146.0396  140.6626  142.9093 H   0  0  0  0  0  0  0  0  0  0  0  0  # atno 7974 bound_to 7965
  155.8322  140.3465  155.5579 H   0  0  0  0  0  0  0  0  0  0  0  0  # atno 8008 bound_to 7997
  155.8230  140.0915  157.1857 H   0  0  0  0  0  0  0  0  0  0  0  0  # atno 8009 bound_to 7997
  154.4004  140.1426  156.3510 H   0  0  0  0  0  0  0  0  0  0  0  0  # atno 8010 bound_to 7997
  140.4293  143.2554  151.8781 H   0  0  0  0  0  0  0  0  0  0  0  0  # atno 10167 bound_to 10162
  156.0312  130.4376  150.2622 H   0  0  0  0  0  0  0  0  0  0  0  0  # atno 10718 bound_to 10713
  153.1338  135.4672  154.9390 H   0  0  0  0  0  0  0  0  0  0  0  0  # atno 10763 bound_to 10752
  154.7688  135.3152  154.8235 H   0  0  0  0  0  0  0  0  0  0  0  0  # atno 10764 bound_to 10752
  153.8772  135.6898  153.4823 H   0  0  0  0  0  0  0  0  0  0  0  0  # atno 10765 bound_to 10752
  141.1653  133.7330  156.8822 H   0  0  0  0  0  0  0  0  0  0  0  0  # atno 11005 bound_to 11000
  144.7068  140.3883  143.7112 LP  0  0  0  0  0  0  0  0  0  0  0  0  # atno 17320 bound_to 7965
  145.6907  139.1638  143.2648 LP  0  0  0  0  0  0  0  0  0  0  0  0  # atno 17321 bound_to 7965
  139.4784  144.5352  151.8609 LP  0  0  0  0  0  0  0  0  0  0  0  0  # atno 17342 bound_to 10162
  140.4445  144.1941  150.5893 LP  0  0  0  0  0  0  0  0  0  0  0  0  # atno 17343 bound_to 10162
  157.0724  131.0120  151.3185 LP  0  0  0  0  0  0  0  0  0  0  0  0  # atno 17370 bound_to 10713
  157.4989  130.7868  149.7584 LP  0  0  0  0  0  0  0  0  0  0  0  0  # atno 17371 bound_to 10713
  140.1707  134.9102  157.2829 LP  0  0  0  0  0  0  0  0  0  0  0  0  # atno 17394 bound_to 11000
  140.2506  134.3688  155.7444 LP  0  0  0  0  0  0  0  0  0  0  0  0  # atno 17395 bound_to 11000

$$$$
