AV-unprocessed.smi:990|AV-procd|sdf|4327|dock4
  -GOLD-   22720 2233D 1   1.00000     0.00000
 Structure written by MMmdl.
 45 46  0  0  0  0  0  0  0  0  2 V2000
  142.9472  134.0359  152.1923 C   0  0  0  0  0  0  0  0  0  0  0  0
  143.3779  135.3060  152.2131 C   0  0  0  0  0  0  0  0  0  0  0  0
  144.6640  135.7870  151.5695 C   0  0  0  0  0  0  0  0  0  0  0  0
  144.9389  137.1813  151.8966 N   0  0  0  0  0  0  0  0  0  0  0  0
  145.8754  137.6002  152.7600 C   0  0  0  0  0  0  0  0  0  0  0  0
  146.6088  136.8368  153.3883 O   0  0  0  0  0  0  0  0  0  0  0  0
  145.8896  138.9415  152.8536 N   0  0  0  0  0  0  0  0  0  0  0  0
  146.7416  139.7624  153.6412 C   0  0  0  0  0  0  0  0  0  0  0  0
  147.0768  141.1004  153.3137 C   0  0  0  0  0  0  0  0  0  0  0  0
  147.9231  141.8339  154.1700 C   0  0  0  0  0  0  0  0  0  0  0  0
  148.4178  141.2266  155.3470 C   0  0  0  0  0  0  0  0  0  0  0  0
  149.2705  141.8739  156.2512 N   0  0  0  0  0  0  0  0  0  0  0  0
  150.6403  141.3794  156.2011 C   0  0  0  0  0  0  0  0  0  0  0  0
  151.5622  142.2303  157.0920 C   0  0  0  0  0  0  0  0  0  0  0  0
  151.0415  142.3087  158.4716 N   0  0  0  0  0  0  0  0  0  0  0  0
  152.1132  142.8946  159.7021 S   0  0  0  0  0  0  0  0  0  0  0  0
  152.2553  144.6887  159.3172 C   0  0  0  0  0  0  0  0  0  0  0  0
  151.4230  142.7684  160.9948 O   0  0  0  0  0  0  0  0  0  0  0  0
  153.4204  142.2513  159.5007 O   0  0  0  0  0  0  0  0  0  0  0  0
  149.6302  142.7386  158.5328 C   0  0  0  0  0  0  0  0  0  0  0  0
  148.7487  141.8776  157.6117 C   0  0  0  0  0  0  0  0  0  0  0  0
  148.0610  139.9550  155.6311 N   0  3  0  0  0  0  0  0  0  0  0  0
  147.2520  139.2185  154.8386 C   0  0  0  0  0  0  0  0  0  0  0  0
  143.5143  133.2579  151.7026 H   0  0  0  0  0  0  0  0  0  0  0  0
  142.0177  133.7582  152.6670 H   0  0  0  0  0  0  0  0  0  0  0  0
  142.7786  136.0558  152.7095 H   0  0  0  0  0  0  0  0  0  0  0  0
  145.5019  135.1764  151.9070 H   0  0  0  0  0  0  0  0  0  0  0  0
  144.5945  135.6568  150.4883 H   0  0  0  0  0  0  0  0  0  0  0  0
  144.3759  137.8760  151.4276 H   0  0  0  0  0  0  0  0  0  0  0  0
  145.1701  139.4289  152.3398 H   0  0  0  0  0  0  0  0  0  0  0  0
  146.6933  141.5847  152.4293 H   0  0  0  0  0  0  0  0  0  0  0  0
  148.1843  142.8518  153.9205 H   0  0  0  0  0  0  0  0  0  0  0  0
  150.6710  140.3398  156.5306 H   0  0  0  0  0  0  0  0  0  0  0  0
  151.0006  141.3983  155.1718 H   0  0  0  0  0  0  0  0  0  0  0  0
  152.5607  141.7938  157.0953 H   0  0  0  0  0  0  0  0  0  0  0  0
  151.6571  143.2403  156.6907 H   0  0  0  0  0  0  0  0  0  0  0  0
  152.8504  145.1750  160.0899 H   0  0  0  0  0  0  0  0  0  0  0  0
  151.2621  145.1366  159.2939 H   0  0  0  0  0  0  0  0  0  0  0  0
  152.7436  144.8297  158.3541 H   0  0  0  0  0  0  0  0  0  0  0  0
  149.2636  142.6691  159.5558 H   0  0  0  0  0  0  0  0  0  0  0  0
  149.5667  143.7890  158.2446 H   0  0  0  0  0  0  0  0  0  0  0  0
  147.7279  142.2623  157.6124 H   0  0  0  0  0  0  0  0  0  0  0  0
  148.7051  140.8565  157.9937 H   0  0  0  0  0  0  0  0  0  0  0  0
  147.0458  138.2153  155.1836 H   0  0  0  0  0  0  0  0  0  0  0  0
  148.4204  139.5294  156.4861 H   0  0  0  0  0  0  0  0  0  0  0  0
  1  2  2  0  0  0  0
  1 24  1  0  0  0  0
  1 25  1  0  0  0  0
  2  3  1  0  0  0  0
  2 26  1  0  0  0  0
  3  4  1  0  0  0  0
  3 27  1  0  0  0  0
  3 28  1  0  0  0  0
  4  5  1  0  0  0  0
  4 29  1  0  0  0  0
  5  6  2  0  0  0  0
  5  7  1  0  0  0  0
  7  8  1  0  0  0  0
  7 30  1  0  0  0  0
  8 23  1  0  0  0  0
  8  9  2  0  0  0  0
  9 10  1  0  0  0  0
  9 31  1  0  0  0  0
 10 11  2  0  0  0  0
 10 32  1  0  0  0  0
 11 12  1  0  0  0  0
 11 22  1  0  0  0  0
 12 21  1  0  0  0  0
 12 13  1  0  0  0  0
 13 14  1  0  0  0  0
 13 33  1  0  0  0  0
 13 34  1  0  0  0  0
 14 15  1  0  0  0  0
 14 35  1  0  0  0  0
 14 36  1  0  0  0  0
 15 16  1  0  0  0  0
 15 20  1  0  0  0  0
 16 17  1  0  0  0  0
 16 18  2  0  0  0  0
 16 19  2  0  0  0  0
 17 37  1  0  0  0  0
 17 38  1  0  0  0  0
 17 39  1  0  0  0  0
 20 21  1  0  0  0  0
 20 40  1  0  0  0  0
 20 41  1  0  0  0  0
 21 42  1  0  0  0  0
 21 43  1  0  0  0  0
 22 23  2  0  0  0  0
 22 45  1  0  0  0  0
 23 44  1  0  0  0  0
M  CHG  1  22   1
M  END
> <s_m_source_file>
AV-unprocessed.smi

> <i_m_source_file_index>
990

> <i_lp_mmshare_version>
43012

> <i_f3d_flags>
0

> <s_epik_input>
W0NIMl09W0NIXVtDSDJdW05IXUMoPU8pW05IXWMxW2NIXVtjSF1jKG5bY0hdMSlOMltDSDJdW0NIMl1OKFMoPU8pKD1PKVtDSDNdKVtDSDJdW0NIMl0y

> <s_epik_cmdline>
J2VwaWtfcHl0aG9uJywgJy1waCcsICc3LjAnLCAnLXRuJywgJzgnLCAnLW1hJywgJzIwMCcsICctbWV0YWxfYmluZGluZycsICctaW1hZScsICc8aW5maWxlLm1hZT4nLCAnLW9tYWUnLCAnPG91dGZpbGUubWFlPic=

> <r_lp_tautomer_probability>
0.999994

> <r_epik_Ionization_Penalty>
0.881759

> <r_epik_Ionization_Penalty_Charging>
0.881739

> <r_epik_Ionization_Penalty_Neutral>
2.00436e-05

> <r_epik_State_Penalty>
0.920006

> <r_epik_Charging_Adjusted_Penalty>
1.80175

> <i_epik_Tot_Q>
1

> <i_epik_Tot_abs_Q>
1

> <r_epik_Metal_State_Penalty>
1.04263

> <b_epik_Metal_Only>
0

> <s_lp_Force_Field>
OPLS_2005

> <r_lp_Energy>
28.5026

> <b_lp_Chiralities_Consistent>
1

> <s_lp_Variant>
AV-unprocessed.smi:990-2

> <Gold.Version>
5.8.1

> <Gold.Id.Protein>
6NUR|6NUR_protein|mol2

> <Gold.PLP.Fitness>
40.6925

> <Gold.PLP.PLP>
-35.2595

> <Gold.PLP.part.hbond>
-3.0000

> <Gold.PLP.part.metal>
0.0000

> <Gold.PLP.part.buried>
-8.4065

> <Gold.PLP.part.nonpolar>
-26.2055

> <Gold.PLP.part.repulsive>
2.3644

> <Gold.PLP.ligand.clash>
0.0000

> <Gold.PLP.ligand.torsion>
0.7507

> <Gold.PLP.Chemscore.Hbond>
2.0726

> <Gold.PLP.Chemscore.CHOScore>
0.0000

> <Gold.PLP.Chemscore.Metal>
0.0000

> <Gold.Chemscore.Hbonds>
donor molecule, donor type, donor heavy atom, donor atom, acceptor molecule, acceptor atom, score
      L1  H     4    29       P1 10171  0.93
      L1  H     7    30       P1 10175  0.93
      P1  H  6933  6945       L1    18  0.23

> <Gold.PLP.Chemscore.Internal.Correction>
0.7165

> <Gold.Rescore>
     Score         DG    S(hbond)    S(metal)    S(lipo)     H(rot)  DE(clash)    DE(int)     intcor
     14.39     -16.72       2.21        0.00      71.66       1.77       0.14       2.18       ----

> <Gold.Chemscore.Fitness>
14.3937

> <Gold.Chemscore.DG>
-16.7167

> <Gold.Chemscore.ZeroCoef>
-5.4800

> <Gold.Chemscore.Hbond>
2.2123

> <Gold.Chemscore.Metal>
0.0000

> <Gold.Chemscore.Lipo>
71.6631

> <Gold.Chemscore.Internal_Hbond>
0.0000

> <Gold.Chemscore.DEClash>
0.1436

> <Gold.Chemscore.DEInternal>
2.1793

> <Gold.Chemscore.Rot>
1.7723

> <Gold.Chemscore.Internal.Correction>
   9.000000E+99

> <Gold.Chemscore.Hbonds>
donor molecule, donor type, donor heavy atom, donor atom, acceptor molecule, acceptor atom, score
      L1  H     4    29       P1 10171  0.91
      L1  H     7    30       P1 10175  0.90
      P1  H  6933  6945       L1    18  0.23

> <Gold.Chemscore.Hbond.Weighted>
-7.3892

> <Gold.Chemscore.Metal.Weighted>
-0.0000

> <Gold.Chemscore.Lipo.Weighted>
-8.3846

> <Gold.Chemscore.Internal_Hbond.Weighted>
0.0000

> <Gold.Chemscore.DEClash.Weighted>
0.1436

> <Gold.Chemscore.DEInternal.Weighted>
2.1793

> <Gold.Chemscore.Rot.Weighted>
4.5371

> <Gold.Chemscore.Internal.Correction.Weighted>
   9.000000E+99

> <Gold.Protein.RotatedTorsions>
[ 6907 6896 6895 6894 ] final -142.07 input  -60.11 | X-H torsion
[ 7974 7965 7964 7962 ] final  119.49 input  175.53 | X-H torsion
[ 8008 7997 7996 7995 ] final  170.49 input   59.86 | X-H torsion
[ 10167 10162 10161 10158 ] final   36.41 input  -65.29 | X-H torsion
[ 10718 10713 10712 10709 ] final   82.97 input   66.30 | X-H torsion
[ 10763 10752 10751 10750 ] final -109.03 input  -60.55 | X-H torsion
[ 11005 11000 10999 10996 ] final  -48.92 input  -57.11 | X-H torsion

> <Gold.Protein.ActiveResidues>
 VAL166  LYS551  ARG553  GLY616  TRP617  ASP618  TYR619  PRO620  LYS621  CYS622 
 ASP623  PHE694  ASN695  SER759  ASP760  ASP761  ALA762  ILE779  LEU786  VAL792 
 PHE793  MET794  SER795  GLU796  ALA797  LYS798  CYS799  TRP800  GLU811  SER814 

> <Gold.Protein.RotatedAtoms>
  151.0822  133.5381  159.2619 H   0  0  0  0  0  0  0  0  0  0  0  0  # atno 6907 bound_to 6896
  151.2280  135.0543  159.8986 H   0  0  0  0  0  0  0  0  0  0  0  0  # atno 6908 bound_to 6896
  152.5425  134.0615  159.8208 H   0  0  0  0  0  0  0  0  0  0  0  0  # atno 6909 bound_to 6896
  145.1425  139.3259  143.4609 H   0  0  0  0  0  0  0  0  0  0  0  0  # atno 7974 bound_to 7965
  156.1361  140.1536  156.8992 H   0  0  0  0  0  0  0  0  0  0  0  0  # atno 8008 bound_to 7997
  154.4948  140.0841  156.7712 H   0  0  0  0  0  0  0  0  0  0  0  0  # atno 8009 bound_to 7997
  155.4166  140.3421  155.4270 H   0  0  0  0  0  0  0  0  0  0  0  0  # atno 8010 bound_to 7997
  140.4130  144.1566  150.6141 H   0  0  0  0  0  0  0  0  0  0  0  0  # atno 10167 bound_to 10162
  157.6869  131.0070  150.2453 H   0  0  0  0  0  0  0  0  0  0  0  0  # atno 10718 bound_to 10713
  154.8170  135.4616  154.0670 H   0  0  0  0  0  0  0  0  0  0  0  0  # atno 10763 bound_to 10752
  153.2055  135.6875  153.8184 H   0  0  0  0  0  0  0  0  0  0  0  0  # atno 10764 bound_to 10752
  153.7654  135.3278  155.3320 H   0  0  0  0  0  0  0  0  0  0  0  0  # atno 10765 bound_to 10752
  141.0729  133.6674  156.3511 H   0  0  0  0  0  0  0  0  0  0  0  0  # atno 11005 bound_to 11000
  146.3503  140.1467  142.8593 LP  0  0  0  0  0  0  0  0  0  0  0  0  # atno 17320 bound_to 7965
  145.0517  140.9023  143.4991 LP  0  0  0  0  0  0  0  0  0  0  0  0  # atno 17321 bound_to 7965
  140.4617  143.2446  151.9210 LP  0  0  0  0  0  0  0  0  0  0  0  0  # atno 17342 bound_to 10162
  139.4782  144.5460  151.8457 LP  0  0  0  0  0  0  0  0  0  0  0  0  # atno 17343 bound_to 10162
  156.3060  130.3765  149.7706 LP  0  0  0  0  0  0  0  0  0  0  0  0  # atno 17370 bound_to 10713
  156.5321  130.8262  151.3240 LP  0  0  0  0  0  0  0  0  0  0  0  0  # atno 17371 bound_to 10713
  140.5635  134.5911  157.5439 LP  0  0  0  0  0  0  0  0  0  0  0  0  # atno 17394 bound_to 11000
  139.9542  134.7564  156.0379 LP  0  0  0  0  0  0  0  0  0  0  0  0  # atno 17395 bound_to 11000

$$$$
