AV-unprocessed.smi:2767|AV-procd|sdf|10647|dock1
  -GOLD-   2272015 93D 1   1.00000     0.00000
 Structure written by MMmdl.
 34 36  0  0  0  0  0  0  0  0  1 V2000
  149.3391  144.0453  161.1546 O   0  0  0  0  0  0  0  0  0  0  0  0
  148.9876  144.5984  160.1122 C   0  0  0  0  0  0  0  0  0  0  0  0
  149.8483  145.0960  159.2129 N   0  0  0  0  0  0  0  0  0  0  0  0
  151.3010  145.0196  159.3172 C   0  0  0  0  0  0  0  0  0  0  0  0
  151.9136  143.6546  159.0275 C   0  0  0  0  0  0  0  0  0  0  0  0
  151.3980  142.9747  157.7615 C   0  0  0  0  0  0  0  0  0  0  0  0
  150.1094  142.1862  157.7975 C   0  0  0  0  0  0  0  0  0  0  0  0
  151.4156  141.4777  157.5286 C   0  0  0  0  0  0  0  0  0  0  0  0
  153.3880  143.4825  159.3352 C   0  0  0  0  0  0  0  0  0  0  0  0
  152.3640  142.8314  160.2245 C   0  0  0  0  0  0  0  0  0  0  0  0
  147.7147  144.7785  159.7179 N   0  0  0  0  0  0  0  0  0  0  0  0
  146.5252  144.3600  160.3717 C   0  0  0  0  0  0  0  0  0  0  0  0
  145.3257  144.6990  159.7052 C   0  0  0  0  0  0  0  0  0  0  0  0
  144.0900  144.3266  160.2694 C   0  0  0  0  0  0  0  0  0  0  0  0
  144.0877  143.6242  161.4875 C   0  0  0  0  0  0  0  0  0  0  0  0
  142.9245  143.2455  162.0682 F   0  0  0  0  0  0  0  0  0  0  0  0
  145.3253  143.3254  162.0868 C   0  0  0  0  0  0  0  0  0  0  0  0
  146.5103  143.6816  161.5468 N   0  0  0  0  0  0  0  0  0  0  0  0
  149.4741  145.5357  158.3850 H   0  0  0  0  0  0  0  0  0  0  0  0
  151.7143  145.7318  158.6026 H   0  0  0  0  0  0  0  0  0  0  0  0
  151.6150  145.3693  160.3024 H   0  0  0  0  0  0  0  0  0  0  0  0
  151.5535  143.5634  156.8593 H   0  0  0  0  0  0  0  0  0  0  0  0
  149.6421  142.0248  158.7672 H   0  0  0  0  0  0  0  0  0  0  0  0
  149.4213  142.3150  156.9647 H   0  0  0  0  0  0  0  0  0  0  0  0
  151.5930  141.1337  156.5120 H   0  0  0  0  0  0  0  0  0  0  0  0
  151.8011  140.8227  158.3053 H   0  0  0  0  0  0  0  0  0  0  0  0
  153.9709  142.8316  158.6868 H   0  0  0  0  0  0  0  0  0  0  0  0
  153.9272  144.3385  159.7365 H   0  0  0  0  0  0  0  0  0  0  0  0
  152.2243  143.2590  161.2155 H   0  0  0  0  0  0  0  0  0  0  0  0
  152.2752  141.7492  160.1853 H   0  0  0  0  0  0  0  0  0  0  0  0
  147.5819  145.2561  158.8387 H   0  0  0  0  0  0  0  0  0  0  0  0
  145.3472  145.2391  158.7697 H   0  0  0  0  0  0  0  0  0  0  0  0
  143.1623  144.5754  159.7757 H   0  0  0  0  0  0  0  0  0  0  0  0
  145.3664  142.7876  163.0224 H   0  0  0  0  0  0  0  0  0  0  0  0
  1  2  2  0  0  0  0
  2  3  1  0  0  0  0
  2 11  1  0  0  0  0
  3  4  1  0  0  0  0
  3 19  1  0  0  0  0
  4  5  1  0  0  0  0
  4 20  1  0  0  0  0
  4 21  1  0  0  0  0
  5 10  1  0  0  0  0
  5  6  1  0  0  0  0
  5  9  1  0  0  0  0
  6  8  1  0  0  0  0
  6  7  1  0  0  0  0
  6 22  1  0  0  0  0
  7  8  1  0  0  0  0
  7 23  1  0  0  0  0
  7 24  1  0  0  0  0
  8 25  1  0  0  0  0
  8 26  1  0  0  0  0
  9 10  1  0  0  0  0
  9 27  1  0  0  0  0
  9 28  1  0  0  0  0
 10 29  1  0  0  0  0
 10 30  1  0  0  0  0
 11 12  1  0  0  0  0
 11 31  1  0  0  0  0
 12 18  1  0  0  0  0
 12 13  2  0  0  0  0
 13 14  1  0  0  0  0
 13 32  1  0  0  0  0
 14 15  2  0  0  0  0
 14 33  1  0  0  0  0
 15 16  1  0  0  0  0
 15 17  1  0  0  0  0
 17 18  2  0  0  0  0
 17 34  1  0  0  0  0
M  END
> <s_m_source_file>
AV-unprocessed.smi

> <i_m_source_file_index>
2767

> <i_lp_mmshare_version>
43012

> <i_f3d_flags>
0

> <s_epik_input>
W0NIMl0xW0NIMl1bQ0hdMUMyKFtDSDJdW0NIMl0yKVtDSDJdW05IXUMoPU8pW05IXWMzW2NIXVtjSF1jKEYpW2NIXW4z

> <s_epik_cmdline>
J2VwaWtfcHl0aG9uJywgJy1waCcsICc3LjAnLCAnLXRuJywgJzgnLCAnLW1hJywgJzIwMCcsICctbWV0YWxfYmluZGluZycsICctaW1hZScsICc8aW5maWxlLm1hZT4nLCAnLW9tYWUnLCAnPG91dGZpbGUubWFlPic=

> <r_lp_tautomer_probability>
1

> <r_epik_Ionization_Penalty>
3.94364e-05

> <r_epik_Ionization_Penalty_Charging>
0

> <r_epik_Ionization_Penalty_Neutral>
3.94364e-05

> <r_epik_State_Penalty>
-0

> <r_epik_Charging_Adjusted_Penalty>
0

> <i_epik_Tot_Q>
0

> <i_epik_Tot_abs_Q>
0

> <r_epik_Metal_State_Penalty>
-0

> <b_epik_Metal_Only>
0

> <s_lp_Force_Field>
OPLS_2005

> <r_lp_Energy>
31.6765

> <b_lp_Chiralities_Consistent>
1

> <s_lp_Variant>
AV-unprocessed.smi:2767-1

> <Gold.Version>
5.8.1

> <Gold.Id.Protein>
6NUR|6NUR_protein|mol2

> <Gold.PLP.Fitness>
47.0330

> <Gold.PLP.PLP>
-40.2289

> <Gold.PLP.part.hbond>
-3.0000

> <Gold.PLP.part.metal>
0.0000

> <Gold.PLP.part.buried>
-7.7975

> <Gold.PLP.part.nonpolar>
-30.6782

> <Gold.PLP.part.repulsive>
0.6465

> <Gold.PLP.ligand.clash>
0.0000

> <Gold.PLP.ligand.torsion>
1.4164

> <Gold.PLP.Chemscore.Hbond>
2.3600

> <Gold.PLP.Chemscore.CHOScore>
0.0000

> <Gold.PLP.Chemscore.Metal>
0.0000

> <Gold.Chemscore.Hbonds>
donor molecule, donor type, donor heavy atom, donor atom, acceptor molecule, acceptor atom, score
      L1  H     3    19       P1  8029  0.99
      L1  H    11    31       P1  8029  1.00
      P1  H  6933  6944       L1     1  0.40

> <Gold.PLP.Chemscore.Internal.Correction>
2.5570

> <Gold.Rescore>
     Score         DG    S(hbond)    S(metal)    S(lipo)     H(rot)  DE(clash)    DE(int)     intcor
     17.59     -20.45       2.25        0.00      95.58       1.46       0.13       2.73       ----

> <Gold.Chemscore.Fitness>
17.5935

> <Gold.Chemscore.DG>
-20.4495

> <Gold.Chemscore.ZeroCoef>
-5.4800

> <Gold.Chemscore.Hbond>
2.2532

> <Gold.Chemscore.Metal>
0.0000

> <Gold.Chemscore.Lipo>
95.5840

> <Gold.Chemscore.Internal_Hbond>
0.0000

> <Gold.Chemscore.DEClash>
0.1300

> <Gold.Chemscore.DEInternal>
2.7261

> <Gold.Chemscore.Rot>
1.4608

> <Gold.Chemscore.Internal.Correction>
   9.000000E+99

> <Gold.Chemscore.Hbonds>
donor molecule, donor type, donor heavy atom, donor atom, acceptor molecule, acceptor atom, score
      L1  H     3    19       P1  8029  0.76
      L1  H    11    31       P1  8029  1.00
      P1  H  6933  6944       L1     1  0.36

> <Gold.Chemscore.Hbond.Weighted>
-7.5258

> <Gold.Chemscore.Metal.Weighted>
-0.0000

> <Gold.Chemscore.Lipo.Weighted>
-11.1833

> <Gold.Chemscore.Internal_Hbond.Weighted>
0.0000

> <Gold.Chemscore.DEClash.Weighted>
0.1300

> <Gold.Chemscore.DEInternal.Weighted>
2.7261

> <Gold.Chemscore.Rot.Weighted>
3.7396

> <Gold.Chemscore.Internal.Correction.Weighted>
   9.000000E+99

> <Gold.Protein.RotatedTorsions>
[ 6907 6896 6895 6894 ] final  -58.73 input  -60.11 | X-H torsion
[ 7974 7965 7964 7962 ] final  -38.18 input  175.53 | X-H torsion
[ 8008 7997 7996 7995 ] final -161.88 input   59.86 | X-H torsion
[ 10167 10162 10161 10158 ] final -108.21 input  -65.29 | X-H torsion
[ 10718 10713 10712 10709 ] final  -42.05 input   66.30 | X-H torsion
[ 10763 10752 10751 10750 ] final   25.04 input  -60.55 | X-H torsion
[ 11005 11000 10999 10996 ] final  177.38 input  -57.11 | X-H torsion

> <Gold.Protein.ActiveResidues>
 VAL166  LYS551  ARG553  GLY616  TRP617  ASP618  TYR619  PRO620  LYS621  CYS622 
 ASP623  PHE694  ASN695  SER759  ASP760  ASP761  ALA762  ILE779  LEU786  VAL792 
 PHE793  MET794  SER795  GLU796  ALA797  LYS798  CYS799  TRP800  GLU811  SER814 

> <Gold.Protein.RotatedAtoms>
  150.7984  134.7061  159.6576 H   0  0  0  0  0  0  0  0  0  0  0  0  # atno 6907 bound_to 6896
  152.4099  134.6139  160.0043 H   0  0  0  0  0  0  0  0  0  0  0  0  # atno 6908 bound_to 6896
  151.6385  133.3290  159.3161 H   0  0  0  0  0  0  0  0  0  0  0  0  # atno 6909 bound_to 6896
  146.0509  140.6482  142.9042 H   0  0  0  0  0  0  0  0  0  0  0  0  # atno 7974 bound_to 7965
  155.7987  140.0888  157.1969 H   0  0  0  0  0  0  0  0  0  0  0  0  # atno 8008 bound_to 7997
  154.3982  140.1476  156.3307 H   0  0  0  0  0  0  0  0  0  0  0  0  # atno 8009 bound_to 7997
  155.8485  140.3435  155.5680 H   0  0  0  0  0  0  0  0  0  0  0  0  # atno 8010 bound_to 7997
  140.1686  143.4061  152.1371 H   0  0  0  0  0  0  0  0  0  0  0  0  # atno 10167 bound_to 10162
  156.2638  130.4199  149.8513 H   0  0  0  0  0  0  0  0  0  0  0  0  # atno 10718 bound_to 10713
  153.0720  135.6592  154.0227 H   0  0  0  0  0  0  0  0  0  0  0  0  # atno 10763 bound_to 10752
  153.9870  135.2949  155.3417 H   0  0  0  0  0  0  0  0  0  0  0  0  # atno 10764 bound_to 10752
  154.7097  135.5210  153.8718 H   0  0  0  0  0  0  0  0  0  0  0  0  # atno 10765 bound_to 10752
  140.3835  134.6925  157.4465 H   0  0  0  0  0  0  0  0  0  0  0  0  # atno 11005 bound_to 11000
  144.7122  140.4081  143.7071 LP  0  0  0  0  0  0  0  0  0  0  0  0  # atno 17320 bound_to 7965
  145.6725  139.1602  143.2746 LP  0  0  0  0  0  0  0  0  0  0  0  0  # atno 17321 bound_to 7965
  139.5348  144.7198  151.4931 LP  0  0  0  0  0  0  0  0  0  0  0  0  # atno 17342 bound_to 10162
  140.6597  143.8525  150.6874 LP  0  0  0  0  0  0  0  0  0  0  0  0  # atno 17343 bound_to 10162
  156.6018  130.8550  151.3433 LP  0  0  0  0  0  0  0  0  0  0  0  0  # atno 17370 bound_to 10713
  157.7260  130.9623  150.1638 LP  0  0  0  0  0  0  0  0  0  0  0  0  # atno 17371 bound_to 10713
  140.0460  134.6198  155.8920 LP  0  0  0  0  0  0  0  0  0  0  0  0  # atno 17394 bound_to 11000
  141.1915  133.6572  156.5461 LP  0  0  0  0  0  0  0  0  0  0  0  0  # atno 17395 bound_to 11000

$$$$
