AV-unprocessed.smi:1750|AV-procd|sdf|7054|dock9
  -GOLD-   22720 8273D 1   1.00000     0.00000
 Structure written by MMmdl.
 35 36  0  0  0  0  0  0  0  0  2 V2000
  146.2636  142.5471  154.5627 C   0  0  0  0  0  0  0  0  0  0  0  0
  147.4495  141.7434  155.1066 C   0  0  0  0  0  0  0  0  0  0  0  0
  148.5622  141.5558  154.0660 C   0  0  0  0  0  0  0  0  0  0  0  0
  149.7604  140.8660  154.6281 C   0  0  0  0  0  0  0  0  0  0  0  0
  150.2852  139.7648  154.0844 N   0  0  0  0  0  0  0  0  0  0  0  0
  151.3746  139.2949  154.8037 N   0  0  0  0  0  0  0  0  0  0  0  0
  151.6400  140.0276  155.8947 C   0  0  0  0  0  0  0  0  0  0  0  0
  152.6508  139.7381  156.7310 N   0  5  0  0  0  0  0  0  0  0  0  0
  152.4210  139.6459  158.0607 C   0  0  0  0  0  0  0  0  0  0  0  0
  151.6966  138.8207  158.6221 O   0  0  0  0  0  0  0  0  0  0  0  0
  153.0688  140.5662  158.7864 N   0  0  0  0  0  0  0  0  0  0  0  0
  153.0056  140.6900  160.2374 C   0  0  0  0  0  0  0  0  0  0  0  0
  153.0722  142.1632  160.6649 C   0  0  2  0  0  0  0  0  0  0  0  0
  153.2266  142.3892  162.1674 C   0  0  0  0  0  0  0  0  0  0  0  0
  152.6961  143.8003  162.3575 C   0  0  0  0  0  0  0  0  0  0  0  0
  151.8385  144.0470  161.1114 C   0  0  0  0  0  0  0  0  0  0  0  0
  151.8474  142.8225  160.3877 O   0  0  0  0  0  0  0  0  0  0  0  0
  150.5530  141.4005  156.1007 S   0  0  0  0  0  0  0  0  0  0  0  0
  145.4895  142.6584  155.3220 H   0  0  0  0  0  0  0  0  0  0  0  0
  145.8158  142.0529  153.7002 H   0  0  0  0  0  0  0  0  0  0  0  0
  146.5736  143.5459  154.2544 H   0  0  0  0  0  0  0  0  0  0  0  0
  147.8523  142.2494  155.9848 H   0  0  0  0  0  0  0  0  0  0  0  0
  147.0984  140.7682  155.4464 H   0  0  0  0  0  0  0  0  0  0  0  0
  148.1900  140.9783  153.2188 H   0  0  0  0  0  0  0  0  0  0  0  0
  148.8736  142.5233  153.6709 H   0  0  0  0  0  0  0  0  0  0  0  0
  153.6534  141.2244  158.2929 H   0  0  0  0  0  0  0  0  0  0  0  0
  152.0793  140.2441  160.6029 H   0  0  0  0  0  0  0  0  0  0  0  0
  153.8285  140.1286  160.6823 H   0  0  0  0  0  0  0  0  0  0  0  0
  153.8727  142.6752  160.1272 H   0  0  0  0  0  0  0  0  0  0  0  0
  152.6025  141.6849  162.7192 H   0  0  0  0  0  0  0  0  0  0  0  0
  154.2545  142.2707  162.5112 H   0  0  0  0  0  0  0  0  0  0  0  0
  152.1199  143.8891  163.2790 H   0  0  0  0  0  0  0  0  0  0  0  0
  153.5134  144.5211  162.4013 H   0  0  0  0  0  0  0  0  0  0  0  0
  150.8178  144.3391  161.3597 H   0  0  0  0  0  0  0  0  0  0  0  0
  152.2757  144.8338  160.4955 H   0  0  0  0  0  0  0  0  0  0  0  0
  1  2  1  0  0  0  0
  1 19  1  0  0  0  0
  1 20  1  0  0  0  0
  1 21  1  0  0  0  0
  2  3  1  0  0  0  0
  2 22  1  0  0  0  0
  2 23  1  0  0  0  0
  3  4  1  0  0  0  0
  3 24  1  0  0  0  0
  3 25  1  0  0  0  0
  4 18  1  0  0  0  0
  4  5  2  0  0  0  0
  5  6  1  0  0  0  0
  6  7  2  0  0  0  0
  7  8  1  0  0  0  0
  7 18  1  0  0  0  0
  8  9  1  0  0  0  0
  9 10  2  0  0  0  0
  9 11  1  0  0  0  0
 11 12  1  0  0  0  0
 11 26  1  0  0  0  0
 12 13  1  0  0  0  0
 12 27  1  0  0  0  0
 12 28  1  0  0  0  0
 13 17  1  0  0  0  0
 13 14  1  0  0  0  0
 13 29  1  0  0  0  0
 14 15  1  0  0  0  0
 14 30  1  0  0  0  0
 14 31  1  0  0  0  0
 15 16  1  0  0  0  0
 15 32  1  0  0  0  0
 15 33  1  0  0  0  0
 16 17  1  0  0  0  0
 16 34  1  0  0  0  0
 16 35  1  0  0  0  0
M  CHG  1   8  -1
M  END
> <s_m_source_file>
AV-unprocessed.smi

> <i_m_source_file_index>
1750

> <i_lp_mmshare_version>
43012

> <i_f3d_flags>
0

> <s_epik_input>
W0NIM11bQ0gyXVtDSDJdYzFubmMoczEpW05IXUMoPU8pW05IXVtDSDJdW0NAQEhdMltDSDJdW0NIMl1bQ0gyXU8y

> <s_epik_cmdline>
J2VwaWtfcHl0aG9uJywgJy1waCcsICc3LjAnLCAnLXRuJywgJzgnLCAnLW1hJywgJzIwMCcsICctbWV0YWxfYmluZGluZycsICctaW1hZScsICc8aW5maWxlLm1hZT4nLCAnLW9tYWUnLCAnPG91dGZpbGUubWFlPic=

> <r_lp_tautomer_probability>
1

> <r_epik_Ionization_Penalty>
4.22484

> <r_epik_Ionization_Penalty_Charging>
4.21437

> <r_epik_Ionization_Penalty_Neutral>
0.0104685

> <r_epik_State_Penalty>
4.21389

> <r_epik_Charging_Adjusted_Penalty>
8.42826

> <i_epik_Tot_Q>
-1

> <i_epik_Tot_abs_Q>
1

> <r_epik_Metal_State_Penalty>
0.69377

> <b_epik_Metal_Only>
1

> <s_lp_Force_Field>
OPLS_2005

> <r_lp_Energy>
11.1337

> <b_lp_Chiralities_Consistent>
1

> <s_lp_Variant>
AV-unprocessed.smi:1750-3

> <Gold.Version>
5.8.1

> <Gold.Id.Protein>
6NUR|6NUR_protein|mol2

> <Gold.PLP.Fitness>
43.6965

> <Gold.PLP.PLP>
-40.3776

> <Gold.PLP.part.hbond>
-3.0708

> <Gold.PLP.part.metal>
0.0000

> <Gold.PLP.part.buried>
-3.8639

> <Gold.PLP.part.nonpolar>
-33.7764

> <Gold.PLP.part.repulsive>
1.0097

> <Gold.PLP.ligand.clash>
0.0000

> <Gold.PLP.ligand.torsion>
1.3583

> <Gold.PLP.Chemscore.Hbond>
2.0000

> <Gold.PLP.Chemscore.CHOScore>
0.0000

> <Gold.PLP.Chemscore.Metal>
0.0000

> <Gold.Chemscore.Hbonds>
donor molecule, donor type, donor heavy atom, donor atom, acceptor molecule, acceptor atom, score
      P1  H  7997  8008       L1     8  2.00

> <Gold.PLP.Chemscore.Internal.Correction>
0.0354

> <Gold.Rescore>
     Score         DG    S(hbond)    S(metal)    S(lipo)     H(rot)  DE(clash)    DE(int)     intcor
     13.24     -14.60       0.88        0.00      87.68       1.59       0.10       1.26       ----

> <Gold.Chemscore.Fitness>
13.2418

> <Gold.Chemscore.DG>
-14.5961

> <Gold.Chemscore.ZeroCoef>
-5.4800

> <Gold.Chemscore.Hbond>
0.8785

> <Gold.Chemscore.Metal>
0.0000

> <Gold.Chemscore.Lipo>
87.6764

> <Gold.Chemscore.Internal_Hbond>
0.0000

> <Gold.Chemscore.DEClash>
0.0952

> <Gold.Chemscore.DEInternal>
1.2591

> <Gold.Chemscore.Rot>
1.5922

> <Gold.Chemscore.Internal.Correction>
   9.000000E+99

> <Gold.Chemscore.Hbonds>
donor molecule, donor type, donor heavy atom, donor atom, acceptor molecule, acceptor atom, score
      P1  H  7997  8008       L1     8  0.86

> <Gold.Chemscore.Hbond.Weighted>
-2.9341

> <Gold.Chemscore.Metal.Weighted>
-0.0000

> <Gold.Chemscore.Lipo.Weighted>
-10.2581

> <Gold.Chemscore.Internal_Hbond.Weighted>
0.0000

> <Gold.Chemscore.DEClash.Weighted>
0.0952

> <Gold.Chemscore.DEInternal.Weighted>
1.2591

> <Gold.Chemscore.Rot.Weighted>
4.0761

> <Gold.Chemscore.Internal.Correction.Weighted>
   9.000000E+99

> <Gold.Protein.RotatedTorsions>
[ 6907 6896 6895 6894 ] final -125.58 input  -60.11 | X-H torsion
[ 7974 7965 7964 7962 ] final  150.17 input  175.53 | X-H torsion
[ 8008 7997 7996 7995 ] final  -40.42 input   59.86 | X-H torsion
[ 10167 10162 10161 10158 ] final   81.14 input  -65.29 | X-H torsion
[ 10718 10713 10712 10709 ] final -108.46 input   66.30 | X-H torsion
[ 10763 10752 10751 10750 ] final  -57.70 input  -60.55 | X-H torsion
[ 11005 11000 10999 10996 ] final  126.22 input  -57.11 | X-H torsion

> <Gold.Protein.ActiveResidues>
 VAL166  LYS551  ARG553  GLY616  TRP617  ASP618  TYR619  PRO620  LYS621  CYS622 
 ASP623  PHE694  ASN695  SER759  ASP760  ASP761  ALA762  ILE779  LEU786  VAL792 
 PHE793  MET794  SER795  GLU796  ALA797  LYS798  CYS799  TRP800  GLU811  SER814 

> <Gold.Protein.RotatedAtoms>
  150.8881  133.7279  159.2912 H   0  0  0  0  0  0  0  0  0  0  0  0  # atno 6907 bound_to 6896
  151.4839  135.1052  159.9794 H   0  0  0  0  0  0  0  0  0  0  0  0  # atno 6908 bound_to 6896
  152.4803  133.8191  159.7099 H   0  0  0  0  0  0  0  0  0  0  0  0  # atno 6909 bound_to 6896
  144.8384  139.6374  143.6028 H   0  0  0  0  0  0  0  0  0  0  0  0  # atno 7974 bound_to 7965
  154.4012  140.1526  156.3024 H   0  0  0  0  0  0  0  0  0  0  0  0  # atno 8008 bound_to 7997
  155.8689  140.3450  155.5786 H   0  0  0  0  0  0  0  0  0  0  0  0  # atno 8009 bound_to 7997
  155.7797  140.0841  157.2056 H   0  0  0  0  0  0  0  0  0  0  0  0  # atno 8010 bound_to 7997
  139.9424  144.6081  150.8239 H   0  0  0  0  0  0  0  0  0  0  0  0  # atno 10167 bound_to 10162
  156.0487  130.5714  150.7965 H   0  0  0  0  0  0  0  0  0  0  0  0  # atno 10718 bound_to 10713
  154.2266  135.6368  153.5162 H   0  0  0  0  0  0  0  0  0  0  0  0  # atno 10763 bound_to 10752
  152.9957  135.5509  154.6057 H   0  0  0  0  0  0  0  0  0  0  0  0  # atno 10764 bound_to 10752
  154.5530  135.2903  155.0965 H   0  0  0  0  0  0  0  0  0  0  0  0  # atno 10765 bound_to 10752
  139.9445  134.9631  156.8675 H   0  0  0  0  0  0  0  0  0  0  0  0  # atno 11005 bound_to 11000
  146.2680  139.6565  142.9316 LP  0  0  0  0  0  0  0  0  0  0  0  0  # atno 17320 bound_to 7965
  145.4746  141.0437  143.2679 LP  0  0  0  0  0  0  0  0  0  0  0  0  # atno 17321 bound_to 7965
  140.7607  143.3157  151.2739 LP  0  0  0  0  0  0  0  0  0  0  0  0  # atno 17342 bound_to 10162
  139.6694  144.0048  152.2743 LP  0  0  0  0  0  0  0  0  0  0  0  0  # atno 17343 bound_to 10162
  157.5390  131.0940  150.9853 LP  0  0  0  0  0  0  0  0  0  0  0  0  # atno 17370 bound_to 10713
  157.0140  130.5648  149.5324 LP  0  0  0  0  0  0  0  0  0  0  0  0  # atno 17371 bound_to 10713
  140.5868  134.0299  155.7484 LP  0  0  0  0  0  0  0  0  0  0  0  0  # atno 17394 bound_to 11000
  141.1091  133.9645  157.2943 LP  0  0  0  0  0  0  0  0  0  0  0  0  # atno 17395 bound_to 11000

$$$$
