AV-unprocessed.smi:3352|AV-procd|sdf|12952|dock10
  -GOLD-   2272019393D 1   1.00000     0.00000
 Structure written by MMmdl.
 38 39  0  0  0  0  0  0  0  0  1 V2000
  152.8348  142.7021  161.5592 C   0  0  0  0  0  0  0  0  0  0  0  0
  152.6167  143.2032  160.1242 C   0  0  0  0  0  0  0  0  0  0  0  0
  151.8357  144.5242  160.0764 C   0  0  0  0  0  0  0  0  0  0  0  0
  151.9907  142.1569  159.2554 C   0  0  0  0  0  0  0  0  0  0  0  0
  152.5188  140.9433  159.0722 N   0  0  0  0  0  0  0  0  0  0  0  0
  151.7552  140.1426  158.2159 C   0  0  0  0  0  0  0  0  0  0  0  0
  152.1988  138.7436  157.9019 C   0  0  0  0  0  0  0  0  0  0  0  0
  152.1458  137.8785  159.1617 C   0  0  0  0  0  0  0  0  0  0  0  0
  151.1883  137.1287  159.3526 O   0  0  0  0  0  0  0  0  0  0  0  0
  153.1804  137.9918  160.0094 N   0  0  0  0  0  0  0  0  0  0  0  0
  153.3298  137.2559  161.2593 C   0  0  0  0  0  0  0  0  0  0  0  0
  153.9097  138.1436  162.3730 C   0  0  1  0  0  0  0  0  0  0  0  0
  153.9349  137.4663  163.7425 C   0  0  0  0  0  0  0  0  0  0  0  0
  155.0451  138.2206  164.4372 C   0  0  0  0  0  0  0  0  0  0  0  0
  156.0450  138.4114  163.3012 C   0  0  0  0  0  0  0  0  0  0  0  0
  155.2701  138.4810  162.1072 O   0  0  0  0  0  0  0  0  0  0  0  0
  150.6347  140.7771  157.7395 C   0  0  0  0  0  0  0  0  0  0  0  0
  150.4955  142.4004  158.3547 S   0  0  0  0  0  0  0  0  0  0  0  0
  153.4479  141.8003  161.5706 H   0  0  0  0  0  0  0  0  0  0  0  0
  151.8887  142.4686  162.0488 H   0  0  0  0  0  0  0  0  0  0  0  0
  153.3429  143.4539  162.1637 H   0  0  0  0  0  0  0  0  0  0  0  0
  153.6057  143.4088  159.7114 H   0  0  0  0  0  0  0  0  0  0  0  0
  151.7574  144.8958  159.0542 H   0  0  0  0  0  0  0  0  0  0  0  0
  152.3300  145.2936  160.6698 H   0  0  0  0  0  0  0  0  0  0  0  0
  150.8245  144.4033  160.4660 H   0  0  0  0  0  0  0  0  0  0  0  0
  151.5590  138.3017  157.1369 H   0  0  0  0  0  0  0  0  0  0  0  0
  153.2115  138.7356  157.4958 H   0  0  0  0  0  0  0  0  0  0  0  0
  153.9196  138.6364  159.7686 H   0  0  0  0  0  0  0  0  0  0  0  0
  152.3397  136.9057  161.5522 H   0  0  0  0  0  0  0  0  0  0  0  0
  153.9421  136.3639  161.1164 H   0  0  0  0  0  0  0  0  0  0  0  0
  153.3430  139.0733  162.4489 H   0  0  0  0  0  0  0  0  0  0  0  0
  152.9806  137.5298  164.2663 H   0  0  0  0  0  0  0  0  0  0  0  0
  154.2042  136.4132  163.6479 H   0  0  0  0  0  0  0  0  0  0  0  0
  154.6802  139.1880  164.7852 H   0  0  0  0  0  0  0  0  0  0  0  0
  155.4636  137.6841  165.2890 H   0  0  0  0  0  0  0  0  0  0  0  0
  156.6579  139.3033  163.4318 H   0  0  0  0  0  0  0  0  0  0  0  0
  156.7104  137.5501  163.2306 H   0  0  0  0  0  0  0  0  0  0  0  0
  149.8842  140.3871  157.0679 H   0  0  0  0  0  0  0  0  0  0  0  0
  1  2  1  0  0  0  0
  1 19  1  0  0  0  0
  1 20  1  0  0  0  0
  1 21  1  0  0  0  0
  2  3  1  0  0  0  0
  2  4  1  0  0  0  0
  2 22  1  0  0  0  0
  3 23  1  0  0  0  0
  3 24  1  0  0  0  0
  3 25  1  0  0  0  0
  4 18  1  0  0  0  0
  4  5  2  0  0  0  0
  5  6  1  0  0  0  0
  6  7  1  0  0  0  0
  6 17  2  0  0  0  0
  7  8  1  0  0  0  0
  7 26  1  0  0  0  0
  7 27  1  0  0  0  0
  8  9  2  0  0  0  0
  8 10  1  0  0  0  0
 10 11  1  0  0  0  0
 10 28  1  0  0  0  0
 11 12  1  0  0  0  0
 11 29  1  0  0  0  0
 11 30  1  0  0  0  0
 12 16  1  0  0  0  0
 12 13  1  0  0  0  0
 12 31  1  0  0  0  0
 13 14  1  0  0  0  0
 13 32  1  0  0  0  0
 13 33  1  0  0  0  0
 14 15  1  0  0  0  0
 14 34  1  0  0  0  0
 14 35  1  0  0  0  0
 15 16  1  0  0  0  0
 15 36  1  0  0  0  0
 15 37  1  0  0  0  0
 17 18  1  0  0  0  0
 17 38  1  0  0  0  0
M  END
> <s_m_source_file>
AV-unprocessed.smi

> <i_m_source_file_index>
3352

> <i_lp_mmshare_version>
43012

> <i_f3d_flags>
0

> <s_epik_input>
W0NIM11bQ0hdKFtDSDNdKWMxbmMoW2NIXXMxKVtDSDJdQyg9TylbTkhdW0NIMl1bQ0BASF0yW0NIMl1bQ0gyXVtDSDJdTzI=

> <s_epik_cmdline>
J2VwaWtfcHl0aG9uJywgJy1waCcsICc3LjAnLCAnLXRuJywgJzgnLCAnLW1hJywgJzIwMCcsICctbWV0YWxfYmluZGluZycsICctaW1hZScsICc8aW5maWxlLm1hZT4nLCAnLW9tYWUnLCAnPG91dGZpbGUubWFlPic=

> <r_lp_tautomer_probability>
1

> <r_epik_Ionization_Penalty>
4.66014e-05

> <r_epik_Ionization_Penalty_Charging>
0

> <r_epik_Ionization_Penalty_Neutral>
4.66014e-05

> <r_epik_State_Penalty>
-0

> <r_epik_Charging_Adjusted_Penalty>
0

> <i_epik_Tot_Q>
0

> <i_epik_Tot_abs_Q>
0

> <r_epik_Metal_State_Penalty>
-0

> <b_epik_Metal_Only>
0

> <s_lp_Force_Field>
OPLS_2005

> <r_lp_Energy>
9.02769

> <b_lp_Chiralities_Consistent>
1

> <s_lp_Variant>
AV-unprocessed.smi:3352-2

> <Gold.Version>
5.8.1

> <Gold.Id.Protein>
6NUR|6NUR_protein|mol2

> <Gold.PLP.Fitness>
40.2878

> <Gold.PLP.PLP>
-38.2733

> <Gold.PLP.part.hbond>
-1.0000

> <Gold.PLP.part.metal>
0.0000

> <Gold.PLP.part.buried>
-5.6473

> <Gold.PLP.part.nonpolar>
-31.5339

> <Gold.PLP.part.repulsive>
0.0622

> <Gold.PLP.ligand.clash>
0.0000

> <Gold.PLP.ligand.torsion>
0.5237

> <Gold.PLP.Chemscore.Hbond>
1.0000

> <Gold.PLP.Chemscore.CHOScore>
0.0000

> <Gold.PLP.Chemscore.Metal>
0.0000

> <Gold.Chemscore.Hbonds>
donor molecule, donor type, donor heavy atom, donor atom, acceptor molecule, acceptor atom, score
      P1  H  6896  6907       L1     9  0.91

> <Gold.PLP.Chemscore.Internal.Correction>
0.0620

> <Gold.Rescore>
     Score         DG    S(hbond)    S(metal)    S(lipo)     H(rot)  DE(clash)    DE(int)     intcor
     15.95     -17.08       0.99        0.00     104.81       1.55       0.01       1.13       ----

> <Gold.Chemscore.Fitness>
15.9518

> <Gold.Chemscore.DG>
-17.0847

> <Gold.Chemscore.ZeroCoef>
-5.4800

> <Gold.Chemscore.Hbond>
0.9923

> <Gold.Chemscore.Metal>
0.0000

> <Gold.Chemscore.Lipo>
104.8125

> <Gold.Chemscore.Internal_Hbond>
0.0000

> <Gold.Chemscore.DEClash>
0.0073

> <Gold.Chemscore.DEInternal>
1.1256

> <Gold.Chemscore.Rot>
1.5518

> <Gold.Chemscore.Internal.Correction>
   9.000000E+99

> <Gold.Chemscore.Hbonds>
donor molecule, donor type, donor heavy atom, donor atom, acceptor molecule, acceptor atom, score
      P1  H  6896  6907       L1     9  0.86

> <Gold.Chemscore.Hbond.Weighted>
-3.3143

> <Gold.Chemscore.Metal.Weighted>
-0.0000

> <Gold.Chemscore.Lipo.Weighted>
-12.2631

> <Gold.Chemscore.Internal_Hbond.Weighted>
0.0000

> <Gold.Chemscore.DEClash.Weighted>
0.0073

> <Gold.Chemscore.DEInternal.Weighted>
1.1256

> <Gold.Chemscore.Rot.Weighted>
3.9727

> <Gold.Chemscore.Internal.Correction.Weighted>
   9.000000E+99

> <Gold.Protein.RotatedTorsions>
[ 6907 6896 6895 6894 ] final   -6.06 input  -60.11 | X-H torsion
[ 7974 7965 7964 7962 ] final  -80.73 input  175.53 | X-H torsion
[ 8008 7997 7996 7995 ] final -159.13 input   59.86 | X-H torsion
[ 10167 10162 10161 10158 ] final  108.47 input  -65.29 | X-H torsion
[ 10718 10713 10712 10709 ] final -152.62 input   66.30 | X-H torsion
[ 10763 10752 10751 10750 ] final  -77.17 input  -60.55 | X-H torsion
[ 11005 11000 10999 10996 ] final   58.80 input  -57.11 | X-H torsion

> <Gold.Protein.ActiveResidues>
 VAL166  LYS551  ARG553  GLY616  TRP617  ASP618  TYR619  PRO620  LYS621  CYS622 
 ASP623  PHE694  ASN695  SER759  ASP760  ASP761  ALA762  ILE779  LEU786  VAL792 
 PHE793  MET794  SER795  GLU796  ALA797  LYS798  CYS799  TRP800  GLU811  SER814 

> <Gold.Protein.RotatedAtoms>
  151.4716  135.1046  159.9752 H   0  0  0  0  0  0  0  0  0  0  0  0  # atno 6907 bound_to 6896
  152.4814  133.8260  159.7089 H   0  0  0  0  0  0  0  0  0  0  0  0  # atno 6908 bound_to 6896
  150.8889  133.7209  159.2937 H   0  0  0  0  0  0  0  0  0  0  0  0  # atno 6909 bound_to 6896
  145.5561  140.9489  143.1473 H   0  0  0  0  0  0  0  0  0  0  0  0  # atno 7974 bound_to 7965
  155.7579  140.0835  157.2169 H   0  0  0  0  0  0  0  0  0  0  0  0  # atno 8008 bound_to 7997
  154.4006  140.1548  156.2855 H   0  0  0  0  0  0  0  0  0  0  0  0  # atno 8009 bound_to 7997
  155.8868  140.3417  155.5930 H   0  0  0  0  0  0  0  0  0  0  0  0  # atno 8010 bound_to 7997
  139.6844  144.7115  151.1459 H   0  0  0  0  0  0  0  0  0  0  0  0  # atno 10167 bound_to 10162
  156.4749  130.8276  151.2504 H   0  0  0  0  0  0  0  0  0  0  0  0  # atno 10718 bound_to 10713
  154.5094  135.5773  153.6593 H   0  0  0  0  0  0  0  0  0  0  0  0  # atno 10763 bound_to 10752
  152.9894  135.6155  154.2898 H   0  0  0  0  0  0  0  0  0  0  0  0  # atno 10764 bound_to 10752
  154.2812  135.2851  155.2676 H   0  0  0  0  0  0  0  0  0  0  0  0  # atno 10765 bound_to 10752
  140.0351  134.5955  155.9455 H   0  0  0  0  0  0  0  0  0  0  0  0  # atno 11005 bound_to 11000
  144.7506  139.7205  143.7275 LP  0  0  0  0  0  0  0  0  0  0  0  0  # atno 17320 bound_to 7965
  146.1883  139.5110  142.9821 LP  0  0  0  0  0  0  0  0  0  0  0  0  # atno 17321 bound_to 7965
  140.7663  143.5652  150.9055 LP  0  0  0  0  0  0  0  0  0  0  0  0  # atno 17342 bound_to 10162
  139.9326  143.6476  152.3073 LP  0  0  0  0  0  0  0  0  0  0  0  0  # atno 17343 bound_to 10162
  157.7488  131.0064  150.3150 LP  0  0  0  0  0  0  0  0  0  0  0  0  # atno 17370 bound_to 10713
  156.3580  130.3842  149.7274 LP  0  0  0  0  0  0  0  0  0  0  0  0  # atno 17371 bound_to 10713
  141.1852  133.6554  156.5190 LP  0  0  0  0  0  0  0  0  0  0  0  0  # atno 17394 bound_to 11000
  140.4161  134.7228  157.4864 LP  0  0  0  0  0  0  0  0  0  0  0  0  # atno 17395 bound_to 11000

$$$$
