AV-unprocessed.smi:2222|AV-procd|sdf|8985|dock3
  -GOLD-   2272012193D 1   1.00000     0.00000
 Structure written by MMmdl.
 34 35  0  0  0  0  0  0  0  0  1 V2000
  146.5291  141.9507  154.0448 C   0  0  0  0  0  0  0  0  0  0  0  0
  147.7260  142.0143  154.8063 O   0  0  0  0  0  0  0  0  0  0  0  0
  148.6341  140.9805  154.6847 C   0  0  0  0  0  0  0  0  0  0  0  0
  148.3653  139.7781  153.9825 C   0  0  0  0  0  0  0  0  0  0  0  0
  149.3552  138.7826  153.9123 C   0  0  0  0  0  0  0  0  0  0  0  0
  150.5850  139.0226  154.5507 C   0  0  0  0  0  0  0  0  0  0  0  0
  151.6968  137.9954  154.5166 C   0  0  0  0  0  0  0  0  0  0  0  0
  150.8523  140.1613  155.2207 N   0  0  0  0  0  0  0  0  0  0  0  0
  149.9062  141.1298  155.2954 C   0  0  0  0  0  0  0  0  0  0  0  0
  150.1117  142.3587  155.9800 N   0  0  0  0  0  0  0  0  0  0  0  0
  150.9109  142.6143  157.0348 C   0  0  0  0  0  0  0  0  0  0  0  0
  151.5854  141.7709  157.6233 O   0  0  0  0  0  0  0  0  0  0  0  0
  150.8920  143.8957  157.4443 N   0  0  0  0  0  0  0  0  0  0  0  0
  151.6221  144.4832  158.5273 C   0  0  2  0  0  0  0  0  0  0  0  0
  153.0936  144.1415  158.6133 C   0  0  0  0  0  0  0  0  0  0  0  0
  152.1347  143.5745  159.6257 C   0  0  1  0  0  0  0  0  0  0  0  0
  152.1870  144.0455  161.0627 C   0  0  0  0  0  0  0  0  0  0  0  0
  145.9263  142.8355  154.2490 H   0  0  0  0  0  0  0  0  0  0  0  0
  145.9325  141.0772  154.3109 H   0  0  0  0  0  0  0  0  0  0  0  0
  146.7377  141.9344  152.9742 H   0  0  0  0  0  0  0  0  0  0  0  0
  147.4194  139.5983  153.4949 H   0  0  0  0  0  0  0  0  0  0  0  0
  149.1710  137.8602  153.3815 H   0  0  0  0  0  0  0  0  0  0  0  0
  151.3620  137.0649  154.0577 H   0  0  0  0  0  0  0  0  0  0  0  0
  152.0388  137.7710  155.5274 H   0  0  0  0  0  0  0  0  0  0  0  0
  152.5432  138.3744  153.9432 H   0  0  0  0  0  0  0  0  0  0  0  0
  149.5932  143.1438  155.6144 H   0  0  0  0  0  0  0  0  0  0  0  0
  150.2398  144.5063  156.9736 H   0  0  0  0  0  0  0  0  0  0  0  0
  151.3760  145.5063  158.8078 H   0  0  0  0  0  0  0  0  0  0  0  0
  153.5035  143.4552  157.8750 H   0  0  0  0  0  0  0  0  0  0  0  0
  153.7709  144.9281  158.9404 H   0  0  0  0  0  0  0  0  0  0  0  0
  151.9029  142.5160  159.5221 H   0  0  0  0  0  0  0  0  0  0  0  0
  152.4207  145.1093  161.1143 H   0  0  0  0  0  0  0  0  0  0  0  0
  152.9522  143.4943  161.6095 H   0  0  0  0  0  0  0  0  0  0  0  0
  151.2246  143.8777  161.5458 H   0  0  0  0  0  0  0  0  0  0  0  0
  1  2  1  0  0  0  0
  1 18  1  0  0  0  0
  1 19  1  0  0  0  0
  1 20  1  0  0  0  0
  2  3  1  0  0  0  0
  3  9  1  0  0  0  0
  3  4  2  0  0  0  0
  4  5  1  0  0  0  0
  4 21  1  0  0  0  0
  5  6  2  0  0  0  0
  5 22  1  0  0  0  0
  6  7  1  0  0  0  0
  6  8  1  0  0  0  0
  7 23  1  0  0  0  0
  7 24  1  0  0  0  0
  7 25  1  0  0  0  0
  8  9  2  0  0  0  0
  9 10  1  0  0  0  0
 10 11  1  0  0  0  0
 10 26  1  0  0  0  0
 11 12  2  0  0  0  0
 11 13  1  0  0  0  0
 13 14  1  0  0  0  0
 13 27  1  0  0  0  0
 14 16  1  0  0  0  0
 14 15  1  0  0  0  0
 14 28  1  0  0  0  0
 15 16  1  0  0  0  0
 15 29  1  0  0  0  0
 15 30  1  0  0  0  0
 16 17  1  0  0  0  0
 16 31  1  0  0  0  0
 17 32  1  0  0  0  0
 17 33  1  0  0  0  0
 17 34  1  0  0  0  0
M  END
> <s_m_source_file>
AV-unprocessed.smi

> <i_m_source_file_index>
2222

> <i_lp_mmshare_version>
43012

> <i_f3d_flags>
0

> <s_epik_input>
W0NIM11PYzFbY0hdW2NIXWMoW0NIM10pbmMxW05IXUMoPU8pW05IXVtDQEBIXTJbQ0gyXVtDQEhdMltDSDNd

> <s_epik_cmdline>
J2VwaWtfcHl0aG9uJywgJy1waCcsICc3LjAnLCAnLXRuJywgJzgnLCAnLW1hJywgJzIwMCcsICctbWV0YWxfYmluZGluZycsICctaW1hZScsICc8aW5maWxlLm1hZT4nLCAnLW9tYWUnLCAnPG91dGZpbGUubWFlPic=

> <r_lp_tautomer_probability>
1

> <r_epik_Ionization_Penalty>
6.59103e-05

> <r_epik_Ionization_Penalty_Charging>
0

> <r_epik_Ionization_Penalty_Neutral>
6.59103e-05

> <r_epik_State_Penalty>
-0

> <r_epik_Charging_Adjusted_Penalty>
0

> <i_epik_Tot_Q>
0

> <i_epik_Tot_abs_Q>
0

> <r_epik_Metal_State_Penalty>
-0

> <b_epik_Metal_Only>
0

> <s_lp_Force_Field>
OPLS_2005

> <r_lp_Energy>
33.3795

> <b_lp_Chiralities_Consistent>
1

> <s_lp_Variant>
AV-unprocessed.smi:2222-1

> <Gold.Version>
5.8.1

> <Gold.Id.Protein>
6NUR|6NUR_protein|mol2

> <Gold.PLP.Fitness>
46.4085

> <Gold.PLP.PLP>
-40.4756

> <Gold.PLP.part.hbond>
-3.0000

> <Gold.PLP.part.metal>
0.0000

> <Gold.PLP.part.buried>
-3.1668

> <Gold.PLP.part.nonpolar>
-35.1565

> <Gold.PLP.part.repulsive>
0.9101

> <Gold.PLP.ligand.clash>
0.0000

> <Gold.PLP.ligand.torsion>
0.4720

> <Gold.PLP.Chemscore.Hbond>
2.2800

> <Gold.PLP.Chemscore.CHOScore>
0.0000

> <Gold.PLP.Chemscore.Metal>
0.0000

> <Gold.Chemscore.Hbonds>
donor molecule, donor type, donor heavy atom, donor atom, acceptor molecule, acceptor atom, score
      L1  H    10    26       P1  8028  1.00
      L1  H    13    27       P1  8028  1.00
      P1  H  7989  7998       L1     8  0.25

> <Gold.PLP.Chemscore.Internal.Correction>
0.0369

> <Gold.Rescore>
     Score         DG    S(hbond)    S(metal)    S(lipo)     H(rot)  DE(clash)    DE(int)     intcor
     16.56     -19.71       1.86        0.00      95.08       1.22       0.23       2.92       ----

> <Gold.Chemscore.Fitness>
16.5578

> <Gold.Chemscore.DG>
-19.7069

> <Gold.Chemscore.ZeroCoef>
-5.4800

> <Gold.Chemscore.Hbond>
1.8616

> <Gold.Chemscore.Metal>
0.0000

> <Gold.Chemscore.Lipo>
95.0789

> <Gold.Chemscore.Internal_Hbond>
0.0000

> <Gold.Chemscore.DEClash>
0.2325

> <Gold.Chemscore.DEInternal>
2.9167

> <Gold.Chemscore.Rot>
1.2168

> <Gold.Chemscore.Internal.Correction>
   9.000000E+99

> <Gold.Chemscore.Hbonds>
donor molecule, donor type, donor heavy atom, donor atom, acceptor molecule, acceptor atom, score
      L1  H    10    26       P1  8028  0.99
      L1  H    13    27       P1  8028  0.70

> <Gold.Chemscore.Hbond.Weighted>
-6.2176

> <Gold.Chemscore.Metal.Weighted>
-0.0000

> <Gold.Chemscore.Lipo.Weighted>
-11.1242

> <Gold.Chemscore.Internal_Hbond.Weighted>
0.0000

> <Gold.Chemscore.DEClash.Weighted>
0.2325

> <Gold.Chemscore.DEInternal.Weighted>
2.9167

> <Gold.Chemscore.Rot.Weighted>
3.1150

> <Gold.Chemscore.Internal.Correction.Weighted>
   9.000000E+99

> <Gold.Protein.RotatedTorsions>
[ 6907 6896 6895 6894 ] final -157.97 input  -60.11 | X-H torsion
[ 7974 7965 7964 7962 ] final   10.43 input  175.53 | X-H torsion
[ 8008 7997 7996 7995 ] final   91.27 input   59.86 | X-H torsion
[ 10167 10162 10161 10158 ] final   19.74 input  -65.29 | X-H torsion
[ 10718 10713 10712 10709 ] final    7.21 input   66.30 | X-H torsion
[ 10763 10752 10751 10750 ] final  -92.96 input  -60.55 | X-H torsion
[ 11005 11000 10999 10996 ] final  177.51 input  -57.11 | X-H torsion

> <Gold.Protein.ActiveResidues>
 VAL166  LYS551  ARG553  GLY616  TRP617  ASP618  TYR619  PRO620  LYS621  CYS622 
 ASP623  PHE694  ASN695  SER759  ASP760  ASP761  ALA762  ILE779  LEU786  VAL792 
 PHE793  MET794  SER795  GLU796  ALA797  LYS798  CYS799  TRP800  GLU811  SER814 

> <Gold.Protein.RotatedAtoms>
  151.3110  133.4081  159.2646 H   0  0  0  0  0  0  0  0  0  0  0  0  # atno 6907 bound_to 6896
  151.0115  134.9400  159.8020 H   0  0  0  0  0  0  0  0  0  0  0  0  # atno 6908 bound_to 6896
  152.5302  134.3074  159.9153 H   0  0  0  0  0  0  0  0  0  0  0  0  # atno 6909 bound_to 6896
  146.2388  139.9636  142.8455 H   0  0  0  0  0  0  0  0  0  0  0  0  # atno 7974 bound_to 7965
  156.0217  140.3339  155.7046 H   0  0  0  0  0  0  0  0  0  0  0  0  # atno 8008 bound_to 7997
  155.6012  140.0656  157.2750 H   0  0  0  0  0  0  0  0  0  0  0  0  # atno 8009 bound_to 7997
  154.4319  140.1810  156.1163 H   0  0  0  0  0  0  0  0  0  0  0  0  # atno 8010 bound_to 7997
  140.5556  143.9430  150.6607 H   0  0  0  0  0  0  0  0  0  0  0  0  # atno 10167 bound_to 10162
  156.9336  130.5835  149.5650 H   0  0  0  0  0  0  0  0  0  0  0  0  # atno 10718 bound_to 10713
  154.6912  135.5212  153.8395 H   0  0  0  0  0  0  0  0  0  0  0  0  # atno 10763 bound_to 10752
  153.0634  135.6576  154.0420 H   0  0  0  0  0  0  0  0  0  0  0  0  # atno 10764 bound_to 10752
  154.0294  135.2986  155.3350 H   0  0  0  0  0  0  0  0  0  0  0  0  # atno 10765 bound_to 10752
  140.3849  134.6914  157.4473 H   0  0  0  0  0  0  0  0  0  0  0  0  # atno 11005 bound_to 11000
  145.1748  140.9738  143.4301 LP  0  0  0  0  0  0  0  0  0  0  0  0  # atno 17320 bound_to 7965
  144.9996  139.3611  143.6174 LP  0  0  0  0  0  0  0  0  0  0  0  0  # atno 17321 bound_to 7965
  140.2867  143.3352  152.1100 LP  0  0  0  0  0  0  0  0  0  0  0  0  # atno 17342 bound_to 10162
  139.5047  144.6780  151.6081 LP  0  0  0  0  0  0  0  0  0  0  0  0  # atno 17343 bound_to 10162
  156.0436  130.5515  150.8829 LP  0  0  0  0  0  0  0  0  0  0  0  0  # atno 17370 bound_to 10713
  157.5831  131.0946  150.9239 LP  0  0  0  0  0  0  0  0  0  0  0  0  # atno 17371 bound_to 10713
  140.0450  134.6212  155.8932 LP  0  0  0  0  0  0  0  0  0  0  0  0  # atno 17394 bound_to 11000
  141.1911  133.6570  156.5441 LP  0  0  0  0  0  0  0  0  0  0  0  0  # atno 17395 bound_to 11000

$$$$
