AV-unprocessed.smi:2814|AV-procd|sdf|10839|dock8
  -GOLD-   2272015283D 1   1.00000     0.00000
 Structure written by MMmdl.
 37 38  0  0  0  0  0  0  0  0  1 V2000
  151.4849  141.3797  157.2817 C   0  0  0  0  0  0  0  0  0  0  0  0
  151.5573  140.2546  156.2706 C   0  0  0  0  0  0  0  0  0  0  0  0
  150.4623  139.9661  155.4283 C   0  0  0  0  0  0  0  0  0  0  0  0
  150.5839  138.9049  154.4989 C   0  0  0  0  0  0  0  0  0  0  0  0
  149.5509  138.5006  153.6105 N   0  0  0  0  0  0  0  0  0  0  0  0
  148.3278  139.0336  153.4473 C   0  0  0  0  0  0  0  0  0  0  0  0
  147.8939  140.0185  154.0447 O   0  0  0  0  0  0  0  0  0  0  0  0
  147.6268  138.3580  152.5253 N   0  0  0  0  0  0  0  0  0  0  0  0
  146.2623  138.6593  152.0972 C   0  0  0  0  0  0  0  0  0  0  0  0
  145.3404  137.4196  152.1449 C   0  0  0  0  0  0  0  0  0  0  0  0
  144.0040  137.8552  151.9667 O   0  0  0  0  0  0  0  0  0  0  0  0
  145.6615  136.3162  151.1258 C   0  0  0  0  0  0  0  0  0  0  0  0
  145.0593  135.0276  151.7002 C   0  0  0  0  0  0  0  0  0  0  0  0
  144.8830  135.2647  153.2075 C   0  0  0  0  0  0  0  0  0  0  0  0
  145.4086  136.6786  153.4868 C   0  0  0  0  0  0  0  0  0  0  0  0
  151.7886  138.1726  154.4810 C   0  0  0  0  0  0  0  0  0  0  0  0
  152.8219  138.5434  155.3638 C   0  0  0  0  0  0  0  0  0  0  0  0
  152.7175  139.5637  156.2406 N   0  0  0  0  0  0  0  0  0  0  0  0
  150.5130  141.8734  157.2570 H   0  0  0  0  0  0  0  0  0  0  0  0
  152.2515  142.1262  157.0727 H   0  0  0  0  0  0  0  0  0  0  0  0
  151.6448  140.9950  158.2893 H   0  0  0  0  0  0  0  0  0  0  0  0
  149.5567  140.5461  155.5164 H   0  0  0  0  0  0  0  0  0  0  0  0
  149.7910  137.7450  152.9858 H   0  0  0  0  0  0  0  0  0  0  0  0
  148.0655  137.5606  152.0883 H   0  0  0  0  0  0  0  0  0  0  0  0
  145.8483  139.4571  152.7162 H   0  0  0  0  0  0  0  0  0  0  0  0
  146.2994  139.0612  151.0839 H   0  0  0  0  0  0  0  0  0  0  0  0
  143.9444  138.7558  152.2468 H   0  0  0  0  0  0  0  0  0  0  0  0
  145.2957  136.5391  150.1225 H   0  0  0  0  0  0  0  0  0  0  0  0
  146.7428  136.1922  151.0552 H   0  0  0  0  0  0  0  0  0  0  0  0
  144.0902  134.8276  151.2417 H   0  0  0  0  0  0  0  0  0  0  0  0
  145.6988  134.1681  151.4962 H   0  0  0  0  0  0  0  0  0  0  0  0
  143.8260  135.1994  153.4684 H   0  0  0  0  0  0  0  0  0  0  0  0
  145.4110  134.5189  153.8028 H   0  0  0  0  0  0  0  0  0  0  0  0
  146.4477  136.6058  153.8115 H   0  0  0  0  0  0  0  0  0  0  0  0
  144.8593  137.1818  154.2840 H   0  0  0  0  0  0  0  0  0  0  0  0
  151.9257  137.3450  153.8004 H   0  0  0  0  0  0  0  0  0  0  0  0
  153.7576  138.0047  155.3661 H   0  0  0  0  0  0  0  0  0  0  0  0
  1  2  1  0  0  0  0
  1 19  1  0  0  0  0
  1 20  1  0  0  0  0
  1 21  1  0  0  0  0
  2 18  1  0  0  0  0
  2  3  2  0  0  0  0
  3  4  1  0  0  0  0
  3 22  1  0  0  0  0
  4  5  1  0  0  0  0
  4 16  2  0  0  0  0
  5  6  1  0  0  0  0
  5 23  1  0  0  0  0
  6  7  2  0  0  0  0
  6  8  1  0  0  0  0
  8  9  1  0  0  0  0
  8 24  1  0  0  0  0
  9 10  1  0  0  0  0
  9 25  1  0  0  0  0
  9 26  1  0  0  0  0
 10 15  1  0  0  0  0
 10 11  1  0  0  0  0
 10 12  1  0  0  0  0
 11 27  1  0  0  0  0
 12 13  1  0  0  0  0
 12 28  1  0  0  0  0
 12 29  1  0  0  0  0
 13 14  1  0  0  0  0
 13 30  1  0  0  0  0
 13 31  1  0  0  0  0
 14 15  1  0  0  0  0
 14 32  1  0  0  0  0
 14 33  1  0  0  0  0
 15 34  1  0  0  0  0
 15 35  1  0  0  0  0
 16 17  1  0  0  0  0
 16 36  1  0  0  0  0
 17 18  2  0  0  0  0
 17 37  1  0  0  0  0
M  END
> <s_m_source_file>
AV-unprocessed.smi

> <i_m_source_file_index>
2814

> <i_lp_mmshare_version>
43012

> <i_f3d_flags>
0

> <s_epik_input>
W0NIM11jMVtjSF1jKFtjSF1bY0hdbjEpW05IXUMoPU8pW05IXVtDSDJdQzIoW09IXSlbQ0gyXVtDSDJdW0NIMl1bQ0gyXTI=

> <s_epik_cmdline>
J2VwaWtfcHl0aG9uJywgJy1waCcsICc3LjAnLCAnLXRuJywgJzgnLCAnLW1hJywgJzIwMCcsICctbWV0YWxfYmluZGluZycsICctaW1hZScsICc8aW5maWxlLm1hZT4nLCAnLW9tYWUnLCAnPG91dGZpbGUubWFlPic=

> <r_epik_Ionization_Penalty>
0.405099

> <r_epik_Ionization_Penalty_Charging>
0

> <r_epik_Ionization_Penalty_Neutral>
0.405099

> <r_epik_State_Penalty>
0.404681

> <r_epik_Charging_Adjusted_Penalty>
0.404681

> <i_epik_Tot_Q>
0

> <i_epik_Tot_abs_Q>
0

> <r_epik_Metal_State_Penalty>
0.238286

> <b_epik_Metal_Only>
0

> <s_lp_Force_Field>
OPLS_2005

> <r_lp_Energy>
28.9703

> <b_lp_Chiralities_Consistent>
1

> <s_lp_Variant>
AV-unprocessed.smi:2814-1

> <Gold.Version>
5.8.1

> <Gold.Id.Protein>
6NUR|6NUR_protein|mol2

> <Gold.PLP.Fitness>
44.3515

> <Gold.PLP.PLP>
-32.9278

> <Gold.PLP.part.hbond>
-6.9269

> <Gold.PLP.part.metal>
0.0000

> <Gold.PLP.part.buried>
-1.2610

> <Gold.PLP.part.nonpolar>
-26.0955

> <Gold.PLP.part.repulsive>
0.2680

> <Gold.PLP.ligand.clash>
0.0000

> <Gold.PLP.ligand.torsion>
0.1100

> <Gold.PLP.Chemscore.Hbond>
3.8800

> <Gold.PLP.Chemscore.CHOScore>
0.0000

> <Gold.PLP.Chemscore.Metal>
0.0000

> <Gold.Chemscore.Hbonds>
donor molecule, donor type, donor heavy atom, donor atom, acceptor molecule, acceptor atom, score
      L1  H     5    23       P1  7948  0.88
      L1  H     8    24       P1  7948  1.00
      L1  H    11    27       P1 10175  1.00
      P1  H  7997  8008       L1    18  1.00

> <Gold.PLP.Chemscore.Internal.Correction>
0.0037

> <Gold.Rescore>
     Score         DG    S(hbond)    S(metal)    S(lipo)     H(rot)  DE(clash)    DE(int)     intcor
     19.42     -21.09       3.49        0.00      71.28       1.71       0.40       1.27       ----

> <Gold.Chemscore.Fitness>
19.4232

> <Gold.Chemscore.DG>
-21.0917

> <Gold.Chemscore.ZeroCoef>
-5.4800

> <Gold.Chemscore.Hbond>
3.4882

> <Gold.Chemscore.Metal>
0.0000

> <Gold.Chemscore.Lipo>
71.2779

> <Gold.Chemscore.Internal_Hbond>
0.0000

> <Gold.Chemscore.DEClash>
0.4022

> <Gold.Chemscore.DEInternal>
1.2663

> <Gold.Chemscore.Rot>
1.7103

> <Gold.Chemscore.Internal.Correction>
   9.000000E+99

> <Gold.Chemscore.Hbonds>
donor molecule, donor type, donor heavy atom, donor atom, acceptor molecule, acceptor atom, score
      L1  H     5    23       P1  7948  0.41
      L1  H     8    24       P1  7948  0.98
      L1  H    11    27       P1 10175  1.00
      P1  H  7997  8008       L1    18  0.30

> <Gold.Chemscore.Hbond.Weighted>
-11.6507

> <Gold.Chemscore.Metal.Weighted>
-0.0000

> <Gold.Chemscore.Lipo.Weighted>
-8.3395

> <Gold.Chemscore.Internal_Hbond.Weighted>
0.0000

> <Gold.Chemscore.DEClash.Weighted>
0.4022

> <Gold.Chemscore.DEInternal.Weighted>
1.2663

> <Gold.Chemscore.Rot.Weighted>
4.3785

> <Gold.Chemscore.Internal.Correction.Weighted>
   9.000000E+99

> <Gold.Protein.RotatedTorsions>
[ 6907 6896 6895 6894 ] final   69.14 input  -60.11 | X-H torsion
[ 7974 7965 7964 7962 ] final  -37.70 input  175.53 | X-H torsion
[ 8008 7997 7996 7995 ] final  -38.36 input   59.86 | X-H torsion
[ 10167 10162 10161 10158 ] final -122.37 input  -65.29 | X-H torsion
[ 10718 10713 10712 10709 ] final  139.25 input   66.30 | X-H torsion
[ 10763 10752 10751 10750 ] final  138.17 input  -60.55 | X-H torsion
[ 11005 11000 10999 10996 ] final  136.09 input  -57.11 | X-H torsion

> <Gold.Protein.ActiveResidues>
 VAL166  LYS551  ARG553  GLY616  TRP617  ASP618  TYR619  PRO620  LYS621  CYS622 
 ASP623  PHE694  ASN695  SER759  ASP760  ASP761  ALA762  ILE779  LEU786  VAL792 
 PHE793  MET794  SER795  GLU796  ALA797  LYS798  CYS799  TRP800  GLU811  SER814 

> <Gold.Protein.RotatedAtoms>
  152.4667  134.5059  159.9738 H   0  0  0  0  0  0  0  0  0  0  0  0  # atno 6907 bound_to 6896
  151.5096  133.3482  159.2890 H   0  0  0  0  0  0  0  0  0  0  0  0  # atno 6908 bound_to 6896
  150.8654  134.8045  159.7177 H   0  0  0  0  0  0  0  0  0  0  0  0  # atno 6909 bound_to 6896
  146.0552  140.6426  142.9023 H   0  0  0  0  0  0  0  0  0  0  0  0  # atno 7974 bound_to 7965
  154.4038  140.1580  156.2688 H   0  0  0  0  0  0  0  0  0  0  0  0  # atno 8008 bound_to 7997
  155.8972  140.3435  155.5977 H   0  0  0  0  0  0  0  0  0  0  0  0  # atno 8009 bound_to 7997
  155.7490  140.0802  157.2200 H   0  0  0  0  0  0  0  0  0  0  0  0  # atno 8010 bound_to 7997
  140.0150  143.5403  152.2246 H   0  0  0  0  0  0  0  0  0  0  0  0  # atno 10167 bound_to 10162
  157.4165  131.1034  151.0399 H   0  0  0  0  0  0  0  0  0  0  0  0  # atno 10718 bound_to 10713
  153.8851  135.3039  155.3446 H   0  0  0  0  0  0  0  0  0  0  0  0  # atno 10763 bound_to 10752
  154.7743  135.4869  153.9715 H   0  0  0  0  0  0  0  0  0  0  0  0  # atno 10764 bound_to 10752
  153.1329  135.6808  153.9246 H   0  0  0  0  0  0  0  0  0  0  0  0  # atno 10765 bound_to 10752
  140.0023  134.9473  157.0098 H   0  0  0  0  0  0  0  0  0  0  0  0  # atno 11005 bound_to 11000
  144.7144  140.4156  143.7056 LP  0  0  0  0  0  0  0  0  0  0  0  0  # atno 17320 bound_to 7965
  145.6656  139.1589  143.2783 LP  0  0  0  0  0  0  0  0  0  0  0  0  # atno 17321 bound_to 7965
  139.6179  144.7623  151.2806 LP  0  0  0  0  0  0  0  0  0  0  0  0  # atno 17342 bound_to 10162
  140.7366  143.6703  150.8088 LP  0  0  0  0  0  0  0  0  0  0  0  0  # atno 17343 bound_to 10162
  157.1345  130.6116  149.5538 LP  0  0  0  0  0  0  0  0  0  0  0  0  # atno 17370 bound_to 10713
  155.9867  130.4902  150.7090 LP  0  0  0  0  0  0  0  0  0  0  0  0  # atno 17371 bound_to 10713
  140.4706  134.1390  155.7202 LP  0  0  0  0  0  0  0  0  0  0  0  0  # atno 17394 bound_to 11000
  141.1651  133.8719  157.1738 LP  0  0  0  0  0  0  0  0  0  0  0  0  # atno 17395 bound_to 11000

$$$$
