#       Name:                AV-unprocessed.smi:232
#       Creating user name   scv26
#       Creation time:       Thu Mar 26 20:31:04 2020


#       File generated by GOLD software.
#

@<TRIPOS>MOLECULE
AV-unprocessed.smi:232
    60    63     1
SMALL
NO_CHARGES


@<TRIPOS>ATOM
      1 ****        -3.7638  -3.3989   1.6276 C.3            1 S1                 0.0000
      2 ****        -4.3429  -2.2546   2.4698 C.3            1 S1                 0.0000
      3 ****        -3.2875  -1.2045   2.8685 C.3            1 S1                 0.0000
      4 ****        -3.8632  -0.1273   3.8159 C.3            1 S1                 0.0000
      5 ****        -3.7822   1.1920   3.0410 C.3            1 S1                 0.0000
      6 ****        -3.5800   0.7349   1.5981 C.3            1 S1                 0.0000
      7 ****        -3.0387   1.8209   0.6483 C.3            1 S1                 0.0000
      8 ****        -2.7813  -0.4858   1.6970 N.3            1 S1                 0.0000
      9 ****        -1.4338  -0.3479   1.6242 C.ar           1 S1                 0.0000
     10 ****        -0.7149   0.0523   2.7072 N.ar           1 S1                 0.0000
     11 ****         0.6095   0.2047   2.6119 C.ar           1 S1                 0.0000
     12 ****         1.3974   0.0173   1.5505 N.ar           1 S1                 0.0000
     13 ****         0.6772  -0.3832   0.4637 C.ar           1 S1                 0.0000
     14 ****        -0.7295  -0.5888   0.4153 C.ar           1 S1                 0.0000
     15 ****        -1.1104  -0.9907  -0.8587 N.2            1 S1                 0.0000
     16 ****         0.0099  -1.0190  -1.5285 C.2            1 S1                 0.0000
     17 ****         1.1313  -0.6661  -0.8122 N.pl3          1 S1                 0.0000
     18 ****         2.4940  -0.6078  -1.3113 C.3            1 S1                 0.0000
     19 ****         2.8017   0.7232  -2.0250 C.3            1 S1                 0.0000
     20 ****         2.6529   1.7903  -1.1081 O.3            1 S1                 0.0000
     21 ****         4.2294   0.7584  -2.6004 C.3            1 S1                 0.0000
     22 ****         4.5784   2.0384  -3.3631 C.3            1 S1                 0.0000
     23 ****         5.6586   1.5971  -4.3391 C.3            1 S1                 0.0000
     24 ****         5.5850   0.0685  -4.3108 C.3            1 S1                 0.0000
     25 ****         4.3877  -0.2295  -3.6073 O.3            1 S1                 0.0000
     26 ****        -4.5337  -4.1334   1.3912 H              1 S1                 0.0000
     27 ****        -2.9647  -3.9141   2.1610 H              1 S1                 0.0000
     28 ****        -3.3561  -3.0332   0.6847 H              1 S1                 0.0000
     29 ****        -5.1643  -1.7825   1.9297 H              1 S1                 0.0000
     30 ****        -4.7798  -2.6815   3.3732 H              1 S1                 0.0000
     31 ****        -2.4772  -1.7268   3.3804 H              1 S1                 0.0000
     32 ****        -4.8965  -0.3484   4.0863 H              1 S1                 0.0000
     33 ****        -3.2928  -0.0666   4.7433 H              1 S1                 0.0000
     34 ****        -4.6720   1.8098   3.1638 H              1 S1                 0.0000
     35 ****        -2.9224   1.7704   3.3817 H              1 S1                 0.0000
     36 ****        -4.5494   0.4260   1.2048 H              1 S1                 0.0000
     37 ****        -3.7367   2.6557   0.5834 H              1 S1                 0.0000
     38 ****        -2.9018   1.4291  -0.3600 H              1 S1                 0.0000
     39 ****        -2.0832   2.2224   0.9879 H              1 S1                 0.0000
     40 ****         1.1091   0.5252   3.5142 H              1 S1                 0.0000
     41 ****         0.0495  -1.2972  -2.5718 H              1 S1                 0.0000
     42 ****         3.1817  -0.7665  -0.4794 H              1 S1                 0.0000
     43 ****         2.6374  -1.4449  -1.9954 H              1 S1                 0.0000
     44 ****         2.0841   0.8725  -2.8330 H              1 S1                 0.0000
     45 ****         1.7822   1.7521  -0.7428 H              1 S1                 0.0000
     46 ****         4.9650   0.5813  -1.8129 H              1 S1                 0.0000
     47 ****         3.7106   2.3958  -3.9193 H              1 S1                 0.0000
     48 ****         4.9070   2.8421  -2.7036 H              1 S1                 0.0000
     49 ****         5.4629   1.9911  -5.3369 H              1 S1                 0.0000
     50 ****         6.6458   1.9417  -4.0292 H              1 S1                 0.0000
     51 ****         5.5745  -0.3698  -5.3087 H              1 S1                 0.0000
     52 ****         6.4337  -0.3462  -3.7651 H              1 S1                 0.0000
     53 ****        -2.9053  -1.0306   0.8677 LP             1 S1                 0.0000
     54 ****        -1.1775   0.2327   3.5752 LP             1 S1                 0.0000
     55 ****         2.3882   0.1531   1.5521 LP             1 S1                 0.0000
     56 ****        -2.0297  -1.2080  -1.1868 LP             1 S1                 0.0000
     57 ****         2.7826   2.6620  -1.5809 LP             1 S1                 0.0000
     58 ****         3.3297   1.7038  -0.3770 LP             1 S1                 0.0000
     59 ****         3.6086  -0.2068  -4.2338 LP             1 S1                 0.0000
     60 ****         4.4533  -1.1357  -3.1897 LP             1 S1                 0.0000
@<TRIPOS>BOND
    1    1    2 1     
    2    1   26 1     
    3    1   27 1     
    4    1   28 1     
    5    2    3 1     
    6    2   29 1     
    7    2   30 1     
    8    3    8 1     
    9    3    4 1     
   10    3   31 1     
   11    4    5 1     
   12    4   32 1     
   13    4   33 1     
   14    5    6 1     
   15    5   34 1     
   16    5   35 1     
   17    6    7 1     
   18    6    8 1     
   19    6   36 1     
   20    7   37 1     
   21    7   38 1     
   22    7   39 1     
   23    8    9 1     
   24    9   14 ar    
   25    9   10 ar    
   26   10   11 ar    
   27   11   12 ar    
   28   11   40 1     
   29   12   13 ar    
   30   13   17 1     
   31   13   14 ar    
   32   14   15 1     
   33   15   16 2     
   34   16   17 1     
   35   16   41 1     
   36   17   18 1     
   37   18   19 1     
   38   18   42 1     
   39   18   43 1     
   40   19   20 1     
   41   19   21 1     
   42   19   44 1     
   43   20   45 1     
   44   21   25 1     
   45   21   22 1     
   46   21   46 1     
   47   22   23 1     
   48   22   47 1     
   49   22   48 1     
   50   23   24 1     
   51   23   49 1     
   52   23   50 1     
   53   24   25 1     
   54   24   51 1     
   55   24   52 1     
   56    8   53 1     
   57   10   54 1     
   58   12   55 1     
   59   15   56 1     
   60   20   57 1     
   61   20   58 1     
   62   25   59 1     
   63   25   60 1     
@<TRIPOS>SUBSTRUCTURE
      1 S1             1
@<TRIPOS>SET
LONE_PAIRS      STATIC     ATOMS    <user>   **** ""
8 53 54 55 56 57 58 59 60
DONOR_HYDROGENS      STATIC     ATOMS    <user>   **** ""
1 45
ATOM$BLUE        STATIC     ATOMS    COLORGROUP SYSTEM
8 53 54 55 56 57 58 59 60
ATOM$RED        STATIC     ATOMS    COLORGROUP SYSTEM
1 45
