AV-unprocessed.smi:3034|AV-procd|sdf|11580|dock4
  -GOLD-   2272016553D 1   1.00000     0.00000
 Structure written by MMmdl.
 31 31  0  0  0  0  0  0  0  0  2 V2000
  146.5982  142.5957  154.2004 C   0  0  0  0  0  0  0  0  0  0  0  0
  147.3757  141.4688  154.8886 C   0  0  0  0  0  0  0  0  0  0  0  0
  148.6356  141.0660  154.1116 C   0  0  0  0  0  0  0  0  0  0  0  0
  149.5500  139.7111  154.9774 S   0  0  0  0  0  0  0  0  0  0  0  0
  148.8079  139.4407  156.2205 O   0  0  0  0  0  0  0  0  0  0  0  0
  149.6171  138.6114  154.0030 O   0  0  0  0  0  0  0  0  0  0  0  0
  151.0145  140.3767  155.2105 N   0  5  0  0  0  0  0  0  0  0  0  0
  151.4257  140.8608  156.5228 C   0  0  0  0  0  0  0  0  0  0  0  0
  151.1406  142.3787  156.6556 C   0  0  1  0  0  0  0  0  0  0  0  0
  149.7549  142.5855  156.4549 O   0  0  0  0  0  0  0  0  0  0  0  0
  151.6325  143.0088  157.9637 C   0  0  0  0  0  0  0  0  0  0  0  0
  151.5701  144.4097  158.1461 C   0  0  0  0  0  0  0  0  0  0  0  0
  152.0219  144.9573  159.3617 C   0  0  0  0  0  0  0  0  0  0  0  0
  152.5111  144.0896  160.3562 C   0  0  0  0  0  0  0  0  0  0  0  0
  152.5276  142.7071  160.0882 C   0  0  0  0  0  0  0  0  0  0  0  0
  152.0971  142.1717  158.9261 N   0  0  0  0  0  0  0  0  0  0  0  0
  145.7137  142.8654  154.7776 H   0  0  0  0  0  0  0  0  0  0  0  0
  146.2683  142.2952  153.2056 H   0  0  0  0  0  0  0  0  0  0  0  0
  147.2126  143.4902  154.0950 H   0  0  0  0  0  0  0  0  0  0  0  0
  147.6536  141.7843  155.8947 H   0  0  0  0  0  0  0  0  0  0  0  0
  146.7241  140.6026  155.0056 H   0  0  0  0  0  0  0  0  0  0  0  0
  148.3758  140.7127  153.1138 H   0  0  0  0  0  0  0  0  0  0  0  0
  149.3021  141.9211  154.0013 H   0  0  0  0  0  0  0  0  0  0  0  0
  150.8847  140.3380  157.3128 H   0  0  0  0  0  0  0  0  0  0  0  0
  152.4821  140.6675  156.7128 H   0  0  0  0  0  0  0  0  0  0  0  0
  151.6361  142.8955  155.8321 H   0  0  0  0  0  0  0  0  0  0  0  0
  149.6299  143.4689  156.1452 H   0  0  0  0  0  0  0  0  0  0  0  0
  151.1934  145.0524  157.3640 H   0  0  0  0  0  0  0  0  0  0  0  0
  151.9936  146.0241  159.5278 H   0  0  0  0  0  0  0  0  0  0  0  0
  152.8657  144.4740  161.3010 H   0  0  0  0  0  0  0  0  0  0  0  0
  152.8946  142.0118  160.8285 H   0  0  0  0  0  0  0  0  0  0  0  0
  1  2  1  0  0  0  0
  1 17  1  0  0  0  0
  1 18  1  0  0  0  0
  1 19  1  0  0  0  0
  2  3  1  0  0  0  0
  2 20  1  0  0  0  0
  2 21  1  0  0  0  0
  3  4  1  0  0  0  0
  3 22  1  0  0  0  0
  3 23  1  0  0  0  0
  4  5  2  0  0  0  0
  4  6  2  0  0  0  0
  4  7  1  0  0  0  0
  7  8  1  0  0  0  0
  8  9  1  0  0  0  0
  8 24  1  0  0  0  0
  8 25  1  0  0  0  0
  9 10  1  0  0  0  0
  9 11  1  0  0  0  0
  9 26  1  0  0  0  0
 10 27  1  0  0  0  0
 11 16  1  0  0  0  0
 11 12  2  0  0  0  0
 12 13  1  0  0  0  0
 12 28  1  0  0  0  0
 13 14  2  0  0  0  0
 13 29  1  0  0  0  0
 14 15  1  0  0  0  0
 14 30  1  0  0  0  0
 15 16  2  0  0  0  0
 15 31  1  0  0  0  0
M  CHG  1   7  -1
M  END
> <s_m_source_file>
AV-unprocessed.smi

> <i_m_source_file_index>
3034

> <i_lp_mmshare_version>
43012

> <i_f3d_flags>
0

> <s_epik_input>
W0NIM11bQ0gyXVtDSDJdUyg9TykoPU8pW05IXVtDSDJdW0NASF0oW09IXSljMVtjSF1bY0hdW2NIXVtjSF1uMQ==

> <s_epik_cmdline>
J2VwaWtfcHl0aG9uJywgJy1waCcsICc3LjAnLCAnLXRuJywgJzgnLCAnLW1hJywgJzIwMCcsICctbWV0YWxfYmluZGluZycsICctaW1hZScsICc8aW5maWxlLm1hZT4nLCAnLW9tYWUnLCAnPG91dGZpbGUubWFlPic=

> <r_epik_Ionization_Penalty>
6.18156

> <r_epik_Ionization_Penalty_Charging>
6.17474

> <r_epik_Ionization_Penalty_Neutral>
0.0068235

> <r_epik_State_Penalty>
6.17598

> <r_epik_Charging_Adjusted_Penalty>
12.3507

> <i_epik_Tot_Q>
-1

> <i_epik_Tot_abs_Q>
1

> <r_epik_Metal_State_Penalty>
2.11803

> <b_epik_Metal_Only>
1

> <s_lp_Force_Field>
OPLS_2005

> <r_lp_Energy>
1.09161

> <b_lp_Chiralities_Consistent>
1

> <s_lp_Variant>
AV-unprocessed.smi:3034-4

> <Gold.Version>
5.8.1

> <Gold.Id.Protein>
6NUR|6NUR_protein|mol2

> <Gold.PLP.Fitness>
43.0436

> <Gold.PLP.PLP>
-37.4957

> <Gold.PLP.part.hbond>
-1.6371

> <Gold.PLP.part.metal>
0.0000

> <Gold.PLP.part.buried>
-6.3759

> <Gold.PLP.part.nonpolar>
-29.9429

> <Gold.PLP.part.repulsive>
0.2835

> <Gold.PLP.ligand.clash>
0.0000

> <Gold.PLP.ligand.torsion>
0.7563

> <Gold.PLP.Chemscore.Hbond>
2.0000

> <Gold.PLP.Chemscore.CHOScore>
0.0000

> <Gold.PLP.Chemscore.Metal>
0.0000

> <Gold.Chemscore.Hbonds>
donor molecule, donor type, donor heavy atom, donor atom, acceptor molecule, acceptor atom, score
      L1  H    10    27       P1  8028  1.00
      P1  H  7989  7998       L1     7  1.00

> <Gold.PLP.Chemscore.Internal.Correction>
1.0604

> <Gold.Rescore>
     Score         DG    S(hbond)    S(metal)    S(lipo)     H(rot)  DE(clash)    DE(int)     intcor
     15.76     -16.89       1.90        0.00      93.34       2.29       0.51       0.62       ----

> <Gold.Chemscore.Fitness>
15.7606

> <Gold.Chemscore.DG>
-16.8917

> <Gold.Chemscore.ZeroCoef>
-5.4800

> <Gold.Chemscore.Hbond>
1.9017

> <Gold.Chemscore.Metal>
0.0000

> <Gold.Chemscore.Lipo>
93.3437

> <Gold.Chemscore.Internal_Hbond>
0.0000

> <Gold.Chemscore.DEClash>
0.5109

> <Gold.Chemscore.DEInternal>
0.6202

> <Gold.Chemscore.Rot>
2.2895

> <Gold.Chemscore.Internal.Correction>
   9.000000E+99

> <Gold.Chemscore.Hbonds>
donor molecule, donor type, donor heavy atom, donor atom, acceptor molecule, acceptor atom, score
      L1  H    10    27       P1  8028  0.93
      P1  H  7989  7998       L1     7  0.53

> <Gold.Chemscore.Hbond.Weighted>
-6.3517

> <Gold.Chemscore.Metal.Weighted>
-0.0000

> <Gold.Chemscore.Lipo.Weighted>
-10.9212

> <Gold.Chemscore.Internal_Hbond.Weighted>
0.0000

> <Gold.Chemscore.DEClash.Weighted>
0.5109

> <Gold.Chemscore.DEInternal.Weighted>
0.6202

> <Gold.Chemscore.Rot.Weighted>
5.8612

> <Gold.Chemscore.Internal.Correction.Weighted>
   9.000000E+99

> <Gold.Protein.RotatedTorsions>
[ 6907 6896 6895 6894 ] final  118.05 input  -60.11 | X-H torsion
[ 7974 7965 7964 7962 ] final  -92.45 input  175.53 | X-H torsion
[ 8008 7997 7996 7995 ] final -126.31 input   59.86 | X-H torsion
[ 10167 10162 10161 10158 ] final  -78.50 input  -65.29 | X-H torsion
[ 10718 10713 10712 10709 ] final  -62.97 input   66.30 | X-H torsion
[ 10763 10752 10751 10750 ] final -146.12 input  -60.55 | X-H torsion
[ 11005 11000 10999 10996 ] final  120.87 input  -57.11 | X-H torsion

> <Gold.Protein.ActiveResidues>
 VAL166  LYS551  ARG553  GLY616  TRP617  ASP618  TYR619  PRO620  LYS621  CYS622 
 ASP623  PHE694  ASN695  SER759  ASP760  ASP761  ALA762  ILE779  LEU786  VAL792 
 PHE793  MET794  SER795  GLU796  ALA797  LYS798  CYS799  TRP800  GLU811  SER814 

> <Gold.Protein.RotatedAtoms>
  152.4570  133.7744  159.6816 H   0  0  0  0  0  0  0  0  0  0  0  0  # atno 6907 bound_to 6896
  150.8500  133.7792  159.3035 H   0  0  0  0  0  0  0  0  0  0  0  0  # atno 6908 bound_to 6896
  151.5390  135.1071  159.9973 H   0  0  0  0  0  0  0  0  0  0  0  0  # atno 6909 bound_to 6896
  145.3997  140.9536  143.2294 H   0  0  0  0  0  0  0  0  0  0  0  0  # atno 7974 bound_to 7965
  155.2277  140.0424  157.2957 H   0  0  0  0  0  0  0  0  0  0  0  0  # atno 8008 bound_to 7997
  154.5909  140.2426  155.7893 H   0  0  0  0  0  0  0  0  0  0  0  0  # atno 8009 bound_to 7997
  156.2258  140.2955  156.0072 H   0  0  0  0  0  0  0  0  0  0  0  0  # atno 8010 bound_to 7997
  140.4677  143.2435  151.8253 H   0  0  0  0  0  0  0  0  0  0  0  0  # atno 10167 bound_to 10162
  156.0821  130.4215  150.1211 H   0  0  0  0  0  0  0  0  0  0  0  0  # atno 10718 bound_to 10713
  154.8351  135.3395  154.6611 H   0  0  0  0  0  0  0  0  0  0  0  0  # atno 10763 bound_to 10752
  153.7227  135.6957  153.5013 H   0  0  0  0  0  0  0  0  0  0  0  0  # atno 10764 bound_to 10752
  153.2370  135.4397  155.0609 H   0  0  0  0  0  0  0  0  0  0  0  0  # atno 10765 bound_to 10752
  139.9202  134.9636  156.7872 H   0  0  0  0  0  0  0  0  0  0  0  0  # atno 11005 bound_to 11000
  144.8383  139.5514  143.6912 LP  0  0  0  0  0  0  0  0  0  0  0  0  # atno 17320 bound_to 7965
  146.2758  139.6749  142.9264 LP  0  0  0  0  0  0  0  0  0  0  0  0  # atno 17321 bound_to 7965
  139.4814  144.4930  151.9160 LP  0  0  0  0  0  0  0  0  0  0  0  0  # atno 17342 bound_to 10162
  140.4016  144.2486  150.5893 LP  0  0  0  0  0  0  0  0  0  0  0  0  # atno 17343 bound_to 10162
  156.9240  130.9692  151.3544 LP  0  0  0  0  0  0  0  0  0  0  0  0  # atno 17370 bound_to 10713
  157.5941  130.8465  149.8703 LP  0  0  0  0  0  0  0  0  0  0  0  0  # atno 17371 bound_to 10713
  140.6497  133.9743  155.7749 LP  0  0  0  0  0  0  0  0  0  0  0  0  # atno 17394 bound_to 11000
  141.0716  134.0196  157.3517 LP  0  0  0  0  0  0  0  0  0  0  0  0  # atno 17395 bound_to 11000

$$$$
