#       Name:                AV-unprocessed.smi:2557
#       Creating user name   scv26
#       Creation time:       Fri Mar 27 14:07:32 2020


#       File generated by GOLD software.
#

@<TRIPOS>MOLECULE
AV-unprocessed.smi:2557
    42    44     1
SMALL
NO_CHARGES


@<TRIPOS>ATOM
      1 ****        -0.6375  -4.5353  -1.0530 O.co2          1 S1                -1.0000
      2 ****         0.0084  -3.5063  -0.7448 C.2            1 S1                 0.0000
      3 ****        -0.3830  -2.1972  -0.4559 C.2            1 S1                 0.0000
      4 ****        -1.8067  -1.8395  -0.4595 C.2            1 S1                 0.0000
      5 ****        -2.7630  -2.5810  -0.6791 O.2            1 S1                 0.0000
      6 ****        -2.0868  -0.4672  -0.1756 N.am           1 S1                 0.0000
      7 ****        -1.1158   0.4313   0.0805 C.2            1 S1                 0.0000
      8 ****        -1.5194   1.8515   0.3558 C.3            1 S1                 0.0000
      9 ****        -0.9626   2.7769  -0.7427 C.3            1 S1                 0.0000
     10 ****        -1.3227   4.2450  -0.4615 C.3            1 S1                 0.0000
     11 ****        -0.8373   4.6813   0.9313 C.3            1 S1                 0.0000
     12 ****        -1.3809   3.7527   2.0302 C.3            1 S1                 0.0000
     13 ****        -1.0191   2.2856   1.7475 C.3            1 S1                 0.0000
     14 ****         0.1887   0.0943   0.0927 N.pl3          1 S1                 1.0000
     15 ****         0.5647  -1.2243  -0.1419 N.pl3          1 S1                 0.0000
     16 ****         1.4474  -3.8266  -0.7595 C.ar           1 S1                 0.0000
     17 ****         2.2703  -3.4115  -1.8289 C.ar           1 S1                 0.0000
     18 ****         3.6370  -3.7518  -1.8026 C.ar           1 S1                 0.0000
     19 ****         4.2070  -4.4572  -0.8024 N.ar           1 S1                 0.0000
     20 ****         3.4152  -4.8586   0.2151 C.ar           1 S1                 0.0000
     21 ****         2.0375  -4.5731   0.2834 C.ar           1 S1                 0.0000
     22 ****        -2.6092   1.9162   0.3448 H              1 S1                 0.0000
     23 ****         0.1215   2.6782  -0.8033 H              1 S1                 0.0000
     24 ****        -1.3555   2.4752  -1.7139 H              1 S1                 0.0000
     25 ****        -0.8865   4.8885  -1.2260 H              1 S1                 0.0000
     26 ****        -2.4036   4.3753  -0.5282 H              1 S1                 0.0000
     27 ****         0.2533   4.6765   0.9557 H              1 S1                 0.0000
     28 ****        -1.1454   5.7087   1.1272 H              1 S1                 0.0000
     29 ****        -0.9853   4.0530   3.0009 H              1 S1                 0.0000
     30 ****        -2.4649   3.8564   2.0930 H              1 S1                 0.0000
     31 ****        -1.4503   1.6402   2.5131 H              1 S1                 0.0000
     32 ****         0.0626   2.1663   1.8151 H              1 S1                 0.0000
     33 ****         0.8955   0.7904   0.2847 H              1 S1                 0.0000
     34 ****         1.5626  -1.3734  -0.1978 H              1 S1                 0.0000
     35 ****         1.8599  -2.8468  -2.6529 H              1 S1                 0.0000
     36 ****         4.2907  -3.4476  -2.6063 H              1 S1                 0.0000
     37 ****         3.8946  -5.4240   1.0004 H              1 S1                 0.0000
     38 ****         1.4454  -4.9175   1.1186 H              1 S1                 0.0000
     39 ****        -3.0282  -0.1035  -0.1549 H              1 S1                 0.0000
     40 ****        -2.6094  -3.5477  -0.8840 LP             1 S1                 0.0000
     41 ****        -3.6941  -2.2173  -0.6527 LP             1 S1                 0.0000
     42 ****         5.1829  -4.6751  -0.8147 LP             1 S1                 0.0000
@<TRIPOS>BOND
    1    1    2 ar    
    2    2    3 2     
    3    2   16 1     
    4    3   15 1     
    5    3    4 1     
    6    4    5 2     
    7    4    6 am    
    8    6    7 1     
    9    6   39 1     
   10    7    8 1     
   11    7   14 2     
   12    8   13 1     
   13    8    9 1     
   14    8   22 1     
   15    9   10 1     
   16    9   23 1     
   17    9   24 1     
   18   10   11 1     
   19   10   25 1     
   20   10   26 1     
   21   11   12 1     
   22   11   27 1     
   23   11   28 1     
   24   12   13 1     
   25   12   29 1     
   26   12   30 1     
   27   13   31 1     
   28   13   32 1     
   29   14   15 1     
   30   14   33 1     
   31   15   34 1     
   32   16   21 ar    
   33   16   17 ar    
   34   17   18 ar    
   35   17   35 1     
   36   18   19 ar    
   37   18   36 1     
   38   19   20 ar    
   39   20   21 ar    
   40   20   37 1     
   41   21   38 1     
   42    5   40 1     
   43    5   41 1     
   44   19   42 1     
@<TRIPOS>SUBSTRUCTURE
      1 S1             1
@<TRIPOS>SET
LONE_PAIRS      STATIC     ATOMS    <user>   **** ""
4 1 40 41 42
DONOR_HYDROGENS      STATIC     ATOMS    <user>   **** ""
3 39 33 34
ATOM$BLUE        STATIC     ATOMS    COLORGROUP SYSTEM
4 1 40 41 42
ATOM$RED        STATIC     ATOMS    COLORGROUP SYSTEM
3 39 33 34
