#       Name:                AV-unprocessed.smi:1579
#       Creating user name   scv26
#       Creation time:       Fri Mar 27 06:57:30 2020


#       File generated by GOLD software.
#

@<TRIPOS>MOLECULE
AV-unprocessed.smi:1579
    53    54     1
SMALL
NO_CHARGES


@<TRIPOS>ATOM
      1 ****        -3.1581   1.8742  -3.3402 C.3            1 S1                 0.0000
      2 ****        -3.1937   1.3316  -1.9368 C.2            1 S1                 0.0000
      3 ****        -2.7330   0.1361  -1.7648 N.2            1 S1                 0.0000
      4 ****        -2.7209  -0.4592  -0.5186 N.am           1 S1                 0.0000
      5 ****        -2.1720  -1.8221  -0.5193 C.3            1 S1                 0.0000
      6 ****        -0.6279  -1.8389  -0.5451 C.3            1 S1                 0.0000
      7 ****        -0.2248  -3.1803  -0.7395 O.3            1 S1                 0.0000
      8 ****         0.0111  -1.3036   0.7561 C.3            1 S1                 0.0000
      9 ****         1.4943  -1.2446   0.6984 N.4            1 S1                 1.0000
     10 ****         2.1040  -1.2656   2.0531 C.3            1 S1                 0.0000
     11 ****         3.6378  -1.3390   1.9734 C.3            1 S1                 0.0000
     12 ****         4.2102  -0.1728   1.1508 C.3            1 S1                 0.0000
     13 ****         5.7396  -0.2492   1.0432 C.3            1 S1                 0.0000
     14 ****         3.5397  -0.1558  -0.2329 C.3            1 S1                 0.0000
     15 ****         2.0073  -0.1062  -0.1106 C.3            1 S1                 0.0000
     16 ****        -3.1652   0.1325   0.6274 C.2            1 S1                 0.0000
     17 ****        -3.1116  -0.4234   1.7253 O.2            1 S1                 0.0000
     18 ****        -3.6900   1.4846   0.4252 C.2            1 S1                 0.0000
     19 ****        -4.1732   2.1359   1.5998 C.1            1 S1                 0.0000
     20 ****        -4.5496   2.6757   2.5519 N.1            1 S1                 0.0000
     21 ****        -3.7115   2.0776  -0.7946 C.2            1 S1                 0.0000
     22 ****        -4.2439   3.4798  -1.0560 C.3            1 S1                 0.0000
     23 ****        -4.1575   2.1560  -3.6725 H              1 S1                 0.0000
     24 ****        -2.7701   1.1424  -4.0505 H              1 S1                 0.0000
     25 ****        -2.5209   2.7568  -3.3971 H              1 S1                 0.0000
     26 ****        -2.5414  -2.4081   0.3242 H              1 S1                 0.0000
     27 ****        -2.5526  -2.3377  -1.4034 H              1 S1                 0.0000
     28 ****        -0.2913  -1.2658  -1.4081 H              1 S1                 0.0000
     29 ****         0.6978  -3.1989  -0.9418 H              1 S1                 0.0000
     30 ****        -0.3595  -0.3062   0.9925 H              1 S1                 0.0000
     31 ****        -0.3030  -1.9456   1.5806 H              1 S1                 0.0000
     32 ****         1.7966  -0.3767   2.6065 H              1 S1                 0.0000
     33 ****         1.7360  -2.1287   2.6093 H              1 S1                 0.0000
     34 ****         4.0577  -1.3281   2.9800 H              1 S1                 0.0000
     35 ****         3.9337  -2.2893   1.5263 H              1 S1                 0.0000
     36 ****         3.9603   0.7589   1.6607 H              1 S1                 0.0000
     37 ****         6.0582  -1.1617   0.5379 H              1 S1                 0.0000
     38 ****         6.2030  -0.2363   2.0302 H              1 S1                 0.0000
     39 ****         6.1365   0.5978   0.4829 H              1 S1                 0.0000
     40 ****         3.8891   0.7036  -0.8064 H              1 S1                 0.0000
     41 ****         3.8313  -1.0424  -0.7980 H              1 S1                 0.0000
     42 ****         1.5764  -0.1235  -1.1107 H              1 S1                 0.0000
     43 ****         1.6994   0.8354   0.3472 H              1 S1                 0.0000
     44 ****        -4.5388   3.9873  -0.1380 H              1 S1                 0.0000
     45 ****        -5.1194   3.4396  -1.7048 H              1 S1                 0.0000
     46 ****        -3.4857   4.0973  -1.5383 H              1 S1                 0.0000
     47 ****         1.7964  -2.0940   0.2436 H              1 S1                 0.0000
     48 ****        -2.3776  -0.3688  -2.5513 LP             1 S1                 0.0000
     49 ****        -0.7420  -3.5791  -1.4967 LP             1 S1                 0.0000
     50 ****        -0.3957  -3.7056   0.0941 LP             1 S1                 0.0000
     51 ****        -2.7309  -1.3450   1.8011 LP             1 S1                 0.0000
     52 ****        -3.4488   0.0469   2.5409 LP             1 S1                 0.0000
     53 ****        -4.8748   3.1421   3.3746 LP             1 S1                 0.0000
@<TRIPOS>BOND
    1    1    2 1     
    2    1   23 1     
    3    1   24 1     
    4    1   25 1     
    5    2   21 1     
    6    2    3 2     
    7    3    4 1     
    8    4    5 1     
    9    4   16 am    
   10    5    6 1     
   11    5   26 1     
   12    5   27 1     
   13    6    7 1     
   14    6    8 1     
   15    6   28 1     
   16    7   29 1     
   17    8    9 1     
   18    8   30 1     
   19    8   31 1     
   20    9   15 1     
   21    9   10 1     
   22    9   47 1     
   23   10   11 1     
   24   10   32 1     
   25   10   33 1     
   26   11   12 1     
   27   11   34 1     
   28   11   35 1     
   29   12   13 1     
   30   12   14 1     
   31   12   36 1     
   32   13   37 1     
   33   13   38 1     
   34   13   39 1     
   35   14   15 1     
   36   14   40 1     
   37   14   41 1     
   38   15   42 1     
   39   15   43 1     
   40   16   17 2     
   41   16   18 1     
   42   18   19 1     
   43   18   21 2     
   44   19   20 3     
   45   21   22 1     
   46   22   44 1     
   47   22   45 1     
   48   22   46 1     
   49    3   48 1     
   50    7   49 1     
   51    7   50 1     
   52   17   51 1     
   53   17   52 1     
   54   20   53 1     
@<TRIPOS>SUBSTRUCTURE
      1 S1             1
@<TRIPOS>SET
LONE_PAIRS      STATIC     ATOMS    <user>   **** ""
6 48 49 50 51 52 53
DONOR_HYDROGENS      STATIC     ATOMS    <user>   **** ""
2 29 47
ATOM$BLUE        STATIC     ATOMS    COLORGROUP SYSTEM
6 48 49 50 51 52 53
ATOM$RED        STATIC     ATOMS    COLORGROUP SYSTEM
2 29 47
