AV-unprocessed.smi:2346|AV-procd|sdf|9365|dock1
  -GOLD-   2272012583D 1   1.00000     0.00000
 Structure written by MMmdl.
 44 46  0  0  0  0  0  0  0  0  1 V2000
  158.0854  139.0338  167.7165 C   0  0  0  0  0  0  0  0  0  0  0  0
  157.1136  139.1122  166.6839 O   0  0  0  0  0  0  0  0  0  0  0  0
  156.4719  140.3162  166.4768 C   0  0  0  0  0  0  0  0  0  0  0  0
  156.2253  141.2609  167.5055 C   0  0  0  0  0  0  0  0  0  0  0  0
  155.5652  142.4724  167.2222 C   0  0  0  0  0  0  0  0  0  0  0  0
  155.3180  143.4338  168.2837 C   0  0  0  0  0  0  0  0  0  0  0  0
  155.1213  144.1992  169.1288 N   0  0  0  0  0  0  0  0  0  0  0  0
  155.1452  142.7499  165.9087 C   0  0  0  0  0  0  0  0  0  0  0  0
  155.3843  141.8191  164.8819 C   0  0  0  0  0  0  0  0  0  0  0  0
  156.0487  140.5969  165.1568 C   0  0  0  0  0  0  0  0  0  0  0  0
  156.3160  139.6400  164.1991 O   0  0  0  0  0  0  0  0  0  0  0  0
  156.2061  140.0024  162.8303 C   0  0  0  0  0  0  0  0  0  0  0  0
  154.7215  140.0138  162.4471 C   0  0  0  0  0  0  0  0  0  0  0  0
  154.4762  140.7960  161.2439 N   0  0  0  0  0  0  0  0  0  0  0  0
  154.9733  140.6130  159.9914 C   0  0  0  0  0  0  0  0  0  0  0  0
  155.9326  139.5068  159.6416 C   0  0  2  0  0  0  0  0  0  0  0  0
  157.3218  140.0460  159.2724 C   0  0  0  0  0  0  0  0  0  0  0  0
  155.4635  138.7196  158.5660 O   0  0  0  0  0  0  0  0  0  0  0  0
  154.5573  141.4901  159.0747 N   0  0  0  0  0  0  0  0  0  0  0  0
  153.7262  142.3218  159.7970 C   0  0  0  0  0  0  0  0  0  0  0  0
  152.9822  143.4528  159.3913 C   0  0  0  0  0  0  0  0  0  0  0  0
  152.1919  144.1586  160.3218 C   0  0  0  0  0  0  0  0  0  0  0  0
  152.1355  143.7450  161.6683 C   0  0  0  0  0  0  0  0  0  0  0  0
  152.8688  142.6201  162.0928 C   0  0  0  0  0  0  0  0  0  0  0  0
  153.6553  141.9175  161.1595 C   0  0  0  0  0  0  0  0  0  0  0  0
  158.4925  138.0234  167.7506 H   0  0  0  0  0  0  0  0  0  0  0  0
  157.6472  139.2449  168.6929 H   0  0  0  0  0  0  0  0  0  0  0  0
  158.9165  139.7171  167.5365 H   0  0  0  0  0  0  0  0  0  0  0  0
  156.5371  141.0733  168.5223 H   0  0  0  0  0  0  0  0  0  0  0  0
  154.6381  143.6766  165.6803 H   0  0  0  0  0  0  0  0  0  0  0  0
  155.0463  142.0690  163.8879 H   0  0  0  0  0  0  0  0  0  0  0  0
  156.6363  140.9918  162.6665 H   0  0  0  0  0  0  0  0  0  0  0  0
  156.7456  139.2865  162.2102 H   0  0  0  0  0  0  0  0  0  0  0  0
  154.3431  139.0016  162.3075 H   0  0  0  0  0  0  0  0  0  0  0  0
  154.1360  140.4370  163.2637 H   0  0  0  0  0  0  0  0  0  0  0  0
  156.0467  138.8297  160.4854 H   0  0  0  0  0  0  0  0  0  0  0  0
  157.7479  140.6319  160.0866 H   0  0  0  0  0  0  0  0  0  0  0  0
  157.2774  140.6886  158.3923 H   0  0  0  0  0  0  0  0  0  0  0  0
  158.0141  139.2323  159.0543 H   0  0  0  0  0  0  0  0  0  0  0  0
  155.8678  137.8674  158.6211 H   0  0  0  0  0  0  0  0  0  0  0  0
  153.0203  143.7780  158.3622 H   0  0  0  0  0  0  0  0  0  0  0  0
  151.6267  145.0215  160.0011 H   0  0  0  0  0  0  0  0  0  0  0  0
  151.5288  144.2917  162.3751 H   0  0  0  0  0  0  0  0  0  0  0  0
  152.8259  142.3035  163.1241 H   0  0  0  0  0  0  0  0  0  0  0  0
  1  2  1  0  0  0  0
  1 26  1  0  0  0  0
  1 27  1  0  0  0  0
  1 28  1  0  0  0  0
  2  3  1  0  0  0  0
  3 10  1  0  0  0  0
  3  4  2  0  0  0  0
  4  5  1  0  0  0  0
  4 29  1  0  0  0  0
  5  6  1  0  0  0  0
  5  8  2  0  0  0  0
  6  7  3  0  0  0  0
  8  9  1  0  0  0  0
  8 30  1  0  0  0  0
  9 10  2  0  0  0  0
  9 31  1  0  0  0  0
 10 11  1  0  0  0  0
 11 12  1  0  0  0  0
 12 13  1  0  0  0  0
 12 32  1  0  0  0  0
 12 33  1  0  0  0  0
 13 14  1  0  0  0  0
 13 34  1  0  0  0  0
 13 35  1  0  0  0  0
 14 25  1  0  0  0  0
 14 15  1  0  0  0  0
 15 16  1  0  0  0  0
 15 19  2  0  0  0  0
 16 17  1  0  0  0  0
 16 18  1  0  0  0  0
 16 36  1  0  0  0  0
 17 37  1  0  0  0  0
 17 38  1  0  0  0  0
 17 39  1  0  0  0  0
 18 40  1  0  0  0  0
 19 20  1  0  0  0  0
 20 25  2  0  0  0  0
 20 21  1  0  0  0  0
 21 22  2  0  0  0  0
 21 41  1  0  0  0  0
 22 23  1  0  0  0  0
 22 42  1  0  0  0  0
 23 24  2  0  0  0  0
 23 43  1  0  0  0  0
 24 25  1  0  0  0  0
 24 44  1  0  0  0  0
M  END
> <s_m_source_file>
AV-unprocessed.smi

> <i_m_source_file_index>
2346

> <i_lp_mmshare_version>
43012

> <i_f3d_flags>
0

> <s_epik_input>
W0NIM11PYzFbY0hdYyhDI04pW2NIXVtjSF1jMU9bQ0gyXVtDSDJdbihjKG4yKVtDQEhdKFtDSDNdKVtPSF0pYyhjMjMpW2NIXVtjSF1bY0hdW2NIXTM=

> <s_epik_cmdline>
J2VwaWtfcHl0aG9uJywgJy1waCcsICc3LjAnLCAnLXRuJywgJzgnLCAnLW1hJywgJzIwMCcsICctbWV0YWxfYmluZGluZycsICctaW1hZScsICc8aW5maWxlLm1hZT4nLCAnLW9tYWUnLCAnPG91dGZpbGUubWFlPic=

> <r_epik_Ionization_Penalty>
0.0419826

> <r_epik_Ionization_Penalty_Charging>
0

> <r_epik_Ionization_Penalty_Neutral>
0.0419826

> <r_epik_State_Penalty>
0.0354317

> <r_epik_Charging_Adjusted_Penalty>
0.0354317

> <i_epik_Tot_Q>
0

> <i_epik_Tot_abs_Q>
0

> <r_epik_Metal_State_Penalty>
3.65115e-05

> <b_epik_Metal_Only>
0

> <s_lp_Force_Field>
OPLS_2005

> <r_lp_Energy>
19.3722

> <b_lp_Chiralities_Consistent>
1

> <s_lp_Variant>
AV-unprocessed.smi:2346-1

> <Gold.Version>
5.8.1

> <Gold.Id.Protein>
6NUR|6NUR_protein|mol2

> <Gold.PLP.Fitness>
50.2090

> <Gold.PLP.PLP>
-48.6860

> <Gold.PLP.part.hbond>
-2.0000

> <Gold.PLP.part.metal>
0.0000

> <Gold.PLP.part.buried>
-1.1637

> <Gold.PLP.part.nonpolar>
-44.9712

> <Gold.PLP.part.repulsive>
0.2366

> <Gold.PLP.ligand.clash>
0.0000

> <Gold.PLP.ligand.torsion>
0.8069

> <Gold.PLP.Chemscore.Hbond>
1.0000

> <Gold.PLP.Chemscore.CHOScore>
0.0000

> <Gold.PLP.Chemscore.Metal>
0.0000

> <Gold.Chemscore.Hbonds>
donor molecule, donor type, donor heavy atom, donor atom, acceptor molecule, acceptor atom, score
      P1  H  7997  8008       L1    18  1.00

> <Gold.PLP.Chemscore.Internal.Correction>
0.1369

> <Gold.Rescore>
     Score         DG    S(hbond)    S(metal)    S(lipo)     H(rot)  DE(clash)    DE(int)     intcor
     14.80     -17.17       0.83        0.00     132.34       2.57       1.66       0.70       ----

> <Gold.Chemscore.Fitness>
14.8021

> <Gold.Chemscore.DG>
-17.1673

> <Gold.Chemscore.ZeroCoef>
-5.4800

> <Gold.Chemscore.Hbond>
0.8318

> <Gold.Chemscore.Metal>
0.0000

> <Gold.Chemscore.Lipo>
132.3362

> <Gold.Chemscore.Internal_Hbond>
0.0000

> <Gold.Chemscore.DEClash>
1.6617

> <Gold.Chemscore.DEInternal>
0.7034

> <Gold.Chemscore.Rot>
2.5681

> <Gold.Chemscore.Internal.Correction>
   9.000000E+99

> <Gold.Chemscore.Hbonds>
donor molecule, donor type, donor heavy atom, donor atom, acceptor molecule, acceptor atom, score
      P1  H  7997  8008       L1    18  0.25

> <Gold.Chemscore.Hbond.Weighted>
-2.7782

> <Gold.Chemscore.Metal.Weighted>
-0.0000

> <Gold.Chemscore.Lipo.Weighted>
-15.4833

> <Gold.Chemscore.Internal_Hbond.Weighted>
0.0000

> <Gold.Chemscore.DEClash.Weighted>
1.6617

> <Gold.Chemscore.DEInternal.Weighted>
0.7034

> <Gold.Chemscore.Rot.Weighted>
6.5743

> <Gold.Chemscore.Internal.Correction.Weighted>
   9.000000E+99

> <Gold.Protein.RotatedTorsions>
[ 6907 6896 6895 6894 ] final   65.73 input  -60.11 | X-H torsion
[ 7974 7965 7964 7962 ] final -149.13 input  175.53 | X-H torsion
[ 8008 7997 7996 7995 ] final -123.58 input   59.86 | X-H torsion
[ 10167 10162 10161 10158 ] final   66.10 input  -65.29 | X-H torsion
[ 10718 10713 10712 10709 ] final  -90.03 input   66.30 | X-H torsion
[ 10763 10752 10751 10750 ] final   42.82 input  -60.55 | X-H torsion
[ 11005 11000 10999 10996 ] final  -92.03 input  -57.11 | X-H torsion

> <Gold.Protein.ActiveResidues>
 VAL166  LYS551  ARG553  GLY616  TRP617  ASP618  TYR619  PRO620  LYS621  CYS622 
 ASP623  PHE694  ASN695  SER759  ASP760  ASP761  ALA762  ILE779  LEU786  VAL792 
 PHE793  MET794  SER795  GLU796  ALA797  LYS798  CYS799  TRP800  GLU811  SER814 

> <Gold.Protein.RotatedAtoms>
  152.4429  134.5554  159.9878 H   0  0  0  0  0  0  0  0  0  0  0  0  # atno 6907 bound_to 6896
  151.5647  133.3392  159.2986 H   0  0  0  0  0  0  0  0  0  0  0  0  # atno 6908 bound_to 6896
  150.8339  134.7637  159.6940 H   0  0  0  0  0  0  0  0  0  0  0  0  # atno 6909 bound_to 6896
  144.7986  140.5105  143.5723 H   0  0  0  0  0  0  0  0  0  0  0  0  # atno 7974 bound_to 7965
  155.1829  140.0411  157.2885 H   0  0  0  0  0  0  0  0  0  0  0  0  # atno 8008 bound_to 7997
  154.6191  140.2496  155.7544 H   0  0  0  0  0  0  0  0  0  0  0  0  # atno 8009 bound_to 7997
  156.2423  140.2898  156.0491 H   0  0  0  0  0  0  0  0  0  0  0  0  # atno 8010 bound_to 7997
  140.1041  144.4878  150.7019 H   0  0  0  0  0  0  0  0  0  0  0  0  # atno 10167 bound_to 10162
  155.9986  130.4894  150.5261 H   0  0  0  0  0  0  0  0  0  0  0  0  # atno 10718 bound_to 10713
  152.9874  135.6120  154.3011 H   0  0  0  0  0  0  0  0  0  0  0  0  # atno 10763 bound_to 10752
  154.2731  135.2779  155.2731 H   0  0  0  0  0  0  0  0  0  0  0  0  # atno 10764 bound_to 10752
  154.5104  135.5842  153.6657 H   0  0  0  0  0  0  0  0  0  0  0  0  # atno 10765 bound_to 10752
  141.1531  133.7794  156.9962 H   0  0  0  0  0  0  0  0  0  0  0  0  # atno 11005 bound_to 11000
  145.5610  139.1479  143.3341 LP  0  0  0  0  0  0  0  0  0  0  0  0  # atno 17320 bound_to 7965
  146.2261  140.5746  142.8995 LP  0  0  0  0  0  0  0  0  0  0  0  0  # atno 17321 bound_to 7965
  140.6962  143.2405  151.4994 LP  0  0  0  0  0  0  0  0  0  0  0  0  # atno 17342 bound_to 10162
  139.5655  144.2052  152.1758 LP  0  0  0  0  0  0  0  0  0  0  0  0  # atno 17343 bound_to 10162
  157.3216  131.0683  151.1928 LP  0  0  0  0  0  0  0  0  0  0  0  0  # atno 17370 bound_to 10713
  157.2839  130.6763  149.6080 LP  0  0  0  0  0  0  0  0  0  0  0  0  # atno 17371 bound_to 10713
  140.0970  134.9558  157.1864 LP  0  0  0  0  0  0  0  0  0  0  0  0  # atno 17394 bound_to 11000
  140.3369  134.2747  155.7218 LP  0  0  0  0  0  0  0  0  0  0  0  0  # atno 17395 bound_to 11000

$$$$
