AV-unprocessed.smi:686|AV-procd|sdf|3347|dock1
  -GOLD-   22720 0323D 1   1.00000     0.00000
 Structure written by MMmdl.
 40 41  0  0  0  0  0  0  0  0  3 V2000
  148.2046  141.4237  153.9377 C   0  0  0  0  0  0  0  0  0  0  0  0
  148.6912  139.9658  153.8255 C   0  0  2  0  0  0  0  0  0  0  0  0
  147.5543  138.9425  153.8617 C   0  0  0  0  0  0  0  0  0  0  0  0
  148.2104  137.6545  154.1757 N   0  3  2  0  0  0  0  0  0  0  0  0
  147.3165  136.5853  154.7051 C   0  0  0  0  0  0  0  0  0  0  0  0
  146.6247  137.0332  156.0066 C   0  0  0  0  0  0  0  0  0  0  0  0
  148.0844  135.2736  154.9554 C   0  0  0  0  0  0  0  0  0  0  0  0
  149.3955  137.9640  155.0148 C   0  0  0  0  0  0  0  0  0  0  0  0
  149.6154  139.4878  154.9576 C   0  0  1  0  0  0  0  0  0  0  0  0
  151.0062  139.8294  154.6847 N   0  5  0  0  0  0  0  0  0  0  0  0
  152.2004  138.7390  154.8710 S   0  0  0  0  0  0  0  0  0  0  0  0
  151.9924  137.4981  154.1044 O   0  0  0  0  0  0  0  0  0  0  0  0
  153.5193  139.3765  154.7415 O   0  0  0  0  0  0  0  0  0  0  0  0
  152.0438  138.2855  156.6587 C   0  0  0  0  0  0  0  0  0  0  0  0
  152.1779  139.5127  157.5169 C   0  0  0  0  0  0  0  0  0  0  0  0
  151.2828  140.6121  157.6387 C   0  0  0  0  0  0  0  0  0  0  0  0
  151.9010  141.4295  158.5401 C   0  0  0  0  0  0  0  0  0  0  0  0
  153.0820  140.8922  158.9367 O   0  0  0  0  0  0  0  0  0  0  0  0
  153.2517  139.6704  158.2757 N   0  0  0  0  0  0  0  0  0  0  0  0
  147.6521  141.6070  154.8613 H   0  0  0  0  0  0  0  0  0  0  0  0
  147.5377  141.6668  153.1103 H   0  0  0  0  0  0  0  0  0  0  0  0
  149.0345  142.1316  153.8983 H   0  0  0  0  0  0  0  0  0  0  0  0
  149.2070  139.8468  152.8702 H   0  0  0  0  0  0  0  0  0  0  0  0
  146.8205  139.1906  154.6337 H   0  0  0  0  0  0  0  0  0  0  0  0
  147.0271  138.8966  152.9080 H   0  0  0  0  0  0  0  0  0  0  0  0
  146.5461  136.3885  153.9578 H   0  0  0  0  0  0  0  0  0  0  0  0
  145.9886  136.2412  156.4030 H   0  0  0  0  0  0  0  0  0  0  0  0
  145.9869  137.9039  155.8552 H   0  0  0  0  0  0  0  0  0  0  0  0
  147.3551  137.2855  156.7762 H   0  0  0  0  0  0  0  0  0  0  0  0
  147.4300  134.5153  155.3864 H   0  0  0  0  0  0  0  0  0  0  0  0
  148.9136  135.4249  155.6474 H   0  0  0  0  0  0  0  0  0  0  0  0
  148.4875  134.8531  154.0342 H   0  0  0  0  0  0  0  0  0  0  0  0
  149.2426  137.6618  156.0521 H   0  0  0  0  0  0  0  0  0  0  0  0
  150.2476  137.3995  154.6327 H   0  0  0  0  0  0  0  0  0  0  0  0
  149.2596  139.9208  155.8934 H   0  0  0  0  0  0  0  0  0  0  0  0
  151.0745  137.8070  156.8027 H   0  0  0  0  0  0  0  0  0  0  0  0
  152.8144  137.5569  156.9072 H   0  0  0  0  0  0  0  0  0  0  0  0
  150.3339  140.7700  157.1479 H   0  0  0  0  0  0  0  0  0  0  0  0
  151.6416  142.3819  158.9778 H   0  0  0  0  0  0  0  0  0  0  0  0
  148.5830  137.3212  153.2982 H   0  0  0  0  0  0  0  0  0  0  0  0
  1  2  1  0  0  0  0
  1 20  1  0  0  0  0
  1 21  1  0  0  0  0
  1 22  1  0  0  0  0
  2  9  1  0  0  0  0
  2  3  1  0  0  0  0
  2 23  1  0  0  0  0
  3  4  1  0  0  0  0
  3 24  1  0  0  0  0
  3 25  1  0  0  0  0
  4  5  1  0  0  0  0
  4  8  1  0  0  0  0
  4 40  1  0  0  0  0
  5  6  1  0  0  0  0
  5  7  1  0  0  0  0
  5 26  1  0  0  0  0
  6 27  1  0  0  0  0
  6 28  1  0  0  0  0
  6 29  1  0  0  0  0
  7 30  1  0  0  0  0
  7 31  1  0  0  0  0
  7 32  1  0  0  0  0
  8  9  1  0  0  0  0
  8 33  1  0  0  0  0
  8 34  1  0  0  0  0
  9 10  1  0  0  0  0
  9 35  1  0  0  0  0
 10 11  1  0  0  0  0
 11 12  2  0  0  0  0
 11 13  2  0  0  0  0
 11 14  1  0  0  0  0
 14 15  1  0  0  0  0
 14 36  1  0  0  0  0
 14 37  1  0  0  0  0
 15 19  2  0  0  0  0
 15 16  1  0  0  0  0
 16 17  2  0  0  0  0
 16 38  1  0  0  0  0
 17 18  1  0  0  0  0
 17 39  1  0  0  0  0
 18 19  1  0  0  0  0
M  CHG  1   4   1
M  CHG  1  10  -1
M  END
> <s_m_source_file>
AV-unprocessed.smi

> <i_m_source_file_index>
686

> <i_lp_mmshare_version>
43012

> <i_f3d_flags>
0

> <s_epik_input>
W0NIM11bQ0BASF0xW0NIMl1OKFtDSF0oW0NIM10pW0NIM10pW0NIMl1bQ0BIXTFbTkhdUyg9TykoPU8pW0NIMl1jMltjSF1bY0hdb24y

> <s_epik_cmdline>
J2VwaWtfcHl0aG9uJywgJy1waCcsICc3LjAnLCAnLXRuJywgJzgnLCAnLW1hJywgJzIwMCcsICctbWV0YWxfYmluZGluZycsICctaW1hZScsICc8aW5maWxlLm1hZT4nLCAnLW9tYWUnLCAnPG91dGZpbGUubWFlPic=

> <r_epik_Ionization_Penalty>
3.62478

> <r_epik_Ionization_Penalty_Charging>
3.62478

> <r_epik_Ionization_Penalty_Neutral>
2.03645e-10

> <r_epik_State_Penalty>
3.6247

> <r_epik_Charging_Adjusted_Penalty>
7.24949

> <i_epik_Tot_Q>
0

> <i_epik_Tot_abs_Q>
2

> <r_epik_Metal_State_Penalty>
0.530836

> <b_epik_Metal_Only>
1

> <s_lp_Force_Field>
OPLS_2005

> <r_lp_Energy>
16.7108

> <b_lp_Chiralities_Consistent>
1

> <s_lp_Variant>
AV-unprocessed.smi:686-11

> <Gold.Version>
5.8.1

> <Gold.Id.Protein>
6NUR|6NUR_protein|mol2

> <Gold.PLP.Fitness>
43.0715

> <Gold.PLP.PLP>
-25.9263

> <Gold.PLP.part.hbond>
-5.6008

> <Gold.PLP.part.metal>
0.0000

> <Gold.PLP.part.buried>
-3.5033

> <Gold.PLP.part.nonpolar>
-18.2724

> <Gold.PLP.part.repulsive>
0.3813

> <Gold.PLP.ligand.clash>
0.0000

> <Gold.PLP.ligand.torsion>
0.8263

> <Gold.PLP.Chemscore.Hbond>
5.9119

> <Gold.PLP.Chemscore.CHOScore>
0.0000

> <Gold.PLP.Chemscore.Metal>
0.0000

> <Gold.Chemscore.Hbonds>
donor molecule, donor type, donor heavy atom, donor atom, acceptor molecule, acceptor atom, score
      L1  H     4    40       P1  7948  2.00
      P1  H  7989  7998       L1    10  1.00
      P1  H  7997  8008       L1    19  0.98
      P1  H  7997  8009       L1    13  0.98
      P1  H 10752 10764       L1    12  0.87

> <Gold.PLP.Chemscore.Internal.Correction>
1.0620

> <Gold.Rescore>
     Score         DG    S(hbond)    S(metal)    S(lipo)     H(rot)  DE(clash)    DE(int)     intcor
     18.00     -21.87       4.09        0.00      58.81       1.61       1.50       2.37       ----

> <Gold.Chemscore.Fitness>
18.0016

> <Gold.Chemscore.DG>
-21.8709

> <Gold.Chemscore.ZeroCoef>
-5.4800

> <Gold.Chemscore.Hbond>
4.0851

> <Gold.Chemscore.Metal>
0.0000

> <Gold.Chemscore.Lipo>
58.8106

> <Gold.Chemscore.Internal_Hbond>
0.0000

> <Gold.Chemscore.DEClash>
1.5024

> <Gold.Chemscore.DEInternal>
2.3670

> <Gold.Chemscore.Rot>
1.6149

> <Gold.Chemscore.Internal.Correction>
   9.000000E+99

> <Gold.Chemscore.Hbonds>
donor molecule, donor type, donor heavy atom, donor atom, acceptor molecule, acceptor atom, score
      L1  H     4    40       P1  7948  1.00
      P1  H  7989  7998       L1    10  0.35
      P1  H  7997  8008       L1    19  0.23
      P1  H  7997  8009       L1    13  0.93
      P1  H 10752 10764       L1    12  0.81

> <Gold.Chemscore.Hbond.Weighted>
-13.6442

> <Gold.Chemscore.Metal.Weighted>
-0.0000

> <Gold.Chemscore.Lipo.Weighted>
-6.8808

> <Gold.Chemscore.Internal_Hbond.Weighted>
0.0000

> <Gold.Chemscore.DEClash.Weighted>
1.5024

> <Gold.Chemscore.DEInternal.Weighted>
2.3670

> <Gold.Chemscore.Rot.Weighted>
4.1341

> <Gold.Chemscore.Internal.Correction.Weighted>
   9.000000E+99

> <Gold.Protein.RotatedTorsions>
[ 6907 6896 6895 6894 ] final   73.62 input  -60.11 | X-H torsion
[ 7974 7965 7964 7962 ] final   86.09 input  175.53 | X-H torsion
[ 8008 7997 7996 7995 ] final -105.55 input   59.86 | X-H torsion
[ 10167 10162 10161 10158 ] final   48.44 input  -65.29 | X-H torsion
[ 10718 10713 10712 10709 ] final  128.02 input   66.30 | X-H torsion
[ 10763 10752 10751 10750 ] final  -87.28 input  -60.55 | X-H torsion
[ 11005 11000 10999 10996 ] final  -22.03 input  -57.11 | X-H torsion

> <Gold.Protein.ActiveResidues>
 VAL166  LYS551  ARG553  GLY616  TRP617  ASP618  TYR619  PRO620  LYS621  CYS622 
 ASP623  PHE694  ASN695  SER759  ASP760  ASP761  ALA762  ILE779  LEU786  VAL792 
 PHE793  MET794  SER795  GLU796  ALA797  LYS798  CYS799  TRP800  GLU811  SER814 

> <Gold.Protein.RotatedAtoms>
  152.4933  134.4394  159.9538 H   0  0  0  0  0  0  0  0  0  0  0  0  # atno 6907 bound_to 6896
  151.4377  133.3646  159.2785 H   0  0  0  0  0  0  0  0  0  0  0  0  # atno 6908 bound_to 6896
  150.9110  134.8550  159.7485 H   0  0  0  0  0  0  0  0  0  0  0  0  # atno 6909 bound_to 6896
  145.5768  139.2320  143.2375 H   0  0  0  0  0  0  0  0  0  0  0  0  # atno 7974 bound_to 7965
  154.9015  140.0412  157.1895 H   0  0  0  0  0  0  0  0  0  0  0  0  # atno 8008 bound_to 7997
  154.8439  140.2918  155.5620 H   0  0  0  0  0  0  0  0  0  0  0  0  # atno 8009 bound_to 7997
  156.2993  140.2477  156.3386 H   0  0  0  0  0  0  0  0  0  0  0  0  # atno 8010 bound_to 7997
  140.2932  144.3021  150.6235 H   0  0  0  0  0  0  0  0  0  0  0  0  # atno 10167 bound_to 10162
  157.5282  131.1098  150.9050 H   0  0  0  0  0  0  0  0  0  0  0  0  # atno 10718 bound_to 10713
  154.6318  135.5419  153.7689 H   0  0  0  0  0  0  0  0  0  0  0  0  # atno 10763 bound_to 10752
  153.0288  135.6438  154.1290 H   0  0  0  0  0  0  0  0  0  0  0  0  # atno 10764 bound_to 10752
  154.1219  135.2920  155.3186 H   0  0  0  0  0  0  0  0  0  0  0  0  # atno 10765 bound_to 10752
  140.8618  133.7783  156.0083 H   0  0  0  0  0  0  0  0  0  0  0  0  # atno 11005 bound_to 11000
  146.1745  140.6595  142.9218 LP  0  0  0  0  0  0  0  0  0  0  0  0  # atno 17320 bound_to 7965
  144.7412  140.4947  143.6868 LP  0  0  0  0  0  0  0  0  0  0  0  0  # atno 17321 bound_to 7965
  140.5714  143.2180  151.7592 LP  0  0  0  0  0  0  0  0  0  0  0  0  # atno 17342 bound_to 10162
  139.4933  144.4211  151.9977 LP  0  0  0  0  0  0  0  0  0  0  0  0  # atno 17343 bound_to 10162
  156.9640  130.5466  149.5287 LP  0  0  0  0  0  0  0  0  0  0  0  0  # atno 17370 bound_to 10713
  156.0402  130.5486  150.8753 LP  0  0  0  0  0  0  0  0  0  0  0  0  # atno 17371 bound_to 10713
  140.8674  134.2768  157.5207 LP  0  0  0  0  0  0  0  0  0  0  0  0  # atno 17394 bound_to 11000
  139.8707  134.9549  156.4192 LP  0  0  0  0  0  0  0  0  0  0  0  0  # atno 17395 bound_to 11000

$$$$
