AV-unprocessed.smi:2858|AV-procd|sdf|11001|dock5
  -GOLD-   2272015453D 1   1.00000     0.00000
 Structure written by MMmdl.
 39 40  0  0  0  0  0  0  0  0  1 V2000
  152.0437  136.9001  154.7620 O   0  0  0  0  0  0  0  0  0  0  0  0
  151.6733  138.0564  154.9511 C   0  0  0  0  0  0  0  0  0  0  0  0
  150.4904  138.6226  154.1462 C   0  0  0  0  0  0  0  0  0  0  0  0
  150.3245  140.0954  154.2110 N   0  0  0  0  0  0  0  0  0  0  0  0
  149.0421  140.4725  153.6099 C   0  0  0  0  0  0  0  0  0  0  0  0
  147.8328  139.7734  154.2629 C   0  0  0  0  0  0  0  0  0  0  0  0
  146.7231  139.4138  153.2585 C   0  0  0  0  0  0  0  0  0  0  0  0
  146.9325  138.0925  152.6776 N   0  0  0  0  0  0  0  0  0  0  0  0
  145.9596  137.2186  152.3808 C   0  0  0  0  0  0  0  0  0  0  0  0
  144.7635  137.4470  152.5641 O   0  0  0  0  0  0  0  0  0  0  0  0
  146.4650  136.0843  151.8642 N   0  0  0  0  0  0  0  0  0  0  0  0
  145.7650  134.9208  151.4461 C   0  0  0  0  0  0  0  0  0  0  0  0
  146.5832  133.8564  151.0041 C   0  0  0  0  0  0  0  0  0  0  0  0
  145.9860  132.6569  150.5706 C   0  0  0  0  0  0  0  0  0  0  0  0
  144.5839  132.5517  150.5911 C   0  0  0  0  0  0  0  0  0  0  0  0
  143.8427  133.6580  151.0455 C   0  0  0  0  0  0  0  0  0  0  0  0
  144.4131  134.8088  151.4606 N   0  0  0  0  0  0  0  0  0  0  0  0
  150.4712  140.5685  155.5893 C   0  0  0  0  0  0  0  0  0  0  0  0
  151.8908  140.2411  156.0881 C   0  0  0  0  0  0  0  0  0  0  0  0
  152.2529  138.8458  155.8676 N   0  0  0  0  0  0  0  0  0  0  0  0
  150.5979  138.3174  153.1044 H   0  0  0  0  0  0  0  0  0  0  0  0
  149.5897  138.1370  154.5259 H   0  0  0  0  0  0  0  0  0  0  0  0
  148.8970  141.5493  153.7122 H   0  0  0  0  0  0  0  0  0  0  0  0
  149.0610  140.2681  152.5381 H   0  0  0  0  0  0  0  0  0  0  0  0
  148.1914  138.8559  154.7308 H   0  0  0  0  0  0  0  0  0  0  0  0
  147.4233  140.3690  155.0775 H   0  0  0  0  0  0  0  0  0  0  0  0
  145.7540  139.4076  153.7573 H   0  0  0  0  0  0  0  0  0  0  0  0
  146.6603  140.1662  152.4705 H   0  0  0  0  0  0  0  0  0  0  0  0
  147.8878  137.8234  152.4935 H   0  0  0  0  0  0  0  0  0  0  0  0
  147.4684  136.0450  151.7656 H   0  0  0  0  0  0  0  0  0  0  0  0
  147.6592  133.9535  150.9959 H   0  0  0  0  0  0  0  0  0  0  0  0
  146.5941  131.8323  150.2291 H   0  0  0  0  0  0  0  0  0  0  0  0
  144.0896  131.6478  150.2674 H   0  0  0  0  0  0  0  0  0  0  0  0
  142.7640  133.6190  151.0768 H   0  0  0  0  0  0  0  0  0  0  0  0
  150.3204  141.6445  155.6596 H   0  0  0  0  0  0  0  0  0  0  0  0
  149.7224  140.0984  156.2292 H   0  0  0  0  0  0  0  0  0  0  0  0
  152.6203  140.8662  155.5715 H   0  0  0  0  0  0  0  0  0  0  0  0
  151.9782  140.4685  157.1507 H   0  0  0  0  0  0  0  0  0  0  0  0
  153.0152  138.4701  156.4129 H   0  0  0  0  0  0  0  0  0  0  0  0
  1  2  2  0  0  0  0
  2 20  1  0  0  0  0
  2  3  1  0  0  0  0
  3  4  1  0  0  0  0
  3 21  1  0  0  0  0
  3 22  1  0  0  0  0
  4  5  1  0  0  0  0
  4 18  1  0  0  0  0
  5  6  1  0  0  0  0
  5 23  1  0  0  0  0
  5 24  1  0  0  0  0
  6  7  1  0  0  0  0
  6 25  1  0  0  0  0
  6 26  1  0  0  0  0
  7  8  1  0  0  0  0
  7 27  1  0  0  0  0
  7 28  1  0  0  0  0
  8  9  1  0  0  0  0
  8 29  1  0  0  0  0
  9 10  2  0  0  0  0
  9 11  1  0  0  0  0
 11 12  1  0  0  0  0
 11 30  1  0  0  0  0
 12 17  1  0  0  0  0
 12 13  2  0  0  0  0
 13 14  1  0  0  0  0
 13 31  1  0  0  0  0
 14 15  2  0  0  0  0
 14 32  1  0  0  0  0
 15 16  1  0  0  0  0
 15 33  1  0  0  0  0
 16 17  2  0  0  0  0
 16 34  1  0  0  0  0
 18 19  1  0  0  0  0
 18 35  1  0  0  0  0
 18 36  1  0  0  0  0
 19 20  1  0  0  0  0
 19 37  1  0  0  0  0
 19 38  1  0  0  0  0
 20 39  1  0  0  0  0
M  END
> <s_m_source_file>
AV-unprocessed.smi

> <i_m_source_file_index>
2858

> <i_lp_mmshare_version>
43012

> <i_f3d_flags>
0

> <s_epik_input>
Tz1DMVtDSDJdTihbQ0gyXVtDSDJdW05IXTEpW0NIMl1bQ0gyXVtDSDJdW05IXUMoPU8pW05IXWMyW2NIXVtjSF1bY0hdW2NIXW4y

> <s_epik_cmdline>
J2VwaWtfcHl0aG9uJywgJy1waCcsICc3LjAnLCAnLXRuJywgJzgnLCAnLW1hJywgJzIwMCcsICctbWV0YWxfYmluZGluZycsICctaW1hZScsICc8aW5maWxlLm1hZT4nLCAnLW9tYWUnLCAnPG91dGZpbGUubWFlPic=

> <r_epik_Ionization_Penalty>
1.05093

> <r_epik_Ionization_Penalty_Charging>
0

> <r_epik_Ionization_Penalty_Neutral>
1.05093

> <r_epik_State_Penalty>
1.10373

> <r_epik_Charging_Adjusted_Penalty>
1.10373

> <i_epik_Tot_Q>
0

> <i_epik_Tot_abs_Q>
0

> <r_epik_Metal_State_Penalty>
1.17671

> <b_epik_Metal_Only>
0

> <s_lp_Force_Field>
OPLS_2005

> <r_lp_Energy>
22.2327

> <b_lp_Chiralities_Consistent>
1

> <s_lp_Variant>
AV-unprocessed.smi:2858-3

> <Gold.Version>
5.8.1

> <Gold.Id.Protein>
6NUR|6NUR_protein|mol2

> <Gold.PLP.Fitness>
46.3541

> <Gold.PLP.PLP>
-32.9925

> <Gold.PLP.part.hbond>
-3.9727

> <Gold.PLP.part.metal>
0.0000

> <Gold.PLP.part.buried>
-2.7488

> <Gold.PLP.part.nonpolar>
-27.6828

> <Gold.PLP.part.repulsive>
0.9670

> <Gold.PLP.ligand.clash>
0.0000

> <Gold.PLP.ligand.torsion>
0.6042

> <Gold.PLP.Chemscore.Hbond>
3.8480

> <Gold.PLP.Chemscore.CHOScore>
1.0000

> <Gold.PLP.Chemscore.Metal>
0.0000

> <Gold.Chemscore.Hbonds>
donor molecule, donor type, donor heavy atom, donor atom, acceptor molecule, acceptor atom, score
      L1  H     8    29       P1  7948  0.82
      L1  H    11    30       P1  7948  0.84
      P1  H  7989  7998       L1     4  1.00
      P1  H 10752 10764       L1     1  1.00
      L1  C    16    34       P1 10186  1.00

> <Gold.PLP.Chemscore.Internal.Correction>
0.0259

> <Gold.Rescore>
     Score         DG    S(hbond)    S(metal)    S(lipo)     H(rot)  DE(clash)    DE(int)     intcor
     15.49     -18.70       3.12        0.00      68.12       2.02       1.33       1.88       ----

> <Gold.Chemscore.Fitness>
15.4901

> <Gold.Chemscore.DG>
-18.6995

> <Gold.Chemscore.ZeroCoef>
-5.4800

> <Gold.Chemscore.Hbond>
3.1210

> <Gold.Chemscore.Metal>
0.0000

> <Gold.Chemscore.Lipo>
68.1189

> <Gold.Chemscore.Internal_Hbond>
0.0000

> <Gold.Chemscore.DEClash>
1.3261

> <Gold.Chemscore.DEInternal>
1.8833

> <Gold.Chemscore.Rot>
2.0213

> <Gold.Chemscore.Internal.Correction>
   9.000000E+99

> <Gold.Chemscore.Hbonds>
donor molecule, donor type, donor heavy atom, donor atom, acceptor molecule, acceptor atom, score
      L1  H     8    29       P1  7948  0.78
      L1  H    11    30       P1  7948  0.82
      P1  H  7989  7998       L1     4  0.19
      P1  H 10752 10764       L1     1  0.92

> <Gold.Chemscore.Hbond.Weighted>
-10.4240

> <Gold.Chemscore.Metal.Weighted>
-0.0000

> <Gold.Chemscore.Lipo.Weighted>
-7.9699

> <Gold.Chemscore.Internal_Hbond.Weighted>
0.0000

> <Gold.Chemscore.DEClash.Weighted>
1.3261

> <Gold.Chemscore.DEInternal.Weighted>
1.8833

> <Gold.Chemscore.Rot.Weighted>
5.1744

> <Gold.Chemscore.Internal.Correction.Weighted>
   9.000000E+99

> <Gold.Protein.RotatedTorsions>
[ 6907 6896 6895 6894 ] final   98.50 input  -60.11 | X-H torsion
[ 7974 7965 7964 7962 ] final  149.40 input  175.53 | X-H torsion
[ 8008 7997 7996 7995 ] final -177.13 input   59.86 | X-H torsion
[ 10167 10162 10161 10158 ] final  -82.93 input  -65.29 | X-H torsion
[ 10718 10713 10712 10709 ] final -144.71 input   66.30 | X-H torsion
[ 10763 10752 10751 10750 ] final  -66.10 input  -60.55 | X-H torsion
[ 11005 11000 10999 10996 ] final  -41.21 input  -57.11 | X-H torsion

> <Gold.Protein.ActiveResidues>
 VAL166  LYS551  ARG553  GLY616  TRP617  ASP618  TYR619  PRO620  LYS621  CYS622 
 ASP623  PHE694  ASN695  SER759  ASP760  ASP761  ALA762  ILE779  LEU786  VAL792 
 PHE793  MET794  SER795  GLU796  ALA797  LYS798  CYS799  TRP800  GLU811  SER814 

> <Gold.Protein.RotatedAtoms>
  152.5408  134.0570  159.8135 H   0  0  0  0  0  0  0  0  0  0  0  0  # atno 6907 bound_to 6896
  151.0704  133.5463  159.2635 H   0  0  0  0  0  0  0  0  0  0  0  0  # atno 6908 bound_to 6896
  151.2329  135.0569  159.9048 H   0  0  0  0  0  0  0  0  0  0  0  0  # atno 6909 bound_to 6896
  144.8441  139.6276  143.6003 H   0  0  0  0  0  0  0  0  0  0  0  0  # atno 7974 bound_to 7965
  156.0033  140.1225  157.0526 H   0  0  0  0  0  0  0  0  0  0  0  0  # atno 8008 bound_to 7997
  154.4250  140.1102  156.5796 H   0  0  0  0  0  0  0  0  0  0  0  0  # atno 8009 bound_to 7997
  155.6182  140.3472  155.4646 H   0  0  0  0  0  0  0  0  0  0  0  0  # atno 8010 bound_to 7997
  140.4274  143.2561  151.8806 H   0  0  0  0  0  0  0  0  0  0  0  0  # atno 10167 bound_to 10162
  156.3735  130.7800  151.1984 H   0  0  0  0  0  0  0  0  0  0  0  0  # atno 10718 bound_to 10713
  154.3548  135.6129  153.5661 H   0  0  0  0  0  0  0  0  0  0  0  0  # atno 10763 bound_to 10752
  152.9796  135.5801  154.4701 H   0  0  0  0  0  0  0  0  0  0  0  0  # atno 10764 bound_to 10752
  154.4429  135.2850  155.1812 H   0  0  0  0  0  0  0  0  0  0  0  0  # atno 10765 bound_to 10752
  141.0230  133.6854  156.2427 H   0  0  0  0  0  0  0  0  0  0  0  0  # atno 11005 bound_to 11000
  146.2728  139.6678  142.9284 LP  0  0  0  0  0  0  0  0  0  0  0  0  # atno 17320 bound_to 7965
  145.4634  141.0433  143.2739 LP  0  0  0  0  0  0  0  0  0  0  0  0  # atno 17321 bound_to 7965
  139.4784  144.5372  151.8582 LP  0  0  0  0  0  0  0  0  0  0  0  0  # atno 17342 bound_to 10162
  140.4465  144.1914  150.5894 LP  0  0  0  0  0  0  0  0  0  0  0  0  # atno 17343 bound_to 10162
  157.7486  131.0365  150.4413 LP  0  0  0  0  0  0  0  0  0  0  0  0  # atno 17370 bound_to 10713
  156.4644  130.4039  149.6556 LP  0  0  0  0  0  0  0  0  0  0  0  0  # atno 17371 bound_to 10713
  140.6540  134.5037  157.5579 LP  0  0  0  0  0  0  0  0  0  0  0  0  # atno 17394 bound_to 11000
  139.9158  134.8249  156.1372 LP  0  0  0  0  0  0  0  0  0  0  0  0  # atno 17395 bound_to 11000

$$$$
