AV-unprocessed.smi:3303|AV-procd|sdf|12682|dock4
  -GOLD-   2272019 13D 1   1.00000     0.00000
 Structure written by MMmdl.
 44 45  0  0  0  0  0  0  0  0  2 V2000
  147.6791  139.7989  153.5144 C   0  0  0  0  0  0  0  0  0  0  0  0
  148.0054  141.2926  153.7236 C   0  0  1  0  0  0  0  0  0  0  0  0
  146.7243  142.1467  153.7662 C   0  0  0  0  0  0  0  0  0  0  0  0
  145.9360  141.9201  155.0073 N   0  3  2  0  0  0  0  0  0  0  0  0
  144.6400  142.6385  154.9462 C   0  0  0  0  0  0  0  0  0  0  0  0
  146.7298  142.2020  156.2423 C   0  0  1  0  0  0  0  0  0  0  0  0
  145.9352  141.9273  157.5338 C   0  0  0  0  0  0  0  0  0  0  0  0
  148.0306  141.3714  156.2527 C   0  0  0  0  0  0  0  0  0  0  0  0
  148.8599  141.5941  154.9786 C   0  0  1  0  0  0  0  0  0  0  0  0
  150.0750  140.7896  155.0547 N   0  0  0  0  0  0  0  0  0  0  0  0
  150.8069  141.0229  156.2915 C   0  0  0  0  0  0  0  0  0  0  0  0
  150.9086  142.5311  156.5558 C   0  0  0  0  0  0  0  0  0  0  0  0
  151.4413  142.8285  157.9447 C   0  0  0  0  0  0  0  0  0  0  0  0
  151.8536  141.7834  158.7987 C   0  0  0  0  0  0  0  0  0  0  0  0
  152.3496  142.1158  160.0743 C   0  0  0  0  0  0  0  0  0  0  0  0
  152.4152  143.4728  160.4444 C   0  0  0  0  0  0  0  0  0  0  0  0
  151.9798  144.4415  159.5185 C   0  0  0  0  0  0  0  0  0  0  0  0
  151.5025  144.1337  158.2930 N   0  0  0  0  0  0  0  0  0  0  0  0
  147.0980  139.3856  154.3385 H   0  0  0  0  0  0  0  0  0  0  0  0
  148.5856  139.2013  153.4155 H   0  0  0  0  0  0  0  0  0  0  0  0
  147.1001  139.6530  152.6023 H   0  0  0  0  0  0  0  0  0  0  0  0
  148.5621  141.6166  152.8441 H   0  0  0  0  0  0  0  0  0  0  0  0
  146.9843  143.2045  153.6990 H   0  0  0  0  0  0  0  0  0  0  0  0
  146.1113  141.9237  152.8915 H   0  0  0  0  0  0  0  0  0  0  0  0
  144.7854  143.7159  155.0365 H   0  0  0  0  0  0  0  0  0  0  0  0
  143.9616  142.3114  155.7334 H   0  0  0  0  0  0  0  0  0  0  0  0
  144.1341  142.4441  153.9999 H   0  0  0  0  0  0  0  0  0  0  0  0
  147.0007  143.2592  156.2321 H   0  0  0  0  0  0  0  0  0  0  0  0
  146.5680  142.0524  158.4132 H   0  0  0  0  0  0  0  0  0  0  0  0
  145.5446  140.9093  157.5523 H   0  0  0  0  0  0  0  0  0  0  0  0
  145.0982  142.6145  157.6558 H   0  0  0  0  0  0  0  0  0  0  0  0
  148.6273  141.6430  157.1249 H   0  0  0  0  0  0  0  0  0  0  0  0
  147.7927  140.3130  156.3692 H   0  0  0  0  0  0  0  0  0  0  0  0
  149.1525  142.6454  154.9604 H   0  0  0  0  0  0  0  0  0  0  0  0
  149.8283  139.8110  155.0071 H   0  0  0  0  0  0  0  0  0  0  0  0
  150.3022  140.5394  157.1278 H   0  0  0  0  0  0  0  0  0  0  0  0
  151.8060  140.5921  156.2147 H   0  0  0  0  0  0  0  0  0  0  0  0
  151.5638  142.9999  155.8199 H   0  0  0  0  0  0  0  0  0  0  0  0
  149.9300  142.9992  156.4393 H   0  0  0  0  0  0  0  0  0  0  0  0
  151.7944  140.7513  158.4853 H   0  0  0  0  0  0  0  0  0  0  0  0
  152.6754  141.3442  160.7558 H   0  0  0  0  0  0  0  0  0  0  0  0
  152.7911  143.7652  161.4137 H   0  0  0  0  0  0  0  0  0  0  0  0
  152.0166  145.4915  159.7682 H   0  0  0  0  0  0  0  0  0  0  0  0
  145.7152  140.9346  155.0250 H   0  0  0  0  0  0  0  0  0  0  0  0
  1  2  1  0  0  0  0
  1 19  1  0  0  0  0
  1 20  1  0  0  0  0
  1 21  1  0  0  0  0
  2  9  1  0  0  0  0
  2  3  1  0  0  0  0
  2 22  1  0  0  0  0
  3  4  1  0  0  0  0
  3 23  1  0  0  0  0
  3 24  1  0  0  0  0
  4  5  1  0  0  0  0
  4  6  1  0  0  0  0
  4 44  1  0  0  0  0
  5 25  1  0  0  0  0
  5 26  1  0  0  0  0
  5 27  1  0  0  0  0
  6  7  1  0  0  0  0
  6  8  1  0  0  0  0
  6 28  1  0  0  0  0
  7 29  1  0  0  0  0
  7 30  1  0  0  0  0
  7 31  1  0  0  0  0
  8  9  1  0  0  0  0
  8 32  1  0  0  0  0
  8 33  1  0  0  0  0
  9 10  1  0  0  0  0
  9 34  1  0  0  0  0
 10 11  1  0  0  0  0
 10 35  1  0  0  0  0
 11 12  1  0  0  0  0
 11 36  1  0  0  0  0
 11 37  1  0  0  0  0
 12 13  1  0  0  0  0
 12 38  1  0  0  0  0
 12 39  1  0  0  0  0
 13 18  1  0  0  0  0
 13 14  2  0  0  0  0
 14 15  1  0  0  0  0
 14 40  1  0  0  0  0
 15 16  2  0  0  0  0
 15 41  1  0  0  0  0
 16 17  1  0  0  0  0
 16 42  1  0  0  0  0
 17 18  2  0  0  0  0
 17 43  1  0  0  0  0
M  CHG  1   4   1
M  END
> <s_m_source_file>
AV-unprocessed.smi

> <i_m_source_file_index>
3303

> <i_lp_mmshare_version>
43012

> <i_f3d_flags>
0

> <s_epik_input>
W0NIM11bQ0BASF0xW0NIMl1OKFtDSDNdKVtDQEBIXShbQ0gzXSlbQ0gyXVtDQEhdMVtOSF1bQ0gyXVtDSDJdYzJbY0hdW2NIXVtjSF1bY0hdbjI=

> <s_epik_cmdline>
J2VwaWtfcHl0aG9uJywgJy1waCcsICc3LjAnLCAnLXRuJywgJzgnLCAnLW1hJywgJzIwMCcsICctbWV0YWxfYmluZGluZycsICctaW1hZScsICc8aW5maWxlLm1hZT4nLCAnLW9tYWUnLCAnPG91dGZpbGUubWFlPic=

> <r_epik_Ionization_Penalty>
2.31085

> <r_epik_Ionization_Penalty_Charging>
0.000313057

> <r_epik_Ionization_Penalty_Neutral>
2.31054

> <r_epik_State_Penalty>
2.4087

> <r_epik_Charging_Adjusted_Penalty>
2.40902

> <i_epik_Tot_Q>
1

> <i_epik_Tot_abs_Q>
1

> <r_epik_Metal_State_Penalty>
2.30979

> <b_epik_Metal_Only>
0

> <s_lp_Force_Field>
OPLS_2005

> <r_lp_Energy>
24.7509

> <b_lp_Chiralities_Consistent>
1

> <s_lp_Variant>
AV-unprocessed.smi:3303-26

> <Gold.Version>
5.8.1

> <Gold.Id.Protein>
6NUR|6NUR_protein|mol2

> <Gold.PLP.Fitness>
39.1909

> <Gold.PLP.PLP>
-37.3597

> <Gold.PLP.part.hbond>
-1.0000

> <Gold.PLP.part.metal>
0.0000

> <Gold.PLP.part.buried>
-4.0086

> <Gold.PLP.part.nonpolar>
-32.3084

> <Gold.PLP.part.repulsive>
0.0977

> <Gold.PLP.ligand.clash>
0.0000

> <Gold.PLP.ligand.torsion>
0.1022

> <Gold.PLP.Chemscore.Hbond>
0.6763

> <Gold.PLP.Chemscore.CHOScore>
0.0000

> <Gold.PLP.Chemscore.Metal>
0.0000

> <Gold.Chemscore.Hbonds>
donor molecule, donor type, donor heavy atom, donor atom, acceptor molecule, acceptor atom, score
      P1  H  7989  7998       L1    10  0.47

> <Gold.PLP.Chemscore.Internal.Correction>
0.0068

> <Gold.Rescore>
     Score         DG    S(hbond)    S(metal)    S(lipo)     H(rot)  DE(clash)    DE(int)     intcor
     15.32     -15.72       0.08        0.00     114.25       1.33       0.33       0.07       ----

> <Gold.Chemscore.Fitness>
15.3221

> <Gold.Chemscore.DG>
-15.7192

> <Gold.Chemscore.ZeroCoef>
-5.4800

> <Gold.Chemscore.Hbond>
0.0806

> <Gold.Chemscore.Metal>
0.0000

> <Gold.Chemscore.Lipo>
114.2532

> <Gold.Chemscore.Internal_Hbond>
0.0000

> <Gold.Chemscore.DEClash>
0.3256

> <Gold.Chemscore.DEInternal>
0.0714

> <Gold.Chemscore.Rot>
1.3272

> <Gold.Chemscore.Internal.Correction>
   9.000000E+99

> <Gold.Chemscore.Hbonds>
donor molecule, donor type, donor heavy atom, donor atom, acceptor molecule, acceptor atom, score
      P1  H  7989  7998       L1    10  0.06

> <Gold.Chemscore.Hbond.Weighted>
-0.2692

> <Gold.Chemscore.Metal.Weighted>
-0.0000

> <Gold.Chemscore.Lipo.Weighted>
-13.3676

> <Gold.Chemscore.Internal_Hbond.Weighted>
0.0000

> <Gold.Chemscore.DEClash.Weighted>
0.3256

> <Gold.Chemscore.DEInternal.Weighted>
0.0714

> <Gold.Chemscore.Rot.Weighted>
3.3976

> <Gold.Chemscore.Internal.Correction.Weighted>
   9.000000E+99

> <Gold.Protein.RotatedTorsions>
[ 6907 6896 6895 6894 ] final  142.27 input  -60.11 | X-H torsion
[ 7974 7965 7964 7962 ] final -130.85 input  175.53 | X-H torsion
[ 8008 7997 7996 7995 ] final   64.16 input   59.86 | X-H torsion
[ 10167 10162 10161 10158 ] final  -93.05 input  -65.29 | X-H torsion
[ 10718 10713 10712 10709 ] final -167.16 input   66.30 | X-H torsion
[ 10763 10752 10751 10750 ] final -103.63 input  -60.55 | X-H torsion
[ 11005 11000 10999 10996 ] final  110.87 input  -57.11 | X-H torsion

> <Gold.Protein.ActiveResidues>
 VAL166  LYS551  ARG553  GLY616  TRP617  ASP618  TYR619  PRO620  LYS621  CYS622 
 ASP623  PHE694  ASN695  SER759  ASP760  ASP761  ALA762  ILE779  LEU786  VAL792 
 PHE793  MET794  SER795  GLU796  ALA797  LYS798  CYS799  TRP800  GLU811  SER814 

> <Gold.Protein.RotatedAtoms>
  152.2208  133.4982  159.5160 H   0  0  0  0  0  0  0  0  0  0  0  0  # atno 6907 bound_to 6896
  150.7012  134.1345  159.4091 H   0  0  0  0  0  0  0  0  0  0  0  0  # atno 6908 bound_to 6896
  151.9266  135.0275  160.0577 H   0  0  0  0  0  0  0  0  0  0  0  0  # atno 6909 bound_to 6896
  144.9435  140.7265  143.4832 H   0  0  0  0  0  0  0  0  0  0  0  0  # atno 7974 bound_to 7965
  155.6417  140.3497  155.4717 H   0  0  0  0  0  0  0  0  0  0  0  0  # atno 8008 bound_to 7997
  155.9920  140.1195  157.0652 H   0  0  0  0  0  0  0  0  0  0  0  0  # atno 8009 bound_to 7997
  154.4222  140.1117  156.5565 H   0  0  0  0  0  0  0  0  0  0  0  0  # atno 8010 bound_to 7997
  140.3286  143.3008  151.9967 H   0  0  0  0  0  0  0  0  0  0  0  0  # atno 10167 bound_to 10162
  156.6784  130.9112  151.3053 H   0  0  0  0  0  0  0  0  0  0  0  0  # atno 10718 bound_to 10713
  154.7821  135.4816  153.9866 H   0  0  0  0  0  0  0  0  0  0  0  0  # atno 10763 bound_to 10752
  153.1508  135.6791  153.8892 H   0  0  0  0  0  0  0  0  0  0  0  0  # atno 10764 bound_to 10752
  153.8537  135.3164  155.3412 H   0  0  0  0  0  0  0  0  0  0  0  0  # atno 10765 bound_to 10752
  139.8891  134.9494  156.6345 H   0  0  0  0  0  0  0  0  0  0  0  0  # atno 11005 bound_to 11000
  145.2954  139.1869  143.4718 LP  0  0  0  0  0  0  0  0  0  0  0  0  # atno 17320 bound_to 7965
  146.3295  140.2937  142.8616 LP  0  0  0  0  0  0  0  0  0  0  0  0  # atno 17321 bound_to 7965
  139.4860  144.6254  151.7175 LP  0  0  0  0  0  0  0  0  0  0  0  0  # atno 17342 bound_to 10162
  140.5418  144.0567  150.6091 LP  0  0  0  0  0  0  0  0  0  0  0  0  # atno 17343 bound_to 10162
  157.7052  130.9377  150.0910 LP  0  0  0  0  0  0  0  0  0  0  0  0  # atno 17370 bound_to 10713
  156.1886  130.3653  149.8939 LP  0  0  0  0  0  0  0  0  0  0  0  0  # atno 17371 bound_to 10713
  140.7641  133.8793  155.8441 LP  0  0  0  0  0  0  0  0  0  0  0  0  # atno 17394 bound_to 11000
  140.9897  134.1295  157.4419 LP  0  0  0  0  0  0  0  0  0  0  0  0  # atno 17395 bound_to 11000

$$$$
