AV-unprocessed.smi:1514|AV-procd|sdf|6114|dock2
  -GOLD-   22720 6243D 1   1.00000     0.00000
 Structure written by MMmdl.
 48 49  0  0  0  0  0  0  0  0  2 V2000
  146.8829  128.5093  151.6946 C   0  0  0  0  0  0  0  0  0  0  0  0
  146.0254  129.7818  151.7591 C   0  0  0  0  0  0  0  0  0  0  0  0
  146.8303  131.0039  152.0080 N   0  3  0  0  0  0  0  0  0  0  0  0
  147.2921  131.1398  153.4126 C   0  0  0  0  0  0  0  0  0  0  0  0
  148.1714  132.3982  153.5757 C   0  0  0  0  0  0  0  0  0  0  0  0
  147.4692  133.6194  153.1742 N   0  0  0  0  0  0  0  0  0  0  0  0
  146.4190  133.9971  154.1259 C   0  0  0  0  0  0  0  0  0  0  0  0
  146.0260  135.4826  154.0312 C   0  0  0  0  0  0  0  0  0  0  0  0
  147.1843  136.3200  153.7466 N   0  0  0  0  0  0  0  0  0  0  0  0
  147.6449  137.2756  154.5645 C   0  0  0  0  0  0  0  0  0  0  0  0
  147.1288  137.5408  155.6504 O   0  0  0  0  0  0  0  0  0  0  0  0
  148.7215  137.8865  154.0398 N   0  0  0  0  0  0  0  0  0  0  0  0
  149.4685  138.8928  154.5663 C   0  0  0  0  0  0  0  0  0  0  0  0
  149.0540  140.0580  155.1513 C   0  0  0  0  0  0  0  0  0  0  0  0
  150.2839  140.6899  155.4971 C   0  0  0  0  0  0  0  0  0  0  0  0
  150.4830  142.0129  156.1761 C   0  0  0  0  0  0  0  0  0  0  0  0
  151.3454  139.9695  155.1519 N   0  0  0  0  0  0  0  0  0  0  0  0
  150.8450  138.8550  154.5755 N   0  0  0  0  0  0  0  0  0  0  0  0
  151.7411  137.8325  154.0715 C   0  0  0  0  0  0  0  0  0  0  0  0
  147.0283  133.4747  151.7825 C   0  0  0  0  0  0  0  0  0  0  0  0
  146.1269  132.2383  151.5822 C   0  0  0  0  0  0  0  0  0  0  0  0
  146.2725  127.6510  151.4133 H   0  0  0  0  0  0  0  0  0  0  0  0
  147.3422  128.2752  152.6546 H   0  0  0  0  0  0  0  0  0  0  0  0
  147.6770  128.6047  150.9537 H   0  0  0  0  0  0  0  0  0  0  0  0
  145.5117  129.8857  150.8023 H   0  0  0  0  0  0  0  0  0  0  0  0
  145.2485  129.6837  152.5186 H   0  0  0  0  0  0  0  0  0  0  0  0
  146.4364  131.1680  154.0884 H   0  0  0  0  0  0  0  0  0  0  0  0
  147.8814  130.2687  153.6962 H   0  0  0  0  0  0  0  0  0  0  0  0
  148.5131  132.4917  154.6075 H   0  0  0  0  0  0  0  0  0  0  0  0
  149.0697  132.2965  152.9650 H   0  0  0  0  0  0  0  0  0  0  0  0
  145.5334  133.3753  154.0009 H   0  0  0  0  0  0  0  0  0  0  0  0
  146.7831  133.8068  155.1365 H   0  0  0  0  0  0  0  0  0  0  0  0
  145.2542  135.6430  153.2781 H   0  0  0  0  0  0  0  0  0  0  0  0
  145.5940  135.7965  154.9826 H   0  0  0  0  0  0  0  0  0  0  0  0
  147.6583  136.1648  152.8688 H   0  0  0  0  0  0  0  0  0  0  0  0
  149.0231  137.5564  153.1351 H   0  0  0  0  0  0  0  0  0  0  0  0
  148.0491  140.4171  155.3147 H   0  0  0  0  0  0  0  0  0  0  0  0
  149.5374  142.5429  156.2907 H   0  0  0  0  0  0  0  0  0  0  0  0
  151.1536  142.6533  155.6024 H   0  0  0  0  0  0  0  0  0  0  0  0
  150.9131  141.8825  157.1693 H   0  0  0  0  0  0  0  0  0  0  0  0
  151.6595  137.7786  152.9858 H   0  0  0  0  0  0  0  0  0  0  0  0
  151.4720  136.8658  154.4979 H   0  0  0  0  0  0  0  0  0  0  0  0
  152.7738  138.0602  154.3390 H   0  0  0  0  0  0  0  0  0  0  0  0
  146.5189  134.3762  151.4446 H   0  0  0  0  0  0  0  0  0  0  0  0
  147.9127  133.3810  151.1507 H   0  0  0  0  0  0  0  0  0  0  0  0
  145.8672  132.1591  150.5259 H   0  0  0  0  0  0  0  0  0  0  0  0
  145.1864  132.3426  152.1247 H   0  0  0  0  0  0  0  0  0  0  0  0
  147.6556  130.9341  151.4299 H   0  0  0  0  0  0  0  0  0  0  0  0
  1  2  1  0  0  0  0
  1 22  1  0  0  0  0
  1 23  1  0  0  0  0
  1 24  1  0  0  0  0
  2  3  1  0  0  0  0
  2 25  1  0  0  0  0
  2 26  1  0  0  0  0
  3 21  1  0  0  0  0
  3  4  1  0  0  0  0
  3 48  1  0  0  0  0
  4  5  1  0  0  0  0
  4 27  1  0  0  0  0
  4 28  1  0  0  0  0
  5  6  1  0  0  0  0
  5 29  1  0  0  0  0
  5 30  1  0  0  0  0
  6  7  1  0  0  0  0
  6 20  1  0  0  0  0
  7  8  1  0  0  0  0
  7 31  1  0  0  0  0
  7 32  1  0  0  0  0
  8  9  1  0  0  0  0
  8 33  1  0  0  0  0
  8 34  1  0  0  0  0
  9 10  1  0  0  0  0
  9 35  1  0  0  0  0
 10 11  2  0  0  0  0
 10 12  1  0  0  0  0
 12 13  1  0  0  0  0
 12 36  1  0  0  0  0
 13 18  1  0  0  0  0
 13 14  2  0  0  0  0
 14 15  1  0  0  0  0
 14 37  1  0  0  0  0
 15 16  1  0  0  0  0
 15 17  2  0  0  0  0
 16 38  1  0  0  0  0
 16 39  1  0  0  0  0
 16 40  1  0  0  0  0
 17 18  1  0  0  0  0
 18 19  1  0  0  0  0
 19 41  1  0  0  0  0
 19 42  1  0  0  0  0
 19 43  1  0  0  0  0
 20 21  1  0  0  0  0
 20 44  1  0  0  0  0
 20 45  1  0  0  0  0
 21 46  1  0  0  0  0
 21 47  1  0  0  0  0
M  CHG  1   3   1
M  END
> <s_m_source_file>
AV-unprocessed.smi

> <i_m_source_file_index>
1514

> <i_lp_mmshare_version>
43012

> <i_f3d_flags>
0

> <s_epik_input>
W0NIM11bQ0gyXU4xW0NIMl1bQ0gyXU4oW0NIMl1bQ0gyXTEpW0NIMl1bQ0gyXVtOSF1DKD1PKVtOSF1jMltjSF1jKFtDSDNdKW5uMltDSDNd

> <s_epik_cmdline>
J2VwaWtfcHl0aG9uJywgJy1waCcsICc3LjAnLCAnLXRuJywgJzgnLCAnLW1hJywgJzIwMCcsICctbWV0YWxfYmluZGluZycsICctaW1hZScsICc8aW5maWxlLm1hZT4nLCAnLW9tYWUnLCAnPG91dGZpbGUubWFlPic=

> <r_lp_tautomer_probability>
1

> <r_epik_Ionization_Penalty>
0.0527919

> <r_epik_Ionization_Penalty_Charging>
0.052373

> <r_epik_Ionization_Penalty_Neutral>
0.000418955

> <r_epik_State_Penalty>
0.130843

> <r_epik_Charging_Adjusted_Penalty>
0.183216

> <i_epik_Tot_Q>
1

> <i_epik_Tot_abs_Q>
1

> <r_epik_Metal_State_Penalty>
0.130841

> <b_epik_Metal_Only>
0

> <s_lp_Force_Field>
OPLS_2005

> <r_lp_Energy>
24.8956

> <b_lp_Chiralities_Consistent>
1

> <s_lp_Variant>
AV-unprocessed.smi:1514-1

> <Gold.Version>
5.8.1

> <Gold.Id.Protein>
6NUR|6NUR_protein|mol2

> <Gold.PLP.Fitness>
44.6667

> <Gold.PLP.PLP>
-35.5373

> <Gold.PLP.part.hbond>
-4.0000

> <Gold.PLP.part.metal>
0.0000

> <Gold.PLP.part.buried>
-4.7235

> <Gold.PLP.part.nonpolar>
-28.4271

> <Gold.PLP.part.repulsive>
0.2079

> <Gold.PLP.ligand.clash>
0.0000

> <Gold.PLP.ligand.torsion>
0.8456

> <Gold.PLP.Chemscore.Hbond>
3.5920

> <Gold.PLP.Chemscore.CHOScore>
0.0000

> <Gold.PLP.Chemscore.Metal>
0.0000

> <Gold.Chemscore.Hbonds>
donor molecule, donor type, donor heavy atom, donor atom, acceptor molecule, acceptor atom, score
      L1  H     3    48       P1 10747  1.00
      L1  H     9    35       P1  7948  1.00
      L1  H    12    36       P1  7948  0.98
      P1  H  7989  7998       L1    17  0.60

> <Gold.PLP.Chemscore.Internal.Correction>
0.0445

> <Gold.Rescore>
     Score         DG    S(hbond)    S(metal)    S(lipo)     H(rot)  DE(clash)    DE(int)     intcor
     19.20     -20.01       2.96        0.00      76.68       1.69       0.01       0.81       ----

> <Gold.Chemscore.Fitness>
19.1973

> <Gold.Chemscore.DG>
-20.0139

> <Gold.Chemscore.ZeroCoef>
-5.4800

> <Gold.Chemscore.Hbond>
2.9619

> <Gold.Chemscore.Metal>
0.0000

> <Gold.Chemscore.Lipo>
76.6754

> <Gold.Chemscore.Internal_Hbond>
0.0000

> <Gold.Chemscore.DEClash>
0.0108

> <Gold.Chemscore.DEInternal>
0.8059

> <Gold.Chemscore.Rot>
1.6914

> <Gold.Chemscore.Internal.Correction>
   9.000000E+99

> <Gold.Chemscore.Hbonds>
donor molecule, donor type, donor heavy atom, donor atom, acceptor molecule, acceptor atom, score
      L1  H     3    48       P1 10747  1.00
      L1  H     9    35       P1  7948  0.98
      L1  H    12    36       P1  7948  0.93
      P1  H  7989  7998       L1    17  0.01

> <Gold.Chemscore.Hbond.Weighted>
-9.8928

> <Gold.Chemscore.Metal.Weighted>
-0.0000

> <Gold.Chemscore.Lipo.Weighted>
-8.9710

> <Gold.Chemscore.Internal_Hbond.Weighted>
0.0000

> <Gold.Chemscore.DEClash.Weighted>
0.0108

> <Gold.Chemscore.DEInternal.Weighted>
0.8059

> <Gold.Chemscore.Rot.Weighted>
4.3299

> <Gold.Chemscore.Internal.Correction.Weighted>
   9.000000E+99

> <Gold.Protein.RotatedTorsions>
[ 6907 6896 6895 6894 ] final -110.71 input  -60.11 | X-H torsion
[ 7974 7965 7964 7962 ] final   60.86 input  175.53 | X-H torsion
[ 8008 7997 7996 7995 ] final  -33.45 input   59.86 | X-H torsion
[ 10167 10162 10161 10158 ] final    1.23 input  -65.29 | X-H torsion
[ 10718 10713 10712 10709 ] final -147.60 input   66.30 | X-H torsion
[ 10763 10752 10751 10750 ] final   13.01 input  -60.55 | X-H torsion
[ 11005 11000 10999 10996 ] final  126.19 input  -57.11 | X-H torsion

> <Gold.Protein.ActiveResidues>
 VAL166  LYS551  ARG553  GLY616  TRP617  ASP618  TYR619  PRO620  LYS621  CYS622 
 ASP623  PHE694  ASN695  SER759  ASP760  ASP761  ALA762  ILE779  LEU786  VAL792 
 PHE793  MET794  SER795  GLU796  ALA797  LYS798  CYS799  TRP800  GLU811  SER814 

> <Gold.Protein.RotatedAtoms>
  150.7642  133.9342  159.3436 H   0  0  0  0  0  0  0  0  0  0  0  0  # atno 6907 bound_to 6896
  151.7244  135.0886  160.0299 H   0  0  0  0  0  0  0  0  0  0  0  0  # atno 6908 bound_to 6896
  152.3630  133.6283  159.6065 H   0  0  0  0  0  0  0  0  0  0  0  0  # atno 6909 bound_to 6896
  145.8913  139.3513  143.0647 H   0  0  0  0  0  0  0  0  0  0  0  0  # atno 7974 bound_to 7965
  154.4149  140.1710  156.1890 H   0  0  0  0  0  0  0  0  0  0  0  0  # atno 8008 bound_to 7997
  155.9619  140.3393  155.6475 H   0  0  0  0  0  0  0  0  0  0  0  0  # atno 8009 bound_to 7997
  155.6737  140.0714  157.2501 H   0  0  0  0  0  0  0  0  0  0  0  0  # atno 8010 bound_to 7997
  140.6692  143.7095  150.7889 H   0  0  0  0  0  0  0  0  0  0  0  0  # atno 10167 bound_to 10162
  156.4096  130.7975  151.2191 H   0  0  0  0  0  0  0  0  0  0  0  0  # atno 10718 bound_to 10713
  153.1764  135.6820  153.8537 H   0  0  0  0  0  0  0  0  0  0  0  0  # atno 10763 bound_to 10752
  153.7884  135.3172  155.3376 H   0  0  0  0  0  0  0  0  0  0  0  0  # atno 10764 bound_to 10752
  154.8031  135.4765  154.0419 H   0  0  0  0  0  0  0  0  0  0  0  0  # atno 10765 bound_to 10752
  139.9443  134.9631  156.8669 H   0  0  0  0  0  0  0  0  0  0  0  0  # atno 11005 bound_to 11000
  145.8905  140.9307  143.0555 LP  0  0  0  0  0  0  0  0  0  0  0  0  # atno 17320 bound_to 7965
  144.6730  140.0899  143.7465 LP  0  0  0  0  0  0  0  0  0  0  0  0  # atno 17321 bound_to 7965
  140.0777  143.4999  152.2546 LP  0  0  0  0  0  0  0  0  0  0  0  0  # atno 17342 bound_to 10162
  139.5953  144.7565  151.3300 LP  0  0  0  0  0  0  0  0  0  0  0  0  # atno 17343 bound_to 10162
  157.7506  131.0261  150.3950 LP  0  0  0  0  0  0  0  0  0  0  0  0  # atno 17370 bound_to 10713
  156.4246  130.3959  149.6802 LP  0  0  0  0  0  0  0  0  0  0  0  0  # atno 17371 bound_to 10713
  140.5873  134.0295  155.7486 LP  0  0  0  0  0  0  0  0  0  0  0  0  # atno 17394 bound_to 11000
  141.1089  133.9649  157.2947 LP  0  0  0  0  0  0  0  0  0  0  0  0  # atno 17395 bound_to 11000

$$$$
