AV-unprocessed.smi:3335|AV-procd|sdf|12844|dock6
  -GOLD-   2272019233D 1   1.00000     0.00000
 Structure written by MMmdl.
 47 48  0  0  0  0  0  0  0  0  2 V2000
  144.6152  133.7018  150.3256 C   0  0  0  0  0  0  0  0  0  0  0  0
  145.0898  134.6627  151.3774 C   0  0  0  0  0  0  0  0  0  0  0  0
  146.1292  134.4706  152.3310 C   0  0  0  0  0  0  0  0  0  0  0  0
  146.3016  135.5174  153.1208 N   0  0  0  0  0  0  0  0  0  0  0  0
  145.3821  136.4152  152.7017 N   0  0  0  0  0  0  0  0  0  0  0  0
  145.2743  137.7140  153.3541 C   0  0  1  0  0  0  0  0  0  0  0  0
  144.9748  137.5257  154.8540 C   0  0  0  0  0  0  0  0  0  0  0  0
  146.5225  138.6017  153.1043 C   0  0  1  0  0  0  0  0  0  0  0  0
  146.7721  138.8749  151.6063 C   0  0  0  0  0  0  0  0  0  0  0  0
  146.3781  139.8848  153.8340 N   0  3  0  0  0  0  0  0  0  0  0  0
  147.2928  140.9771  153.4229 C   0  0  1  0  0  0  0  0  0  0  0  0
  146.6111  142.3312  153.6748 C   0  0  0  0  0  0  0  0  0  0  0  0
  148.6286  140.9113  154.1912 C   0  0  0  0  0  0  0  0  0  0  0  0
  149.6649  140.6921  153.5617 O   0  0  0  0  0  0  0  0  0  0  0  0
  148.6309  141.0800  155.5312 N   0  0  0  0  0  0  0  0  0  0  0  0
  147.4633  141.3295  156.3769 C   0  0  0  0  0  0  0  0  0  0  0  0
  147.9545  141.1825  157.8169 C   0  0  0  0  0  0  0  0  0  0  0  0
  149.4401  141.5027  157.7369 C   0  0  0  0  0  0  0  0  0  0  0  0
  149.8478  141.0319  156.3408 C   0  0  0  0  0  0  0  0  0  0  0  0
  144.6359  135.9218  151.6517 C   0  0  0  0  0  0  0  0  0  0  0  0
  144.8085  132.6665  150.6075 H   0  0  0  0  0  0  0  0  0  0  0  0
  145.1131  133.8734  149.3712 H   0  0  0  0  0  0  0  0  0  0  0  0
  143.5430  133.7910  150.1504 H   0  0  0  0  0  0  0  0  0  0  0  0
  146.7602  133.6054  152.4712 H   0  0  0  0  0  0  0  0  0  0  0  0
  144.4127  138.2136  152.9081 H   0  0  0  0  0  0  0  0  0  0  0  0
  144.7497  138.4741  155.3415 H   0  0  0  0  0  0  0  0  0  0  0  0
  145.8200  137.0778  155.3781 H   0  0  0  0  0  0  0  0  0  0  0  0
  144.1118  136.8753  155.0010 H   0  0  0  0  0  0  0  0  0  0  0  0
  147.3900  138.0703  153.4990 H   0  0  0  0  0  0  0  0  0  0  0  0
  146.9584  137.9552  151.0518 H   0  0  0  0  0  0  0  0  0  0  0  0
  147.6420  139.5123  151.4500 H   0  0  0  0  0  0  0  0  0  0  0  0
  145.9146  139.3691  151.1485 H   0  0  0  0  0  0  0  0  0  0  0  0
  145.4239  140.1975  153.7289 H   0  0  0  0  0  0  0  0  0  0  0  0
  147.4666  140.8804  152.3524 H   0  0  0  0  0  0  0  0  0  0  0  0
  147.2464  143.1640  153.3714 H   0  0  0  0  0  0  0  0  0  0  0  0
  146.3690  142.4681  154.7296 H   0  0  0  0  0  0  0  0  0  0  0  0
  145.6817  142.4107  153.1100 H   0  0  0  0  0  0  0  0  0  0  0  0
  147.1075  142.3454  156.2006 H   0  0  0  0  0  0  0  0  0  0  0  0
  146.6434  140.6396  156.1745 H   0  0  0  0  0  0  0  0  0  0  0  0
  147.4191  141.8265  158.5151 H   0  0  0  0  0  0  0  0  0  0  0  0
  147.8213  140.1508  158.1452 H   0  0  0  0  0  0  0  0  0  0  0  0
  149.5854  142.5809  157.8170 H   0  0  0  0  0  0  0  0  0  0  0  0
  150.0191  141.0281  158.5296 H   0  0  0  0  0  0  0  0  0  0  0  0
  150.2104  140.0035  156.3751 H   0  0  0  0  0  0  0  0  0  0  0  0
  150.6412  141.6575  155.9290 H   0  0  0  0  0  0  0  0  0  0  0  0
  143.8513  136.5019  151.1882 H   0  0  0  0  0  0  0  0  0  0  0  0
  146.5513  139.7107  154.8141 H   0  0  0  0  0  0  0  0  0  0  0  0
  1  2  1  0  0  0  0
  1 21  1  0  0  0  0
  1 22  1  0  0  0  0
  1 23  1  0  0  0  0
  2 20  2  0  0  0  0
  2  3  1  0  0  0  0
  3  4  2  0  0  0  0
  3 24  1  0  0  0  0
  4  5  1  0  0  0  0
  5  6  1  0  0  0  0
  5 20  1  0  0  0  0
  6  7  1  0  0  0  0
  6  8  1  0  0  0  0
  6 25  1  0  0  0  0
  7 26  1  0  0  0  0
  7 27  1  0  0  0  0
  7 28  1  0  0  0  0
  8  9  1  0  0  0  0
  8 10  1  0  0  0  0
  8 29  1  0  0  0  0
  9 30  1  0  0  0  0
  9 31  1  0  0  0  0
  9 32  1  0  0  0  0
 10 11  1  0  0  0  0
 10 33  1  0  0  0  0
 10 47  1  0  0  0  0
 11 12  1  0  0  0  0
 11 13  1  0  0  0  0
 11 34  1  0  0  0  0
 12 35  1  0  0  0  0
 12 36  1  0  0  0  0
 12 37  1  0  0  0  0
 13 14  2  0  0  0  0
 13 15  1  0  0  0  0
 15 19  1  0  0  0  0
 15 16  1  0  0  0  0
 16 17  1  0  0  0  0
 16 38  1  0  0  0  0
 16 39  1  0  0  0  0
 17 18  1  0  0  0  0
 17 40  1  0  0  0  0
 17 41  1  0  0  0  0
 18 19  1  0  0  0  0
 18 42  1  0  0  0  0
 18 43  1  0  0  0  0
 19 44  1  0  0  0  0
 19 45  1  0  0  0  0
 20 46  1  0  0  0  0
M  CHG  1  10   1
M  END
> <s_m_source_file>
AV-unprocessed.smi

> <i_m_source_file_index>
3335

> <i_lp_mmshare_version>
43012

> <i_f3d_flags>
0

> <s_epik_input>
W0NIM11jMVtjSF1ubihbY0hdMSlbQ0BIXShbQ0gzXSlbQ0BIXShbQ0gzXSlbTkhdW0NASF0oW0NIM10pQyg9TylOMltDSDJdW0NIMl1bQ0gyXVtDSDJdMg==

> <s_epik_cmdline>
J2VwaWtfcHl0aG9uJywgJy1waCcsICc3LjAnLCAnLXRuJywgJzgnLCAnLW1hJywgJzIwMCcsICctbWV0YWxfYmluZGluZycsICctaW1hZScsICc8aW5maWxlLm1hZT4nLCAnLW9tYWUnLCAnPG91dGZpbGUubWFlPic=

> <r_lp_tautomer_probability>
1

> <r_epik_Ionization_Penalty>
0.14175

> <r_epik_Ionization_Penalty_Charging>
0.141731

> <r_epik_Ionization_Penalty_Neutral>
1.91261e-05

> <r_epik_State_Penalty>
0.131043

> <r_epik_Charging_Adjusted_Penalty>
0.272773

> <i_epik_Tot_Q>
1

> <i_epik_Tot_abs_Q>
1

> <r_epik_Metal_State_Penalty>
0.131408

> <b_epik_Metal_Only>
0

> <s_lp_Force_Field>
OPLS_2005

> <r_lp_Energy>
36.0865

> <b_lp_Chiralities_Consistent>
1

> <s_lp_Variant>
AV-unprocessed.smi:3335-8

> <Gold.Version>
5.8.1

> <Gold.Id.Protein>
6NUR|6NUR_protein|mol2

> <Gold.PLP.Fitness>
42.2897

> <Gold.PLP.PLP>
-30.5437

> <Gold.PLP.part.hbond>
-3.0000

> <Gold.PLP.part.metal>
0.0000

> <Gold.PLP.part.buried>
-3.6239

> <Gold.PLP.part.nonpolar>
-26.3884

> <Gold.PLP.part.repulsive>
3.2102

> <Gold.PLP.ligand.clash>
0.0000

> <Gold.PLP.ligand.torsion>
0.5944

> <Gold.PLP.Chemscore.Hbond>
3.2883

> <Gold.PLP.Chemscore.CHOScore>
1.0000

> <Gold.PLP.Chemscore.Metal>
0.0000

> <Gold.Chemscore.Hbonds>
donor molecule, donor type, donor heavy atom, donor atom, acceptor molecule, acceptor atom, score
      L1  H    10    33       P1 10175  1.32
      P1  H  7989  7998       L1    14  0.42
      P1  H  8011  8017       L1    14  0.78
      L1  C    20    46       P1 10171  1.00

> <Gold.PLP.Chemscore.Internal.Correction>
0.0700

> <Gold.Rescore>
     Score         DG    S(hbond)    S(metal)    S(lipo)     H(rot)  DE(clash)    DE(int)     intcor
     12.64     -16.09       2.00        0.00      70.40       1.68       1.96       1.49       ----

> <Gold.Chemscore.Fitness>
12.6399

> <Gold.Chemscore.DG>
-16.0864

> <Gold.Chemscore.ZeroCoef>
-5.4800

> <Gold.Chemscore.Hbond>
1.9956

> <Gold.Chemscore.Metal>
0.0000

> <Gold.Chemscore.Lipo>
70.3960

> <Gold.Chemscore.Internal_Hbond>
0.0000

> <Gold.Chemscore.DEClash>
1.9587

> <Gold.Chemscore.DEInternal>
1.4879

> <Gold.Chemscore.Rot>
1.6778

> <Gold.Chemscore.Internal.Correction>
   9.000000E+99

> <Gold.Chemscore.Hbonds>
donor molecule, donor type, donor heavy atom, donor atom, acceptor molecule, acceptor atom, score
      L1  H    10    33       P1 10175  0.63
      P1  H  7989  7998       L1    14  0.42
      P1  H  8011  8017       L1    14  0.26

> <Gold.Chemscore.Hbond.Weighted>
-6.6653

> <Gold.Chemscore.Metal.Weighted>
-0.0000

> <Gold.Chemscore.Lipo.Weighted>
-8.2363

> <Gold.Chemscore.Internal_Hbond.Weighted>
0.0000

> <Gold.Chemscore.DEClash.Weighted>
1.9587

> <Gold.Chemscore.DEInternal.Weighted>
1.4879

> <Gold.Chemscore.Rot.Weighted>
4.2952

> <Gold.Chemscore.Internal.Correction.Weighted>
   9.000000E+99

> <Gold.Protein.RotatedTorsions>
[ 6907 6896 6895 6894 ] final  -35.25 input  -60.11 | X-H torsion
[ 7974 7965 7964 7962 ] final  -89.83 input  175.53 | X-H torsion
[ 8008 7997 7996 7995 ] final    0.55 input   59.86 | X-H torsion
[ 10167 10162 10161 10158 ] final  156.36 input  -65.29 | X-H torsion
[ 10718 10713 10712 10709 ] final   -4.83 input   66.30 | X-H torsion
[ 10763 10752 10751 10750 ] final   70.14 input  -60.55 | X-H torsion
[ 11005 11000 10999 10996 ] final  -96.40 input  -57.11 | X-H torsion

> <Gold.Protein.ActiveResidues>
 VAL166  LYS551  ARG553  GLY616  TRP617  ASP618  TYR619  PRO620  LYS621  CYS622 
 ASP623  PHE694  ASN695  SER759  ASP760  ASP761  ALA762  ILE779  LEU786  VAL792 
 PHE793  MET794  SER795  GLU796  ALA797  LYS798  CYS799  TRP800  GLU811  SER814 

> <Gold.Protein.RotatedAtoms>
  151.0422  134.9615  159.8167 H   0  0  0  0  0  0  0  0  0  0  0  0  # atno 6907 bound_to 6896
  152.5366  134.2644  159.8957 H   0  0  0  0  0  0  0  0  0  0  0  0  # atno 6908 bound_to 6896
  151.2657  133.4237  159.2652 H   0  0  0  0  0  0  0  0  0  0  0  0  # atno 6909 bound_to 6896
  145.4345  140.9557  143.2109 H   0  0  0  0  0  0  0  0  0  0  0  0  # atno 7974 bound_to 7965
  154.6694  140.2608  155.7023 H   0  0  0  0  0  0  0  0  0  0  0  0  # atno 8008 bound_to 7997
  156.2652  140.2832  156.1120 H   0  0  0  0  0  0  0  0  0  0  0  0  # atno 8009 bound_to 7997
  155.1190  140.0377  157.2735 H   0  0  0  0  0  0  0  0  0  0  0  0  # atno 8010 bound_to 7997
  139.4821  144.5015  151.8161 H   0  0  0  0  0  0  0  0  0  0  0  0  # atno 10167 bound_to 10162
  156.7555  130.5253  149.5795 H   0  0  0  0  0  0  0  0  0  0  0  0  # atno 10718 bound_to 10713
  153.0325  135.5185  154.7396 H   0  0  0  0  0  0  0  0  0  0  0  0  # atno 10763 bound_to 10752
  154.6399  135.2911  155.0118 H   0  0  0  0  0  0  0  0  0  0  0  0  # atno 10764 bound_to 10752
  154.1039  135.6632  153.4925 H   0  0  0  0  0  0  0  0  0  0  0  0  # atno 10765 bound_to 10752
  141.1412  133.8095  157.0566 H   0  0  0  0  0  0  0  0  0  0  0  0  # atno 11005 bound_to 11000
  144.8161  139.5874  143.7008 LP  0  0  0  0  0  0  0  0  0  0  0  0  # atno 17320 bound_to 7965
  146.2589  139.6365  142.9375 LP  0  0  0  0  0  0  0  0  0  0  0  0  # atno 17321 bound_to 7965
  140.4509  144.1856  150.5897 LP  0  0  0  0  0  0  0  0  0  0  0  0  # atno 17342 bound_to 10162
  140.4586  143.2458  151.9251 LP  0  0  0  0  0  0  0  0  0  0  0  0  # atno 17343 bound_to 10162
  156.1373  130.6220  151.0418 LP  0  0  0  0  0  0  0  0  0  0  0  0  # atno 17370 bound_to 10713
  157.6758  131.0851  150.7498 LP  0  0  0  0  0  0  0  0  0  0  0  0  # atno 17371 bound_to 10713
  140.0598  134.9761  157.1284 LP  0  0  0  0  0  0  0  0  0  0  0  0  # atno 17394 bound_to 11000
  140.3866  134.2230  155.7168 LP  0  0  0  0  0  0  0  0  0  0  0  0  # atno 17395 bound_to 11000

$$$$
