AV-unprocessed.smi:1209|AV-procd|sdf|5071|dock3
  -GOLD-   22720 4113D 1   1.00000     0.00000
 Structure written by MMmdl.
 49 51  0  0  0  0  0  0  0  0  2 V2000
  147.6254  135.3666  162.0147 C   0  0  0  0  0  0  0  0  0  0  0  0
  147.9308  136.0194  160.7103 C   0  0  0  0  0  0  0  0  0  0  0  0
  147.6695  135.6774  159.4143 C   0  0  0  0  0  0  0  0  0  0  0  0
  148.2377  136.7438  158.6636 C   0  0  0  0  0  0  0  0  0  0  0  0
  148.2644  136.9279  157.1689 C   0  0  0  0  0  0  0  0  0  0  0  0
  149.6167  137.0192  156.6136 N   0  0  0  0  0  0  0  0  0  0  0  0
  150.3087  135.7334  156.7083 C   0  0  0  0  0  0  0  0  0  0  0  0
  149.5661  137.5073  155.2325 C   0  0  0  0  0  0  0  0  0  0  0  0
  150.8527  138.1773  154.7084 C   0  0  2  0  0  0  0  0  0  0  0  0
  151.6580  137.1832  154.1065 O   0  0  0  0  0  0  0  0  0  0  0  0
  151.6349  138.8551  155.8508 C   0  0  0  0  0  0  0  0  0  0  0  0
  151.1662  140.2174  156.1448 N   0  0  0  0  0  0  0  0  0  0  0  0
  150.2819  140.9968  155.4655 C   0  0  0  0  0  0  0  0  0  0  0  0
  150.1673  142.1736  156.1411 N   0  3  0  0  0  0  0  0  0  0  0  0
  150.9928  142.1470  157.2670 C   0  0  0  0  0  0  0  0  0  0  0  0
  151.2168  143.0999  158.2536 C   0  0  0  0  0  0  0  0  0  0  0  0
  152.1315  142.7655  159.2774 C   0  0  0  0  0  0  0  0  0  0  0  0
  152.4005  143.7849  160.3714 C   0  0  0  0  0  0  0  0  0  0  0  0
  152.7888  141.5078  159.2868 C   0  0  0  0  0  0  0  0  0  0  0  0
  153.7759  141.1607  160.3882 C   0  0  0  0  0  0  0  0  0  0  0  0
  152.5449  140.5513  158.2755 C   0  0  0  0  0  0  0  0  0  0  0  0
  151.6391  140.8956  157.2749 C   0  0  0  0  0  0  0  0  0  0  0  0
  148.7983  137.6503  159.4476 N   0  0  0  0  0  0  0  0  0  0  0  0
  148.6072  137.1960  160.7572 O   0  0  0  0  0  0  0  0  0  0  0  0
  146.7971  134.6655  161.9135 H   0  0  0  0  0  0  0  0  0  0  0  0
  147.3502  136.1073  162.7660 H   0  0  0  0  0  0  0  0  0  0  0  0
  148.4916  134.8161  162.3822 H   0  0  0  0  0  0  0  0  0  0  0  0
  147.1495  134.8016  159.0557 H   0  0  0  0  0  0  0  0  0  0  0  0
  147.7188  136.1211  156.6762 H   0  0  0  0  0  0  0  0  0  0  0  0
  147.7161  137.8409  156.9344 H   0  0  0  0  0  0  0  0  0  0  0  0
  151.3443  135.8111  156.3809 H   0  0  0  0  0  0  0  0  0  0  0  0
  149.8138  134.9742  156.1011 H   0  0  0  0  0  0  0  0  0  0  0  0
  150.3365  135.3740  157.7371 H   0  0  0  0  0  0  0  0  0  0  0  0
  149.2994  136.6794  154.5736 H   0  0  0  0  0  0  0  0  0  0  0  0
  148.7557  138.2315  155.1352 H   0  0  0  0  0  0  0  0  0  0  0  0
  150.6210  138.9329  153.9588 H   0  0  0  0  0  0  0  0  0  0  0  0
  151.3528  137.0513  153.2212 H   0  0  0  0  0  0  0  0  0  0  0  0
  151.5207  138.2760  156.7681 H   0  0  0  0  0  0  0  0  0  0  0  0
  152.7045  138.8808  155.6403 H   0  0  0  0  0  0  0  0  0  0  0  0
  149.7615  140.7292  154.5572 H   0  0  0  0  0  0  0  0  0  0  0  0
  150.7143  144.0562  158.2382 H   0  0  0  0  0  0  0  0  0  0  0  0
  152.1518  143.3725  161.3497 H   0  0  0  0  0  0  0  0  0  0  0  0
  151.8061  144.6882  160.2310 H   0  0  0  0  0  0  0  0  0  0  0  0
  153.4517  144.0742  160.3741 H   0  0  0  0  0  0  0  0  0  0  0  0
  154.1808  140.1563  160.2586 H   0  0  0  0  0  0  0  0  0  0  0  0
  153.2920  141.2007  161.3641 H   0  0  0  0  0  0  0  0  0  0  0  0
  154.6126  141.8597  160.3859 H   0  0  0  0  0  0  0  0  0  0  0  0
  153.0505  139.5971  158.2797 H   0  0  0  0  0  0  0  0  0  0  0  0
  149.5688  142.9369  155.8529 H   0  0  0  0  0  0  0  0  0  0  0  0
  1  2  1  0  0  0  0
  1 25  1  0  0  0  0
  1 26  1  0  0  0  0
  1 27  1  0  0  0  0
  2 24  1  0  0  0  0
  2  3  2  0  0  0  0
  3  4  1  0  0  0  0
  3 28  1  0  0  0  0
  4  5  1  0  0  0  0
  4 23  2  0  0  0  0
  5  6  1  0  0  0  0
  5 29  1  0  0  0  0
  5 30  1  0  0  0  0
  6  7  1  0  0  0  0
  6  8  1  0  0  0  0
  7 31  1  0  0  0  0
  7 32  1  0  0  0  0
  7 33  1  0  0  0  0
  8  9  1  0  0  0  0
  8 34  1  0  0  0  0
  8 35  1  0  0  0  0
  9 10  1  0  0  0  0
  9 11  1  0  0  0  0
  9 36  1  0  0  0  0
 10 37  1  0  0  0  0
 11 12  1  0  0  0  0
 11 38  1  0  0  0  0
 11 39  1  0  0  0  0
 12 22  1  0  0  0  0
 12 13  1  0  0  0  0
 13 14  2  0  0  0  0
 13 40  1  0  0  0  0
 14 15  1  0  0  0  0
 14 49  1  0  0  0  0
 15 22  2  0  0  0  0
 15 16  1  0  0  0  0
 16 17  2  0  0  0  0
 16 41  1  0  0  0  0
 17 18  1  0  0  0  0
 17 19  1  0  0  0  0
 18 42  1  0  0  0  0
 18 43  1  0  0  0  0
 18 44  1  0  0  0  0
 19 20  1  0  0  0  0
 19 21  2  0  0  0  0
 20 45  1  0  0  0  0
 20 46  1  0  0  0  0
 20 47  1  0  0  0  0
 21 22  1  0  0  0  0
 21 48  1  0  0  0  0
 23 24  1  0  0  0  0
M  CHG  1  14   1
M  END
> <s_m_source_file>
AV-unprocessed.smi

> <i_m_source_file_index>
1209

> <i_lp_mmshare_version>
43012

> <i_f3d_flags>
0

> <s_epik_input>
W0NIM11jMVtjSF1jKG5vMSlbQ0gyXU4oW0NIM10pW0NIMl1bQ0BIXShbT0hdKVtDSDJdbihbY0hdbjIpYyhjMjMpW2NIXWMoW0NIM10pYyhbY0hdMylbQ0gzXQ==

> <s_epik_cmdline>
J2VwaWtfcHl0aG9uJywgJy1waCcsICc3LjAnLCAnLXRuJywgJzgnLCAnLW1hJywgJzIwMCcsICctbWV0YWxfYmluZGluZycsICctaW1hZScsICc8aW5maWxlLm1hZT4nLCAnLW9tYWUnLCAnPG91dGZpbGUubWFlPic=

> <r_epik_Ionization_Penalty>
1.23608

> <r_epik_Ionization_Penalty_Charging>
1.21624

> <r_epik_Ionization_Penalty_Neutral>
0.0198409

> <r_epik_State_Penalty>
1.27749

> <r_epik_Charging_Adjusted_Penalty>
2.49372

> <i_epik_Tot_Q>
1

> <i_epik_Tot_abs_Q>
1

> <r_epik_Metal_State_Penalty>
1.34809

> <b_epik_Metal_Only>
0

> <s_lp_Force_Field>
OPLS_2005

> <r_lp_Energy>
23.9348

> <b_lp_Chiralities_Consistent>
1

> <s_lp_Variant>
AV-unprocessed.smi:1209-3

> <Gold.Version>
5.8.1

> <Gold.Id.Protein>
6NUR|6NUR_protein|mol2

> <Gold.PLP.Fitness>
59.6385

> <Gold.PLP.PLP>
-47.0871

> <Gold.PLP.part.hbond>
-6.5181

> <Gold.PLP.part.metal>
0.0000

> <Gold.PLP.part.buried>
-5.5752

> <Gold.PLP.part.nonpolar>
-35.8559

> <Gold.PLP.part.repulsive>
0.1064

> <Gold.PLP.ligand.clash>
0.0000

> <Gold.PLP.ligand.torsion>
1.0181

> <Gold.PLP.Chemscore.Hbond>
4.8402

> <Gold.PLP.Chemscore.CHOScore>
0.0000

> <Gold.PLP.Chemscore.Metal>
0.0000

> <Gold.Chemscore.Hbonds>
donor molecule, donor type, donor heavy atom, donor atom, acceptor molecule, acceptor atom, score
      L1  H    10    37       P1  7949  0.98
      L1  H    14    49       P1  8028  2.00
      P1  H  6931  6943       L1    24  0.82
      P1  H  6934  6947       L1    24  0.03
      P1  H 10752 10765       L1    10  1.00

> <Gold.PLP.Chemscore.Internal.Correction>
0.0669

> <Gold.Rescore>
     Score         DG    S(hbond)    S(metal)    S(lipo)     H(rot)  DE(clash)    DE(int)     intcor
     21.65     -22.89       3.12        0.00     114.94       2.53       0.02       1.22       ----

> <Gold.Chemscore.Fitness>
21.6525

> <Gold.Chemscore.DG>
-22.8938

> <Gold.Chemscore.ZeroCoef>
-5.4800

> <Gold.Chemscore.Hbond>
3.1238

> <Gold.Chemscore.Metal>
0.0000

> <Gold.Chemscore.Lipo>
114.9400

> <Gold.Chemscore.Internal_Hbond>
0.0000

> <Gold.Chemscore.DEClash>
0.0222

> <Gold.Chemscore.DEInternal>
1.2191

> <Gold.Chemscore.Rot>
2.5265

> <Gold.Chemscore.Internal.Correction>
   9.000000E+99

> <Gold.Chemscore.Hbonds>
donor molecule, donor type, donor heavy atom, donor atom, acceptor molecule, acceptor atom, score
      L1  H    10    37       P1  7949  0.67
      L1  H    14    49       P1  8028  0.99
      P1  H  6931  6943       L1    24  0.71
      P1  H 10752 10765       L1    10  0.25

> <Gold.Chemscore.Hbond.Weighted>
-10.4336

> <Gold.Chemscore.Metal.Weighted>
-0.0000

> <Gold.Chemscore.Lipo.Weighted>
-13.4480

> <Gold.Chemscore.Internal_Hbond.Weighted>
0.0000

> <Gold.Chemscore.DEClash.Weighted>
0.0222

> <Gold.Chemscore.DEInternal.Weighted>
1.2191

> <Gold.Chemscore.Rot.Weighted>
6.4677

> <Gold.Chemscore.Internal.Correction.Weighted>
   9.000000E+99

> <Gold.Protein.RotatedTorsions>
[ 6907 6896 6895 6894 ] final   96.38 input  -60.11 | X-H torsion
[ 7974 7965 7964 7962 ] final  -42.19 input  175.53 | X-H torsion
[ 8008 7997 7996 7995 ] final -100.32 input   59.86 | X-H torsion
[ 10167 10162 10161 10158 ] final  -73.99 input  -65.29 | X-H torsion
[ 10718 10713 10712 10709 ] final   71.11 input   66.30 | X-H torsion
[ 10763 10752 10751 10750 ] final  159.55 input  -60.55 | X-H torsion
[ 11005 11000 10999 10996 ] final   95.79 input  -57.11 | X-H torsion

> <Gold.Protein.ActiveResidues>
 VAL166  LYS551  ARG553  GLY616  TRP617  ASP618  TYR619  PRO620  LYS621  CYS622 
 ASP623  PHE694  ASN695  SER759  ASP760  ASP761  ALA762  ILE779  LEU786  VAL792 
 PHE793  MET794  SER795  GLU796  ALA797  LYS798  CYS799  TRP800  GLU811  SER814 

> <Gold.Protein.RotatedAtoms>
  152.5435  134.0895  159.8270 H   0  0  0  0  0  0  0  0  0  0  0  0  # atno 6907 bound_to 6896
  151.0986  133.5253  159.2618 H   0  0  0  0  0  0  0  0  0  0  0  0  # atno 6908 bound_to 6896
  151.2017  135.0454  159.8929 H   0  0  0  0  0  0  0  0  0  0  0  0  # atno 6909 bound_to 6896
  146.0139  140.6931  142.9211 H   0  0  0  0  0  0  0  0  0  0  0  0  # atno 7974 bound_to 7965
  154.8270  140.0442  157.1450 H   0  0  0  0  0  0  0  0  0  0  0  0  # atno 8008 bound_to 7997
  154.9196  140.3025  155.5203 H   0  0  0  0  0  0  0  0  0  0  0  0  # atno 8009 bound_to 7997
  156.2984  140.2343  156.4244 H   0  0  0  0  0  0  0  0  0  0  0  0  # atno 8010 bound_to 7997
  140.5064  143.2352  151.7666 H   0  0  0  0  0  0  0  0  0  0  0  0  # atno 10167 bound_to 10162
  157.6435  130.9511  150.0744 H   0  0  0  0  0  0  0  0  0  0  0  0  # atno 10718 bound_to 10713
  154.2335  135.2777  155.2881 H   0  0  0  0  0  0  0  0  0  0  0  0  # atno 10763 bound_to 10752
  154.5604  135.5648  153.7006 H   0  0  0  0  0  0  0  0  0  0  0  0  # atno 10764 bound_to 10752
  153.0015  135.6296  154.2477 H   0  0  0  0  0  0  0  0  0  0  0  0  # atno 10765 bound_to 10752
  139.8786  134.8917  156.4062 H   0  0  0  0  0  0  0  0  0  0  0  0  # atno 11005 bound_to 11000
  144.6963  140.3447  143.7193 LP  0  0  0  0  0  0  0  0  0  0  0  0  # atno 17320 bound_to 7965
  145.7299  139.1733  143.2436 LP  0  0  0  0  0  0  0  0  0  0  0  0  # atno 17321 bound_to 7965
  139.4885  144.4451  151.9719 LP  0  0  0  0  0  0  0  0  0  0  0  0  # atno 17342 bound_to 10162
  140.3542  144.3052  150.5944 LP  0  0  0  0  0  0  0  0  0  0  0  0  # atno 17343 bound_to 10162
  156.1738  130.3647  149.9128 LP  0  0  0  0  0  0  0  0  0  0  0  0  # atno 17370 bound_to 10713
  156.7097  130.8965  151.3608 LP  0  0  0  0  0  0  0  0  0  0  0  0  # atno 17371 bound_to 10713
  140.9232  133.7630  155.9932 LP  0  0  0  0  0  0  0  0  0  0  0  0  # atno 17394 bound_to 11000
  140.8416  134.3060  157.5311 LP  0  0  0  0  0  0  0  0  0  0  0  0  # atno 17395 bound_to 11000

$$$$
