AV-unprocessed.smi:1968|AV-procd|sdf|7956|dock6
  -GOLD-   2272010123D 1   1.00000     0.00000
 Structure written by MMmdl.
 42 43  0  0  0  0  0  0  0  0  1 V2000
  143.7420  146.0832  155.0127 C   0  0  0  0  0  0  0  0  0  0  0  0
  144.0376  145.2030  156.2294 C   0  0  0  0  0  0  0  0  0  0  0  0
  143.9373  145.7091  157.3472 O   0  0  0  0  0  0  0  0  0  0  0  0
  144.3992  143.9109  156.0402 N   0  0  0  0  0  0  0  0  0  0  0  0
  144.6181  143.2718  154.7369 C   0  0  0  0  0  0  0  0  0  0  0  0
  146.1265  143.0299  154.5516 C   0  0  0  0  0  0  0  0  0  0  0  0
  146.7095  142.1921  155.7142 C   0  0  0  0  0  0  0  0  0  0  0  0
  148.1663  142.1440  155.6355 N   0  0  0  0  0  0  0  0  0  0  0  0
  148.9531  141.2920  156.3098 C   0  0  0  0  0  0  0  0  0  0  0  0
  148.5153  140.4325  157.0761 O   0  0  0  0  0  0  0  0  0  0  0  0
  150.4614  141.4300  156.0558 C   0  0  0  0  0  0  0  0  0  0  0  0
  151.2431  141.6645  157.2817 N   0  0  0  0  0  0  0  0  0  0  0  0
  150.9636  142.8407  158.0053 C   0  0  0  0  0  0  0  0  0  0  0  0
  151.6009  143.1686  159.1457 C   0  0  0  0  0  0  0  0  0  0  0  0
  151.3224  144.4751  159.8729 C   0  0  0  0  0  0  0  0  0  0  0  0
  151.8431  145.5102  159.2134 F   0  0  0  0  0  0  0  0  0  0  0  0
  150.0123  144.6826  160.0112 F   0  0  0  0  0  0  0  0  0  0  0  0
  151.8674  144.4414  161.0882 F   0  0  0  0  0  0  0  0  0  0  0  0
  152.6339  142.2551  159.5927 C   0  0  0  0  0  0  0  0  0  0  0  0
  152.9223  141.1322  158.9060 C   0  0  0  0  0  0  0  0  0  0  0  0
  152.2074  140.7802  157.6770 C   0  0  0  0  0  0  0  0  0  0  0  0
  152.4604  139.7558  157.0423 O   0  0  0  0  0  0  0  0  0  0  0  0
  146.2861  142.7599  157.0866 C   0  0  0  0  0  0  0  0  0  0  0  0
  144.7700  143.0199  157.1455 C   0  0  0  0  0  0  0  0  0  0  0  0
  144.6090  146.1382  154.3537 H   0  0  0  0  0  0  0  0  0  0  0  0
  143.4969  147.0993  155.3236 H   0  0  0  0  0  0  0  0  0  0  0  0
  142.8927  145.6929  154.4517 H   0  0  0  0  0  0  0  0  0  0  0  0
  144.0841  142.3208  154.7099 H   0  0  0  0  0  0  0  0  0  0  0  0
  144.2280  143.8457  153.8976 H   0  0  0  0  0  0  0  0  0  0  0  0
  146.3047  142.5296  153.5990 H   0  0  0  0  0  0  0  0  0  0  0  0
  146.6380  143.9922  154.4954 H   0  0  0  0  0  0  0  0  0  0  0  0
  146.3148  141.1768  155.6400 H   0  0  0  0  0  0  0  0  0  0  0  0
  148.6099  142.8148  155.0249 H   0  0  0  0  0  0  0  0  0  0  0  0
  150.8052  140.5255  155.5517 H   0  0  0  0  0  0  0  0  0  0  0  0
  150.6337  142.2365  155.3402 H   0  0  0  0  0  0  0  0  0  0  0  0
  150.2010  143.4673  157.5653 H   0  0  0  0  0  0  0  0  0  0  0  0
  153.1848  142.4736  160.4958 H   0  0  0  0  0  0  0  0  0  0  0  0
  153.6980  140.4741  159.2694 H   0  0  0  0  0  0  0  0  0  0  0  0
  146.5764  142.0727  157.8823 H   0  0  0  0  0  0  0  0  0  0  0  0
  146.8136  143.6958  157.2793 H   0  0  0  0  0  0  0  0  0  0  0  0
  144.4997  143.4231  158.1224 H   0  0  0  0  0  0  0  0  0  0  0  0
  144.2240  142.0801  157.0522 H   0  0  0  0  0  0  0  0  0  0  0  0
  1  2  1  0  0  0  0
  1 25  1  0  0  0  0
  1 26  1  0  0  0  0
  1 27  1  0  0  0  0
  2  3  2  0  0  0  0
  2  4  1  0  0  0  0
  4 24  1  0  0  0  0
  4  5  1  0  0  0  0
  5  6  1  0  0  0  0
  5 28  1  0  0  0  0
  5 29  1  0  0  0  0
  6  7  1  0  0  0  0
  6 30  1  0  0  0  0
  6 31  1  0  0  0  0
  7  8  1  0  0  0  0
  7 23  1  0  0  0  0
  7 32  1  0  0  0  0
  8  9  1  0  0  0  0
  8 33  1  0  0  0  0
  9 10  2  0  0  0  0
  9 11  1  0  0  0  0
 11 12  1  0  0  0  0
 11 34  1  0  0  0  0
 11 35  1  0  0  0  0
 12 21  1  0  0  0  0
 12 13  1  0  0  0  0
 13 14  2  0  0  0  0
 13 36  1  0  0  0  0
 14 15  1  0  0  0  0
 14 19  1  0  0  0  0
 15 16  1  0  0  0  0
 15 17  1  0  0  0  0
 15 18  1  0  0  0  0
 19 20  2  0  0  0  0
 19 37  1  0  0  0  0
 20 21  1  0  0  0  0
 20 38  1  0  0  0  0
 21 22  2  0  0  0  0
 23 24  1  0  0  0  0
 23 39  1  0  0  0  0
 23 40  1  0  0  0  0
 24 41  1  0  0  0  0
 24 42  1  0  0  0  0
M  END
> <s_m_source_file>
AV-unprocessed.smi

> <i_m_source_file_index>
1968

> <i_lp_mmshare_version>
43012

> <i_f3d_flags>
0

> <s_epik_input>
W0NIM11DKD1PKU4xW0NIMl1bQ0gyXVtDSF0oW0NIMl1bQ0gyXTEpW05IXUMoPU8pW0NIMl1uMltjSF1jKEMoRikoRilGKVtjSF1bY0hdYzI9Tw==

> <s_epik_cmdline>
J2VwaWtfcHl0aG9uJywgJy1waCcsICc3LjAnLCAnLXRuJywgJzgnLCAnLW1hJywgJzIwMCcsICctbWV0YWxfYmluZGluZycsICctaW1hZScsICc8aW5maWxlLm1hZT4nLCAnLW9tYWUnLCAnPG91dGZpbGUubWFlPic=

> <r_lp_tautomer_probability>
1

> <r_epik_Ionization_Penalty>
1.143e-06

> <r_epik_Ionization_Penalty_Charging>
1.89481e-08

> <r_epik_Ionization_Penalty_Neutral>
1.12405e-06

> <r_epik_State_Penalty>
-0

> <r_epik_Charging_Adjusted_Penalty>
1.89481e-08

> <i_epik_Tot_Q>
0

> <i_epik_Tot_abs_Q>
0

> <r_epik_Metal_State_Penalty>
-0

> <b_epik_Metal_Only>
0

> <s_lp_Force_Field>
OPLS_2005

> <r_lp_Energy>
33.7668

> <b_lp_Chiralities_Consistent>
1

> <s_lp_Variant>
AV-unprocessed.smi:1968-1

> <Gold.Version>
5.8.1

> <Gold.Id.Protein>
6NUR|6NUR_protein|mol2

> <Gold.PLP.Fitness>
53.1109

> <Gold.PLP.PLP>
-47.6237

> <Gold.PLP.part.hbond>
-2.0000

> <Gold.PLP.part.metal>
0.0000

> <Gold.PLP.part.buried>
-5.9050

> <Gold.PLP.part.nonpolar>
-38.9895

> <Gold.PLP.part.repulsive>
0.1818

> <Gold.PLP.ligand.clash>
0.0000

> <Gold.PLP.ligand.torsion>
0.7101

> <Gold.PLP.Chemscore.Hbond>
1.3680

> <Gold.PLP.Chemscore.CHOScore>
0.9151

> <Gold.PLP.Chemscore.Metal>
0.0000

> <Gold.Chemscore.Hbonds>
donor molecule, donor type, donor heavy atom, donor atom, acceptor molecule, acceptor atom, score
      L1  H     8    33       P1  8028  0.40
      P1  H  7997  8009       L1    22  1.00
      L1  C    13    36       P1  8028  0.78

> <Gold.PLP.Chemscore.Internal.Correction>
0.0582

> <Gold.Rescore>
     Score         DG    S(hbond)    S(metal)    S(lipo)     H(rot)  DE(clash)    DE(int)     intcor
     14.62     -15.09       1.35        0.00      79.42       1.64       0.26       0.20       ----

> <Gold.Chemscore.Fitness>
14.6231

> <Gold.Chemscore.DG>
-15.0886

> <Gold.Chemscore.ZeroCoef>
-5.4800

> <Gold.Chemscore.Hbond>
1.3546

> <Gold.Chemscore.Metal>
0.0000

> <Gold.Chemscore.Lipo>
79.4157

> <Gold.Chemscore.Internal_Hbond>
0.0000

> <Gold.Chemscore.DEClash>
0.2622

> <Gold.Chemscore.DEInternal>
0.2034

> <Gold.Chemscore.Rot>
1.6435

> <Gold.Chemscore.Internal.Correction>
   9.000000E+99

> <Gold.Chemscore.Hbonds>
donor molecule, donor type, donor heavy atom, donor atom, acceptor molecule, acceptor atom, score
      L1  H     8    33       P1  8028  0.38
      P1  H  7997  8009       L1    22  0.29

> <Gold.Chemscore.Hbond.Weighted>
-4.5244

> <Gold.Chemscore.Metal.Weighted>
-0.0000

> <Gold.Chemscore.Lipo.Weighted>
-9.2916

> <Gold.Chemscore.Internal_Hbond.Weighted>
0.0000

> <Gold.Chemscore.DEClash.Weighted>
0.2622

> <Gold.Chemscore.DEInternal.Weighted>
0.2034

> <Gold.Chemscore.Rot.Weighted>
4.2074

> <Gold.Chemscore.Internal.Correction.Weighted>
   9.000000E+99

> <Gold.Protein.RotatedTorsions>
[ 6907 6896 6895 6894 ] final  -97.55 input  -60.11 | X-H torsion
[ 7974 7965 7964 7962 ] final  -42.74 input  175.53 | X-H torsion
[ 8008 7997 7996 7995 ] final -169.26 input   59.86 | X-H torsion
[ 10167 10162 10161 10158 ] final -116.66 input  -65.29 | X-H torsion
[ 10718 10713 10712 10709 ] final   41.23 input   66.30 | X-H torsion
[ 10763 10752 10751 10750 ] final -118.37 input  -60.55 | X-H torsion
[ 11005 11000 10999 10996 ] final  173.26 input  -57.11 | X-H torsion

> <Gold.Protein.ActiveResidues>
 VAL166  LYS551  ARG553  GLY616  TRP617  ASP618  TYR619  PRO620  LYS621  CYS622 
 ASP623  PHE694  ASN695  SER759  ASP760  ASP761  ALA762  ILE779  LEU786  VAL792 
 PHE793  MET794  SER795  GLU796  ALA797  LYS798  CYS799  TRP800  GLU811  SER814 

> <Gold.Protein.RotatedAtoms>
  150.7020  134.1331  159.4076 H   0  0  0  0  0  0  0  0  0  0  0  0  # atno 6907 bound_to 6896
  151.9316  135.0251  160.0539 H   0  0  0  0  0  0  0  0  0  0  0  0  # atno 6908 bound_to 6896
  152.2170  133.4919  159.5178 H   0  0  0  0  0  0  0  0  0  0  0  0  # atno 6909 bound_to 6896
  146.0086  140.6990  142.9235 H   0  0  0  0  0  0  0  0  0  0  0  0  # atno 7974 bound_to 7965
  155.9026  140.1043  157.1339 H   0  0  0  0  0  0  0  0  0  0  0  0  # atno 8008 bound_to 7997
  154.4028  140.1289  156.4519 H   0  0  0  0  0  0  0  0  0  0  0  0  # atno 8009 bound_to 7997
  155.7405  140.3467  155.5104 H   0  0  0  0  0  0  0  0  0  0  0  0  # atno 8010 bound_to 7997
  140.0767  143.4826  152.1949 H   0  0  0  0  0  0  0  0  0  0  0  0  # atno 10167 bound_to 10162
  157.3912  130.7807  149.7271 H   0  0  0  0  0  0  0  0  0  0  0  0  # atno 10718 bound_to 10713
  154.8585  135.4276  154.2129 H   0  0  0  0  0  0  0  0  0  0  0  0  # atno 10763 bound_to 10752
  153.3150  135.6978  153.7087 H   0  0  0  0  0  0  0  0  0  0  0  0  # atno 10764 bound_to 10752
  153.6164  135.3510  155.2970 H   0  0  0  0  0  0  0  0  0  0  0  0  # atno 10765 bound_to 10752
  140.3386  134.7296  157.4186 H   0  0  0  0  0  0  0  0  0  0  0  0  # atno 11005 bound_to 11000
  144.6945  140.3359  143.7208 LP  0  0  0  0  0  0  0  0  0  0  0  0  # atno 17320 bound_to 7965
  145.7376  139.1754  143.2394 LP  0  0  0  0  0  0  0  0  0  0  0  0  # atno 17321 bound_to 7965
  139.5803  144.7507  151.3656 LP  0  0  0  0  0  0  0  0  0  0  0  0  # atno 17342 bound_to 10162
  140.7098  143.7420  150.7547 LP  0  0  0  0  0  0  0  0  0  0  0  0  # atno 17343 bound_to 10162
  155.9799  130.4035  150.3561 LP  0  0  0  0  0  0  0  0  0  0  0  0  # atno 17370 bound_to 10713
  157.1677  131.0361  151.2810 LP  0  0  0  0  0  0  0  0  0  0  0  0  # atno 17371 bound_to 10713
  140.0800  134.5744  155.8551 LP  0  0  0  0  0  0  0  0  0  0  0  0  # atno 17394 bound_to 11000
  141.2044  133.6639  156.6122 LP  0  0  0  0  0  0  0  0  0  0  0  0  # atno 17395 bound_to 11000

$$$$
