AV-unprocessed.smi:1856|AV-procd|sdf|7538|dock3
  -GOLD-   22720 9253D 1   1.00000     0.00000
 Structure written by MMmdl.
 45 46  0  0  0  0  0  0  0  0  2 V2000
  144.9490  144.6933  153.2952 C   0  0  0  0  0  0  0  0  0  0  0  0
  145.9417  143.5433  153.4957 C   0  0  0  0  0  0  0  0  0  0  0  0
  145.6463  142.7256  154.7668 C   0  0  0  0  0  0  0  0  0  0  0  0
  146.6228  141.5670  154.9955 C   0  0  0  0  0  0  0  0  0  0  0  0
  146.3019  140.4055  154.7406 O   0  0  0  0  0  0  0  0  0  0  0  0
  147.8234  141.9013  155.4946 N   0  0  0  0  0  0  0  0  0  0  0  0
  148.9051  140.9624  155.7840 C   0  0  1  0  0  0  0  0  0  0  0  0
  149.5026  140.4390  154.4717 C   0  0  0  0  0  0  0  0  0  0  0  0
  149.9781  141.5642  156.6461 C   0  0  0  0  0  0  0  0  0  0  0  0
  150.2462  142.8953  156.7828 N   0  3  0  0  0  0  0  0  0  0  0  0
  151.3027  143.0780  157.6745 C   0  0  0  0  0  0  0  0  0  0  0  0
  151.9163  144.2385  158.1353 C   0  0  0  0  0  0  0  0  0  0  0  0
  152.9755  144.0727  159.0518 C   0  0  0  0  0  0  0  0  0  0  0  0
  153.3879  142.7920  159.4735 C   0  0  0  0  0  0  0  0  0  0  0  0
  152.7590  141.6226  158.9971 C   0  0  0  0  0  0  0  0  0  0  0  0
  151.7112  141.7960  158.0932 C   0  0  0  0  0  0  0  0  0  0  0  0
  150.8737  140.8935  157.4284 N   0  0  0  0  0  0  0  0  0  0  0  0
  151.0627  139.4512  157.6495 C   0  0  0  0  0  0  0  0  0  0  0  0
  151.5769  138.7134  156.3985 C   0  0  2  0  0  0  0  0  0  0  0  0
  151.8003  137.2197  156.6627 C   0  0  0  0  0  0  0  0  0  0  0  0
  152.7976  139.2797  155.9680 O   0  0  0  0  0  0  0  0  0  0  0  0
  145.1836  145.2544  152.3903 H   0  0  0  0  0  0  0  0  0  0  0  0
  144.9770  145.3887  154.1345 H   0  0  0  0  0  0  0  0  0  0  0  0
  143.9289  144.3206  153.2004 H   0  0  0  0  0  0  0  0  0  0  0  0
  145.9116  142.8938  152.6196 H   0  0  0  0  0  0  0  0  0  0  0  0
  146.9522  143.9516  153.5445 H   0  0  0  0  0  0  0  0  0  0  0  0
  145.6756  143.3802  155.6387 H   0  0  0  0  0  0  0  0  0  0  0  0
  144.6361  142.3175  154.7140 H   0  0  0  0  0  0  0  0  0  0  0  0
  148.0077  142.8781  155.6721 H   0  0  0  0  0  0  0  0  0  0  0  0
  148.4681  140.1162  156.3161 H   0  0  0  0  0  0  0  0  0  0  0  0
  150.2679  139.6862  154.6638 H   0  0  0  0  0  0  0  0  0  0  0  0
  149.9631  141.2415  153.8943 H   0  0  0  0  0  0  0  0  0  0  0  0
  148.7370  139.9761  153.8482 H   0  0  0  0  0  0  0  0  0  0  0  0
  151.6018  145.2206  157.8140 H   0  0  0  0  0  0  0  0  0  0  0  0
  153.4817  144.9452  159.4397 H   0  0  0  0  0  0  0  0  0  0  0  0
  154.2031  142.7043  160.1772 H   0  0  0  0  0  0  0  0  0  0  0  0
  153.0809  140.6460  159.3279 H   0  0  0  0  0  0  0  0  0  0  0  0
  151.7590  139.3265  158.4794 H   0  0  0  0  0  0  0  0  0  0  0  0
  150.1154  139.0287  157.9863 H   0  0  0  0  0  0  0  0  0  0  0  0
  150.8562  138.8220  155.5876 H   0  0  0  0  0  0  0  0  0  0  0  0
  150.8747  136.7356  156.9752 H   0  0  0  0  0  0  0  0  0  0  0  0
  152.5404  137.0606  157.4480 H   0  0  0  0  0  0  0  0  0  0  0  0
  152.1522  136.7093  155.7653 H   0  0  0  0  0  0  0  0  0  0  0  0
  153.0409  138.8870  155.1433 H   0  0  0  0  0  0  0  0  0  0  0  0
  149.7302  143.6240  156.3069 H   0  0  0  0  0  0  0  0  0  0  0  0
  1  2  1  0  0  0  0
  1 22  1  0  0  0  0
  1 23  1  0  0  0  0
  1 24  1  0  0  0  0
  2  3  1  0  0  0  0
  2 25  1  0  0  0  0
  2 26  1  0  0  0  0
  3  4  1  0  0  0  0
  3 27  1  0  0  0  0
  3 28  1  0  0  0  0
  4  5  2  0  0  0  0
  4  6  1  0  0  0  0
  6  7  1  0  0  0  0
  6 29  1  0  0  0  0
  7  8  1  0  0  0  0
  7  9  1  0  0  0  0
  7 30  1  0  0  0  0
  8 31  1  0  0  0  0
  8 32  1  0  0  0  0
  8 33  1  0  0  0  0
  9 17  1  0  0  0  0
  9 10  2  0  0  0  0
 10 11  1  0  0  0  0
 10 45  1  0  0  0  0
 11 16  2  0  0  0  0
 11 12  1  0  0  0  0
 12 13  2  0  0  0  0
 12 34  1  0  0  0  0
 13 14  1  0  0  0  0
 13 35  1  0  0  0  0
 14 15  2  0  0  0  0
 14 36  1  0  0  0  0
 15 16  1  0  0  0  0
 15 37  1  0  0  0  0
 16 17  1  0  0  0  0
 17 18  1  0  0  0  0
 18 19  1  0  0  0  0
 18 38  1  0  0  0  0
 18 39  1  0  0  0  0
 19 20  1  0  0  0  0
 19 21  1  0  0  0  0
 19 40  1  0  0  0  0
 20 41  1  0  0  0  0
 20 42  1  0  0  0  0
 20 43  1  0  0  0  0
 21 44  1  0  0  0  0
M  CHG  1  10   1
M  END
> <s_m_source_file>
AV-unprocessed.smi

> <i_m_source_file_index>
1856

> <i_lp_mmshare_version>
43012

> <i_f3d_flags>
0

> <s_epik_input>
W0NIM11bQ0gyXVtDSDJdQyg9TylbTkhdW0NASF0oW0NIM10pYyhuMSluKFtDSDJdW0NASF0oW0NIM10pW09IXSljKGMxMilbY0hdW2NIXVtjSF1bY0hdMg==

> <s_epik_cmdline>
J2VwaWtfcHl0aG9uJywgJy1waCcsICc3LjAnLCAnLXRuJywgJzgnLCAnLW1hJywgJzIwMCcsICctbWV0YWxfYmluZGluZycsICctaW1hZScsICc8aW5maWxlLm1hZT4nLCAnLW9tYWUnLCAnPG91dGZpbGUubWFlPic=

> <r_epik_Ionization_Penalty>
0.945588

> <r_epik_Ionization_Penalty_Charging>
0.945588

> <r_epik_Ionization_Penalty_Neutral>
8.64698e-08

> <r_epik_State_Penalty>
0.989378

> <r_epik_Charging_Adjusted_Penalty>
1.93497

> <i_epik_Tot_Q>
1

> <i_epik_Tot_abs_Q>
1

> <r_epik_Metal_State_Penalty>
1.10045

> <b_epik_Metal_Only>
0

> <s_lp_Force_Field>
OPLS_2005

> <r_lp_Energy>
6.55933

> <b_lp_Chiralities_Consistent>
1

> <s_lp_Variant>
AV-unprocessed.smi:1856-6

> <Gold.Version>
5.8.1

> <Gold.Id.Protein>
6NUR|6NUR_protein|mol2

> <Gold.PLP.Fitness>
54.3460

> <Gold.PLP.PLP>
-44.3913

> <Gold.PLP.part.hbond>
-3.0000

> <Gold.PLP.part.metal>
0.0000

> <Gold.PLP.part.buried>
-6.5389

> <Gold.PLP.part.nonpolar>
-35.3797

> <Gold.PLP.part.repulsive>
0.1849

> <Gold.PLP.ligand.clash>
0.0000

> <Gold.PLP.ligand.torsion>
1.0312

> <Gold.PLP.Chemscore.Hbond>
3.9825

> <Gold.PLP.Chemscore.CHOScore>
0.0000

> <Gold.PLP.Chemscore.Metal>
0.0000

> <Gold.Chemscore.Hbonds>
donor molecule, donor type, donor heavy atom, donor atom, acceptor molecule, acceptor atom, score
      L1  H     6    29       P1  8028  1.00
      L1  H    10    45       P1  8028  1.98
      P1  H  7997  8009       L1    21  1.00

> <Gold.PLP.Chemscore.Internal.Correction>
0.0696

> <Gold.Rescore>
     Score         DG    S(hbond)    S(metal)    S(lipo)     H(rot)  DE(clash)    DE(int)     intcor
     16.84     -18.63       1.94        0.00     112.04       2.52       0.17       1.62       ----

> <Gold.Chemscore.Fitness>
16.8368

> <Gold.Chemscore.DG>
-18.6313

> <Gold.Chemscore.ZeroCoef>
-5.4800

> <Gold.Chemscore.Hbond>
1.9411

> <Gold.Chemscore.Metal>
0.0000

> <Gold.Chemscore.Lipo>
112.0440

> <Gold.Chemscore.Internal_Hbond>
0.0000

> <Gold.Chemscore.DEClash>
0.1722

> <Gold.Chemscore.DEInternal>
1.6223

> <Gold.Chemscore.Rot>
2.5161

> <Gold.Chemscore.Internal.Correction>
   9.000000E+99

> <Gold.Chemscore.Hbonds>
donor molecule, donor type, donor heavy atom, donor atom, acceptor molecule, acceptor atom, score
      L1  H     6    29       P1  8028  0.77
      L1  H    10    45       P1  8028  0.92
      P1  H  7997  8009       L1    21  0.39

> <Gold.Chemscore.Hbond.Weighted>
-6.4833

> <Gold.Chemscore.Metal.Weighted>
-0.0000

> <Gold.Chemscore.Lipo.Weighted>
-13.1091

> <Gold.Chemscore.Internal_Hbond.Weighted>
0.0000

> <Gold.Chemscore.DEClash.Weighted>
0.1722

> <Gold.Chemscore.DEInternal.Weighted>
1.6223

> <Gold.Chemscore.Rot.Weighted>
6.4412

> <Gold.Chemscore.Internal.Correction.Weighted>
   9.000000E+99

> <Gold.Protein.RotatedTorsions>
[ 6907 6896 6895 6894 ] final -166.71 input  -60.11 | X-H torsion
[ 7974 7965 7964 7962 ] final -168.28 input  175.53 | X-H torsion
[ 8008 7997 7996 7995 ] final -174.31 input   59.86 | X-H torsion
[ 10167 10162 10161 10158 ] final  166.67 input  -65.29 | X-H torsion
[ 10718 10713 10712 10709 ] final   31.49 input   66.30 | X-H torsion
[ 10763 10752 10751 10750 ] final  -43.32 input  -60.55 | X-H torsion
[ 11005 11000 10999 10996 ] final   -2.00 input  -57.11 | X-H torsion

> <Gold.Protein.ActiveResidues>
 VAL166  LYS551  ARG553  GLY616  TRP617  ASP618  TYR619  PRO620  LYS621  CYS622 
 ASP623  PHE694  ASN695  SER759  ASP760  ASP761  ALA762  ILE779  LEU786  VAL792 
 PHE793  MET794  SER795  GLU796  ALA797  LYS798  CYS799  TRP800  GLU811  SER814 

> <Gold.Protein.RotatedAtoms>
  151.4479  133.3625  159.2790 H   0  0  0  0  0  0  0  0  0  0  0  0  # atno 6907 bound_to 6896
  150.9111  134.8529  159.7437 H   0  0  0  0  0  0  0  0  0  0  0  0  # atno 6908 bound_to 6896
  152.4933  134.4409  159.9595 H   0  0  0  0  0  0  0  0  0  0  0  0  # atno 6909 bound_to 6896
  144.7206  140.2393  143.6293 H   0  0  0  0  0  0  0  0  0  0  0  0  # atno 7974 bound_to 7965
  155.9685  140.1158  157.0833 H   0  0  0  0  0  0  0  0  0  0  0  0  # atno 8008 bound_to 7997
  154.4150  140.1168  156.5342 H   0  0  0  0  0  0  0  0  0  0  0  0  # atno 8009 bound_to 7997
  155.6627  140.3473  155.4791 H   0  0  0  0  0  0  0  0  0  0  0  0  # atno 8010 bound_to 7997
  139.4929  144.4003  151.9417 H   0  0  0  0  0  0  0  0  0  0  0  0  # atno 10167 bound_to 10162
  157.2731  130.7218  149.6515 H   0  0  0  0  0  0  0  0  0  0  0  0  # atno 10718 bound_to 10713
  153.9937  135.6702  153.4755 H   0  0  0  0  0  0  0  0  0  0  0  0  # atno 10763 bound_to 10752
  153.0693  135.4983  154.8267 H   0  0  0  0  0  0  0  0  0  0  0  0  # atno 10764 bound_to 10752
  154.7094  135.3094  154.9183 H   0  0  0  0  0  0  0  0  0  0  0  0  # atno 10765 bound_to 10752
  140.6535  133.9383  155.8394 H   0  0  0  0  0  0  0  0  0  0  0  0  # atno 11005 bound_to 11000
  145.8335  139.2097  143.1869 LP  0  0  0  0  0  0  0  0  0  0  0  0  # atno 17320 bound_to 7965
  146.0410  140.8165  142.9829 LP  0  0  0  0  0  0  0  0  0  0  0  0  # atno 17321 bound_to 7965
  140.3442  144.3166  150.5961 LP  0  0  0  0  0  0  0  0  0  0  0  0  # atno 17342 bound_to 10162
  140.5540  143.2202  151.7879 LP  0  0  0  0  0  0  0  0  0  0  0  0  # atno 17343 bound_to 10162
  155.9663  130.4361  150.5121 LP  0  0  0  0  0  0  0  0  0  0  0  0  # atno 17370 bound_to 10713
  157.3049  131.0652  151.2042 LP  0  0  0  0  0  0  0  0  0  0  0  0  # atno 17371 bound_to 10713
  141.0519  134.0473  157.3773 LP  0  0  0  0  0  0  0  0  0  0  0  0  # atno 17394 bound_to 11000
  139.9037  135.0173  156.7389 LP  0  0  0  0  0  0  0  0  0  0  0  0  # atno 17395 bound_to 11000

$$$$
