#       Name:                AV-unprocessed.smi:2143
#       Creating user name   scv26
#       Creation time:       Fri Mar 27 11:49:06 2020


#       File generated by GOLD software.
#

@<TRIPOS>MOLECULE
AV-unprocessed.smi:2143
    50    51     1
SMALL
NO_CHARGES


@<TRIPOS>ATOM
      1 ****        -3.3236  -3.7342  -0.2832 C.3            1 S1                 0.0000
      2 ****        -2.4947  -2.6350   0.4051 C.3            1 S1                 0.0000
      3 ****        -2.8229  -2.6017   1.9124 C.3            1 S1                 0.0000
      4 ****        -2.0132  -1.5327   2.6583 C.3            1 S1                 0.0000
      5 ****        -2.2255  -0.1461   2.0334 C.3            1 S1                 0.0000
      6 ****        -1.9010  -0.1385   0.5283 C.3            1 S1                 0.0000
      7 ****        -0.4570  -0.2869   0.3312 N.am           1 S1                 0.0000
      8 ****         0.3357   0.5268  -0.3830 C.2            1 S1                 0.0000
      9 ****        -0.0754   1.5195  -0.9852 O.2            1 S1                 0.0000
     10 ****         1.8170   0.1299  -0.4399 C.3            1 S1                 0.0000
     11 ****         2.6975   1.2322  -0.8474 N.am           1 S1                 0.0000
     12 ****         3.0950   1.3390  -2.1675 C.2            1 S1                 0.0000
     13 ****         3.8909   2.3286  -2.6280 C.2            1 S1                 0.0000
     14 ****         4.3899   3.3665  -1.7340 C.2            1 S1                 0.0000
     15 ****         5.1078   4.2909  -2.1169 O.2            1 S1                 0.0000
     16 ****         3.9745   3.2286  -0.3874 N.am           1 S1                 0.0000
     17 ****         4.4021   4.2126   0.5854 C.3            1 S1                 0.0000
     18 ****         3.1332   2.1974   0.0855 C.2            1 S1                 0.0000
     19 ****         2.7828   2.1349   1.2668 O.2            1 S1                 0.0000
     20 ****        -2.6995  -1.2316  -0.2316 C.3            1 S1                 0.0000
     21 ****        -2.3979  -1.2027  -1.7438 C.3            1 S1                 0.0000
     22 ****        -4.3865  -3.4906  -0.2804 H              1 S1                 0.0000
     23 ****        -3.2021  -4.6910   0.2252 H              1 S1                 0.0000
     24 ****        -3.0155  -3.8859  -1.3173 H              1 S1                 0.0000
     25 ****        -1.4441  -2.9091   0.2999 H              1 S1                 0.0000
     26 ****        -3.8878  -2.4099   2.0520 H              1 S1                 0.0000
     27 ****        -2.6268  -3.5771   2.3590 H              1 S1                 0.0000
     28 ****        -2.3048  -1.5131   3.7088 H              1 S1                 0.0000
     29 ****        -0.9544  -1.7932   2.6388 H              1 S1                 0.0000
     30 ****        -3.2642   0.1546   2.1775 H              1 S1                 0.0000
     31 ****        -1.6206   0.5969   2.5548 H              1 S1                 0.0000
     32 ****        -2.2171   0.8328   0.1436 H              1 S1                 0.0000
     33 ****        -0.0248  -1.0808   0.7811 H              1 S1                 0.0000
     34 ****         2.1294  -0.2611   0.5302 H              1 S1                 0.0000
     35 ****         1.9186  -0.7019  -1.1383 H              1 S1                 0.0000
     36 ****         2.7481   0.5960  -2.8710 H              1 S1                 0.0000
     37 ****         4.1600   2.3545  -3.6737 H              1 S1                 0.0000
     38 ****         4.8090   3.6766   1.4452 H              1 S1                 0.0000
     39 ****         3.5197   4.7936   0.8585 H              1 S1                 0.0000
     40 ****         5.1760   4.8610   0.1760 H              1 S1                 0.0000
     41 ****        -3.7555  -0.9787  -0.1222 H              1 S1                 0.0000
     42 ****        -1.3970  -1.5757  -1.9626 H              1 S1                 0.0000
     43 ****        -2.4665  -0.1873  -2.1354 H              1 S1                 0.0000
     44 ****        -3.1081  -1.8071  -2.3072 H              1 S1                 0.0000
     45 ****        -1.0470   1.7546  -0.9571 LP             1 S1                 0.0000
     46 ****         0.5624   2.0904  -1.5022 LP             1 S1                 0.0000
     47 ****         5.3729   4.3525  -3.0792 LP             1 S1                 0.0000
     48 ****         5.4256   4.9799  -1.4656 LP             1 S1                 0.0000
     49 ****         2.1838   1.3947   1.5721 LP             1 S1                 0.0000
     50 ****         3.0978   2.8244   1.9189 LP             1 S1                 0.0000
@<TRIPOS>BOND
    1    1    2 1     
    2    1   22 1     
    3    1   23 1     
    4    1   24 1     
    5    2   20 1     
    6    2    3 1     
    7    2   25 1     
    8    3    4 1     
    9    3   26 1     
   10    3   27 1     
   11    4    5 1     
   12    4   28 1     
   13    4   29 1     
   14    5    6 1     
   15    5   30 1     
   16    5   31 1     
   17    6    7 1     
   18    6   20 1     
   19    6   32 1     
   20    7    8 am    
   21    7   33 1     
   22    8    9 2     
   23    8   10 1     
   24   10   11 1     
   25   10   34 1     
   26   10   35 1     
   27   11   18 am    
   28   11   12 1     
   29   12   13 2     
   30   12   36 1     
   31   13   14 1     
   32   13   37 1     
   33   14   15 2     
   34   14   16 am    
   35   16   17 1     
   36   16   18 am    
   37   17   38 1     
   38   17   39 1     
   39   17   40 1     
   40   18   19 2     
   41   20   21 1     
   42   20   41 1     
   43   21   42 1     
   44   21   43 1     
   45   21   44 1     
   46    9   45 1     
   47    9   46 1     
   48   15   47 1     
   49   15   48 1     
   50   19   49 1     
   51   19   50 1     
@<TRIPOS>SUBSTRUCTURE
      1 S1             1
@<TRIPOS>SET
LONE_PAIRS      STATIC     ATOMS    <user>   **** ""
6 45 46 47 48 49 50
DONOR_HYDROGENS      STATIC     ATOMS    <user>   **** ""
1 33
ATOM$BLUE        STATIC     ATOMS    COLORGROUP SYSTEM
6 45 46 47 48 49 50
ATOM$RED        STATIC     ATOMS    COLORGROUP SYSTEM
1 33
