AV-unprocessed.smi:3308|AV-procd|sdf|12714|dock1
  -GOLD-   2272019 53D 1   1.00000     0.00000
 Structure written by MMmdl.
 40 41  0  0  0  0  0  0  0  0  1 V2000
  152.8452  140.1154  158.8486 C   0  0  0  0  0  0  0  0  0  0  0  0
  151.8984  141.3215  158.6631 C   0  0  2  0  0  0  0  0  0  0  0  0
  151.4688  141.3757  157.2685 N   0  0  0  0  0  0  0  0  0  0  0  0
  150.8955  140.1110  156.7906 C   0  0  0  0  0  0  0  0  0  0  0  0
  150.3184  140.2595  155.3789 C   0  0  0  0  0  0  0  0  0  0  0  0
  150.9583  139.8093  154.4283 O   0  0  0  0  0  0  0  0  0  0  0  0
  149.1278  140.8762  155.2200 N   0  0  0  0  0  0  0  0  0  0  0  0
  148.4912  141.0715  153.9186 C   0  0  0  0  0  0  0  0  0  0  0  0
  147.3104  142.0093  154.1704 C   0  0  0  0  0  0  0  0  0  0  0  0
  146.9603  141.7809  155.6341 C   0  0  0  0  0  0  0  0  0  0  0  0
  148.2975  141.4331  156.2885 C   0  0  0  0  0  0  0  0  0  0  0  0
  152.5632  142.6794  159.0160 C   0  0  1  0  0  0  0  0  0  0  0  0
  151.7724  143.8858  158.4747 C   0  0  0  0  0  0  0  0  0  0  0  0
  152.7610  142.8302  160.4526 N   0  0  0  0  0  0  0  0  0  0  0  0
  152.2797  143.8165  161.2909 C   0  0  0  0  0  0  0  0  0  0  0  0
  152.7217  143.5335  162.5513 C   0  0  0  0  0  0  0  0  0  0  0  0
  153.4761  142.3389  162.3839 C   0  0  0  0  0  0  0  0  0  0  0  0
  153.4976  141.9208  161.1289 N   0  0  0  0  0  0  0  0  0  0  0  0
  153.1608  140.0079  159.8862 H   0  0  0  0  0  0  0  0  0  0  0  0
  153.7444  140.2226  158.2408 H   0  0  0  0  0  0  0  0  0  0  0  0
  152.3709  139.1741  158.5734 H   0  0  0  0  0  0  0  0  0  0  0  0
  151.0296  141.1912  159.3110 H   0  0  0  0  0  0  0  0  0  0  0  0
  152.2382  141.6846  156.6919 H   0  0  0  0  0  0  0  0  0  0  0  0
  151.6379  139.3141  156.8081 H   0  0  0  0  0  0  0  0  0  0  0  0
  150.0916  139.8011  157.4603 H   0  0  0  0  0  0  0  0  0  0  0  0
  149.1792  141.4899  153.1822 H   0  0  0  0  0  0  0  0  0  0  0  0
  148.1421  140.1069  153.5467 H   0  0  0  0  0  0  0  0  0  0  0  0
  147.6282  143.0432  154.0286 H   0  0  0  0  0  0  0  0  0  0  0  0
  146.4715  141.8226  153.4993 H   0  0  0  0  0  0  0  0  0  0  0  0
  146.4755  142.6428  156.0936 H   0  0  0  0  0  0  0  0  0  0  0  0
  146.2805  140.9317  155.7177 H   0  0  0  0  0  0  0  0  0  0  0  0
  148.1571  140.7369  157.1162 H   0  0  0  0  0  0  0  0  0  0  0  0
  148.7749  142.3337  156.6775 H   0  0  0  0  0  0  0  0  0  0  0  0
  153.5515  142.7019  158.5512 H   0  0  0  0  0  0  0  0  0  0  0  0
  151.6975  143.8608  157.3875 H   0  0  0  0  0  0  0  0  0  0  0  0
  152.2592  144.8240  158.7429 H   0  0  0  0  0  0  0  0  0  0  0  0
  150.7582  143.9111  158.8745 H   0  0  0  0  0  0  0  0  0  0  0  0
  151.6684  144.6279  160.9241 H   0  0  0  0  0  0  0  0  0  0  0  0
  152.5350  144.0942  163.4552 H   0  0  0  0  0  0  0  0  0  0  0  0
  154.0052  141.7666  163.1318 H   0  0  0  0  0  0  0  0  0  0  0  0
  1  2  1  0  0  0  0
  1 19  1  0  0  0  0
  1 20  1  0  0  0  0
  1 21  1  0  0  0  0
  2  3  1  0  0  0  0
  2 12  1  0  0  0  0
  2 22  1  0  0  0  0
  3  4  1  0  0  0  0
  3 23  1  0  0  0  0
  4  5  1  0  0  0  0
  4 24  1  0  0  0  0
  4 25  1  0  0  0  0
  5  6  2  0  0  0  0
  5  7  1  0  0  0  0
  7 11  1  0  0  0  0
  7  8  1  0  0  0  0
  8  9  1  0  0  0  0
  8 26  1  0  0  0  0
  8 27  1  0  0  0  0
  9 10  1  0  0  0  0
  9 28  1  0  0  0  0
  9 29  1  0  0  0  0
 10 11  1  0  0  0  0
 10 30  1  0  0  0  0
 10 31  1  0  0  0  0
 11 32  1  0  0  0  0
 11 33  1  0  0  0  0
 12 13  1  0  0  0  0
 12 14  1  0  0  0  0
 12 34  1  0  0  0  0
 13 35  1  0  0  0  0
 13 36  1  0  0  0  0
 13 37  1  0  0  0  0
 14 18  1  0  0  0  0
 14 15  1  0  0  0  0
 15 16  2  0  0  0  0
 15 38  1  0  0  0  0
 16 17  1  0  0  0  0
 16 39  1  0  0  0  0
 17 18  2  0  0  0  0
 17 40  1  0  0  0  0
M  END
> <s_m_source_file>
AV-unprocessed.smi

> <i_m_source_file_index>
3308

> <i_lp_mmshare_version>
43012

> <i_f3d_flags>
0

> <s_epik_input>
bjFbY0hdW2NIXVtjSF1uMVtDQEBIXShbQ0gzXSlbQ0BIXShbQ0gzXSlbTkhdW0NIMl1DKD1PKU4yW0NIMl1bQ0gyXVtDSDJdW0NIMl0y

> <s_epik_cmdline>
J2VwaWtfcHl0aG9uJywgJy1waCcsICc3LjAnLCAnLXRuJywgJzgnLCAnLW1hJywgJzIwMCcsICctbWV0YWxfYmluZGluZycsICctaW1hZScsICc8aW5maWxlLm1hZT4nLCAnLW9tYWUnLCAnPG91dGZpbGUubWFlPic=

> <r_lp_tautomer_probability>
1

> <r_epik_Ionization_Penalty>
0.918676

> <r_epik_Ionization_Penalty_Charging>
0

> <r_epik_Ionization_Penalty_Neutral>
0.918676

> <r_epik_State_Penalty>
0.958258

> <r_epik_Charging_Adjusted_Penalty>
0.958258

> <i_epik_Tot_Q>
0

> <i_epik_Tot_abs_Q>
0

> <r_epik_Metal_State_Penalty>
0.956879

> <b_epik_Metal_Only>
0

> <s_lp_Force_Field>
OPLS_2005

> <r_lp_Energy>
36.0541

> <b_lp_Chiralities_Consistent>
1

> <s_lp_Variant>
AV-unprocessed.smi:3308-7

> <Gold.Version>
5.8.1

> <Gold.Id.Protein>
6NUR|6NUR_protein|mol2

> <Gold.PLP.Fitness>
45.9791

> <Gold.PLP.PLP>
-43.8081

> <Gold.PLP.part.hbond>
-1.0000

> <Gold.PLP.part.metal>
0.0000

> <Gold.PLP.part.buried>
-3.4003

> <Gold.PLP.part.nonpolar>
-38.6975

> <Gold.PLP.part.repulsive>
0.1115

> <Gold.PLP.ligand.clash>
0.0000

> <Gold.PLP.ligand.torsion>
0.4648

> <Gold.PLP.Chemscore.Hbond>
1.0000

> <Gold.PLP.Chemscore.CHOScore>
0.0000

> <Gold.PLP.Chemscore.Metal>
0.0000

> <Gold.Chemscore.Hbonds>
donor molecule, donor type, donor heavy atom, donor atom, acceptor molecule, acceptor atom, score
      P1  H  7989  7998       L1     6  1.00

> <Gold.PLP.Chemscore.Internal.Correction>
0.1006

> <Gold.Rescore>
     Score         DG    S(hbond)    S(metal)    S(lipo)     H(rot)  DE(clash)    DE(int)     intcor
     15.38     -16.23       0.96        0.00     102.08       1.72       0.05       0.80       ----

> <Gold.Chemscore.Fitness>
15.3834

> <Gold.Chemscore.DG>
-16.2284

> <Gold.Chemscore.ZeroCoef>
-5.4800

> <Gold.Chemscore.Hbond>
0.9607

> <Gold.Chemscore.Metal>
0.0000

> <Gold.Chemscore.Lipo>
102.0753

> <Gold.Chemscore.Internal_Hbond>
0.0000

> <Gold.Chemscore.DEClash>
0.0485

> <Gold.Chemscore.DEInternal>
0.7965

> <Gold.Chemscore.Rot>
1.7200

> <Gold.Chemscore.Internal.Correction>
   9.000000E+99

> <Gold.Chemscore.Hbonds>
donor molecule, donor type, donor heavy atom, donor atom, acceptor molecule, acceptor atom, score
      P1  H  7989  7998       L1     6  0.89

> <Gold.Chemscore.Hbond.Weighted>
-3.2087

> <Gold.Chemscore.Metal.Weighted>
-0.0000

> <Gold.Chemscore.Lipo.Weighted>
-11.9428

> <Gold.Chemscore.Internal_Hbond.Weighted>
0.0000

> <Gold.Chemscore.DEClash.Weighted>
0.0485

> <Gold.Chemscore.DEInternal.Weighted>
0.7965

> <Gold.Chemscore.Rot.Weighted>
4.4031

> <Gold.Chemscore.Internal.Correction.Weighted>
   9.000000E+99

> <Gold.Protein.RotatedTorsions>
[ 6907 6896 6895 6894 ] final   96.60 input  -60.11 | X-H torsion
[ 7974 7965 7964 7962 ] final  101.69 input  175.53 | X-H torsion
[ 8008 7997 7996 7995 ] final  -35.66 input   59.86 | X-H torsion
[ 10167 10162 10161 10158 ] final  102.86 input  -65.29 | X-H torsion
[ 10718 10713 10712 10709 ] final -134.64 input   66.30 | X-H torsion
[ 10763 10752 10751 10750 ] final -169.53 input  -60.55 | X-H torsion
[ 11005 11000 10999 10996 ] final  -29.48 input  -57.11 | X-H torsion

> <Gold.Protein.ActiveResidues>
 VAL166  LYS551  ARG553  GLY616  TRP617  ASP618  TYR619  PRO620  LYS621  CYS622 
 ASP623  PHE694  ASN695  SER759  ASP760  ASP761  ALA762  ILE779  LEU786  VAL792 
 PHE793  MET794  SER795  GLU796  ALA797  LYS798  CYS799  TRP800  GLU811  SER814 

> <Gold.Protein.RotatedAtoms>
  152.5433  134.0862  159.8256 H   0  0  0  0  0  0  0  0  0  0  0  0  # atno 6907 bound_to 6896
  151.0957  133.5274  159.2620 H   0  0  0  0  0  0  0  0  0  0  0  0  # atno 6908 bound_to 6896
  151.2049  135.0466  159.8941 H   0  0  0  0  0  0  0  0  0  0  0  0  # atno 6909 bound_to 6896
  145.3690  139.2402  143.3465 H   0  0  0  0  0  0  0  0  0  0  0  0  # atno 7974 bound_to 7965
  154.4090  140.1651  156.2248 H   0  0  0  0  0  0  0  0  0  0  0  0  # atno 8008 bound_to 7997
  155.9333  140.3413  155.6244 H   0  0  0  0  0  0  0  0  0  0  0  0  # atno 8009 bound_to 7997
  155.7079  140.0753  157.2374 H   0  0  0  0  0  0  0  0  0  0  0  0  # atno 8010 bound_to 7997
  139.7313  144.7035  151.0718 H   0  0  0  0  0  0  0  0  0  0  0  0  # atno 10167 bound_to 10162
  156.2576  130.7190  151.1112 H   0  0  0  0  0  0  0  0  0  0  0  0  # atno 10718 bound_to 10713
  154.6513  135.2912  154.9983 H   0  0  0  0  0  0  0  0  0  0  0  0  # atno 10763 bound_to 10752
  154.1075  135.6567  153.4883 H   0  0  0  0  0  0  0  0  0  0  0  0  # atno 10764 bound_to 10752
  153.0378  135.5257  154.7422 H   0  0  0  0  0  0  0  0  0  0  0  0  # atno 10765 bound_to 10752
  140.9300  133.7344  156.0922 H   0  0  0  0  0  0  0  0  0  0  0  0  # atno 11005 bound_to 11000
  146.2894  140.4338  142.8745 LP  0  0  0  0  0  0  0  0  0  0  0  0  # atno 17320 bound_to 7965
  144.8590  140.7112  143.6119 LP  0  0  0  0  0  0  0  0  0  0  0  0  # atno 17321 bound_to 7965
  140.7771  143.5040  150.9736 LP  0  0  0  0  0  0  0  0  0  0  0  0  # atno 17342 bound_to 10162
  139.8728  143.7171  152.3165 LP  0  0  0  0  0  0  0  0  0  0  0  0  # atno 17343 bound_to 10162
  157.7238  131.0664  150.6021 LP  0  0  0  0  0  0  0  0  0  0  0  0  # atno 17370 bound_to 10713
  156.6106  130.4379  149.5861 LP  0  0  0  0  0  0  0  0  0  0  0  0  # atno 17371 bound_to 10713
  140.7875  134.3655  157.5472 LP  0  0  0  0  0  0  0  0  0  0  0  0  # atno 17394 bound_to 11000
  139.8794  134.9120  156.3050 LP  0  0  0  0  0  0  0  0  0  0  0  0  # atno 17395 bound_to 11000

$$$$
