AV-unprocessed.smi:1958|AV-procd|sdf|7908|dock6
  -GOLD-   2272010 73D 1   1.00000     0.00000
 Structure written by MMmdl.
 48 49  0  0  0  0  0  0  0  0  2 V2000
  151.8399  143.9851  158.4161 C   0  0  0  0  0  0  0  0  0  0  0  0
  151.0479  142.8541  158.0985 O   0  0  0  0  0  0  0  0  0  0  0  0
  151.7567  141.6357  158.2473 C   0  0  0  0  0  0  0  0  0  0  0  0
  150.8799  140.4857  157.7297 C   0  0  0  0  0  0  0  0  0  0  0  0
  149.6975  140.9875  157.0225 N   0  0  0  0  0  0  0  0  0  0  0  0
  148.7300  141.5274  157.8534 N   0  0  0  0  0  0  0  0  0  0  0  0
  147.6347  142.0014  157.3532 C   0  0  0  0  0  0  0  0  0  0  0  0
  146.5692  142.5877  158.2132 C   0  0  0  0  0  0  0  0  0  0  0  0
  146.4295  142.2613  159.3930 O   0  0  0  0  0  0  0  0  0  0  0  0
  145.7785  143.4939  157.6132 N   0  0  0  0  0  0  0  0  0  0  0  0
  144.6854  144.2026  158.2683 C   0  0  0  0  0  0  0  0  0  0  0  0
  144.3286  145.5301  157.5477 C   0  0  2  0  0  0  0  0  0  0  0  0
  144.3356  145.3241  156.0141 C   0  0  0  0  0  0  0  0  0  0  0  0
  145.2259  146.6724  157.9262 N   0  3  0  0  0  0  0  0  0  0  0  0
  145.0072  147.8802  157.0831 C   0  0  0  0  0  0  0  0  0  0  0  0
  145.9902  149.0038  157.4506 C   0  0  0  0  0  0  0  0  0  0  0  0
  145.8440  149.3294  158.8242 O   0  0  0  0  0  0  0  0  0  0  0  0
  146.1586  148.2222  159.6542 C   0  0  0  0  0  0  0  0  0  0  0  0
  145.1941  147.0589  159.3649 C   0  0  0  0  0  0  0  0  0  0  0  0
  147.3993  141.9773  155.9196 C   0  0  0  0  0  0  0  0  0  0  0  0
  148.3492  141.4408  155.1226 C   0  0  0  0  0  0  0  0  0  0  0  0
  149.5943  140.8921  155.6625 C   0  0  0  0  0  0  0  0  0  0  0  0
  150.4678  140.3864  154.9586 O   0  0  0  0  0  0  0  0  0  0  0  0
  151.2505  144.8931  158.2888 H   0  0  0  0  0  0  0  0  0  0  0  0
  152.7093  144.0541  157.7610 H   0  0  0  0  0  0  0  0  0  0  0  0
  152.1826  143.9487  159.4510 H   0  0  0  0  0  0  0  0  0  0  0  0
  152.6943  141.6799  157.6909 H   0  0  0  0  0  0  0  0  0  0  0  0
  152.0035  141.4754  159.2982 H   0  0  0  0  0  0  0  0  0  0  0  0
  151.4694  139.8532  157.0635 H   0  0  0  0  0  0  0  0  0  0  0  0
  150.5848  139.8383  158.5574 H   0  0  0  0  0  0  0  0  0  0  0  0
  145.9534  143.7077  156.6415 H   0  0  0  0  0  0  0  0  0  0  0  0
  143.8379  143.5166  158.2695 H   0  0  0  0  0  0  0  0  0  0  0  0
  144.9499  144.4013  159.3086 H   0  0  0  0  0  0  0  0  0  0  0  0
  143.3144  145.7942  157.8520 H   0  0  0  0  0  0  0  0  0  0  0  0
  143.6887  144.5021  155.7084 H   0  0  0  0  0  0  0  0  0  0  0  0
  145.3400  145.0999  155.6535 H   0  0  0  0  0  0  0  0  0  0  0  0
  143.9751  146.1952  155.4703 H   0  0  0  0  0  0  0  0  0  0  0  0
  145.1350  147.6530  156.0267 H   0  0  0  0  0  0  0  0  0  0  0  0
  143.9824  148.2325  157.2099 H   0  0  0  0  0  0  0  0  0  0  0  0
  147.0194  148.7109  157.2365 H   0  0  0  0  0  0  0  0  0  0  0  0
  145.7826  149.8930  156.8551 H   0  0  0  0  0  0  0  0  0  0  0  0
  147.1947  147.9170  159.4983 H   0  0  0  0  0  0  0  0  0  0  0  0
  146.0729  148.5290  160.6968 H   0  0  0  0  0  0  0  0  0  0  0  0
  144.1773  147.3353  159.6483 H   0  0  0  0  0  0  0  0  0  0  0  0
  145.4984  146.2266  159.9986 H   0  0  0  0  0  0  0  0  0  0  0  0
  146.4895  142.3749  155.4937 H   0  0  0  0  0  0  0  0  0  0  0  0
  148.1872  141.4153  154.0550 H   0  0  0  0  0  0  0  0  0  0  0  0
  146.1698  146.3591  157.7491 H   0  0  0  0  0  0  0  0  0  0  0  0
  1  2  1  0  0  0  0
  1 24  1  0  0  0  0
  1 25  1  0  0  0  0
  1 26  1  0  0  0  0
  2  3  1  0  0  0  0
  3  4  1  0  0  0  0
  3 27  1  0  0  0  0
  3 28  1  0  0  0  0
  4  5  1  0  0  0  0
  4 29  1  0  0  0  0
  4 30  1  0  0  0  0
  5 22  1  0  0  0  0
  5  6  1  0  0  0  0
  6  7  2  0  0  0  0
  7  8  1  0  0  0  0
  7 20  1  0  0  0  0
  8  9  2  0  0  0  0
  8 10  1  0  0  0  0
 10 11  1  0  0  0  0
 10 31  1  0  0  0  0
 11 12  1  0  0  0  0
 11 32  1  0  0  0  0
 11 33  1  0  0  0  0
 12 13  1  0  0  0  0
 12 14  1  0  0  0  0
 12 34  1  0  0  0  0
 13 35  1  0  0  0  0
 13 36  1  0  0  0  0
 13 37  1  0  0  0  0
 14 19  1  0  0  0  0
 14 15  1  0  0  0  0
 14 48  1  0  0  0  0
 15 16  1  0  0  0  0
 15 38  1  0  0  0  0
 15 39  1  0  0  0  0
 16 17  1  0  0  0  0
 16 40  1  0  0  0  0
 16 41  1  0  0  0  0
 17 18  1  0  0  0  0
 18 19  1  0  0  0  0
 18 42  1  0  0  0  0
 18 43  1  0  0  0  0
 19 44  1  0  0  0  0
 19 45  1  0  0  0  0
 20 21  2  0  0  0  0
 20 46  1  0  0  0  0
 21 22  1  0  0  0  0
 21 47  1  0  0  0  0
 22 23  2  0  0  0  0
M  CHG  1  14   1
M  END
> <s_m_source_file>
AV-unprocessed.smi

> <i_m_source_file_index>
1958

> <i_lp_mmshare_version>
43012

> <i_f3d_flags>
0

> <s_epik_input>
W0NIM11PW0NIMl1bQ0gyXW4xbmMoW2NIXVtjSF1jMT1PKUMoPU8pW05IXVtDSDJdW0NASF0oW0NIM10pTjJbQ0gyXVtDSDJdT1tDSDJdW0NIMl0y

> <s_epik_cmdline>
J2VwaWtfcHl0aG9uJywgJy1waCcsICc3LjAnLCAnLXRuJywgJzgnLCAnLW1hJywgJzIwMCcsICctbWV0YWxfYmluZGluZycsICctaW1hZScsICc8aW5maWxlLm1hZT4nLCAnLW9tYWUnLCAnPG91dGZpbGUubWFlPic=

> <r_lp_tautomer_probability>
1

> <r_epik_Ionization_Penalty>
0.724355

> <r_epik_Ionization_Penalty_Charging>
0.724348

> <r_epik_Ionization_Penalty_Neutral>
6.31911e-06

> <r_epik_State_Penalty>
0.749058

> <r_epik_Charging_Adjusted_Penalty>
1.47341

> <i_epik_Tot_Q>
1

> <i_epik_Tot_abs_Q>
1

> <r_epik_Metal_State_Penalty>
0.750821

> <b_epik_Metal_Only>
0

> <s_lp_Force_Field>
OPLS_2005

> <r_lp_Energy>
41.4704

> <b_lp_Chiralities_Consistent>
1

> <s_lp_Variant>
AV-unprocessed.smi:1958-3

> <Gold.Version>
5.8.1

> <Gold.Id.Protein>
6NUR|6NUR_protein|mol2

> <Gold.PLP.Fitness>
48.5780

> <Gold.PLP.PLP>
-38.7741

> <Gold.PLP.part.hbond>
-3.2994

> <Gold.PLP.part.metal>
0.0000

> <Gold.PLP.part.buried>
-7.8329

> <Gold.PLP.part.nonpolar>
-28.2657

> <Gold.PLP.part.repulsive>
0.4254

> <Gold.PLP.ligand.clash>
0.0000

> <Gold.PLP.ligand.torsion>
1.2054

> <Gold.PLP.Chemscore.Hbond>
4.0000

> <Gold.PLP.Chemscore.CHOScore>
0.0000

> <Gold.PLP.Chemscore.Metal>
0.0000

> <Gold.Chemscore.Hbonds>
donor molecule, donor type, donor heavy atom, donor atom, acceptor molecule, acceptor atom, score
      L1  H    14    48       P1  8029  2.00
      P1  H  6934  6946       L1     9  1.00
      P1  H  7989  7998       L1    23  1.00

> <Gold.PLP.Chemscore.Internal.Correction>
0.2148

> <Gold.Rescore>
     Score         DG    S(hbond)    S(metal)    S(lipo)     H(rot)  DE(clash)    DE(int)     intcor
     15.63     -18.45       2.91        0.00      74.28       2.12       0.13       2.69       ----

> <Gold.Chemscore.Fitness>
15.6252

> <Gold.Chemscore.DG>
-18.4470

> <Gold.Chemscore.ZeroCoef>
-5.4800

> <Gold.Chemscore.Hbond>
2.9067

> <Gold.Chemscore.Metal>
0.0000

> <Gold.Chemscore.Lipo>
74.2818

> <Gold.Chemscore.Internal_Hbond>
0.0000

> <Gold.Chemscore.DEClash>
0.1337

> <Gold.Chemscore.DEInternal>
2.6882

> <Gold.Chemscore.Rot>
2.1221

> <Gold.Chemscore.Internal.Correction>
   9.000000E+99

> <Gold.Chemscore.Hbonds>
donor molecule, donor type, donor heavy atom, donor atom, acceptor molecule, acceptor atom, score
      L1  H    14    48       P1  8029  0.96
      P1  H  6934  6946       L1     9  0.94
      P1  H  7989  7998       L1    23  0.96

> <Gold.Chemscore.Hbond.Weighted>
-9.7085

> <Gold.Chemscore.Metal.Weighted>
-0.0000

> <Gold.Chemscore.Lipo.Weighted>
-8.6910

> <Gold.Chemscore.Internal_Hbond.Weighted>
0.0000

> <Gold.Chemscore.DEClash.Weighted>
0.1337

> <Gold.Chemscore.DEInternal.Weighted>
2.6882

> <Gold.Chemscore.Rot.Weighted>
5.4325

> <Gold.Chemscore.Internal.Correction.Weighted>
   9.000000E+99

> <Gold.Protein.RotatedTorsions>
[ 6907 6896 6895 6894 ] final  106.61 input  -60.11 | X-H torsion
[ 7974 7965 7964 7962 ] final   98.88 input  175.53 | X-H torsion
[ 8008 7997 7996 7995 ] final  -23.48 input   59.86 | X-H torsion
[ 10167 10162 10161 10158 ] final -137.14 input  -65.29 | X-H torsion
[ 10718 10713 10712 10709 ] final -165.74 input   66.30 | X-H torsion
[ 10763 10752 10751 10750 ] final  -37.67 input  -60.55 | X-H torsion
[ 11005 11000 10999 10996 ] final  -42.65 input  -57.11 | X-H torsion

> <Gold.Protein.ActiveResidues>
 VAL166  LYS551  ARG553  GLY616  TRP617  ASP618  TYR619  PRO620  LYS621  CYS622 
 ASP623  PHE694  ASN695  SER759  ASP760  ASP761  ALA762  ILE779  LEU786  VAL792 
 PHE793  MET794  SER795  GLU796  ALA797  LYS798  CYS799  TRP800  GLU811  SER814 

> <Gold.Protein.RotatedAtoms>
  152.5187  133.9356  159.7601 H   0  0  0  0  0  0  0  0  0  0  0  0  # atno 6907 bound_to 6896
  150.9697  133.6349  159.2747 H   0  0  0  0  0  0  0  0  0  0  0  0  # atno 6908 bound_to 6896
  151.3564  135.0901  159.9473 H   0  0  0  0  0  0  0  0  0  0  0  0  # atno 6909 bound_to 6896
  145.4062  139.2340  143.3273 H   0  0  0  0  0  0  0  0  0  0  0  0  # atno 7974 bound_to 7965
  154.4583  140.1979  156.0317 H   0  0  0  0  0  0  0  0  0  0  0  0  # atno 8008 bound_to 7997
  156.0790  140.3274  155.7641 H   0  0  0  0  0  0  0  0  0  0  0  0  # atno 8009 bound_to 7997
  155.5143  140.0564  157.2909 H   0  0  0  0  0  0  0  0  0  0  0  0  # atno 8010 bound_to 7997
  139.8608  143.7080  152.2650 H   0  0  0  0  0  0  0  0  0  0  0  0  # atno 10167 bound_to 10162
  156.6577  130.9033  151.3024 H   0  0  0  0  0  0  0  0  0  0  0  0  # atno 10718 bound_to 10713
  153.9001  135.6803  153.4756 H   0  0  0  0  0  0  0  0  0  0  0  0  # atno 10763 bound_to 10752
  153.1134  135.4772  154.9071 H   0  0  0  0  0  0  0  0  0  0  0  0  # atno 10764 bound_to 10752
  154.7579  135.3202  154.8388 H   0  0  0  0  0  0  0  0  0  0  0  0  # atno 10765 bound_to 10752
  141.0330  133.6812  156.2624 H   0  0  0  0  0  0  0  0  0  0  0  0  # atno 11005 bound_to 11000
  146.2727  140.4767  142.8808 LP  0  0  0  0  0  0  0  0  0  0  0  0  # atno 17320 bound_to 7965
  144.8340  140.6752  143.6272 LP  0  0  0  0  0  0  0  0  0  0  0  0  # atno 17321 bound_to 7965
  139.7376  144.7567  151.0703 LP  0  0  0  0  0  0  0  0  0  0  0  0  # atno 17342 bound_to 10162
  140.7775  143.5012  150.9769 LP  0  0  0  0  0  0  0  0  0  0  0  0  # atno 17343 bound_to 10162
  157.7120  130.9451  150.1122 LP  0  0  0  0  0  0  0  0  0  0  0  0  # atno 17370 bound_to 10713
  156.2035  130.3662  149.8759 LP  0  0  0  0  0  0  0  0  0  0  0  0  # atno 17371 bound_to 10713
  140.6373  134.5203  157.5566 LP  0  0  0  0  0  0  0  0  0  0  0  0  # atno 17394 bound_to 11000
  139.9221  134.8128  156.1180 LP  0  0  0  0  0  0  0  0  0  0  0  0  # atno 17395 bound_to 11000

$$$$
