AV-unprocessed.smi:2526|AV-procd|sdf|9940|dock1
  -GOLD-   2272013583D 1   1.00000     0.00000
 Structure written by MMmdl.
 28 29  0  0  0  0  0  0  0  0  1 V2000
  143.6692  132.3155  148.1621 C   0  0  0  0  0  0  0  0  0  0  0  0
  144.3372  132.6126  149.4110 N   0  0  0  0  0  0  0  0  0  0  0  0
  143.9642  133.5001  150.3963 C   0  0  0  0  0  0  0  0  0  0  0  0
  144.9081  133.4437  151.3860 C   0  0  0  0  0  0  0  0  0  0  0  0
  144.9886  134.2121  152.6912 C   0  0  2  0  0  0  0  0  0  0  0  0
  143.7618  134.0335  153.4730 N   0  0  0  0  0  0  0  0  0  0  0  0
  142.7220  134.8863  153.5416 C   0  0  0  0  0  0  0  0  0  0  0  0
  141.6882  134.5877  154.1350 O   0  0  0  0  0  0  0  0  0  0  0  0
  142.8496  136.2826  152.9080 C   0  0  0  0  0  0  0  0  0  0  0  0
  144.0384  136.4344  151.9422 C   0  0  0  0  0  0  0  0  0  0  0  0
  145.2797  135.7199  152.4909 C   0  0  2  0  0  0  0  0  0  0  0  0
  146.4326  135.9571  151.6407 N   0  0  0  0  0  0  0  0  0  0  0  0
  145.8260  132.4683  150.8982 C   0  0  0  0  0  0  0  0  0  0  0  0
  145.4834  131.9743  149.7200 N   0  0  0  0  0  0  0  0  0  0  0  0
  142.7772  132.9340  148.0588 H   0  0  0  0  0  0  0  0  0  0  0  0
  143.3768  131.2652  148.1401 H   0  0  0  0  0  0  0  0  0  0  0  0
  144.3399  132.5195  147.3269 H   0  0  0  0  0  0  0  0  0  0  0  0
  143.0686  134.0979  150.3113 H   0  0  0  0  0  0  0  0  0  0  0  0
  145.7947  133.7983  153.2982 H   0  0  0  0  0  0  0  0  0  0  0  0
  143.6581  133.1441  153.9398 H   0  0  0  0  0  0  0  0  0  0  0  0
  141.9201  136.5390  152.3991 H   0  0  0  0  0  0  0  0  0  0  0  0
  142.9610  136.9954  153.7255 H   0  0  0  0  0  0  0  0  0  0  0  0
  143.7716  136.0360  150.9622 H   0  0  0  0  0  0  0  0  0  0  0  0
  144.2483  137.4943  151.7932 H   0  0  0  0  0  0  0  0  0  0  0  0
  145.5146  136.1559  153.4629 H   0  0  0  0  0  0  0  0  0  0  0  0
  146.2580  136.7525  151.0432 H   0  0  0  0  0  0  0  0  0  0  0  0
  147.2336  136.1920  152.2094 H   0  0  0  0  0  0  0  0  0  0  0  0
  146.7305  132.1085  151.3661 H   0  0  0  0  0  0  0  0  0  0  0  0
  1  2  1  0  0  0  0
  1 15  1  0  0  0  0
  1 16  1  0  0  0  0
  1 17  1  0  0  0  0
  2 14  1  0  0  0  0
  2  3  1  0  0  0  0
  3  4  2  0  0  0  0
  3 18  1  0  0  0  0
  4  5  1  0  0  0  0
  4 13  1  0  0  0  0
  5 11  1  0  0  0  0
  5  6  1  0  0  0  0
  5 19  1  0  0  0  0
  6  7  1  0  0  0  0
  6 20  1  0  0  0  0
  7  8  2  0  0  0  0
  7  9  1  0  0  0  0
  9 10  1  0  0  0  0
  9 21  1  0  0  0  0
  9 22  1  0  0  0  0
 10 11  1  0  0  0  0
 10 23  1  0  0  0  0
 10 24  1  0  0  0  0
 11 12  1  0  0  0  0
 11 25  1  0  0  0  0
 12 26  1  0  0  0  0
 12 27  1  0  0  0  0
 13 14  2  0  0  0  0
 13 28  1  0  0  0  0
M  END
> <s_m_source_file>
AV-unprocessed.smi

> <i_m_source_file_index>
2526

> <i_lp_mmshare_version>
43012

> <i_f3d_flags>
0

> <s_epik_input>
W0NIM11uMVtjSF1jKFtjSF1uMSlbQ0BASF0yW05IXUMoPU8pW0NIMl1bQ0gyXVtDQEhdMltOSDJd

> <s_epik_cmdline>
J2VwaWtfcHl0aG9uJywgJy1waCcsICc3LjAnLCAnLXRuJywgJzgnLCAnLW1hJywgJzIwMCcsICctbWV0YWxfYmluZGluZycsICctaW1hZScsICc8aW5maWxlLm1hZT4nLCAnLW9tYWUnLCAnPG91dGZpbGUubWFlPic=

> <r_lp_tautomer_probability>
1

> <r_epik_Ionization_Penalty>
2.50279

> <r_epik_Ionization_Penalty_Charging>
0

> <r_epik_Ionization_Penalty_Neutral>
2.50279

> <r_epik_State_Penalty>
2.66754

> <r_epik_Charging_Adjusted_Penalty>
2.66754

> <i_epik_Tot_Q>
0

> <i_epik_Tot_abs_Q>
0

> <r_epik_Metal_State_Penalty>
2.66721

> <b_epik_Metal_Only>
0

> <s_lp_Force_Field>
OPLS_2005

> <r_lp_Energy>
9.07017

> <b_lp_Chiralities_Consistent>
1

> <s_lp_Variant>
AV-unprocessed.smi:2526-7

> <Gold.Version>
5.8.1

> <Gold.Id.Protein>
6NUR|6NUR_protein|mol2

> <Gold.PLP.Fitness>
35.1511

> <Gold.PLP.PLP>
-24.0084

> <Gold.PLP.part.hbond>
-2.7268

> <Gold.PLP.part.metal>
0.0000

> <Gold.PLP.part.buried>
-2.3121

> <Gold.PLP.part.nonpolar>
-19.7075

> <Gold.PLP.part.repulsive>
0.3029

> <Gold.PLP.ligand.clash>
0.0000

> <Gold.PLP.ligand.torsion>
0.0975

> <Gold.PLP.Chemscore.Hbond>
2.5510

> <Gold.PLP.Chemscore.CHOScore>
1.2223

> <Gold.PLP.Chemscore.Metal>
0.0000

> <Gold.Chemscore.Hbonds>
donor molecule, donor type, donor heavy atom, donor atom, acceptor molecule, acceptor atom, score
      L1  H     6    20       P1 10957  1.00
      L1  H    12    27       P1  7948  0.61
      P1  H 11000 11005       L1     8  1.00
      L1  C     3    18       P1 10186  1.00
      L1  C    13    28       P1 10747  0.34

> <Gold.PLP.Chemscore.Internal.Correction>
0.0178

> <Gold.Rescore>
     Score         DG    S(hbond)    S(metal)    S(lipo)     H(rot)  DE(clash)    DE(int)     intcor
     17.52     -18.27       2.70        0.00      54.13       1.00       0.58       0.17       ----

> <Gold.Chemscore.Fitness>
17.5160

> <Gold.Chemscore.DG>
-18.2692

> <Gold.Chemscore.ZeroCoef>
-5.4800

> <Gold.Chemscore.Hbond>
2.6995

> <Gold.Chemscore.Metal>
0.0000

> <Gold.Chemscore.Lipo>
54.1264

> <Gold.Chemscore.Internal_Hbond>
0.0000

> <Gold.Chemscore.DEClash>
0.5845

> <Gold.Chemscore.DEInternal>
0.1688

> <Gold.Chemscore.Rot>
1.0000

> <Gold.Chemscore.Internal.Correction>
   9.000000E+99

> <Gold.Chemscore.Hbonds>
donor molecule, donor type, donor heavy atom, donor atom, acceptor molecule, acceptor atom, score
      L1  H     6    20       P1 10957  0.97
      L1  H    12    27       P1  7948  0.62
      P1  H 11000 11005       L1     8  0.91

> <Gold.Chemscore.Hbond.Weighted>
-9.0165

> <Gold.Chemscore.Metal.Weighted>
-0.0000

> <Gold.Chemscore.Lipo.Weighted>
-6.3328

> <Gold.Chemscore.Internal_Hbond.Weighted>
0.0000

> <Gold.Chemscore.DEClash.Weighted>
0.5845

> <Gold.Chemscore.DEInternal.Weighted>
0.1688

> <Gold.Chemscore.Rot.Weighted>
2.5600

> <Gold.Chemscore.Internal.Correction.Weighted>
   9.000000E+99

> <Gold.Protein.RotatedTorsions>
[ 6907 6896 6895 6894 ] final -129.10 input  -60.11 | X-H torsion
[ 7974 7965 7964 7962 ] final -114.41 input  175.53 | X-H torsion
[ 8008 7997 7996 7995 ] final -135.93 input   59.86 | X-H torsion
[ 10167 10162 10161 10158 ] final  110.32 input  -65.29 | X-H torsion
[ 10718 10713 10712 10709 ] final  -18.69 input   66.30 | X-H torsion
[ 10763 10752 10751 10750 ] final  -24.32 input  -60.55 | X-H torsion
[ 11005 11000 10999 10996 ] final    9.33 input  -57.11 | X-H torsion

> <Gold.Protein.ActiveResidues>
 VAL166  LYS551  ARG553  GLY616  TRP617  ASP618  TYR619  PRO620  LYS621  CYS622 
 ASP623  PHE694  ASN695  SER759  ASP760  ASP761  ALA762  ILE779  LEU786  VAL792 
 PHE793  MET794  SER795  GLU796  ALA797  LYS798  CYS799  TRP800  GLU811  SER814 

> <Gold.Protein.RotatedAtoms>
  150.9251  133.6834  159.2823 H   0  0  0  0  0  0  0  0  0  0  0  0  # atno 6907 bound_to 6896
  151.4275  135.1004  159.9642 H   0  0  0  0  0  0  0  0  0  0  0  0  # atno 6908 bound_to 6896
  152.4999  133.8689  159.7343 H   0  0  0  0  0  0  0  0  0  0  0  0  # atno 6909 bound_to 6896
  145.1205  140.8666  143.3817 H   0  0  0  0  0  0  0  0  0  0  0  0  # atno 7974 bound_to 7965
  155.3868  140.0497  157.3042 H   0  0  0  0  0  0  0  0  0  0  0  0  # atno 8008 bound_to 7997
  154.5055  140.2173  155.9220 H   0  0  0  0  0  0  0  0  0  0  0  0  # atno 8009 bound_to 7997
  156.1521  140.3134  155.8670 H   0  0  0  0  0  0  0  0  0  0  0  0  # atno 8010 bound_to 7997
  139.6697  144.7126  151.1710 H   0  0  0  0  0  0  0  0  0  0  0  0  # atno 10167 bound_to 10162
  156.5561  130.4714  149.6429 H   0  0  0  0  0  0  0  0  0  0  0  0  # atno 10718 bound_to 10713
  153.6819  135.6966  153.5115 H   0  0  0  0  0  0  0  0  0  0  0  0  # atno 10763 bound_to 10752
  153.2478  135.4285  155.0765 H   0  0  0  0  0  0  0  0  0  0  0  0  # atno 10764 bound_to 10752
  154.8397  135.3524  154.6362 H   0  0  0  0  0  0  0  0  0  0  0  0  # atno 10765 bound_to 10752
  140.5269  134.0504  155.7861 H   0  0  0  0  0  0  0  0  0  0  0  0  # atno 11005 bound_to 11000
  145.0746  139.3006  143.5815 LP  0  0  0  0  0  0  0  0  0  0  0  0  # atno 17320 bound_to 7965
  146.3521  140.0232  142.8657 LP  0  0  0  0  0  0  0  0  0  0  0  0  # atno 17321 bound_to 7965
  140.7613  143.5863  150.8842 LP  0  0  0  0  0  0  0  0  0  0  0  0  # atno 17342 bound_to 10162
  139.9527  143.6253  152.3024 LP  0  0  0  0  0  0  0  0  0  0  0  0  # atno 17343 bound_to 10162
  156.2841  130.7087  151.1919 LP  0  0  0  0  0  0  0  0  0  0  0  0  # atno 17370 bound_to 10713
  157.7378  131.0548  150.5334 LP  0  0  0  0  0  0  0  0  0  0  0  0  # atno 17371 bound_to 10713
  141.1303  133.9314  157.2550 LP  0  0  0  0  0  0  0  0  0  0  0  0  # atno 17394 bound_to 11000
  139.9575  135.0162  156.9169 LP  0  0  0  0  0  0  0  0  0  0  0  0  # atno 17395 bound_to 11000

$$$$
