AV-unprocessed.smi:35|AV-procd|sdf|247|dock4
  -GOLD-   2262016 03D 1   1.00000     0.00000
 Structure written by MMmdl.
 29 30  0  0  0  0  0  0  0  0  1 V2000
  140.5311  134.9179  153.8044 O   0  0  0  0  0  0  0  0  0  0  0  0
  141.6502  135.3088  153.4798 C   0  0  0  0  0  0  0  0  0  0  0  0
  142.7335  134.4262  153.4788 N   0  0  0  0  0  0  0  0  0  0  0  0
  144.0440  134.7520  153.1251 C   0  0  0  0  0  0  0  0  0  0  0  0
  144.9251  133.8947  153.1766 O   0  0  0  0  0  0  0  0  0  0  0  0
  144.2968  136.0814  152.7159 N   0  0  0  0  0  0  0  0  0  0  0  0
  145.7214  136.4558  152.3428 C   0  0  2  0  0  0  0  0  0  0  0  0
  146.4959  136.5608  153.5013 O   0  0  0  0  0  0  0  0  0  0  0  0
  146.5732  137.9247  153.9038 C   0  0  1  0  0  0  0  0  0  0  0  0
  147.7138  138.1480  154.9116 C   0  0  0  0  0  0  0  0  0  0  0  0
  148.9256  137.6520  154.3837 O   0  0  0  0  0  0  0  0  0  0  0  0
  146.7229  138.6374  152.5568 C   0  0  1  0  0  0  0  0  0  0  0  0
  148.0686  138.5788  152.1107 O   0  0  0  0  0  0  0  0  0  0  0  0
  145.7690  137.8445  151.6633 C   0  0  1  0  0  0  0  0  0  0  0  0
  146.1970  137.8009  150.3142 O   0  0  0  0  0  0  0  0  0  0  0  0
  143.2526  137.0013  152.7286 C   0  0  0  0  0  0  0  0  0  0  0  0
  141.9875  136.6697  153.0791 C   0  0  0  0  0  0  0  0  0  0  0  0
  140.6438  138.1247  153.0254 Br  0  0  0  0  0  0  0  0  0  0  0  0
  142.5533  133.4741  153.7622 H   0  0  0  0  0  0  0  0  0  0  0  0
  146.0884  135.6303  151.7295 H   0  0  0  0  0  0  0  0  0  0  0  0
  145.6223  138.2302  154.3448 H   0  0  0  0  0  0  0  0  0  0  0  0
  147.8179  139.2021  155.1705 H   0  0  0  0  0  0  0  0  0  0  0  0
  147.5121  137.6030  155.8343 H   0  0  0  0  0  0  0  0  0  0  0  0
  148.7789  137.3961  153.4858 H   0  0  0  0  0  0  0  0  0  0  0  0
  146.4327  139.6868  152.6210 H   0  0  0  0  0  0  0  0  0  0  0  0
  148.2497  137.6939  151.8314 H   0  0  0  0  0  0  0  0  0  0  0  0
  144.7802  138.3040  151.7075 H   0  0  0  0  0  0  0  0  0  0  0  0
  145.4905  138.1114  149.7679 H   0  0  0  0  0  0  0  0  0  0  0  0
  143.4274  138.0309  152.4562 H   0  0  0  0  0  0  0  0  0  0  0  0
  1  2  2  0  0  0  0
  2 17  1  0  0  0  0
  2  3  1  0  0  0  0
  3 19  1  0  0  0  0
  3  4  1  0  0  0  0
  4  5  2  0  0  0  0
  4  6  1  0  0  0  0
  6  7  1  0  0  0  0
  6 16  1  0  0  0  0
  7 14  1  0  0  0  0
  7  8  1  0  0  0  0
  7 20  1  0  0  0  0
  8  9  1  0  0  0  0
  9 10  1  0  0  0  0
  9 12  1  0  0  0  0
  9 21  1  0  0  0  0
 10 11  1  0  0  0  0
 10 22  1  0  0  0  0
 10 23  1  0  0  0  0
 11 24  1  0  0  0  0
 12 13  1  0  0  0  0
 12 14  1  0  0  0  0
 12 25  1  0  0  0  0
 13 26  1  0  0  0  0
 14 15  1  0  0  0  0
 14 27  1  0  0  0  0
 15 28  1  0  0  0  0
 16 17  2  0  0  0  0
 16 29  1  0  0  0  0
 17 18  1  0  0  0  0
M  END
> <s_m_source_file>
AV-unprocessed.smi

> <i_m_source_file_index>
35

> <i_lp_mmshare_version>
43012

> <i_f3d_flags>
0

> <s_epik_input>
Tz1jMVtuSF1jKD1PKW4oW2NIXWMxQnIpW0NAQEhdMk9bQ0BASF0oW0NIMl1bT0hdKVtDQEBIXShbT0hdKVtDQEhdMltPSF0=

> <s_epik_cmdline>
J2VwaWtfcHl0aG9uJywgJy1waCcsICc3LjAnLCAnLXRuJywgJzgnLCAnLW1hJywgJzIwMCcsICctbWV0YWxfYmluZGluZycsICctaW1hZScsICc8aW5maWxlLm1hZT4nLCAnLW9tYWUnLCAnPG91dGZpbGUubWFlPic=

> <r_lp_tautomer_probability>
0.999537

> <r_epik_Ionization_Penalty>
0.10812

> <r_epik_Ionization_Penalty_Charging>
0.108119

> <r_epik_Ionization_Penalty_Neutral>
4.93006e-07

> <r_epik_State_Penalty>
0.0979238

> <r_epik_Charging_Adjusted_Penalty>
0.206043

> <i_epik_Tot_Q>
0

> <i_epik_Tot_abs_Q>
0

> <r_epik_Metal_State_Penalty>
3.07911

> <b_epik_Metal_Only>
0

> <s_epik_Chemistry_Notes>
This compound contains an acetal/aminal-like group ( X-CH(R)-Y where X, Y are N, S, or O) that may be acid/base labile, releasing an aldehyde.

> <s_lp_Force_Field>
OPLS_2005

> <r_lp_Energy>
33.4515

> <b_lp_Chiralities_Consistent>
1

> <s_lp_Variant>
AV-unprocessed.smi:35-1

> <Gold.Version>
5.8.1

> <Gold.Id.Protein>
6NUR|6NUR_protein|mol2

> <Gold.PLP.Fitness>
47.4873

> <Gold.PLP.PLP>
-26.8002

> <Gold.PLP.part.hbond>
-7.6120

> <Gold.PLP.part.metal>
0.0000

> <Gold.PLP.part.buried>
-2.4554

> <Gold.PLP.part.nonpolar>
-17.4710

> <Gold.PLP.part.repulsive>
1.3355

> <Gold.PLP.ligand.clash>
0.0000

> <Gold.PLP.ligand.torsion>
0.3482

> <Gold.PLP.Chemscore.Hbond>
5.6713

> <Gold.PLP.Chemscore.CHOScore>
1.4488

> <Gold.PLP.Chemscore.Metal>
0.0000

> <Gold.Chemscore.Hbonds>
donor molecule, donor type, donor heavy atom, donor atom, acceptor molecule, acceptor atom, score
      L1  H     3    19       P1 10957  1.00
      L1  H    11    24       P1  7948  1.00
      L1  H    13    26       P1  7948  1.00
      L1  H    15    28       P1 10171  0.90
      P1  H  7954  7966       L1    15  0.78
      P1  H 11000 11005       L1     1  1.00
      L1  C    16    29       P1 10171  0.40
      L1  C    16    29       P1 10175  1.00

> <Gold.PLP.Chemscore.Internal.Correction>
0.0234

> <Gold.Rescore>
     Score         DG    S(hbond)    S(metal)    S(lipo)     H(rot)  DE(clash)    DE(int)     intcor
     17.84     -18.59       5.63        0.00      31.66       3.67       0.41       0.35       ----

> <Gold.Chemscore.Fitness>
17.8410

> <Gold.Chemscore.DG>
-18.5934

> <Gold.Chemscore.ZeroCoef>
-5.4800

> <Gold.Chemscore.Hbond>
5.6302

> <Gold.Chemscore.Metal>
0.0000

> <Gold.Chemscore.Lipo>
31.6593

> <Gold.Chemscore.Internal_Hbond>
0.0000

> <Gold.Chemscore.DEClash>
0.4060

> <Gold.Chemscore.DEInternal>
0.3464

> <Gold.Chemscore.Rot>
3.6701

> <Gold.Chemscore.Internal.Correction>
   9.000000E+99

> <Gold.Chemscore.Hbonds>
donor molecule, donor type, donor heavy atom, donor atom, acceptor molecule, acceptor atom, score
      L1  H     3    19       P1 10957  0.97
      L1  H    11    24       P1  7948  0.95
      L1  H    13    26       P1  7948  0.97
      L1  H    15    28       P1 10171  0.86
      P1  H  7954  7966       L1    15  0.73
      P1  H 11000 11005       L1     1  0.89

> <Gold.Chemscore.Hbond.Weighted>
-18.8048

> <Gold.Chemscore.Metal.Weighted>
-0.0000

> <Gold.Chemscore.Lipo.Weighted>
-3.7041

> <Gold.Chemscore.Internal_Hbond.Weighted>
0.0000

> <Gold.Chemscore.DEClash.Weighted>
0.4060

> <Gold.Chemscore.DEInternal.Weighted>
0.3464

> <Gold.Chemscore.Rot.Weighted>
9.3955

> <Gold.Chemscore.Internal.Correction.Weighted>
   9.000000E+99

> <Gold.Protein.RotatedTorsions>
[ 6907 6896 6895 6894 ] final  -25.80 input  -60.11 | X-H torsion
[ 7974 7965 7964 7962 ] final  169.40 input  175.53 | X-H torsion
[ 8008 7997 7996 7995 ] final  112.34 input   59.86 | X-H torsion
[ 10167 10162 10161 10158 ] final  -87.89 input  -65.29 | X-H torsion
[ 10718 10713 10712 10709 ] final -101.71 input   66.30 | X-H torsion
[ 10763 10752 10751 10750 ] final  112.29 input  -60.55 | X-H torsion
[ 11005 11000 10999 10996 ] final   33.86 input  -57.11 | X-H torsion

> <Gold.Protein.ActiveResidues>
 VAL166  LYS551  ARG553  GLY616  TRP617  ASP618  TYR619  PRO620  LYS621  CYS622 
 ASP623  PHE694  ASN695  SER759  ASP760  ASP761  ALA762  ILE779  LEU786  VAL792 
 PHE793  MET794  SER795  GLU796  ALA797  LYS798  CYS799  TRP800  GLU811  SER814 

> <Gold.Protein.RotatedAtoms>
  151.1701  135.0314  159.8747 H   0  0  0  0  0  0  0  0  0  0  0  0  # atno 6907 bound_to 6896
  152.5449  134.1180  159.8397 H   0  0  0  0  0  0  0  0  0  0  0  0  # atno 6908 bound_to 6896
  151.1285  133.5007  159.2632 H   0  0  0  0  0  0  0  0  0  0  0  0  # atno 6909 bound_to 6896
  144.7356  139.9049  143.6411 H   0  0  0  0  0  0  0  0  0  0  0  0  # atno 7974 bound_to 7965
  156.2186  140.3001  155.9897 H   0  0  0  0  0  0  0  0  0  0  0  0  # atno 8008 bound_to 7997
  155.2542  140.0427  157.3007 H   0  0  0  0  0  0  0  0  0  0  0  0  # atno 8009 bound_to 7997
  154.5805  140.2374  155.8069 H   0  0  0  0  0  0  0  0  0  0  0  0  # atno 8010 bound_to 7997
  140.3801  143.2753  151.9395 H   0  0  0  0  0  0  0  0  0  0  0  0  # atno 10167 bound_to 10162
  156.0204  130.5386  150.7002 H   0  0  0  0  0  0  0  0  0  0  0  0  # atno 10718 bound_to 10713
  153.4758  135.3690  155.2415 H   0  0  0  0  0  0  0  0  0  0  0  0  # atno 10763 bound_to 10752
  154.8756  135.3942  154.3759 H   0  0  0  0  0  0  0  0  0  0  0  0  # atno 10764 bound_to 10752
  153.4354  135.7083  153.6268 H   0  0  0  0  0  0  0  0  0  0  0  0  # atno 10765 bound_to 10752
  140.2588  134.3217  155.7865 H   0  0  0  0  0  0  0  0  0  0  0  0  # atno 11005 bound_to 11000
  146.1044  139.4043  143.0326 LP  0  0  0  0  0  0  0  0  0  0  0  0  # atno 17320 bound_to 7965
  145.7532  140.9964  143.1239 LP  0  0  0  0  0  0  0  0  0  0  0  0  # atno 17321 bound_to 7965
  139.4796  144.5827  151.7906 LP  0  0  0  0  0  0  0  0  0  0  0  0  # atno 17342 bound_to 10162
  140.4946  144.1259  150.5957 LP  0  0  0  0  0  0  0  0  0  0  0  0  # atno 17343 bound_to 10162
  157.4664  131.0888  151.0690 LP  0  0  0  0  0  0  0  0  0  0  0  0  # atno 17370 bound_to 10713
  157.1163  130.6043  149.5494 LP  0  0  0  0  0  0  0  0  0  0  0  0  # atno 17371 bound_to 10713
  141.2193  133.7397  156.9154 LP  0  0  0  0  0  0  0  0  0  0  0  0  # atno 17394 bound_to 11000
  140.1485  134.9246  157.2561 LP  0  0  0  0  0  0  0  0  0  0  0  0  # atno 17395 bound_to 11000

$$$$
