#       Name:                AV-unprocessed.smi:196
#       Creating user name   scv26
#       Creation time:       Thu Mar 26 19:39:00 2020


#       File generated by GOLD software.
#

@<TRIPOS>MOLECULE
AV-unprocessed.smi:196
    57    60     1
SMALL
NO_CHARGES


@<TRIPOS>ATOM
      1 ****        -1.6472  -1.2078  -5.5076 C.3            1 S1                 0.0000
      2 ****        -2.4252  -1.3081  -4.1873 C.3            1 S1                 0.0000
      3 ****        -2.4677  -2.6563  -3.7265 O.3            1 S1                 0.0000
      4 ****        -2.4485  -2.6907  -2.3020 C.3            1 S1                 0.0000
      5 ****        -2.5507  -1.2361  -1.8521 C.3            1 S1                 0.0000
      6 ****        -1.8873  -0.4857  -3.0006 C.3            1 S1                 0.0000
      7 ****        -2.3970   0.8343  -3.0419 O.3            1 S1                 0.0000
      8 ****        -0.3374  -0.4402  -2.9139 C.3            1 S1                 0.0000
      9 ****         0.1679   0.1488  -1.6838 N.pl3          1 S1                 0.0000
     10 ****         0.3204   1.4897  -1.4110 C.2            1 S1                 0.0000
     11 ****         0.7979   1.7664  -0.2282 N.2            1 S1                 0.0000
     12 ****         0.9966   0.5219   0.3560 C.ar           1 S1                 0.0000
     13 ****         1.4845   0.0874   1.6173 C.ar           1 S1                 0.0000
     14 ****         1.8543   0.9574   2.5886 N.3            1 S1                 0.0000
     15 ****         3.1063   0.6589   3.2811 C.3            1 S1                 0.0000
     16 ****         2.7016   0.2275   4.6847 C.3            1 S1                 0.0000
     17 ****         3.6767   0.3968   5.5772 F              1 S1                 0.0000
     18 ****         1.4985   1.1193   4.9538 C.3            1 S1                 0.0000
     19 ****         0.7990   1.2147   3.5835 C.3            1 S1                 0.0000
     20 ****         0.0871   2.5683   3.4095 C.2            1 S1                 0.0000
     21 ****         0.5737   3.4441   2.5246 N.am           1 S1                 0.0000
     22 ****        -0.9126   2.8188   4.0786 O.2            1 S1                 0.0000
     23 ****         1.5387  -1.2519   1.8478 N.ar           1 S1                 0.0000
     24 ****         1.1497  -2.1110   0.9010 C.ar           1 S1                 0.0000
     25 ****         0.6766  -1.8497  -0.3192 N.ar           1 S1                 0.0000
     26 ****         0.6144  -0.5067  -0.5497 C.ar           1 S1                 0.0000
     27 ****         2.4116  -0.8239   4.6976 H              1 S1                 0.0000
     28 ****         0.0380   0.4324   3.5322 H              1 S1                 0.0000
     29 ****        -1.5864  -0.1740  -5.8480 H              1 S1                 0.0000
     30 ****        -2.1412  -1.7852  -6.2892 H              1 S1                 0.0000
     31 ****        -0.6324  -1.5935  -5.4107 H              1 S1                 0.0000
     32 ****        -3.4615  -1.0194  -4.3746 H              1 S1                 0.0000
     33 ****        -3.2602  -3.3027  -1.9082 H              1 S1                 0.0000
     34 ****        -1.5053  -3.1301  -1.9753 H              1 S1                 0.0000
     35 ****        -3.6058  -0.9640  -1.7847 H              1 S1                 0.0000
     36 ****        -2.1110  -1.0573  -0.8717 H              1 S1                 0.0000
     37 ****        -2.1677   1.2686  -2.2347 H              1 S1                 0.0000
     38 ****         0.0765  -1.4453  -3.0024 H              1 S1                 0.0000
     39 ****         0.0731   0.1298  -3.7485 H              1 S1                 0.0000
     40 ****         0.0616   2.2614  -2.1217 H              1 S1                 0.0000
     41 ****         3.7254  -0.0903   2.7847 H              1 S1                 0.0000
     42 ****         3.6907   1.5790   3.3212 H              1 S1                 0.0000
     43 ****         0.8474   0.7159   5.7300 H              1 S1                 0.0000
     44 ****         1.8419   2.1011   5.2864 H              1 S1                 0.0000
     45 ****         0.1221   4.3393   2.4030 H              1 S1                 0.0000
     46 ****         1.3947   3.2099   1.9857 H              1 S1                 0.0000
     47 ****         1.2250  -3.1570   1.1595 H              1 S1                 0.0000
     48 ****        -1.6737  -3.1512  -4.0796 LP             1 S1                 0.0000
     49 ****        -3.3054  -3.0917  -4.0561 LP             1 S1                 0.0000
     50 ****        -3.3918   0.8091  -3.1409 LP             1 S1                 0.0000
     51 ****        -1.9974   1.3264  -3.8153 LP             1 S1                 0.0000
     52 ****         0.9790   2.6671   0.1666 LP             1 S1                 0.0000
     53 ****         2.0181   1.7867   2.0543 LP             1 S1                 0.0000
     54 ****        -1.2590   2.1451   4.7314 LP             1 S1                 0.0000
     55 ****        -1.3797   3.6963   3.9703 LP             1 S1                 0.0000
     56 ****         1.8701  -1.5942   2.7270 LP             1 S1                 0.0000
     57 ****         0.4028  -2.5487  -0.9798 LP             1 S1                 0.0000
@<TRIPOS>BOND
    1    1    2 1     
    2    1   29 1     
    3    1   30 1     
    4    1   31 1     
    5    2    6 1     
    6    2    3 1     
    7    2   32 1     
    8    3    4 1     
    9    4    5 1     
   10    4   33 1     
   11    4   34 1     
   12    5    6 1     
   13    5   35 1     
   14    5   36 1     
   15    6    7 1     
   16    6    8 1     
   17    7   37 1     
   18    8    9 1     
   19    8   38 1     
   20    8   39 1     
   21    9   26 1     
   22    9   10 1     
   23   10   11 2     
   24   10   40 1     
   25   11   12 1     
   26   12   26 ar    
   27   12   13 ar    
   28   13   14 1     
   29   13   23 ar    
   30   14   19 1     
   31   14   15 1     
   32   15   16 1     
   33   15   41 1     
   34   15   42 1     
   35   16   27 1     
   36   16   17 1     
   37   16   18 1     
   38   18   19 1     
   39   18   43 1     
   40   18   44 1     
   41   19   28 1     
   42   19   20 1     
   43   20   21 am    
   44   20   22 2     
   45   21   45 1     
   46   21   46 1     
   47   23   24 ar    
   48   24   25 ar    
   49   24   47 1     
   50   25   26 ar    
   51    3   48 1     
   52    3   49 1     
   53    7   50 1     
   54    7   51 1     
   55   11   52 1     
   56   14   53 1     
   57   22   54 1     
   58   22   55 1     
   59   23   56 1     
   60   25   57 1     
@<TRIPOS>SUBSTRUCTURE
      1 S1             1
@<TRIPOS>SET
LONE_PAIRS      STATIC     ATOMS    <user>   **** ""
10 48 49 50 51 52 53 54 55 56 57
DONOR_HYDROGENS      STATIC     ATOMS    <user>   **** ""
3 37 45 46
ATOM$BLUE        STATIC     ATOMS    COLORGROUP SYSTEM
10 48 49 50 51 52 53 54 55 56 57
ATOM$RED        STATIC     ATOMS    COLORGROUP SYSTEM
3 37 45 46
