AV-unprocessed.smi:922|AV-procd|sdf|4173|dock4
  -GOLD-   22720 2 83D 1   1.00000     0.00000
 Structure written by MMmdl.
 32 33  0  0  0  0  0  0  0  0  2 V2000
  148.1766  144.2855  159.7912 C   0  0  0  0  0  0  0  0  0  0  0  0
  149.3829  143.7741  158.9976 C   0  0  2  0  0  0  0  0  0  0  0  0
  149.2132  142.3011  158.5815 C   0  0  0  0  0  0  0  0  0  0  0  0
  150.4234  141.8146  157.9327 N   0  0  0  0  0  0  0  0  0  0  0  0
  150.4723  141.1885  156.6861 C   0  0  0  0  0  0  0  0  0  0  0  0
  149.7122  141.7685  155.5511 C   0  0  0  0  0  0  0  0  0  0  0  0
  149.7103  141.2539  154.3862 N   0  0  0  0  0  0  0  0  0  0  0  0
  150.4685  140.0575  154.1023 N   0  5  0  0  0  0  0  0  0  0  0  0
  151.1887  139.4508  155.0931 C   0  0  0  0  0  0  0  0  0  0  0  0
  151.8376  138.4256  154.8906 O   0  0  0  0  0  0  0  0  0  0  0  0
  151.1802  140.0510  156.4341 C   0  0  0  0  0  0  0  0  0  0  0  0
  152.0570  139.2185  157.6771 Cl  0  0  0  0  0  0  0  0  0  0  0  0
  151.5782  141.9546  158.8117 C   0  0  0  0  0  0  0  0  0  0  0  0
  151.7662  143.4244  159.2519 C   0  0  0  0  0  0  0  0  0  0  0  0
  152.8017  143.4969  160.3846 C   0  0  0  0  0  0  0  0  0  0  0  0
  152.2259  144.3242  158.0845 C   0  0  0  0  0  0  0  0  0  0  0  0
  150.5420  143.9033  159.8222 O   0  0  0  0  0  0  0  0  0  0  0  0
  147.2636  144.2240  159.1986 H   0  0  0  0  0  0  0  0  0  0  0  0
  148.3151  145.3274  160.0811 H   0  0  0  0  0  0  0  0  0  0  0  0
  148.0264  143.7033  160.7008 H   0  0  0  0  0  0  0  0  0  0  0  0
  149.4924  144.4032  158.1152 H   0  0  0  0  0  0  0  0  0  0  0  0
  149.0213  141.6850  159.4609 H   0  0  0  0  0  0  0  0  0  0  0  0
  148.3484  142.1790  157.9295 H   0  0  0  0  0  0  0  0  0  0  0  0
  149.1478  142.6784  155.7710 H   0  0  0  0  0  0  0  0  0  0  0  0
  151.4271  141.3135  159.6812 H   0  0  0  0  0  0  0  0  0  0  0  0
  152.4840  141.6021  158.3167 H   0  0  0  0  0  0  0  0  0  0  0  0
  153.7756  143.1330  160.0553 H   0  0  0  0  0  0  0  0  0  0  0  0
  152.4948  142.8934  161.2393 H   0  0  0  0  0  0  0  0  0  0  0  0
  152.9314  144.5208  160.7363 H   0  0  0  0  0  0  0  0  0  0  0  0
  153.2106  144.0232  157.7258 H   0  0  0  0  0  0  0  0  0  0  0  0
  152.2926  145.3670  158.3949 H   0  0  0  0  0  0  0  0  0  0  0  0
  151.5521  144.2766  157.2297 H   0  0  0  0  0  0  0  0  0  0  0  0
  1  2  1  0  0  0  0
  1 18  1  0  0  0  0
  1 19  1  0  0  0  0
  1 20  1  0  0  0  0
  2 17  1  0  0  0  0
  2  3  1  0  0  0  0
  2 21  1  0  0  0  0
  3  4  1  0  0  0  0
  3 22  1  0  0  0  0
  3 23  1  0  0  0  0
  4  5  1  0  0  0  0
  4 13  1  0  0  0  0
  5 11  2  0  0  0  0
  5  6  1  0  0  0  0
  6  7  2  0  0  0  0
  6 24  1  0  0  0  0
  7  8  1  0  0  0  0
  8  9  1  0  0  0  0
  9 10  2  0  0  0  0
  9 11  1  0  0  0  0
 11 12  1  0  0  0  0
 13 14  1  0  0  0  0
 13 25  1  0  0  0  0
 13 26  1  0  0  0  0
 14 15  1  0  0  0  0
 14 16  1  0  0  0  0
 14 17  1  0  0  0  0
 15 27  1  0  0  0  0
 15 28  1  0  0  0  0
 15 29  1  0  0  0  0
 16 30  1  0  0  0  0
 16 31  1  0  0  0  0
 16 32  1  0  0  0  0
M  CHG  1   8  -1
M  END
> <s_m_source_file>
AV-unprocessed.smi

> <i_m_source_file_index>
922

> <i_lp_mmshare_version>
43012

> <i_f3d_flags>
0

> <s_epik_input>
W0NIM11bQ0BASF0oTzEpW0NIMl1OKFtDSDJdQzEoW0NIM10pW0NIM10pYzJbY0hdbltuSF1jKD1PKWMyQ2w=

> <s_epik_cmdline>
J2VwaWtfcHl0aG9uJywgJy1waCcsICc3LjAnLCAnLXRuJywgJzgnLCAnLW1hJywgJzIwMCcsICctbWV0YWxfYmluZGluZycsICctaW1hZScsICc8aW5maWxlLm1hZT4nLCAnLW9tYWUnLCAnPG91dGZpbGUubWFlPic=

> <r_lp_tautomer_probability>
1

> <r_epik_Ionization_Penalty>
2.48086

> <r_epik_Ionization_Penalty_Charging>
0.00187014

> <r_epik_Ionization_Penalty_Neutral>
2.47899

> <r_epik_State_Penalty>
0.0455822

> <r_epik_Charging_Adjusted_Penalty>
0.0474524

> <i_epik_Tot_Q>
-1

> <i_epik_Tot_abs_Q>
1

> <r_epik_Metal_State_Penalty>
0.000768086

> <b_epik_Metal_Only>
0

> <s_lp_Force_Field>
OPLS_2005

> <r_lp_Energy>
41.3096

> <b_lp_Chiralities_Consistent>
1

> <s_lp_Variant>
AV-unprocessed.smi:922-1

> <Gold.Version>
5.8.1

> <Gold.Id.Protein>
6NUR|6NUR_protein|mol2

> <Gold.PLP.Fitness>
34.4048

> <Gold.PLP.PLP>
-29.8310

> <Gold.PLP.part.hbond>
-2.5434

> <Gold.PLP.part.metal>
0.0000

> <Gold.PLP.part.buried>
0.6287

> <Gold.PLP.part.nonpolar>
-27.8681

> <Gold.PLP.part.repulsive>
0.9510

> <Gold.PLP.ligand.clash>
0.0000

> <Gold.PLP.ligand.torsion>
0.6929

> <Gold.PLP.Chemscore.Hbond>
0.6679

> <Gold.PLP.Chemscore.CHOScore>
1.0000

> <Gold.PLP.Chemscore.Metal>
0.0000

> <Gold.Chemscore.Hbonds>
donor molecule, donor type, donor heavy atom, donor atom, acceptor molecule, acceptor atom, score
      P1  H  7989  7998       L1     8  0.54
      P1  H  8011  8017       L1     7  0.13
      L1  C     6    24       P1  8028  1.00

> <Gold.PLP.Chemscore.Internal.Correction>
0.9558

> <Gold.Rescore>
     Score         DG    S(hbond)    S(metal)    S(lipo)     H(rot)  DE(clash)    DE(int)     intcor
     13.02     -15.01       0.00        0.00      81.40       0.00       0.42       1.57       ----

> <Gold.Chemscore.Fitness>
13.0238

> <Gold.Chemscore.DG>
-15.0088

> <Gold.Chemscore.ZeroCoef>
-5.4800

> <Gold.Chemscore.Hbond>
0.0015

> <Gold.Chemscore.Metal>
0.0000

> <Gold.Chemscore.Lipo>
81.4009

> <Gold.Chemscore.Internal_Hbond>
0.0000

> <Gold.Chemscore.DEClash>
0.4169

> <Gold.Chemscore.DEInternal>
1.5681

> <Gold.Chemscore.Rot>
0.0000

> <Gold.Chemscore.Internal.Correction>
   9.000000E+99

> <Gold.Chemscore.Hbonds>
donor molecule, donor type, donor heavy atom, donor atom, acceptor molecule, acceptor atom, score
      P1  H  7989  7998       L1     8  0.01
      P1  H  8011  8017       L1     7  0.05

> <Gold.Chemscore.Hbond.Weighted>
-0.0049

> <Gold.Chemscore.Metal.Weighted>
-0.0000

> <Gold.Chemscore.Lipo.Weighted>
-9.5239

> <Gold.Chemscore.Internal_Hbond.Weighted>
0.0000

> <Gold.Chemscore.DEClash.Weighted>
0.4169

> <Gold.Chemscore.DEInternal.Weighted>
1.5681

> <Gold.Chemscore.Rot.Weighted>
0.0000

> <Gold.Chemscore.Internal.Correction.Weighted>
   9.000000E+99

> <Gold.Protein.RotatedTorsions>
[ 6907 6896 6895 6894 ] final -128.78 input  -60.11 | X-H torsion
[ 7974 7965 7964 7962 ] final  114.82 input  175.53 | X-H torsion
[ 8008 7997 7996 7995 ] final  -61.46 input   59.86 | X-H torsion
[ 10167 10162 10161 10158 ] final -170.21 input  -65.29 | X-H torsion
[ 10718 10713 10712 10709 ] final -146.42 input   66.30 | X-H torsion
[ 10763 10752 10751 10750 ] final  177.87 input  -60.55 | X-H torsion
[ 11005 11000 10999 10996 ] final   42.77 input  -57.11 | X-H torsion

> <Gold.Protein.ActiveResidues>
 VAL166  LYS551  ARG553  GLY616  TRP617  ASP618  TYR619  PRO620  LYS621  CYS622 
 ASP623  PHE694  ASN695  SER759  ASP760  ASP761  ALA762  ILE779  LEU786  VAL792 
 PHE793  MET794  SER795  GLU796  ALA797  LYS798  CYS799  TRP800  GLU811  SER814 

> <Gold.Protein.RotatedAtoms>
  150.9216  133.6874  159.2830 H   0  0  0  0  0  0  0  0  0  0  0  0  # atno 6907 bound_to 6896
  151.4326  135.1010  159.9656 H   0  0  0  0  0  0  0  0  0  0  0  0  # atno 6908 bound_to 6896
  152.4982  133.8642  159.7321 H   0  0  0  0  0  0  0  0  0  0  0  0  # atno 6909 bound_to 6896
  145.1996  139.2959  143.4325 H   0  0  0  0  0  0  0  0  0  0  0  0  # atno 7974 bound_to 7965
  154.4449  140.1017  156.6435 H   0  0  0  0  0  0  0  0  0  0  0  0  # atno 8008 bound_to 7997
  155.5476  140.3485  155.4442 H   0  0  0  0  0  0  0  0  0  0  0  0  # atno 8009 bound_to 7997
  156.0552  140.1313  156.9994 H   0  0  0  0  0  0  0  0  0  0  0  0  # atno 8010 bound_to 7997
  139.5876  144.1285  152.1594 H   0  0  0  0  0  0  0  0  0  0  0  0  # atno 10167 bound_to 10162
  156.3947  130.7903  151.2109 H   0  0  0  0  0  0  0  0  0  0  0  0  # atno 10718 bound_to 10713
  154.5002  135.2783  155.1426 H   0  0  0  0  0  0  0  0  0  0  0  0  # atno 10763 bound_to 10752
  154.3063  135.6238  153.5450 H   0  0  0  0  0  0  0  0  0  0  0  0  # atno 10764 bound_to 10752
  152.9901  135.5709  154.5443 H   0  0  0  0  0  0  0  0  0  0  0  0  # atno 10765 bound_to 10752
  140.1708  134.4224  155.8258 H   0  0  0  0  0  0  0  0  0  0  0  0  # atno 11005 bound_to 11000
  146.3420  140.2236  142.8592 LP  0  0  0  0  0  0  0  0  0  0  0  0  # atno 17320 bound_to 7965
  144.9961  140.8590  143.5310 LP  0  0  0  0  0  0  0  0  0  0  0  0  # atno 17321 bound_to 7965
  140.0852  144.5667  150.7094 LP  0  0  0  0  0  0  0  0  0  0  0  0  # atno 17342 bound_to 10162
  140.7145  143.2532  151.4478 LP  0  0  0  0  0  0  0  0  0  0  0  0  # atno 17343 bound_to 10162
  157.7501  131.0305  150.4139 LP  0  0  0  0  0  0  0  0  0  0  0  0  # atno 17370 bound_to 10713
  156.4407  130.3991  149.6699 LP  0  0  0  0  0  0  0  0  0  0  0  0  # atno 17371 bound_to 10713
  141.2217  133.6955  156.7760 LP  0  0  0  0  0  0  0  0  0  0  0  0  # atno 17394 bound_to 11000
  140.2380  134.8635  157.3544 LP  0  0  0  0  0  0  0  0  0  0  0  0  # atno 17395 bound_to 11000

$$$$
