AV-unprocessed.smi:2639|AV-procd|sdf|10264|dock1
  -GOLD-   2272014273D 1   1.00000     0.00000
 Structure written by MMmdl.
 43 44  0  0  0  0  0  0  0  0  1 V2000
  146.3339  139.8058  152.3964 C   0  0  0  0  0  0  0  0  0  0  0  0
  146.9550  138.8158  153.4147 C   0  0  1  0  0  0  0  0  0  0  0  0
  146.0464  138.7731  154.6791 C   0  0  0  0  0  0  0  0  0  0  0  0
  144.6966  138.4961  154.3630 O   0  0  0  0  0  0  0  0  0  0  0  0
  147.0269  137.4714  152.8202 N   0  0  0  0  0  0  0  0  0  0  0  0
  146.0317  136.7013  152.3485 C   0  0  0  0  0  0  0  0  0  0  0  0
  144.8477  137.0358  152.3374 O   0  0  0  0  0  0  0  0  0  0  0  0
  146.5109  135.5362  151.8785 N   0  0  0  0  0  0  0  0  0  0  0  0
  145.7956  134.4375  151.3289 C   0  0  0  0  0  0  0  0  0  0  0  0
  146.5331  133.2963  150.9510 C   0  0  0  0  0  0  0  0  0  0  0  0
  145.8447  132.1873  150.4197 C   0  0  0  0  0  0  0  0  0  0  0  0
  144.5049  132.1532  150.2603 N   0  0  0  0  0  0  0  0  0  0  0  0
  143.7987  133.2402  150.6369 C   0  0  0  0  0  0  0  0  0  0  0  0
  144.3884  134.4002  151.1779 C   0  0  0  0  0  0  0  0  0  0  0  0
  148.4218  139.2488  153.7715 C   0  0  0  0  0  0  0  0  0  0  0  0
  149.1987  138.1888  154.5993 C   0  0  0  0  0  0  0  0  0  0  0  0
  150.6470  138.6179  154.8847 C   0  0  0  0  0  0  0  0  0  0  0  0
  150.6975  139.9740  155.5989 C   0  0  0  0  0  0  0  0  0  0  0  0
  149.9533  141.0405  154.7866 C   0  0  0  0  0  0  0  0  0  0  0  0
  148.5034  140.6169  154.5017 C   0  0  0  0  0  0  0  0  0  0  0  0
  146.4500  140.8381  152.7281 H   0  0  0  0  0  0  0  0  0  0  0  0
  145.2656  139.6355  152.2626 H   0  0  0  0  0  0  0  0  0  0  0  0
  146.7889  139.7221  151.4099 H   0  0  0  0  0  0  0  0  0  0  0  0
  146.3789  138.0056  155.3778 H   0  0  0  0  0  0  0  0  0  0  0  0
  146.0879  139.7138  155.2283 H   0  0  0  0  0  0  0  0  0  0  0  0
  144.3382  139.2389  153.9016 H   0  0  0  0  0  0  0  0  0  0  0  0
  147.9570  137.0835  152.7633 H   0  0  0  0  0  0  0  0  0  0  0  0
  147.5158  135.4413  151.8731 H   0  0  0  0  0  0  0  0  0  0  0  0
  147.6077  133.2683  151.0595 H   0  0  0  0  0  0  0  0  0  0  0  0
  146.3852  131.3029  150.1167 H   0  0  0  0  0  0  0  0  0  0  0  0
  142.7277  133.1824  150.5095 H   0  0  0  0  0  0  0  0  0  0  0  0
  143.7541  135.2213  151.4742 H   0  0  0  0  0  0  0  0  0  0  0  0
  148.9664  139.3596  152.8328 H   0  0  0  0  0  0  0  0  0  0  0  0
  148.6921  138.0004  155.5463 H   0  0  0  0  0  0  0  0  0  0  0  0
  149.2319  137.2356  154.0736 H   0  0  0  0  0  0  0  0  0  0  0  0
  151.1446  137.8612  155.4918 H   0  0  0  0  0  0  0  0  0  0  0  0
  151.2023  138.6763  153.9476 H   0  0  0  0  0  0  0  0  0  0  0  0
  150.2492  139.8860  156.5893 H   0  0  0  0  0  0  0  0  0  0  0  0
  151.7337  140.2770  155.7519 H   0  0  0  0  0  0  0  0  0  0  0  0
  149.9634  141.9893  155.3238 H   0  0  0  0  0  0  0  0  0  0  0  0
  150.4748  141.2136  153.8441 H   0  0  0  0  0  0  0  0  0  0  0  0
  148.0396  141.4020  153.9064 H   0  0  0  0  0  0  0  0  0  0  0  0
  147.9520  140.5774  155.4416 H   0  0  0  0  0  0  0  0  0  0  0  0
  1  2  1  0  0  0  0
  1 21  1  0  0  0  0
  1 22  1  0  0  0  0
  1 23  1  0  0  0  0
  2  3  1  0  0  0  0
  2  5  1  0  0  0  0
  2 15  1  0  0  0  0
  3  4  1  0  0  0  0
  3 24  1  0  0  0  0
  3 25  1  0  0  0  0
  4 26  1  0  0  0  0
  5  6  1  0  0  0  0
  5 27  1  0  0  0  0
  6  7  2  0  0  0  0
  6  8  1  0  0  0  0
  8  9  1  0  0  0  0
  8 28  1  0  0  0  0
  9 14  1  0  0  0  0
  9 10  2  0  0  0  0
 10 11  1  0  0  0  0
 10 29  1  0  0  0  0
 11 12  2  0  0  0  0
 11 30  1  0  0  0  0
 12 13  1  0  0  0  0
 13 14  2  0  0  0  0
 13 31  1  0  0  0  0
 14 32  1  0  0  0  0
 15 20  1  0  0  0  0
 15 16  1  0  0  0  0
 15 33  1  0  0  0  0
 16 17  1  0  0  0  0
 16 34  1  0  0  0  0
 16 35  1  0  0  0  0
 17 18  1  0  0  0  0
 17 36  1  0  0  0  0
 17 37  1  0  0  0  0
 18 19  1  0  0  0  0
 18 38  1  0  0  0  0
 18 39  1  0  0  0  0
 19 20  1  0  0  0  0
 19 40  1  0  0  0  0
 19 41  1  0  0  0  0
 20 42  1  0  0  0  0
 20 43  1  0  0  0  0
M  END
> <s_m_source_file>
AV-unprocessed.smi

> <i_m_source_file_index>
2639

> <i_lp_mmshare_version>
43012

> <i_f3d_flags>
0

> <s_epik_input>
W0NIMl0xW0NIMl1bQ0gyXVtDSDJdW0NIMl1bQ0hdMVtDQF0oW0NIM10pKFtDSDJdW09IXSlbTkhdQyg9TylbTkhdYzJbY0hdW2NIXW5bY0hdW2NIXTI=

> <s_epik_cmdline>
J2VwaWtfcHl0aG9uJywgJy1waCcsICc3LjAnLCAnLXRuJywgJzgnLCAnLW1hJywgJzIwMCcsICctbWV0YWxfYmluZGluZycsICctaW1hZScsICc8aW5maWxlLm1hZT4nLCAnLW9tYWUnLCAnPG91dGZpbGUubWFlPic=

> <r_epik_Ionization_Penalty>
0.119032

> <r_epik_Ionization_Penalty_Charging>
0

> <r_epik_Ionization_Penalty_Neutral>
0.119032

> <r_epik_State_Penalty>
0.108564

> <r_epik_Charging_Adjusted_Penalty>
0.108564

> <i_epik_Tot_Q>
0

> <i_epik_Tot_abs_Q>
0

> <r_epik_Metal_State_Penalty>
0.0902516

> <b_epik_Metal_Only>
0

> <s_lp_Force_Field>
OPLS_2005

> <r_lp_Energy>
25.5212

> <b_lp_Chiralities_Consistent>
1

> <s_lp_Variant>
AV-unprocessed.smi:2639-1

> <Gold.Version>
5.8.1

> <Gold.Id.Protein>
6NUR|6NUR_protein|mol2

> <Gold.PLP.Fitness>
43.2597

> <Gold.PLP.PLP>
-28.8294

> <Gold.PLP.part.hbond>
-2.8896

> <Gold.PLP.part.metal>
0.0000

> <Gold.PLP.part.buried>
2.6115

> <Gold.PLP.part.nonpolar>
-30.4437

> <Gold.PLP.part.repulsive>
0.5752

> <Gold.PLP.ligand.clash>
0.0000

> <Gold.PLP.ligand.torsion>
0.1052

> <Gold.PLP.Chemscore.Hbond>
2.8880

> <Gold.PLP.Chemscore.CHOScore>
1.9768

> <Gold.PLP.Chemscore.Metal>
0.0000

> <Gold.Chemscore.Hbonds>
donor molecule, donor type, donor heavy atom, donor atom, acceptor molecule, acceptor atom, score
      L1  H     4    26       P1 10175  1.00
      L1  H     5    27       P1  7948  0.88
      L1  H     8    28       P1  7948  0.94
      L1  C    11    30       P1 10747  0.75
      L1  C    13    31       P1 10186  1.00

> <Gold.PLP.Chemscore.Internal.Correction>
0.0463

> <Gold.Rescore>
     Score         DG    S(hbond)    S(metal)    S(lipo)     H(rot)  DE(clash)    DE(int)     intcor
     15.54     -20.38       2.86        0.00      89.12       1.98       1.75       3.09       ----

> <Gold.Chemscore.Fitness>
15.5389

> <Gold.Chemscore.DG>
-20.3777

> <Gold.Chemscore.ZeroCoef>
-5.4800

> <Gold.Chemscore.Hbond>
2.8559

> <Gold.Chemscore.Metal>
0.0000

> <Gold.Chemscore.Lipo>
89.1207

> <Gold.Chemscore.Internal_Hbond>
0.0000

> <Gold.Chemscore.DEClash>
1.7531

> <Gold.Chemscore.DEInternal>
3.0857

> <Gold.Chemscore.Rot>
1.9798

> <Gold.Chemscore.Internal.Correction>
   9.000000E+99

> <Gold.Chemscore.Hbonds>
donor molecule, donor type, donor heavy atom, donor atom, acceptor molecule, acceptor atom, score
      L1  H     4    26       P1 10175  0.97
      L1  H     5    27       P1  7948  0.85
      L1  H     8    28       P1  7948  0.89

> <Gold.Chemscore.Hbond.Weighted>
-9.5387

> <Gold.Chemscore.Metal.Weighted>
-0.0000

> <Gold.Chemscore.Lipo.Weighted>
-10.4271

> <Gold.Chemscore.Internal_Hbond.Weighted>
0.0000

> <Gold.Chemscore.DEClash.Weighted>
1.7531

> <Gold.Chemscore.DEInternal.Weighted>
3.0857

> <Gold.Chemscore.Rot.Weighted>
5.0682

> <Gold.Chemscore.Internal.Correction.Weighted>
   9.000000E+99

> <Gold.Protein.RotatedTorsions>
[ 6907 6896 6895 6894 ] final  178.68 input  -60.11 | X-H torsion
[ 7974 7965 7964 7962 ] final  167.63 input  175.53 | X-H torsion
[ 8008 7997 7996 7995 ] final  123.35 input   59.86 | X-H torsion
[ 10167 10162 10161 10158 ] final  -69.46 input  -65.29 | X-H torsion
[ 10718 10713 10712 10709 ] final   -1.74 input   66.30 | X-H torsion
[ 10763 10752 10751 10750 ] final -166.71 input  -60.55 | X-H torsion
[ 11005 11000 10999 10996 ] final  127.80 input  -57.11 | X-H torsion

> <Gold.Protein.ActiveResidues>
 VAL166  LYS551  ARG553  GLY616  TRP617  ASP618  TYR619  PRO620  LYS621  CYS622 
 ASP623  PHE694  ASN695  SER759  ASP760  ASP761  ALA762  ILE779  LEU786  VAL792 
 PHE793  MET794  SER795  GLU796  ALA797  LYS798  CYS799  TRP800  GLU811  SER814 

> <Gold.Protein.RotatedAtoms>
  151.6839  133.3311  159.3225 H   0  0  0  0  0  0  0  0  0  0  0  0  # atno 6907 bound_to 6896
  150.7810  134.6757  159.6426 H   0  0  0  0  0  0  0  0  0  0  0  0  # atno 6908 bound_to 6896
  152.3867  134.6509  160.0175 H   0  0  0  0  0  0  0  0  0  0  0  0  # atno 6909 bound_to 6896
  144.7417  139.8789  143.6395 H   0  0  0  0  0  0  0  0  0  0  0  0  # atno 7974 bound_to 7965
  156.2762  140.2765  156.1613 H   0  0  0  0  0  0  0  0  0  0  0  0  # atno 8008 bound_to 7997
  155.0751  140.0387  157.2639 H   0  0  0  0  0  0  0  0  0  0  0  0  # atno 8009 bound_to 7997
  154.7009  140.2649  155.6726 H   0  0  0  0  0  0  0  0  0  0  0  0  # atno 8010 bound_to 7997
  140.5428  143.2314  151.7057 H   0  0  0  0  0  0  0  0  0  0  0  0  # atno 10167 bound_to 10162
  156.8011  130.5393  149.5721 H   0  0  0  0  0  0  0  0  0  0  0  0  # atno 10718 bound_to 10713
  154.6806  135.2954  154.9619 H   0  0  0  0  0  0  0  0  0  0  0  0  # atno 10763 bound_to 10752
  154.0615  135.6631  153.4816 H   0  0  0  0  0  0  0  0  0  0  0  0  # atno 10764 bound_to 10752
  153.0545  135.5153  154.7847 H   0  0  0  0  0  0  0  0  0  0  0  0  # atno 10765 bound_to 10752
  139.9526  134.9619  156.8908 H   0  0  0  0  0  0  0  0  0  0  0  0  # atno 11005 bound_to 11000
  146.1226  139.4246  143.0219 LP  0  0  0  0  0  0  0  0  0  0  0  0  # atno 17320 bound_to 7965
  145.7283  141.0051  143.1365 LP  0  0  0  0  0  0  0  0  0  0  0  0  # atno 17321 bound_to 7965
  139.4995  144.3941  152.0249 LP  0  0  0  0  0  0  0  0  0  0  0  0  # atno 17342 bound_to 10162
  140.3052  144.3601  150.6049 LP  0  0  0  0  0  0  0  0  0  0  0  0  # atno 17343 bound_to 10162
  156.1101  130.6034  151.0033 LP  0  0  0  0  0  0  0  0  0  0  0  0  # atno 17370 bound_to 10713
  157.6553  131.0890  150.7960 LP  0  0  0  0  0  0  0  0  0  0  0  0  # atno 17371 bound_to 10713
  140.5683  134.0468  155.7421 LP  0  0  0  0  0  0  0  0  0  0  0  0  # atno 17394 bound_to 11000
  141.1192  133.9489  157.2762 LP  0  0  0  0  0  0  0  0  0  0  0  0  # atno 17395 bound_to 11000

$$$$
