AV-unprocessed.smi:1438|AV-procd|sdf|5867|dock10
  -GOLD-   22720 5543D 1   1.00000     0.00000
 Structure written by MMmdl.
 43 44  0  0  0  0  0  0  0  0  1 V2000
  149.9070  133.8828  154.5072 C   0  0  0  0  0  0  0  0  0  0  0  0
  149.5823  134.9322  155.5830 C   0  0  2  0  0  0  0  0  0  0  0  0
  150.6028  136.0785  155.5904 C   0  0  0  0  0  0  0  0  0  0  0  0
  151.2637  136.3235  156.5999 O   0  0  0  0  0  0  0  0  0  0  0  0
  150.7180  136.7805  154.4540 N   0  0  0  0  0  0  0  0  0  0  0  0
  151.5789  137.9420  154.2839 C   0  0  0  0  0  0  0  0  0  0  0  0
  150.9796  139.1840  154.9144 C   0  0  0  0  0  0  0  0  0  0  0  0
  149.7235  139.6704  154.4971 C   0  0  0  0  0  0  0  0  0  0  0  0
  149.2107  140.8249  155.1194 C   0  0  0  0  0  0  0  0  0  0  0  0
  149.8605  141.4894  156.0984 N   0  0  0  0  0  0  0  0  0  0  0  0
  151.0672  141.0220  156.4993 C   0  0  0  0  0  0  0  0  0  0  0  0
  151.7395  141.7015  157.5248 N   0  0  0  0  0  0  0  0  0  0  0  0
  151.2058  143.0289  157.8046 C   0  0  0  0  0  0  0  0  0  0  0  0
  152.0847  143.7377  158.8497 C   0  0  0  0  0  0  0  0  0  0  0  0
  152.1729  142.9334  160.0226 O   0  0  0  0  0  0  0  0  0  0  0  0
  152.7597  141.6622  159.7571 C   0  0  0  0  0  0  0  0  0  0  0  0
  151.9020  140.9009  158.7316 C   0  0  0  0  0  0  0  0  0  0  0  0
  151.6640  139.8749  155.9354 C   0  0  0  0  0  0  0  0  0  0  0  0
  149.5226  134.1279  157.2531 S   0  0  0  0  0  0  0  0  0  0  0  0
  148.1073  132.9568  157.1043 C   0  0  0  0  0  0  0  0  0  0  0  0
  150.7534  133.3407  157.4237 O   0  0  0  0  0  0  0  0  0  0  0  0
  149.1709  135.1418  158.2596 O   0  0  0  0  0  0  0  0  0  0  0  0
  149.9724  134.3362  153.5175 H   0  0  0  0  0  0  0  0  0  0  0  0
  149.1321  133.1172  154.4660 H   0  0  0  0  0  0  0  0  0  0  0  0
  150.8535  133.3801  154.7097 H   0  0  0  0  0  0  0  0  0  0  0  0
  148.5886  135.3363  155.3855 H   0  0  0  0  0  0  0  0  0  0  0  0
  150.1491  136.5151  153.6633 H   0  0  0  0  0  0  0  0  0  0  0  0
  152.5589  137.7418  154.7210 H   0  0  0  0  0  0  0  0  0  0  0  0
  151.7332  138.1256  153.2197 H   0  0  0  0  0  0  0  0  0  0  0  0
  149.1656  139.1743  153.7163 H   0  0  0  0  0  0  0  0  0  0  0  0
  148.2520  141.2250  154.8241 H   0  0  0  0  0  0  0  0  0  0  0  0
  151.1701  143.6137  156.8847 H   0  0  0  0  0  0  0  0  0  0  0  0
  150.1837  142.9473  158.1772 H   0  0  0  0  0  0  0  0  0  0  0  0
  153.0825  143.9315  158.4530 H   0  0  0  0  0  0  0  0  0  0  0  0
  151.6528  144.7036  159.1120 H   0  0  0  0  0  0  0  0  0  0  0  0
  153.7799  141.7904  159.3918 H   0  0  0  0  0  0  0  0  0  0  0  0
  152.8230  141.0979  160.6876 H   0  0  0  0  0  0  0  0  0  0  0  0
  150.9234  140.6781  159.1597 H   0  0  0  0  0  0  0  0  0  0  0  0
  152.3708  139.9479  158.4837 H   0  0  0  0  0  0  0  0  0  0  0  0
  152.6274  139.5316  156.2841 H   0  0  0  0  0  0  0  0  0  0  0  0
  148.0376  132.3616  158.0145 H   0  0  0  0  0  0  0  0  0  0  0  0
  148.2653  132.2954  156.2529 H   0  0  0  0  0  0  0  0  0  0  0  0
  147.1781  133.5101  156.9717 H   0  0  0  0  0  0  0  0  0  0  0  0
  1  2  1  0  0  0  0
  1 23  1  0  0  0  0
  1 24  1  0  0  0  0
  1 25  1  0  0  0  0
  2  3  1  0  0  0  0
  2 19  1  0  0  0  0
  2 26  1  0  0  0  0
  3  4  2  0  0  0  0
  3  5  1  0  0  0  0
  5  6  1  0  0  0  0
  5 27  1  0  0  0  0
  6  7  1  0  0  0  0
  6 28  1  0  0  0  0
  6 29  1  0  0  0  0
  7 18  1  0  0  0  0
  7  8  2  0  0  0  0
  8  9  1  0  0  0  0
  8 30  1  0  0  0  0
  9 10  2  0  0  0  0
  9 31  1  0  0  0  0
 10 11  1  0  0  0  0
 11 12  1  0  0  0  0
 11 18  2  0  0  0  0
 12 17  1  0  0  0  0
 12 13  1  0  0  0  0
 13 14  1  0  0  0  0
 13 32  1  0  0  0  0
 13 33  1  0  0  0  0
 14 15  1  0  0  0  0
 14 34  1  0  0  0  0
 14 35  1  0  0  0  0
 15 16  1  0  0  0  0
 16 17  1  0  0  0  0
 16 36  1  0  0  0  0
 16 37  1  0  0  0  0
 17 38  1  0  0  0  0
 17 39  1  0  0  0  0
 18 40  1  0  0  0  0
 19 20  1  0  0  0  0
 19 21  2  0  0  0  0
 19 22  2  0  0  0  0
 20 41  1  0  0  0  0
 20 42  1  0  0  0  0
 20 43  1  0  0  0  0
M  END
> <s_m_source_file>
AV-unprocessed.smi

> <i_m_source_file_index>
1438

> <i_lp_mmshare_version>
43012

> <i_f3d_flags>
0

> <s_epik_input>
W0NIM11TKD1PKSg9TylbQ0BIXShbQ0gzXSlDKD1PKVtOSF1bQ0gyXWMxW2NIXVtjSF1uYyhbY0hdMSlOMltDSDJdW0NIMl1PW0NIMl1bQ0gyXTI=

> <s_epik_cmdline>
J2VwaWtfcHl0aG9uJywgJy1waCcsICc3LjAnLCAnLXRuJywgJzgnLCAnLW1hJywgJzIwMCcsICctbWV0YWxfYmluZGluZycsICctaW1hZScsICc8aW5maWxlLm1hZT4nLCAnLW9tYWUnLCAnPG91dGZpbGUubWFlPic=

> <r_lp_tautomer_probability>
1

> <r_epik_Ionization_Penalty>
0.00387635

> <r_epik_Ionization_Penalty_Charging>
0

> <r_epik_Ionization_Penalty_Neutral>
0.00387635

> <r_epik_State_Penalty>
0.0027681

> <r_epik_Charging_Adjusted_Penalty>
0.0027681

> <i_epik_Tot_Q>
0

> <i_epik_Tot_abs_Q>
0

> <r_epik_Metal_State_Penalty>
-0

> <b_epik_Metal_Only>
0

> <s_lp_Force_Field>
OPLS_2005

> <r_lp_Energy>
15.2281

> <b_lp_Chiralities_Consistent>
1

> <s_lp_Variant>
AV-unprocessed.smi:1438-1

> <Gold.Version>
5.8.1

> <Gold.Id.Protein>
6NUR|6NUR_protein|mol2

> <Gold.PLP.Fitness>
44.3858

> <Gold.PLP.PLP>
-37.7656

> <Gold.PLP.part.hbond>
-3.8329

> <Gold.PLP.part.metal>
0.0000

> <Gold.PLP.part.buried>
-4.8296

> <Gold.PLP.part.nonpolar>
-31.1969

> <Gold.PLP.part.repulsive>
0.1790

> <Gold.PLP.ligand.clash>
0.0000

> <Gold.PLP.ligand.torsion>
0.4697

> <Gold.PLP.Chemscore.Hbond>
2.4313

> <Gold.PLP.Chemscore.CHOScore>
0.0000

> <Gold.PLP.Chemscore.Metal>
0.0000

> <Gold.Chemscore.Hbonds>
donor molecule, donor type, donor heavy atom, donor atom, acceptor molecule, acceptor atom, score
      L1  H     5    27       P1  7948  0.56
      P1  H  6896  6908       L1    21  0.51
      P1  H  6896  6909       L1    22  0.59

> <Gold.PLP.Chemscore.Internal.Correction>
0.2658

> <Gold.Rescore>
     Score         DG    S(hbond)    S(metal)    S(lipo)     H(rot)  DE(clash)    DE(int)     intcor
     12.80     -14.47       1.47        0.00      80.26       2.08       0.12       1.54       ----

> <Gold.Chemscore.Fitness>
12.8003

> <Gold.Chemscore.DG>
-14.4653

> <Gold.Chemscore.ZeroCoef>
-5.4800

> <Gold.Chemscore.Hbond>
1.4702

> <Gold.Chemscore.Metal>
0.0000

> <Gold.Chemscore.Lipo>
80.2603

> <Gold.Chemscore.Internal_Hbond>
0.0000

> <Gold.Chemscore.DEClash>
0.1214

> <Gold.Chemscore.DEInternal>
1.5436

> <Gold.Chemscore.Rot>
2.0764

> <Gold.Chemscore.Internal.Correction>
   9.000000E+99

> <Gold.Chemscore.Hbonds>
donor molecule, donor type, donor heavy atom, donor atom, acceptor molecule, acceptor atom, score
      L1  H     5    27       P1  7948  0.07
      P1  H  6896  6908       L1    21  0.48
      P1  H  6896  6909       L1    22  0.11

> <Gold.Chemscore.Hbond.Weighted>
-4.9104

> <Gold.Chemscore.Metal.Weighted>
-0.0000

> <Gold.Chemscore.Lipo.Weighted>
-9.3905

> <Gold.Chemscore.Internal_Hbond.Weighted>
0.0000

> <Gold.Chemscore.DEClash.Weighted>
0.1214

> <Gold.Chemscore.DEInternal.Weighted>
1.5436

> <Gold.Chemscore.Rot.Weighted>
5.3155

> <Gold.Chemscore.Internal.Correction.Weighted>
   9.000000E+99

> <Gold.Protein.RotatedTorsions>
[ 6907 6896 6895 6894 ] final   64.35 input  -60.11 | X-H torsion
[ 7974 7965 7964 7962 ] final  152.59 input  175.53 | X-H torsion
[ 8008 7997 7996 7995 ] final -110.23 input   59.86 | X-H torsion
[ 10167 10162 10161 10158 ] final -147.99 input  -65.29 | X-H torsion
[ 10718 10713 10712 10709 ] final   50.36 input   66.30 | X-H torsion
[ 10763 10752 10751 10750 ] final   38.32 input  -60.55 | X-H torsion
[ 11005 11000 10999 10996 ] final  142.68 input  -57.11 | X-H torsion

> <Gold.Protein.ActiveResidues>
 VAL166  LYS551  ARG553  GLY616  TRP617  ASP618  TYR619  PRO620  LYS621  CYS622 
 ASP623  PHE694  ASN695  SER759  ASP760  ASP761  ALA762  ILE779  LEU786  VAL792 
 PHE793  MET794  SER795  GLU796  ALA797  LYS798  CYS799  TRP800  GLU811  SER814 

> <Gold.Protein.RotatedAtoms>
  152.4325  134.5751  159.9931 H   0  0  0  0  0  0  0  0  0  0  0  0  # atno 6907 bound_to 6896
  151.5870  133.3365  159.3028 H   0  0  0  0  0  0  0  0  0  0  0  0  # atno 6908 bound_to 6896
  150.8219  134.7466  159.6844 H   0  0  0  0  0  0  0  0  0  0  0  0  # atno 6909 bound_to 6896
  144.8212  139.6689  143.6100 H   0  0  0  0  0  0  0  0  0  0  0  0  # atno 7974 bound_to 7965
  154.9713  140.0397  157.2236 H   0  0  0  0  0  0  0  0  0  0  0  0  # atno 8008 bound_to 7997
  154.7798  140.2817  155.6050 H   0  0  0  0  0  0  0  0  0  0  0  0  # atno 8009 bound_to 7997
  156.2934  140.2594  156.2621 H   0  0  0  0  0  0  0  0  0  0  0  0  # atno 8010 bound_to 7997
  139.7572  143.8431  152.2599 H   0  0  0  0  0  0  0  0  0  0  0  0  # atno 10167 bound_to 10162
  157.4877  130.8356  149.8166 H   0  0  0  0  0  0  0  0  0  0  0  0  # atno 10718 bound_to 10713
  153.0005  135.6253  154.2285 H   0  0  0  0  0  0  0  0  0  0  0  0  # atno 10763 bound_to 10752
  154.2028  135.2803  155.2987 H   0  0  0  0  0  0  0  0  0  0  0  0  # atno 10764 bound_to 10752
  154.5670  135.5688  153.7118 H   0  0  0  0  0  0  0  0  0  0  0  0  # atno 10765 bound_to 10752
  140.0495  134.9263  157.0991 H   0  0  0  0  0  0  0  0  0  0  0  0  # atno 11005 bound_to 11000
  146.2517  139.6214  142.9422 LP  0  0  0  0  0  0  0  0  0  0  0  0  # atno 17320 bound_to 7965
  145.5101  141.0435  143.2492 LP  0  0  0  0  0  0  0  0  0  0  0  0  # atno 17321 bound_to 7965
  139.8426  144.7202  150.9312 LP  0  0  0  0  0  0  0  0  0  0  0  0  # atno 17342 bound_to 10162
  140.7804  143.3970  151.1214 LP  0  0  0  0  0  0  0  0  0  0  0  0  # atno 17343 bound_to 10162
  156.0156  130.3815  150.2122 LP  0  0  0  0  0  0  0  0  0  0  0  0  # atno 17370 bound_to 10713
  157.0309  131.0007  151.3312 LP  0  0  0  0  0  0  0  0  0  0  0  0  # atno 17371 bound_to 10713
  140.3940  134.2154  155.7165 LP  0  0  0  0  0  0  0  0  0  0  0  0  # atno 17394 bound_to 11000
  141.1923  133.8175  157.0843 LP  0  0  0  0  0  0  0  0  0  0  0  0  # atno 17395 bound_to 11000

$$$$
