AV-unprocessed.smi:2989|AV-procd|sdf|11391|dock2
  -GOLD-   2272016313D 1   1.00000     0.00000
 Structure written by MMmdl.
 31 33  0  0  0  0  0  0  0  0  1 V2000
  150.9809  144.1196  156.7247 O   0  0  0  0  0  0  0  0  0  0  0  0
  151.3238  142.9788  157.4848 C   0  0  2  0  0  0  0  0  0  0  0  0
  150.1292  142.0049  157.4647 C   0  0  0  0  0  0  0  0  0  0  0  0
  149.9539  141.3790  156.1656 N   0  0  0  0  0  0  0  0  0  0  0  0
  151.0014  140.7212  155.5932 N   0  0  0  0  0  0  0  0  0  0  0  0
  150.6117  140.2279  154.4556 N   0  0  0  0  0  0  0  0  0  0  0  0
  149.2803  140.5647  154.2758 C   0  0  0  0  0  0  0  0  0  0  0  0
  148.3697  140.2843  153.2320 C   0  0  0  0  0  0  0  0  0  0  0  0
  147.0402  140.7532  153.3054 C   0  0  0  0  0  0  0  0  0  0  0  0
  146.6053  141.5050  154.4182 C   0  0  0  0  0  0  0  0  0  0  0  0
  147.5003  141.7947  155.4665 C   0  0  0  0  0  0  0  0  0  0  0  0
  148.8208  141.3206  155.3771 C   0  0  0  0  0  0  0  0  0  0  0  0
  151.7493  143.3383  158.9018 C   0  0  0  0  0  0  0  0  0  0  0  0
  152.2898  142.3456  159.7475 C   0  0  0  0  0  0  0  0  0  0  0  0
  152.6583  142.6626  161.0693 C   0  0  0  0  0  0  0  0  0  0  0  0
  152.4875  143.9737  161.5535 C   0  0  0  0  0  0  0  0  0  0  0  0
  151.9482  144.9680  160.7152 C   0  0  0  0  0  0  0  0  0  0  0  0
  151.5802  144.6517  159.3931 C   0  0  0  0  0  0  0  0  0  0  0  0
  150.0895  144.0226  156.4262 H   0  0  0  0  0  0  0  0  0  0  0  0
  152.1685  142.5129  156.9751 H   0  0  0  0  0  0  0  0  0  0  0  0
  150.2535  141.2239  158.2159 H   0  0  0  0  0  0  0  0  0  0  0  0
  149.2071  142.5321  157.7156 H   0  0  0  0  0  0  0  0  0  0  0  0
  148.6916  139.7080  152.3772 H   0  0  0  0  0  0  0  0  0  0  0  0
  146.3499  140.5335  152.5044 H   0  0  0  0  0  0  0  0  0  0  0  0
  145.5856  141.8574  154.4670 H   0  0  0  0  0  0  0  0  0  0  0  0
  147.1770  142.3657  156.3244 H   0  0  0  0  0  0  0  0  0  0  0  0
  152.4139  141.3344  159.3884 H   0  0  0  0  0  0  0  0  0  0  0  0
  153.0688  141.8986  161.7128 H   0  0  0  0  0  0  0  0  0  0  0  0
  152.7683  144.2161  162.5679 H   0  0  0  0  0  0  0  0  0  0  0  0
  151.8136  145.9730  161.0871 H   0  0  0  0  0  0  0  0  0  0  0  0
  151.1591  145.4189  158.7599 H   0  0  0  0  0  0  0  0  0  0  0  0
  1  2  1  0  0  0  0
  1 19  1  0  0  0  0
  2  3  1  0  0  0  0
  2 13  1  0  0  0  0
  2 20  1  0  0  0  0
  3  4  1  0  0  0  0
  3 21  1  0  0  0  0
  3 22  1  0  0  0  0
  4 12  1  0  0  0  0
  4  5  1  0  0  0  0
  5  6  2  0  0  0  0
  6  7  1  0  0  0  0
  7 12  2  0  0  0  0
  7  8  1  0  0  0  0
  8  9  2  0  0  0  0
  8 23  1  0  0  0  0
  9 10  1  0  0  0  0
  9 24  1  0  0  0  0
 10 11  2  0  0  0  0
 10 25  1  0  0  0  0
 11 12  1  0  0  0  0
 11 26  1  0  0  0  0
 13 18  1  0  0  0  0
 13 14  2  0  0  0  0
 14 15  1  0  0  0  0
 14 27  1  0  0  0  0
 15 16  2  0  0  0  0
 15 28  1  0  0  0  0
 16 17  1  0  0  0  0
 16 29  1  0  0  0  0
 17 18  2  0  0  0  0
 17 30  1  0  0  0  0
 18 31  1  0  0  0  0
M  END
> <s_m_source_file>
AV-unprocessed.smi

> <i_m_source_file_index>
2989

> <i_lp_mmshare_version>
43012

> <i_f3d_flags>
0

> <s_epik_input>
W2NIXTFbY0hdW2NIXVtjSF1bY0hdYzFbQ0BIXShbT0hdKVtDSDJdbihubjIpYyhjMjMpW2NIXVtjSF1bY0hdW2NIXTM=

> <s_epik_cmdline>
J2VwaWtfcHl0aG9uJywgJy1waCcsICc3LjAnLCAnLXRuJywgJzgnLCAnLW1hJywgJzIwMCcsICctbWV0YWxfYmluZGluZycsICctaW1hZScsICc8aW5maWxlLm1hZT4nLCAnLW9tYWUnLCAnPG91dGZpbGUubWFlPic=

> <r_lp_tautomer_probability>
1

> <r_epik_Ionization_Penalty>
4.09993e-05

> <r_epik_Ionization_Penalty_Charging>
0

> <r_epik_Ionization_Penalty_Neutral>
4.09993e-05

> <r_epik_State_Penalty>
-0

> <r_epik_Charging_Adjusted_Penalty>
0

> <i_epik_Tot_Q>
0

> <i_epik_Tot_abs_Q>
0

> <r_epik_Metal_State_Penalty>
-0

> <b_epik_Metal_Only>
0

> <s_lp_Force_Field>
OPLS_2005

> <r_lp_Energy>
11.9105

> <b_lp_Chiralities_Consistent>
1

> <s_lp_Variant>
AV-unprocessed.smi:2989-1

> <Gold.Version>
5.8.1

> <Gold.Id.Protein>
6NUR|6NUR_protein|mol2

> <Gold.PLP.Fitness>
47.9919

> <Gold.PLP.PLP>
-42.4751

> <Gold.PLP.part.hbond>
-2.7048

> <Gold.PLP.part.metal>
0.0000

> <Gold.PLP.part.buried>
-0.2563

> <Gold.PLP.part.nonpolar>
-40.1881

> <Gold.PLP.part.repulsive>
0.1285

> <Gold.PLP.ligand.clash>
0.0000

> <Gold.PLP.ligand.torsion>
0.2502

> <Gold.PLP.Chemscore.Hbond>
2.0000

> <Gold.PLP.Chemscore.CHOScore>
0.0000

> <Gold.PLP.Chemscore.Metal>
0.0000

> <Gold.Chemscore.Hbonds>
donor molecule, donor type, donor heavy atom, donor atom, acceptor molecule, acceptor atom, score
      L1  H     1    19       P1  8028  0.88
      P1  H  7989  7998       L1     6  1.00

> <Gold.PLP.Chemscore.Internal.Correction>
0.0171

> <Gold.Rescore>
     Score         DG    S(hbond)    S(metal)    S(lipo)     H(rot)  DE(clash)    DE(int)     intcor
     18.85     -20.88       1.67        0.00     122.49       1.76       1.67       0.35       ----

> <Gold.Chemscore.Fitness>
18.8534

> <Gold.Chemscore.DG>
-20.8796

> <Gold.Chemscore.ZeroCoef>
-5.4800

> <Gold.Chemscore.Hbond>
1.6657

> <Gold.Chemscore.Metal>
0.0000

> <Gold.Chemscore.Lipo>
122.4922

> <Gold.Chemscore.Internal_Hbond>
0.0000

> <Gold.Chemscore.DEClash>
1.6735

> <Gold.Chemscore.DEInternal>
0.3527

> <Gold.Chemscore.Rot>
1.7561

> <Gold.Chemscore.Internal.Correction>
   9.000000E+99

> <Gold.Chemscore.Hbonds>
donor molecule, donor type, donor heavy atom, donor atom, acceptor molecule, acceptor atom, score
      L1  H     1    19       P1  8028  0.84
      P1  H  7989  7998       L1     6  0.26

> <Gold.Chemscore.Hbond.Weighted>
-5.5635

> <Gold.Chemscore.Metal.Weighted>
-0.0000

> <Gold.Chemscore.Lipo.Weighted>
-14.3316

> <Gold.Chemscore.Internal_Hbond.Weighted>
0.0000

> <Gold.Chemscore.DEClash.Weighted>
1.6735

> <Gold.Chemscore.DEInternal.Weighted>
0.3527

> <Gold.Chemscore.Rot.Weighted>
4.4955

> <Gold.Chemscore.Internal.Correction.Weighted>
   9.000000E+99

> <Gold.Protein.RotatedTorsions>
[ 6907 6896 6895 6894 ] final -106.01 input  -60.11 | X-H torsion
[ 7974 7965 7964 7962 ] final  165.34 input  175.53 | X-H torsion
[ 8008 7997 7996 7995 ] final  -33.97 input   59.86 | X-H torsion
[ 10167 10162 10161 10158 ] final  175.60 input  -65.29 | X-H torsion
[ 10718 10713 10712 10709 ] final  124.06 input   66.30 | X-H torsion
[ 10763 10752 10751 10750 ] final   38.25 input  -60.55 | X-H torsion
[ 11005 11000 10999 10996 ] final   27.71 input  -57.11 | X-H torsion

> <Gold.Protein.ActiveResidues>
 VAL166  LYS551  ARG553  GLY616  TRP617  ASP618  TYR619  PRO620  LYS621  CYS622 
 ASP623  PHE694  ASN695  SER759  ASP760  ASP761  ALA762  ILE779  LEU786  VAL792 
 PHE793  MET794  SER795  GLU796  ALA797  LYS798  CYS799  TRP800  GLU811  SER814 

> <Gold.Protein.RotatedAtoms>
  150.7367  134.0040  159.3647 H   0  0  0  0  0  0  0  0  0  0  0  0  # atno 6907 bound_to 6896
  151.7996  135.0710  160.0408 H   0  0  0  0  0  0  0  0  0  0  0  0  # atno 6908 bound_to 6896
  152.3150  133.5756  159.5742 H   0  0  0  0  0  0  0  0  0  0  0  0  # atno 6909 bound_to 6896
  144.7507  139.8456  143.6367 H   0  0  0  0  0  0  0  0  0  0  0  0  # atno 7974 bound_to 7965
  154.4134  140.1696  156.1973 H   0  0  0  0  0  0  0  0  0  0  0  0  # atno 8008 bound_to 7997
  155.9553  140.3398  155.6419 H   0  0  0  0  0  0  0  0  0  0  0  0  # atno 8009 bound_to 7997
  155.6818  140.0723  157.2472 H   0  0  0  0  0  0  0  0  0  0  0  0  # atno 8010 bound_to 7997
  139.5183  144.3013  152.0376 H   0  0  0  0  0  0  0  0  0  0  0  0  # atno 10167 bound_to 10162
  157.5615  131.1089  150.8530 H   0  0  0  0  0  0  0  0  0  0  0  0  # atno 10718 bound_to 10713
  153.0008  135.6255  154.2274 H   0  0  0  0  0  0  0  0  0  0  0  0  # atno 10763 bound_to 10752
  154.2017  135.2804  155.2990 H   0  0  0  0  0  0  0  0  0  0  0  0  # atno 10764 bound_to 10752
  154.5678  135.5685  153.7126 H   0  0  0  0  0  0  0  0  0  0  0  0  # atno 10765 bound_to 10752
  140.3233  134.2519  155.7713 H   0  0  0  0  0  0  0  0  0  0  0  0  # atno 11005 bound_to 11000
  146.1452  139.4520  143.0083 LP  0  0  0  0  0  0  0  0  0  0  0  0  # atno 17320 bound_to 7965
  145.6956  141.0151  143.1532 LP  0  0  0  0  0  0  0  0  0  0  0  0  # atno 17321 bound_to 7965
  140.2460  144.4219  150.6240 LP  0  0  0  0  0  0  0  0  0  0  0  0  # atno 17342 bound_to 10162
  140.6257  143.2181  151.6601 LP  0  0  0  0  0  0  0  0  0  0  0  0  # atno 17343 bound_to 10162
  156.9027  130.5252  149.5282 LP  0  0  0  0  0  0  0  0  0  0  0  0  # atno 17370 bound_to 10713
  156.0667  130.5709  150.9302 LP  0  0  0  0  0  0  0  0  0  0  0  0  # atno 17371 bound_to 10713
  141.2081  133.7786  157.0078 LP  0  0  0  0  0  0  0  0  0  0  0  0  # atno 17394 bound_to 11000
  140.0923  134.9585  157.1795 LP  0  0  0  0  0  0  0  0  0  0  0  0  # atno 17395 bound_to 11000

$$$$
