AV-unprocessed.smi:73|AV-procd|sdf|762|dock4
  -GOLD-   2262017103D 1   1.00000     0.00000
 Structure written by MMmdl.
 35 36  0  0  0  0  0  0  0  0  2 V2000
  151.6996  138.4966  155.3746 C   0  0  0  0  0  0  0  0  0  0  0  0
  152.0247  139.9293  155.8263 C   0  0  0  0  0  0  0  0  0  0  0  0
  150.9725  140.6318  156.5890 N   0  0  0  0  0  0  0  0  0  0  0  0
  150.9431  140.0907  157.9598 C   0  0  0  0  0  0  0  0  0  0  0  0
  152.1099  140.5075  158.7992 C   0  0  0  0  0  0  0  0  0  0  0  0
  153.3936  140.1852  158.6214 N   0  0  0  0  0  0  0  0  0  0  0  0
  154.0789  140.8007  159.6452 N   0  0  0  0  0  0  0  0  0  0  0  0
  153.1572  141.4489  160.3614 C   0  0  0  0  0  0  0  0  0  0  0  0
  153.3765  142.2808  161.5783 C   0  0  0  0  0  0  0  0  0  0  0  0
  151.8963  141.3051  159.8773 O   0  0  0  0  0  0  0  0  0  0  0  0
  149.6318  140.5128  155.9703 C   0  0  1  0  0  0  0  0  0  0  0  0
  148.5384  141.3495  156.6949 C   0  0  0  0  0  0  0  0  0  0  0  0
  147.9241  142.2545  155.7114 N   0  3  0  0  0  0  0  0  0  0  0  0
  148.1342  141.6487  154.3980 C   0  0  0  0  0  0  0  0  0  0  0  0
  149.5120  141.0041  154.5073 C   0  0  2  0  0  0  0  0  0  0  0  0
  149.6010  139.9369  153.5851 O   0  0  0  0  0  0  0  0  0  0  0  0
  150.2523  141.7742  154.2924 H   0  0  0  0  0  0  0  0  0  0  0  0
  152.3898  138.1876  154.5893 H   0  0  0  0  0  0  0  0  0  0  0  0
  150.6915  138.4321  154.9639 H   0  0  0  0  0  0  0  0  0  0  0  0
  151.7956  137.7610  156.1690 H   0  0  0  0  0  0  0  0  0  0  0  0
  152.9673  139.9489  156.3748 H   0  0  0  0  0  0  0  0  0  0  0  0
  152.2328  140.4688  154.9025 H   0  0  0  0  0  0  0  0  0  0  0  0
  150.0552  140.4099  158.5013 H   0  0  0  0  0  0  0  0  0  0  0  0
  150.8971  139.0009  157.9309 H   0  0  0  0  0  0  0  0  0  0  0  0
  154.1935  141.8708  162.1725 H   0  0  0  0  0  0  0  0  0  0  0  0
  152.4749  142.3012  162.1912 H   0  0  0  0  0  0  0  0  0  0  0  0
  153.6289  143.3014  161.2903 H   0  0  0  0  0  0  0  0  0  0  0  0
  149.3173  139.4679  156.0086 H   0  0  0  0  0  0  0  0  0  0  0  0
  147.7720  140.6915  157.1060 H   0  0  0  0  0  0  0  0  0  0  0  0
  148.9218  141.9652  157.5086 H   0  0  0  0  0  0  0  0  0  0  0  0
  146.9443  142.4075  155.9026 H   0  0  0  0  0  0  0  0  0  0  0  0
  147.3597  140.8958  154.2407 H   0  0  0  0  0  0  0  0  0  0  0  0
  148.0676  142.3817  153.5934 H   0  0  0  0  0  0  0  0  0  0  0  0
  149.3680  140.2599  152.7274 H   0  0  0  0  0  0  0  0  0  0  0  0
  148.4217  143.1333  155.7368 H   0  0  0  0  0  0  0  0  0  0  0  0
  1  2  1  0  0  0  0
  1 18  1  0  0  0  0
  1 19  1  0  0  0  0
  1 20  1  0  0  0  0
  2  3  1  0  0  0  0
  2 21  1  0  0  0  0
  2 22  1  0  0  0  0
  3  4  1  0  0  0  0
  3 11  1  0  0  0  0
  4  5  1  0  0  0  0
  4 23  1  0  0  0  0
  4 24  1  0  0  0  0
  5 10  1  0  0  0  0
  5  6  2  0  0  0  0
  6  7  1  0  0  0  0
  7  8  2  0  0  0  0
  8  9  1  0  0  0  0
  8 10  1  0  0  0  0
  9 25  1  0  0  0  0
  9 26  1  0  0  0  0
  9 27  1  0  0  0  0
 11 15  1  0  0  0  0
 11 12  1  0  0  0  0
 11 28  1  0  0  0  0
 12 13  1  0  0  0  0
 12 29  1  0  0  0  0
 12 30  1  0  0  0  0
 13 14  1  0  0  0  0
 13 31  1  0  0  0  0
 13 35  1  0  0  0  0
 14 15  1  0  0  0  0
 14 32  1  0  0  0  0
 14 33  1  0  0  0  0
 15 17  1  0  0  0  0
 15 16  1  0  0  0  0
 16 34  1  0  0  0  0
M  CHG  1  13   1
M  END
> <s_m_source_file>
AV-unprocessed.smi

> <i_m_source_file_index>
73

> <i_lp_mmshare_version>
43012

> <i_f3d_flags>
0

> <s_epik_input>
W09IXVtDQEBIXTFbQ0gyXVtOSF1bQ0gyXVtDQEhdMU4oW0NIMl1bQ0gzXSlbQ0gyXWMybm5jKG8yKVtDSDNd

> <s_epik_cmdline>
J2VwaWtfcHl0aG9uJywgJy1waCcsICc3LjAnLCAnLXRuJywgJzgnLCAnLW1hJywgJzIwMCcsICctbWV0YWxfYmluZGluZycsICctaW1hZScsICc8aW5maWxlLm1hZT4nLCAnLW9tYWUnLCAnPG91dGZpbGUubWFlPic=

> <r_lp_tautomer_probability>
1

> <r_epik_Ionization_Penalty>
0.00160433

> <r_epik_Ionization_Penalty_Charging>
0.000122314

> <r_epik_Ionization_Penalty_Neutral>
0.00148202

> <r_epik_State_Penalty>
-0

> <r_epik_Charging_Adjusted_Penalty>
0.000122314

> <i_epik_Tot_Q>
1

> <i_epik_Tot_abs_Q>
1

> <r_epik_Metal_State_Penalty>
-0

> <b_epik_Metal_Only>
0

> <s_lp_Force_Field>
OPLS_2005

> <r_lp_Energy>
41.961

> <b_lp_Chiralities_Consistent>
1

> <s_lp_Variant>
AV-unprocessed.smi:73-4

> <Gold.Version>
5.8.1

> <Gold.Id.Protein>
6NUR|6NUR_protein|mol2

> <Gold.PLP.Fitness>
41.3291

> <Gold.PLP.PLP>
-30.0103

> <Gold.PLP.part.hbond>
-3.5955

> <Gold.PLP.part.metal>
0.0000

> <Gold.PLP.part.buried>
-2.9469

> <Gold.PLP.part.nonpolar>
-22.7861

> <Gold.PLP.part.repulsive>
0.0964

> <Gold.PLP.ligand.clash>
0.0000

> <Gold.PLP.ligand.torsion>
0.2479

> <Gold.PLP.Chemscore.Hbond>
3.9272

> <Gold.PLP.Chemscore.CHOScore>
0.0000

> <Gold.PLP.Chemscore.Metal>
0.0000

> <Gold.Chemscore.Hbonds>
donor molecule, donor type, donor heavy atom, donor atom, acceptor molecule, acceptor atom, score
      L1  H    13    35       P1  8028  2.00
      L1  H    16    34       P1  7957  0.88
      P1  H  7997  8010       L1     6  0.96

> <Gold.PLP.Chemscore.Internal.Correction>
0.0329

> <Gold.Rescore>
     Score         DG    S(hbond)    S(metal)    S(lipo)     H(rot)  DE(clash)    DE(int)     intcor
     13.76     -14.17       2.66        0.00      53.02       2.51       0.25       0.16       ----

> <Gold.Chemscore.Fitness>
13.7555

> <Gold.Chemscore.DG>
-14.1711

> <Gold.Chemscore.ZeroCoef>
-5.4800

> <Gold.Chemscore.Hbond>
2.6650

> <Gold.Chemscore.Metal>
0.0000

> <Gold.Chemscore.Lipo>
53.0187

> <Gold.Chemscore.Internal_Hbond>
0.0000

> <Gold.Chemscore.DEClash>
0.2542

> <Gold.Chemscore.DEInternal>
0.1614

> <Gold.Chemscore.Rot>
2.5051

> <Gold.Chemscore.Internal.Correction>
   9.000000E+99

> <Gold.Chemscore.Hbonds>
donor molecule, donor type, donor heavy atom, donor atom, acceptor molecule, acceptor atom, score
      L1  H    13    35       P1  8028  0.97
      L1  H    16    34       P1  7957  0.85
      P1  H  7997  8010       L1     6  0.45

> <Gold.Chemscore.Hbond.Weighted>
-8.9010

> <Gold.Chemscore.Metal.Weighted>
-0.0000

> <Gold.Chemscore.Lipo.Weighted>
-6.2032

> <Gold.Chemscore.Internal_Hbond.Weighted>
0.0000

> <Gold.Chemscore.DEClash.Weighted>
0.2542

> <Gold.Chemscore.DEInternal.Weighted>
0.1614

> <Gold.Chemscore.Rot.Weighted>
6.4131

> <Gold.Chemscore.Internal.Correction.Weighted>
   9.000000E+99

> <Gold.Protein.RotatedTorsions>
[ 6907 6896 6895 6894 ] final  -16.15 input  -60.11 | X-H torsion
[ 7974 7965 7964 7962 ] final  -40.46 input  175.53 | X-H torsion
[ 8008 7997 7996 7995 ] final   26.55 input   59.86 | X-H torsion
[ 10167 10162 10161 10158 ] final   42.79 input  -65.29 | X-H torsion
[ 10718 10713 10712 10709 ] final  107.49 input   66.30 | X-H torsion
[ 10763 10752 10751 10750 ] final  132.06 input  -60.55 | X-H torsion
[ 11005 11000 10999 10996 ] final  107.05 input  -57.11 | X-H torsion

> <Gold.Protein.ActiveResidues>
 VAL166  LYS551  ARG553  GLY616  TRP617  ASP618  TYR619  PRO620  LYS621  CYS622 
 ASP623  PHE694  ASN695  SER759  ASP760  ASP761  ALA762  ILE779  LEU786  VAL792 
 PHE793  MET794  SER795  GLU796  ALA797  LYS798  CYS799  TRP800  GLU811  SER814 

> <Gold.Protein.RotatedAtoms>
  151.3130  135.0799  159.9278 H   0  0  0  0  0  0  0  0  0  0  0  0  # atno 6907 bound_to 6896
  152.5273  133.9717  159.7775 H   0  0  0  0  0  0  0  0  0  0  0  0  # atno 6908 bound_to 6896
  151.0024  133.5992  159.2723 H   0  0  0  0  0  0  0  0  0  0  0  0  # atno 6909 bound_to 6896
  146.0302  140.6741  142.9136 H   0  0  0  0  0  0  0  0  0  0  0  0  # atno 7974 bound_to 7965
  155.0290  140.3156  155.4765 H   0  0  0  0  0  0  0  0  0  0  0  0  # atno 8008 bound_to 7997
  156.2878  140.2184  156.5353 H   0  0  0  0  0  0  0  0  0  0  0  0  # atno 8009 bound_to 7997
  154.7387  140.0475  157.0779 H   0  0  0  0  0  0  0  0  0  0  0  0  # atno 8010 bound_to 7997
  140.3509  144.2351  150.6146 H   0  0  0  0  0  0  0  0  0  0  0  0  # atno 10167 bound_to 10162
  157.6626  131.0874  150.6165 H   0  0  0  0  0  0  0  0  0  0  0  0  # atno 10718 bound_to 10713
  153.7845  135.3164  155.3370 H   0  0  0  0  0  0  0  0  0  0  0  0  # atno 10763 bound_to 10752
  154.8149  135.4643  154.0619 H   0  0  0  0  0  0  0  0  0  0  0  0  # atno 10764 bound_to 10752
  153.1918  135.6909  153.8429 H   0  0  0  0  0  0  0  0  0  0  0  0  # atno 10765 bound_to 10752
  139.8822  134.9389  156.5760 H   0  0  0  0  0  0  0  0  0  0  0  0  # atno 11005 bound_to 11000
  144.7027  140.3722  143.7143 LP  0  0  0  0  0  0  0  0  0  0  0  0  # atno 17320 bound_to 7965
  145.7053  139.1671  143.2569 LP  0  0  0  0  0  0  0  0  0  0  0  0  # atno 17321 bound_to 7965
  140.5220  143.2263  151.8374 LP  0  0  0  0  0  0  0  0  0  0  0  0  # atno 17342 bound_to 10162
  139.4826  144.4825  151.9288 LP  0  0  0  0  0  0  0  0  0  0  0  0  # atno 17343 bound_to 10162
  156.6467  130.4473  149.5733 LP  0  0  0  0  0  0  0  0  0  0  0  0  # atno 17370 bound_to 10713
  156.2168  130.6713  151.1327 LP  0  0  0  0  0  0  0  0  0  0  0  0  # atno 17371 bound_to 10713
  140.8062  133.8465  155.8770 LP  0  0  0  0  0  0  0  0  0  0  0  0  # atno 17394 bound_to 11000
  140.9547  134.1733  157.4700 LP  0  0  0  0  0  0  0  0  0  0  0  0  # atno 17395 bound_to 11000

$$$$
