#       Name:                AV-unprocessed.smi:2451
#       Creating user name   scv26
#       Creation time:       Fri Mar 27 13:31:52 2020


#       File generated by GOLD software.
#

@<TRIPOS>MOLECULE
AV-unprocessed.smi:2451
    41    42     1
SMALL
NO_CHARGES


@<TRIPOS>ATOM
      1 ****        -3.2401  -1.9067  -2.2434 C.3            1 S1                 0.0000
      2 ****        -2.7091  -1.2094  -0.9787 C.3            1 S1                 0.0000
      3 ****        -3.1957  -1.9291   0.3048 C.3            1 S1                 0.0000
      4 ****        -2.7089  -1.1659   1.5564 C.3            1 S1                 0.0000
      5 ****        -1.1828  -0.8946   1.5544 C.3            1 S1                 0.0000
      6 ****        -0.7019  -0.1814   0.2682 C.3            1 S1                 0.0000
      7 ****         0.7407   0.0191   0.2921 N.pl3          1 S1                -1.0000
      8 ****         1.3402   1.5251   0.2911 S.o2           1 S1                 0.0000
      9 ****         1.0515   2.2499  -0.9573 O.2            1 S1                 0.0000
     10 ****         1.0761   2.2371   1.5524 O.2            1 S1                 0.0000
     11 ****         3.1489   1.1686   0.2693 C.3            1 S1                 0.0000
     12 ****         3.9298   2.4520   0.2995 C.2            1 S1                 0.0000
     13 ****         4.2435   3.2685   1.4214 C.2            1 S1                 0.0000
     14 ****         4.9682   4.2905   0.8799 C.2            1 S1                 0.0000
     15 ****         5.1025   4.1203  -0.4595 O.3            1 S1                 0.0000
     16 ****         4.4395   2.9417  -0.8204 N.2            1 S1                 0.0000
     17 ****        -1.1566  -0.9899  -0.9919 C.3            1 S1                 0.0000
     18 ****        -0.3813  -2.3204  -1.2014 C.3            1 S1                 0.0000
     19 ****        -2.9372  -2.9525  -2.2905 H              1 S1                 0.0000
     20 ****        -2.8838  -1.4098  -3.1462 H              1 S1                 0.0000
     21 ****        -4.3300  -1.8862  -2.2671 H              1 S1                 0.0000
     22 ****        -3.1840  -0.2248  -0.9859 H              1 S1                 0.0000
     23 ****        -4.2840  -1.9968   0.3139 H              1 S1                 0.0000
     24 ****        -2.8217  -2.9532   0.3280 H              1 S1                 0.0000
     25 ****        -3.2518  -0.2216   1.6332 H              1 S1                 0.0000
     26 ****        -2.9748  -1.7307   2.4503 H              1 S1                 0.0000
     27 ****        -0.9260  -0.2916   2.4264 H              1 S1                 0.0000
     28 ****        -0.6524  -1.8399   1.6761 H              1 S1                 0.0000
     29 ****        -1.2226   0.7768   0.2310 H              1 S1                 0.0000
     30 ****         3.3845   0.5513   1.1357 H              1 S1                 0.0000
     31 ****         3.3711   0.5850  -0.6244 H              1 S1                 0.0000
     32 ****         3.9729   3.1270   2.4571 H              1 S1                 0.0000
     33 ****         5.4373   5.1694   1.2966 H              1 S1                 0.0000
     34 ****        -0.9308  -0.3672  -1.8590 H              1 S1                 0.0000
     35 ****        -0.5628  -3.0433  -0.4053 H              1 S1                 0.0000
     36 ****         0.6975  -2.1710  -1.2694 H              1 S1                 0.0000
     37 ****        -0.6649  -2.7975  -2.1386 H              1 S1                 0.0000
     38 ****         1.3576  -0.7677   0.3091 LP             1 S1                 0.0000
     39 ****         6.0715   4.0494  -0.6960 LP             1 S1                 0.0000
     40 ****         4.6977   4.8974  -0.9415 LP             1 S1                 0.0000
     41 ****         4.3657   2.5493  -1.7372 LP             1 S1                 0.0000
@<TRIPOS>BOND
    1    1    2 1     
    2    1   19 1     
    3    1   20 1     
    4    1   21 1     
    5    2   17 1     
    6    2    3 1     
    7    2   22 1     
    8    3    4 1     
    9    3   23 1     
   10    3   24 1     
   11    4    5 1     
   12    4   25 1     
   13    4   26 1     
   14    5    6 1     
   15    5   27 1     
   16    5   28 1     
   17    6    7 1     
   18    6   17 1     
   19    6   29 1     
   20    7    8 1     
   21    8    9 2     
   22    8   10 2     
   23    8   11 1     
   24   11   12 1     
   25   11   30 1     
   26   11   31 1     
   27   12   16 2     
   28   12   13 1     
   29   13   14 2     
   30   13   32 1     
   31   14   15 1     
   32   14   33 1     
   33   15   16 1     
   34   17   18 1     
   35   17   34 1     
   36   18   35 1     
   37   18   36 1     
   38   18   37 1     
   39    7   38 1     
   40   15   39 1     
   41   15   40 1     
   42   16   41 1     
@<TRIPOS>SUBSTRUCTURE
      1 S1             1
@<TRIPOS>SET
LONE_PAIRS      STATIC     ATOMS    <user>   **** ""
6 38 9 10 39 40 41
ATOM$BLUE        STATIC     ATOMS    COLORGROUP SYSTEM
6 38 9 10 39 40 41
