#       Name:                AV-unprocessed.smi:3246
#       Creating user name   scv26
#       Creation time:       Fri Mar 27 18:29:15 2020


#       File generated by GOLD software.
#

@<TRIPOS>MOLECULE
AV-unprocessed.smi:3246
    40    41     1
SMALL
NO_CHARGES


@<TRIPOS>ATOM
      1 ****        -0.6063   2.1575   1.7513 O.2            1 S1                 0.0000
      2 ****        -1.1397   1.2615   1.0981 C.2            1 S1                 0.0000
      3 ****        -2.6366   1.3747   0.7648 C.3            1 S1                 0.0000
      4 ****        -3.1952   0.2384   0.0271 N.am           1 S1                 0.0000
      5 ****        -3.3369   0.2912  -1.4188 C.3            1 S1                 0.0000
      6 ****        -3.7251  -1.1353  -1.8330 C.3            1 S1                 0.0000
      7 ****        -4.1364  -1.8471  -0.5397 C.3            1 S1                 0.0000
      8 ****        -3.6352  -0.9136   0.5490 C.2            1 S1                 0.0000
      9 ****        -3.6398  -1.2141   1.7415 O.2            1 S1                 0.0000
     10 ****        -0.4656   0.1853   0.6577 N.am           1 S1                 0.0000
     11 ****         0.9508  -0.0711   0.8857 C.3            1 S1                 0.0000
     12 ****         1.8323   0.7148  -0.0978 C.3            1 S1                 0.0000
     13 ****         3.3073   0.4368   0.1134 C.ar           1 S1                 0.0000
     14 ****         3.9718  -0.5609  -0.6293 C.ar           1 S1                 0.0000
     15 ****         5.3417  -0.7838  -0.3911 C.ar           1 S1                 0.0000
     16 ****         5.9900   0.0025   0.5823 C.ar           1 S1                 0.0000
     17 ****         5.3635   0.9601   1.2998 N.ar           1 S1                 0.0000
     18 ****         4.0498   1.1676   1.0652 C.ar           1 S1                 0.0000
     19 ****        -3.1907   1.5128   1.6947 H              1 S1                 0.0000
     20 ****        -2.7891   2.2852   0.1841 H              1 S1                 0.0000
     21 ****        -4.1236   1.0013  -1.6774 H              1 S1                 0.0000
     22 ****        -2.4120   0.6147  -1.8980 H              1 S1                 0.0000
     23 ****        -4.5258  -1.1369  -2.5733 H              1 S1                 0.0000
     24 ****        -2.8674  -1.6424  -2.2771 H              1 S1                 0.0000
     25 ****        -5.2199  -1.9429  -0.4639 H              1 S1                 0.0000
     26 ****        -3.6892  -2.8377  -0.4537 H              1 S1                 0.0000
     27 ****        -0.9757  -0.5093   0.1314 H              1 S1                 0.0000
     28 ****         1.2135   0.1720   1.9167 H              1 S1                 0.0000
     29 ****         1.1227  -1.1411   0.7655 H              1 S1                 0.0000
     30 ****         1.5638   0.4636  -1.1249 H              1 S1                 0.0000
     31 ****         1.6601   1.7865   0.0115 H              1 S1                 0.0000
     32 ****         3.4432  -1.1466  -1.3669 H              1 S1                 0.0000
     33 ****         5.8831  -1.5394  -0.9409 H              1 S1                 0.0000
     34 ****         7.0400  -0.1417   0.7900 H              1 S1                 0.0000
     35 ****         3.5767   1.9379   1.6567 H              1 S1                 0.0000
     36 ****        -1.1453   2.9427   2.0562 LP             1 S1                 0.0000
     37 ****         0.3662   2.1005   1.9772 LP             1 S1                 0.0000
     38 ****        -3.2918  -0.5684   2.4212 LP             1 S1                 0.0000
     39 ****        -3.9916  -2.1042   2.0315 LP             1 S1                 0.0000
     40 ****         5.8568   1.4984   1.9831 LP             1 S1                 0.0000
@<TRIPOS>BOND
    1    1    2 2     
    2    2    3 1     
    3    2   10 am    
    4    3    4 1     
    5    3   19 1     
    6    3   20 1     
    7    4    8 am    
    8    4    5 1     
    9    5    6 1     
   10    5   21 1     
   11    5   22 1     
   12    6    7 1     
   13    6   23 1     
   14    6   24 1     
   15    7    8 1     
   16    7   25 1     
   17    7   26 1     
   18    8    9 2     
   19   10   11 1     
   20   10   27 1     
   21   11   12 1     
   22   11   28 1     
   23   11   29 1     
   24   12   13 1     
   25   12   30 1     
   26   12   31 1     
   27   13   18 ar    
   28   13   14 ar    
   29   14   15 ar    
   30   14   32 1     
   31   15   16 ar    
   32   15   33 1     
   33   16   17 ar    
   34   16   34 1     
   35   17   18 ar    
   36   18   35 1     
   37    1   36 1     
   38    1   37 1     
   39    9   38 1     
   40    9   39 1     
   41   17   40 1     
@<TRIPOS>SUBSTRUCTURE
      1 S1             1
@<TRIPOS>SET
LONE_PAIRS      STATIC     ATOMS    <user>   **** ""
5 36 37 38 39 40
DONOR_HYDROGENS      STATIC     ATOMS    <user>   **** ""
1 27
ATOM$BLUE        STATIC     ATOMS    COLORGROUP SYSTEM
5 36 37 38 39 40
ATOM$RED        STATIC     ATOMS    COLORGROUP SYSTEM
1 27
