AV-unprocessed.smi:183|AV-procd|sdf|1457|dock10
  -GOLD-   2262019263D 1   1.00000     0.00000
 Structure written by MMmdl.
 55 57  0  0  0  0  0  0  0  0  1 V2000
  145.4605  135.8117  162.0632 C   0  0  0  0  0  0  0  0  0  0  0  0
  146.7966  136.4165  161.6462 C   0  0  0  0  0  0  0  0  0  0  0  0
  147.2106  137.4377  162.1945 O   0  0  0  0  0  0  0  0  0  0  0  0
  147.4616  135.7737  160.6746 N   0  0  0  0  0  0  0  0  0  0  0  0
  148.7478  136.1878  160.1296 C   0  0  0  0  0  0  0  0  0  0  0  0
  148.7912  136.0044  158.5997 C   0  0  0  0  0  0  0  0  0  0  0  0
  150.1500  135.8922  158.0614 N   0  0  0  0  0  0  0  0  0  0  0  0
  150.8811  137.0031  158.3246 C   0  0  0  0  0  0  0  0  0  0  0  0
  151.9168  136.8709  159.1910 N   0  0  0  0  0  0  0  0  0  0  0  0
  152.6722  137.9290  159.4998 C   0  0  0  0  0  0  0  0  0  0  0  0
  152.5638  139.1869  159.0675 N   0  0  0  0  0  0  0  0  0  0  0  0
  151.5176  139.3264  158.2036 C   0  0  0  0  0  0  0  0  0  0  0  0
  150.6293  138.2969  157.7827 C   0  0  0  0  0  0  0  0  0  0  0  0
  149.6792  138.8201  156.9131 N   0  0  0  0  0  0  0  0  0  0  0  0
  149.9915  140.0833  156.8211 C   0  0  0  0  0  0  0  0  0  0  0  0
  151.0888  140.4718  157.5558 N   0  0  0  0  0  0  0  0  0  0  0  0
  151.6559  141.8091  157.6358 C   0  0  0  0  0  0  0  0  0  0  0  0
  151.4404  142.4904  159.0128 C   0  0  1  0  0  0  0  0  0  0  0  0
  150.0633  142.4007  159.3380 O   0  0  0  0  0  0  0  0  0  0  0  0
  152.2285  141.8385  160.1464 C   0  0  0  0  0  0  0  0  0  0  0  0
  152.4654  142.9922  161.1088 C   0  0  0  0  0  0  0  0  0  0  0  0
  152.7349  144.0697  160.2302 O   0  0  0  0  0  0  0  0  0  0  0  0
  151.8528  143.9866  159.1135 C   0  0  1  0  0  0  0  0  0  0  0  0
  152.5796  144.5890  157.9005 C   0  0  0  0  0  0  0  0  0  0  0  0
  150.3848  135.2032  156.7803 C   0  0  0  0  0  0  0  0  0  0  0  0
  149.9334  136.0566  155.5799 C   0  0  0  0  0  0  0  0  0  0  0  0
  149.6743  133.8334  156.7076 C   0  0  0  0  0  0  0  0  0  0  0  0
  145.6165  134.8546  162.5613 H   0  0  0  0  0  0  0  0  0  0  0  0
  144.8246  135.6495  161.1924 H   0  0  0  0  0  0  0  0  0  0  0  0
  144.9332  136.4737  162.7507 H   0  0  0  0  0  0  0  0  0  0  0  0
  147.0461  134.9403  160.2842 H   0  0  0  0  0  0  0  0  0  0  0  0
  148.9006  137.2344  160.3922 H   0  0  0  0  0  0  0  0  0  0  0  0
  149.5471  135.6260  160.6145 H   0  0  0  0  0  0  0  0  0  0  0  0
  148.2187  135.1171  158.3241 H   0  0  0  0  0  0  0  0  0  0  0  0
  148.2798  136.8330  158.1105 H   0  0  0  0  0  0  0  0  0  0  0  0
  153.4786  137.7409  160.1932 H   0  0  0  0  0  0  0  0  0  0  0  0
  149.4270  140.7704  156.2077 H   0  0  0  0  0  0  0  0  0  0  0  0
  152.7198  141.7265  157.4130 H   0  0  0  0  0  0  0  0  0  0  0  0
  151.2191  142.4128  156.8392 H   0  0  0  0  0  0  0  0  0  0  0  0
  149.6908  143.2687  159.3073 H   0  0  0  0  0  0  0  0  0  0  0  0
  151.7206  140.9903  160.6081 H   0  0  0  0  0  0  0  0  0  0  0  0
  153.1935  141.4875  159.7789 H   0  0  0  0  0  0  0  0  0  0  0  0
  151.5714  143.2073  161.6963 H   0  0  0  0  0  0  0  0  0  0  0  0
  153.2955  142.8106  161.7914 H   0  0  0  0  0  0  0  0  0  0  0  0
  150.9821  144.6070  159.3344 H   0  0  0  0  0  0  0  0  0  0  0  0
  151.9522  144.5691  157.0094 H   0  0  0  0  0  0  0  0  0  0  0  0
  153.5042  144.0544  157.6812 H   0  0  0  0  0  0  0  0  0  0  0  0
  152.8431  145.6298  158.0893 H   0  0  0  0  0  0  0  0  0  0  0  0
  151.4561  135.0339  156.6742 H   0  0  0  0  0  0  0  0  0  0  0  0
  150.0609  135.5135  154.6431 H   0  0  0  0  0  0  0  0  0  0  0  0
  150.5162  136.9731  155.4903 H   0  0  0  0  0  0  0  0  0  0  0  0
  148.8813  136.3315  155.6619 H   0  0  0  0  0  0  0  0  0  0  0  0
  149.8333  133.3631  155.7370 H   0  0  0  0  0  0  0  0  0  0  0  0
  148.5984  133.9402  156.8497 H   0  0  0  0  0  0  0  0  0  0  0  0
  150.0399  133.1310  157.4561 H   0  0  0  0  0  0  0  0  0  0  0  0
  1  2  1  0  0  0  0
  1 28  1  0  0  0  0
  1 29  1  0  0  0  0
  1 30  1  0  0  0  0
  2  3  2  0  0  0  0
  2  4  1  0  0  0  0
  4  5  1  0  0  0  0
  4 31  1  0  0  0  0
  5  6  1  0  0  0  0
  5 32  1  0  0  0  0
  5 33  1  0  0  0  0
  6  7  1  0  0  0  0
  6 34  1  0  0  0  0
  6 35  1  0  0  0  0
  7  8  1  0  0  0  0
  7 25  1  0  0  0  0
  8 13  1  0  0  0  0
  8  9  2  0  0  0  0
  9 10  1  0  0  0  0
 10 11  2  0  0  0  0
 10 36  1  0  0  0  0
 11 12  1  0  0  0  0
 12 16  1  0  0  0  0
 12 13  2  0  0  0  0
 13 14  1  0  0  0  0
 14 15  2  0  0  0  0
 15 16  1  0  0  0  0
 15 37  1  0  0  0  0
 16 17  1  0  0  0  0
 17 18  1  0  0  0  0
 17 38  1  0  0  0  0
 17 39  1  0  0  0  0
 18 23  1  0  0  0  0
 18 19  1  0  0  0  0
 18 20  1  0  0  0  0
 19 40  1  0  0  0  0
 20 21  1  0  0  0  0
 20 41  1  0  0  0  0
 20 42  1  0  0  0  0
 21 22  1  0  0  0  0
 21 43  1  0  0  0  0
 21 44  1  0  0  0  0
 22 23  1  0  0  0  0
 23 24  1  0  0  0  0
 23 45  1  0  0  0  0
 24 46  1  0  0  0  0
 24 47  1  0  0  0  0
 24 48  1  0  0  0  0
 25 26  1  0  0  0  0
 25 27  1  0  0  0  0
 25 49  1  0  0  0  0
 26 50  1  0  0  0  0
 26 51  1  0  0  0  0
 26 52  1  0  0  0  0
 27 53  1  0  0  0  0
 27 54  1  0  0  0  0
 27 55  1  0  0  0  0
M  END
> <s_m_source_file>
AV-unprocessed.smi

> <i_m_source_file_index>
183

> <i_lp_mmshare_version>
43012

> <i_f3d_flags>
0

> <s_epik_input>
W0NIM11DKD1PKVtOSF1bQ0gyXVtDSDJdTihbQ0hdKFtDSDNdKVtDSDNdKWMobltjSF1uMSljKGMxMiluW2NIXW4yW0NIMl1bQ0BAXTMoW09IXSlbQ0gyXVtDSDJdT1tDQEhdM1tDSDNd

> <s_epik_cmdline>
J2VwaWtfcHl0aG9uJywgJy1waCcsICc3LjAnLCAnLXRuJywgJzgnLCAnLW1hJywgJzIwMCcsICctbWV0YWxfYmluZGluZycsICctaW1hZScsICc8aW5maWxlLm1hZT4nLCAnLW9tYWUnLCAnPG91dGZpbGUubWFlPic=

> <r_lp_tautomer_probability>
1

> <r_epik_Ionization_Penalty>
0.00156158

> <r_epik_Ionization_Penalty_Charging>
0

> <r_epik_Ionization_Penalty_Neutral>
0.00156158

> <r_epik_State_Penalty>
0.000865808

> <r_epik_Charging_Adjusted_Penalty>
0.000865808

> <i_epik_Tot_Q>
0

> <i_epik_Tot_abs_Q>
0

> <r_epik_Metal_State_Penalty>
-0

> <b_epik_Metal_Only>
0

> <s_lp_Force_Field>
OPLS_2005

> <r_lp_Energy>
29.4164

> <b_lp_Chiralities_Consistent>
1

> <s_lp_Variant>
AV-unprocessed.smi:183-1

> <Gold.Version>
5.8.1

> <Gold.Id.Protein>
6NUR|6NUR_protein|mol2

> <Gold.PLP.Fitness>
47.3311

> <Gold.PLP.PLP>
-41.1655

> <Gold.PLP.part.hbond>
-5.0000

> <Gold.PLP.part.metal>
0.0000

> <Gold.PLP.part.buried>
-5.5852

> <Gold.PLP.part.nonpolar>
-31.0979

> <Gold.PLP.part.repulsive>
0.1402

> <Gold.PLP.ligand.clash>
0.0000

> <Gold.PLP.ligand.torsion>
0.9438

> <Gold.PLP.Chemscore.Hbond>
2.3107

> <Gold.PLP.Chemscore.CHOScore>
0.0000

> <Gold.PLP.Chemscore.Metal>
0.0000

> <Gold.Chemscore.Hbonds>
donor molecule, donor type, donor heavy atom, donor atom, acceptor molecule, acceptor atom, score
      P1  H  6896  6908       L1     7  0.12
      P1  H  6896  6909       L1     9  0.88
      P1  H  6931  6943       L1     3  0.70
      P1  H  6934  6947       L1     3  0.62

> <Gold.PLP.Chemscore.Internal.Correction>
1.1212

> <Gold.Rescore>
     Score         DG    S(hbond)    S(metal)    S(lipo)     H(rot)  DE(clash)    DE(int)     intcor
     12.16     -14.42       2.06        0.00      92.86       3.45       0.02       2.24       ----

> <Gold.Chemscore.Fitness>
12.1601

> <Gold.Chemscore.DG>
-14.4216

> <Gold.Chemscore.ZeroCoef>
-5.4800

> <Gold.Chemscore.Hbond>
2.0647

> <Gold.Chemscore.Metal>
0.0000

> <Gold.Chemscore.Lipo>
92.8615

> <Gold.Chemscore.Internal_Hbond>
0.0000

> <Gold.Chemscore.DEClash>
0.0195

> <Gold.Chemscore.DEInternal>
2.2420

> <Gold.Chemscore.Rot>
3.4451

> <Gold.Chemscore.Internal.Correction>
   9.000000E+99

> <Gold.Chemscore.Hbonds>
donor molecule, donor type, donor heavy atom, donor atom, acceptor molecule, acceptor atom, score
      P1  H  6896  6909       L1     9  0.67
      P1  H  6931  6943       L1     3  0.67
      P1  H  6934  6947       L1     3  0.50

> <Gold.Chemscore.Hbond.Weighted>
-6.8962

> <Gold.Chemscore.Metal.Weighted>
-0.0000

> <Gold.Chemscore.Lipo.Weighted>
-10.8648

> <Gold.Chemscore.Internal_Hbond.Weighted>
0.0000

> <Gold.Chemscore.DEClash.Weighted>
0.0195

> <Gold.Chemscore.DEInternal.Weighted>
2.2420

> <Gold.Chemscore.Rot.Weighted>
8.8194

> <Gold.Chemscore.Internal.Correction.Weighted>
   9.000000E+99

> <Gold.Protein.RotatedTorsions>
[ 6907 6896 6895 6894 ] final  139.99 input  -60.11 | X-H torsion
[ 7974 7965 7964 7962 ] final -100.75 input  175.53 | X-H torsion
[ 8008 7997 7996 7995 ] final -124.85 input   59.86 | X-H torsion
[ 10167 10162 10161 10158 ] final   51.62 input  -65.29 | X-H torsion
[ 10718 10713 10712 10709 ] final   -4.50 input   66.30 | X-H torsion
[ 10763 10752 10751 10750 ] final  -36.42 input  -60.55 | X-H torsion
[ 11005 11000 10999 10996 ] final  -30.24 input  -57.11 | X-H torsion

> <Gold.Protein.ActiveResidues>
 VAL166  LYS551  ARG553  GLY616  TRP617  ASP618  TYR619  PRO620  LYS621  CYS622 
 ASP623  PHE694  ASN695  SER759  ASP760  ASP761  ALA762  ILE779  LEU786  VAL792 
 PHE793  MET794  SER795  GLU796  ALA797  LYS798  CYS799  TRP800  GLU811  SER814 

> <Gold.Protein.RotatedAtoms>
  152.2484  133.5194  159.5310 H   0  0  0  0  0  0  0  0  0  0  0  0  # atno 6907 bound_to 6896
  150.7086  134.0994  159.3969 H   0  0  0  0  0  0  0  0  0  0  0  0  # atno 6908 bound_to 6896
  151.8914  135.0415  160.0549 H   0  0  0  0  0  0  0  0  0  0  0  0  # atno 6909 bound_to 6896
  145.2904  140.9351  143.2881 H   0  0  0  0  0  0  0  0  0  0  0  0  # atno 7974 bound_to 7965
  155.2036  140.0416  157.2921 H   0  0  0  0  0  0  0  0  0  0  0  0  # atno 8008 bound_to 7997
  154.6058  140.2464  155.7704 H   0  0  0  0  0  0  0  0  0  0  0  0  # atno 8009 bound_to 7997
  156.2349  140.2925  156.0295 H   0  0  0  0  0  0  0  0  0  0  0  0  # atno 8010 bound_to 7997
  140.2600  144.3383  150.6321 H   0  0  0  0  0  0  0  0  0  0  0  0  # atno 10167 bound_to 10162
  156.7604  130.5268  149.5786 H   0  0  0  0  0  0  0  0  0  0  0  0  # atno 10718 bound_to 10713
  153.8795  135.6823  153.4768 H   0  0  0  0  0  0  0  0  0  0  0  0  # atno 10763 bound_to 10752
  153.1242  135.4726  154.9242 H   0  0  0  0  0  0  0  0  0  0  0  0  # atno 10764 bound_to 10752
  154.7675  135.3229  154.8207 H   0  0  0  0  0  0  0  0  0  0  0  0  # atno 10765 bound_to 10752
  140.9366  133.7305  156.1013 H   0  0  0  0  0  0  0  0  0  0  0  0  # atno 11005 bound_to 11000
  144.9177  139.4450  143.6556 LP  0  0  0  0  0  0  0  0  0  0  0  0  # atno 17320 bound_to 7965
  146.3186  139.8020  142.8963 LP  0  0  0  0  0  0  0  0  0  0  0  0  # atno 17321 bound_to 7965
  140.5973  143.2167  151.7139 LP  0  0  0  0  0  0  0  0  0  0  0  0  # atno 17342 bound_to 10162
  139.5019  144.3847  152.0340 LP  0  0  0  0  0  0  0  0  0  0  0  0  # atno 17343 bound_to 10162
  156.1342  130.6200  151.0377 LP  0  0  0  0  0  0  0  0  0  0  0  0  # atno 17370 bound_to 10713
  157.6737  131.0855  150.7549 LP  0  0  0  0  0  0  0  0  0  0  0  0  # atno 17371 bound_to 10713
  140.7791  134.3746  157.5491 LP  0  0  0  0  0  0  0  0  0  0  0  0  # atno 17394 bound_to 11000
  139.8809  134.9070  156.2936 LP  0  0  0  0  0  0  0  0  0  0  0  0  # atno 17395 bound_to 11000

$$$$
