#       Name:                AV-unprocessed.smi:2747
#       Creating user name   scv26
#       Creation time:       Fri Mar 27 15:03:24 2020


#       File generated by GOLD software.
#

@<TRIPOS>MOLECULE
AV-unprocessed.smi:2747
    25    26     1
SMALL
NO_CHARGES


@<TRIPOS>ATOM
      1 ****        -2.1205  -0.3690   1.0029 O.co2          1 S1                -1.0000
      2 ****        -1.6713  -1.5940   0.8623 C.3            1 S1                 0.0000
      3 ****        -0.1220  -1.5186   0.7673 C.3            1 S1                 0.0000
      4 ****         0.3830  -0.8190  -0.4121 N.pl3          1 S1                 0.0000
      5 ****         0.6426  -1.5187  -1.5568 N.2            1 S1                 0.0000
      6 ****         1.1060  -0.6989  -2.4529 N.2            1 S1                 0.0000
      7 ****         1.1626   0.5645  -1.8888 C.ar           1 S1                 0.0000
      8 ****         1.5880   1.8086  -2.4058 C.ar           1 S1                 0.0000
      9 ****         1.5464   2.9685  -1.6009 C.ar           1 S1                 0.0000
     10 ****         2.0772   4.4711  -2.2690 Cl             1 S1                 0.0000
     11 ****         1.0771   2.8963  -0.2670 C.ar           1 S1                 0.0000
     12 ****         1.0192   4.3055   0.7312 Cl             1 S1                 0.0000
     13 ****         0.6511   1.6619   0.2617 C.ar           1 S1                 0.0000
     14 ****         0.7004   0.5200  -0.5559 C.ar           1 S1                 0.0000
     15 ****        -2.1188  -2.4049   2.1028 C.3            1 S1                 0.0000
     16 ****        -3.4496  -2.4920   2.1458 F              1 S1                 0.0000
     17 ****        -1.6324  -3.6445   2.0267 F              1 S1                 0.0000
     18 ****        -1.6800  -1.8526   3.2366 F              1 S1                 0.0000
     19 ****        -1.9836  -2.1905   0.0035 H              1 S1                 0.0000
     20 ****         0.2914  -1.0300   1.6511 H              1 S1                 0.0000
     21 ****         0.2974  -2.5256   0.7638 H              1 S1                 0.0000
     22 ****         1.9489   1.8701  -3.4219 H              1 S1                 0.0000
     23 ****         0.2868   1.5909   1.2761 H              1 S1                 0.0000
     24 ****         0.4996  -2.5001  -1.6842 LP             1 S1                 0.0000
     25 ****         1.3745  -0.9385  -3.3859 LP             1 S1                 0.0000
@<TRIPOS>BOND
    1    1    2 1     
    2    2    3 1     
    3    2   15 1     
    4    2   19 1     
    5    3    4 1     
    6    3   20 1     
    7    3   21 1     
    8    4   14 1     
    9    4    5 1     
   10    5    6 2     
   11    6    7 1     
   12    7   14 ar    
   13    7    8 ar    
   14    8    9 ar    
   15    8   22 1     
   16    9   10 1     
   17    9   11 ar    
   18   11   12 1     
   19   11   13 ar    
   20   13   14 ar    
   21   13   23 1     
   22   15   16 1     
   23   15   17 1     
   24   15   18 1     
   25    5   24 1     
   26    6   25 1     
@<TRIPOS>SUBSTRUCTURE
      1 S1             1
@<TRIPOS>SET
LONE_PAIRS      STATIC     ATOMS    <user>   **** ""
3 1 24 25
ATOM$BLUE        STATIC     ATOMS    COLORGROUP SYSTEM
3 1 24 25
