AV-unprocessed.smi:3245|AV-procd|sdf|12403|dock9
  -GOLD-   2272018283D 1   1.00000     0.00000
 Structure written by MMmdl.
 36 37  0  0  0  0  0  0  0  0  2 V2000
  146.6403  140.1352  153.6304 C   0  0  0  0  0  0  0  0  0  0  0  0
  147.0069  138.6930  153.2557 C   0  0  1  0  0  0  0  0  0  0  0  0
  146.2135  138.2354  152.0122 C   0  0  0  0  0  0  0  0  0  0  0  0
  145.9141  136.8145  152.0208 N   0  0  0  0  0  0  0  0  0  0  0  0
  145.3562  136.0492  151.0186 C   0  0  0  0  0  0  0  0  0  0  0  0
  145.2479  134.7740  151.4947 C   0  0  0  0  0  0  0  0  0  0  0  0
  145.7776  134.8580  152.8128 C   0  0  0  0  0  0  0  0  0  0  0  0
  146.1754  136.0811  153.1249 N   0  0  0  0  0  0  0  0  0  0  0  0
  148.4664  138.6012  153.0228 N   0  3  0  0  0  0  0  0  0  0  0  0
  149.3010  138.7365  154.2342 C   0  0  0  0  0  0  0  0  0  0  0  0
  150.7714  138.4217  153.9240 C   0  0  0  0  0  0  0  0  0  0  0  0
  151.4980  138.0342  155.1355 N   0  0  0  0  0  0  0  0  0  0  0  0
  152.5883  138.6609  155.5955 C   0  0  0  0  0  0  0  0  0  0  0  0
  153.1557  139.6345  155.1015 O   0  0  0  0  0  0  0  0  0  0  0  0
  153.0314  137.9769  156.8704 C   0  0  0  0  0  0  0  0  0  0  0  0
  152.0042  136.9614  156.9613 N   0  0  0  0  0  0  0  0  0  0  0  0
  151.1330  137.0240  155.9461 C   0  0  0  0  0  0  0  0  0  0  0  0
  150.1623  136.2835  155.7960 O   0  0  0  0  0  0  0  0  0  0  0  0
  145.5750  140.2260  153.8455 H   0  0  0  0  0  0  0  0  0  0  0  0
  146.8761  140.8289  152.8225 H   0  0  0  0  0  0  0  0  0  0  0  0
  147.1824  140.4615  154.5186 H   0  0  0  0  0  0  0  0  0  0  0  0
  146.7381  138.0603  154.1034 H   0  0  0  0  0  0  0  0  0  0  0  0
  145.2664  138.7737  151.9560 H   0  0  0  0  0  0  0  0  0  0  0  0
  146.7592  138.4774  151.0984 H   0  0  0  0  0  0  0  0  0  0  0  0
  145.0811  136.4713  150.0632 H   0  0  0  0  0  0  0  0  0  0  0  0
  144.8515  133.9112  150.9800 H   0  0  0  0  0  0  0  0  0  0  0  0
  145.8813  134.0730  153.5472 H   0  0  0  0  0  0  0  0  0  0  0  0
  148.6603  137.7096  152.5889 H   0  0  0  0  0  0  0  0  0  0  0  0
  149.2009  139.7509  154.6227 H   0  0  0  0  0  0  0  0  0  0  0  0
  148.9405  138.0630  155.0113 H   0  0  0  0  0  0  0  0  0  0  0  0
  150.8324  137.6168  153.1894 H   0  0  0  0  0  0  0  0  0  0  0  0
  151.2484  139.2855  153.4576 H   0  0  0  0  0  0  0  0  0  0  0  0
  154.0243  137.5376  156.7679 H   0  0  0  0  0  0  0  0  0  0  0  0
  153.0041  138.6555  157.7234 H   0  0  0  0  0  0  0  0  0  0  0  0
  151.9588  136.2909  157.7152 H   0  0  0  0  0  0  0  0  0  0  0  0
  148.7357  139.3350  152.3830 H   0  0  0  0  0  0  0  0  0  0  0  0
  1  2  1  0  0  0  0
  1 19  1  0  0  0  0
  1 20  1  0  0  0  0
  1 21  1  0  0  0  0
  2  3  1  0  0  0  0
  2  9  1  0  0  0  0
  2 22  1  0  0  0  0
  3  4  1  0  0  0  0
  3 23  1  0  0  0  0
  3 24  1  0  0  0  0
  4  8  1  0  0  0  0
  4  5  1  0  0  0  0
  5  6  2  0  0  0  0
  5 25  1  0  0  0  0
  6  7  1  0  0  0  0
  6 26  1  0  0  0  0
  7  8  2  0  0  0  0
  7 27  1  0  0  0  0
  9 10  1  0  0  0  0
  9 28  1  0  0  0  0
  9 36  1  0  0  0  0
 10 11  1  0  0  0  0
 10 29  1  0  0  0  0
 10 30  1  0  0  0  0
 11 12  1  0  0  0  0
 11 31  1  0  0  0  0
 11 32  1  0  0  0  0
 12 17  1  0  0  0  0
 12 13  1  0  0  0  0
 13 14  2  0  0  0  0
 13 15  1  0  0  0  0
 15 16  1  0  0  0  0
 15 33  1  0  0  0  0
 15 34  1  0  0  0  0
 16 17  1  0  0  0  0
 16 35  1  0  0  0  0
 17 18  2  0  0  0  0
M  CHG  1   9   1
M  END
> <s_m_source_file>
AV-unprocessed.smi

> <i_m_source_file_index>
3245

> <i_lp_mmshare_version>
43012

> <i_f3d_flags>
0

> <s_epik_input>
bjFbY0hdW2NIXVtjSF1uMVtDSDJdW0NAQEhdKFtDSDNdKVtOSF1bQ0gyXVtDSDJdTjJDKD1PKVtDSDJdW05IXUMyPU8=

> <s_epik_cmdline>
J2VwaWtfcHl0aG9uJywgJy1waCcsICc3LjAnLCAnLXRuJywgJzgnLCAnLW1hJywgJzIwMCcsICctbWV0YWxfYmluZGluZycsICctaW1hZScsICc8aW5maWxlLm1hZT4nLCAnLW9tYWUnLCAnPG91dGZpbGUubWFlPic=

> <r_lp_tautomer_probability>
1

> <r_epik_Ionization_Penalty>
0.0160742

> <r_epik_Ionization_Penalty_Charging>
0.0159586

> <r_epik_Ionization_Penalty_Neutral>
0.000115543

> <r_epik_State_Penalty>
0.0125702

> <r_epik_Charging_Adjusted_Penalty>
0.0285288

> <i_epik_Tot_Q>
1

> <i_epik_Tot_abs_Q>
1

> <r_epik_Metal_State_Penalty>
0.0881892

> <b_epik_Metal_Only>
0

> <s_lp_Force_Field>
OPLS_2005

> <r_lp_Energy>
19.8129

> <b_lp_Chiralities_Consistent>
1

> <s_lp_Variant>
AV-unprocessed.smi:3245-2

> <Gold.Version>
5.8.1

> <Gold.Id.Protein>
6NUR|6NUR_protein|mol2

> <Gold.PLP.Fitness>
42.4627

> <Gold.PLP.PLP>
-28.8688

> <Gold.PLP.part.hbond>
-3.9917

> <Gold.PLP.part.metal>
0.0000

> <Gold.PLP.part.buried>
-1.8332

> <Gold.PLP.part.nonpolar>
-24.2601

> <Gold.PLP.part.repulsive>
0.9175

> <Gold.PLP.ligand.clash>
0.0000

> <Gold.PLP.ligand.torsion>
0.6651

> <Gold.PLP.Chemscore.Hbond>
4.0000

> <Gold.PLP.Chemscore.CHOScore>
0.9565

> <Gold.PLP.Chemscore.Metal>
0.0000

> <Gold.Chemscore.Hbonds>
donor molecule, donor type, donor heavy atom, donor atom, acceptor molecule, acceptor atom, score
      L1  H     9    28       P1  7948  2.00
      L1  H     9    36       P1  7957  1.00
      P1  H  7997  8008       L1    14  1.00
      L1  C     5    25       P1 10171  0.89

> <Gold.PLP.Chemscore.Internal.Correction>
0.0546

> <Gold.Rescore>
     Score         DG    S(hbond)    S(metal)    S(lipo)     H(rot)  DE(clash)    DE(int)     intcor
     13.95     -14.72       2.98        0.00      53.96       2.74       0.01       0.76       ----

> <Gold.Chemscore.Fitness>
13.9515

> <Gold.Chemscore.DG>
-14.7239

> <Gold.Chemscore.ZeroCoef>
-5.4800

> <Gold.Chemscore.Hbond>
2.9752

> <Gold.Chemscore.Metal>
0.0000

> <Gold.Chemscore.Lipo>
53.9587

> <Gold.Chemscore.Internal_Hbond>
0.0000

> <Gold.Chemscore.DEClash>
0.0106

> <Gold.Chemscore.DEInternal>
0.7617

> <Gold.Chemscore.Rot>
2.7369

> <Gold.Chemscore.Internal.Correction>
   9.000000E+99

> <Gold.Chemscore.Hbonds>
donor molecule, donor type, donor heavy atom, donor atom, acceptor molecule, acceptor atom, score
      L1  H     9    28       P1  7948  1.00
      L1  H     9    36       P1  7957  0.98
      P1  H  7989  7998       L1    14  0.01
      P1  H  7997  8008       L1    14  0.94

> <Gold.Chemscore.Hbond.Weighted>
-9.9372

> <Gold.Chemscore.Metal.Weighted>
-0.0000

> <Gold.Chemscore.Lipo.Weighted>
-6.3132

> <Gold.Chemscore.Internal_Hbond.Weighted>
0.0000

> <Gold.Chemscore.DEClash.Weighted>
0.0106

> <Gold.Chemscore.DEInternal.Weighted>
0.7617

> <Gold.Chemscore.Rot.Weighted>
7.0065

> <Gold.Chemscore.Internal.Correction.Weighted>
   9.000000E+99

> <Gold.Protein.RotatedTorsions>
[ 6907 6896 6895 6894 ] final -179.68 input  -60.11 | X-H torsion
[ 7974 7965 7964 7962 ] final  -89.60 input  175.53 | X-H torsion
[ 8008 7997 7996 7995 ] final  -15.00 input   59.86 | X-H torsion
[ 10167 10162 10161 10158 ] final   59.15 input  -65.29 | X-H torsion
[ 10718 10713 10712 10709 ] final  132.73 input   66.30 | X-H torsion
[ 10763 10752 10751 10750 ] final  -72.09 input  -60.55 | X-H torsion
[ 11005 11000 10999 10996 ] final  -82.74 input  -57.11 | X-H torsion

> <Gold.Protein.ActiveResidues>
 VAL166  LYS551  ARG553  GLY616  TRP617  ASP618  TYR619  PRO620  LYS621  CYS622 
 ASP623  PHE694  ASN695  SER759  ASP760  ASP761  ALA762  ILE779  LEU786  VAL792 
 PHE793  MET794  SER795  GLU796  ALA797  LYS798  CYS799  TRP800  GLU811  SER814 

> <Gold.Protein.RotatedAtoms>
  151.6574  133.3318  159.3165 H   0  0  0  0  0  0  0  0  0  0  0  0  # atno 6907 bound_to 6896
  150.7930  134.6973  159.6539 H   0  0  0  0  0  0  0  0  0  0  0  0  # atno 6908 bound_to 6896
  152.4013  134.6285  160.0121 H   0  0  0  0  0  0  0  0  0  0  0  0  # atno 6909 bound_to 6896
  145.4376  140.9558  143.2093 H   0  0  0  0  0  0  0  0  0  0  0  0  # atno 7974 bound_to 7965
  154.5165  140.2208  155.9057 H   0  0  0  0  0  0  0  0  0  0  0  0  # atno 8008 bound_to 7997
  156.1613  140.3141  155.8777 H   0  0  0  0  0  0  0  0  0  0  0  0  # atno 8009 bound_to 7997
  155.3746  140.0468  157.3035 H   0  0  0  0  0  0  0  0  0  0  0  0  # atno 8010 bound_to 7997
  140.1795  144.4196  150.6622 H   0  0  0  0  0  0  0  0  0  0  0  0  # atno 10167 bound_to 10162
  157.4843  131.1087  150.9641 H   0  0  0  0  0  0  0  0  0  0  0  0  # atno 10718 bound_to 10713
  154.4409  135.5941  153.6128 H   0  0  0  0  0  0  0  0  0  0  0  0  # atno 10763 bound_to 10752
  152.9805  135.5998  154.3724 H   0  0  0  0  0  0  0  0  0  0  0  0  # atno 10764 bound_to 10752
  154.3574  135.2841  155.2318 H   0  0  0  0  0  0  0  0  0  0  0  0  # atno 10765 bound_to 10752
  141.1661  133.7259  156.8617 H   0  0  0  0  0  0  0  0  0  0  0  0  # atno 11005 bound_to 11000
  144.8142  139.5907  143.7016 LP  0  0  0  0  0  0  0  0  0  0  0  0  # atno 17320 bound_to 7965
  146.2573  139.6332  142.9386 LP  0  0  0  0  0  0  0  0  0  0  0  0  # atno 17321 bound_to 7965
  140.6529  143.2229  151.6036 LP  0  0  0  0  0  0  0  0  0  0  0  0  # atno 17342 bound_to 10162
  139.5302  144.2938  152.1130 LP  0  0  0  0  0  0  0  0  0  0  0  0  # atno 17343 bound_to 10162
  157.0364  130.5731  149.5350 LP  0  0  0  0  0  0  0  0  0  0  0  0  # atno 17370 bound_to 10713
  156.0138  130.5231  150.8072 LP  0  0  0  0  0  0  0  0  0  0  0  0  # atno 17371 bound_to 10713
  140.1844  134.9010  157.2986 LP  0  0  0  0  0  0  0  0  0  0  0  0  # atno 17394 bound_to 11000
  140.2359  134.3853  155.7501 LP  0  0  0  0  0  0  0  0  0  0  0  0  # atno 17395 bound_to 11000

$$$$
