AV-unprocessed.smi:3064|AV-procd|sdf|11690|dock6
  -GOLD-   2272017 93D 1   1.00000     0.00000
 Structure written by MMmdl.
 21 22  0  0  0  0  0  0  0  0  1 V2000
  154.6781  140.0668  160.1978 C   0  0  0  0  0  0  0  0  0  0  0  0
  154.8978  140.2133  161.5436 C   0  0  0  0  0  0  0  0  0  0  0  0
  154.0083  141.5604  162.1992 S   0  0  0  0  0  0  0  0  0  0  0  0
  153.3457  141.8673  160.5964 C   0  0  0  0  0  0  0  0  0  0  0  0
  152.4208  143.0067  160.3068 C   0  0  1  0  0  0  0  0  0  0  0  0
  152.1654  143.8832  161.5482 C   0  0  0  0  0  0  0  0  0  0  0  0
  151.3204  145.0235  161.1973 N   0  0  0  0  0  0  0  0  0  0  0  0
  151.8980  145.7887  160.0934 C   0  0  0  0  0  0  0  0  0  0  0  0
  152.1687  144.8695  158.8884 C   0  0  0  0  0  0  0  0  0  0  0  0
  153.0203  143.7994  159.2841 O   0  0  0  0  0  0  0  0  0  0  0  0
  153.8032  141.0188  159.6693 N   0  0  0  0  0  0  0  0  0  0  0  0
  155.1024  139.3212  159.5418 H   0  0  0  0  0  0  0  0  0  0  0  0
  155.5284  139.6159  162.1850 H   0  0  0  0  0  0  0  0  0  0  0  0
  151.4804  142.5918  159.9393 H   0  0  0  0  0  0  0  0  0  0  0  0
  151.6913  143.2948  162.3341 H   0  0  0  0  0  0  0  0  0  0  0  0
  153.1151  144.2376  161.9513 H   0  0  0  0  0  0  0  0  0  0  0  0
  151.2082  145.6256  162.0066 H   0  0  0  0  0  0  0  0  0  0  0  0
  151.2249  146.5964  159.8052 H   0  0  0  0  0  0  0  0  0  0  0  0
  152.8300  146.2564  160.4132 H   0  0  0  0  0  0  0  0  0  0  0  0
  151.2364  144.4781  158.4782 H   0  0  0  0  0  0  0  0  0  0  0  0
  152.6553  145.4313  158.0910 H   0  0  0  0  0  0  0  0  0  0  0  0
  1 11  1  0  0  0  0
  1  2  2  0  0  0  0
  1 12  1  0  0  0  0
  2  3  1  0  0  0  0
  2 13  1  0  0  0  0
  3  4  1  0  0  0  0
  4  5  1  0  0  0  0
  4 11  2  0  0  0  0
  5 10  1  0  0  0  0
  5  6  1  0  0  0  0
  5 14  1  0  0  0  0
  6  7  1  0  0  0  0
  6 15  1  0  0  0  0
  6 16  1  0  0  0  0
  7  8  1  0  0  0  0
  7 17  1  0  0  0  0
  8  9  1  0  0  0  0
  8 18  1  0  0  0  0
  8 19  1  0  0  0  0
  9 10  1  0  0  0  0
  9 20  1  0  0  0  0
  9 21  1  0  0  0  0
M  END
> <s_m_source_file>
AV-unprocessed.smi

> <i_m_source_file_index>
3064

> <i_lp_mmshare_version>
43012

> <i_f3d_flags>
0

> <s_epik_input>
bjFbY0hdW2NIXXNjMVtDQEBIXTJbQ0gyXVtOSF1bQ0gyXVtDSDJdTzI=

> <s_epik_cmdline>
J2VwaWtfcHl0aG9uJywgJy1waCcsICc3LjAnLCAnLXRuJywgJzgnLCAnLW1hJywgJzIwMCcsICctbWV0YWxfYmluZGluZycsICctaW1hZScsICc8aW5maWxlLm1hZT4nLCAnLW9tYWUnLCAnPG91dGZpbGUubWFlPic=

> <r_epik_Ionization_Penalty>
0.980767

> <r_epik_Ionization_Penalty_Charging>
0

> <r_epik_Ionization_Penalty_Neutral>
0.980767

> <r_epik_State_Penalty>
1.0271

> <r_epik_Charging_Adjusted_Penalty>
1.0271

> <i_epik_Tot_Q>
0

> <i_epik_Tot_abs_Q>
0

> <r_epik_Metal_State_Penalty>
1.02673

> <b_epik_Metal_Only>
0

> <s_lp_Force_Field>
OPLS_2005

> <r_lp_Energy>
8.04051

> <b_lp_Chiralities_Consistent>
1

> <s_lp_Variant>
AV-unprocessed.smi:3064-4

> <Gold.Version>
5.8.1

> <Gold.Id.Protein>
6NUR|6NUR_protein|mol2

> <Gold.PLP.Fitness>
32.4124

> <Gold.PLP.PLP>
-32.4664

> <Gold.PLP.part.hbond>
-1.0000

> <Gold.PLP.part.metal>
0.0000

> <Gold.PLP.part.buried>
-3.7207

> <Gold.PLP.part.nonpolar>
-27.4102

> <Gold.PLP.part.repulsive>
0.0000

> <Gold.PLP.ligand.clash>
0.0000

> <Gold.PLP.ligand.torsion>
0.0323

> <Gold.PLP.Chemscore.Hbond>
0.0000

> <Gold.PLP.Chemscore.CHOScore>
0.0000

> <Gold.PLP.Chemscore.Metal>
0.0000

> <Gold.PLP.Chemscore.Internal.Correction>
0.0106

> <Gold.Rescore>
     Score         DG    S(hbond)    S(metal)    S(lipo)     H(rot)  DE(clash)    DE(int)     intcor
     13.23     -13.26       0.00        0.00      88.34       1.00       0.02       0.01       ----

> <Gold.Chemscore.Fitness>
13.2305

> <Gold.Chemscore.DG>
-13.2555

> <Gold.Chemscore.ZeroCoef>
-5.4800

> <Gold.Chemscore.Hbond>
0.0000

> <Gold.Chemscore.Metal>
0.0000

> <Gold.Chemscore.Lipo>
88.3375

> <Gold.Chemscore.Internal_Hbond>
0.0000

> <Gold.Chemscore.DEClash>
0.0195

> <Gold.Chemscore.DEInternal>
0.0055

> <Gold.Chemscore.Rot>
1.0000

> <Gold.Chemscore.Internal.Correction>
   9.000000E+99

> <Gold.Chemscore.Hbond.Weighted>
-0.0000

> <Gold.Chemscore.Metal.Weighted>
-0.0000

> <Gold.Chemscore.Lipo.Weighted>
-10.3355

> <Gold.Chemscore.Internal_Hbond.Weighted>
0.0000

> <Gold.Chemscore.DEClash.Weighted>
0.0195

> <Gold.Chemscore.DEInternal.Weighted>
0.0055

> <Gold.Chemscore.Rot.Weighted>
2.5600

> <Gold.Chemscore.Internal.Correction.Weighted>
   9.000000E+99

> <Gold.Protein.RotatedTorsions>
[ 6907 6896 6895 6894 ] final   71.47 input  -60.11 | X-H torsion
[ 7974 7965 7964 7962 ] final  -65.41 input  175.53 | X-H torsion
[ 8008 7997 7996 7995 ] final  -82.94 input   59.86 | X-H torsion
[ 10167 10162 10161 10158 ] final  -67.96 input  -65.29 | X-H torsion
[ 10718 10713 10712 10709 ] final  -92.63 input   66.30 | X-H torsion
[ 10763 10752 10751 10750 ] final -128.48 input  -60.55 | X-H torsion
[ 11005 11000 10999 10996 ] final -149.24 input  -57.11 | X-H torsion

> <Gold.Protein.ActiveResidues>
 VAL166  LYS551  ARG553  GLY616  TRP617  ASP618  TYR619  PRO620  LYS621  CYS622 
 ASP623  PHE694  ASN695  SER759  ASP760  ASP761  ALA762  ILE779  LEU786  VAL792 
 PHE793  MET794  SER795  GLU796  ALA797  LYS798  CYS799  TRP800  GLU811  SER814 

> <Gold.Protein.RotatedAtoms>
  152.4811  134.4716  159.9636 H   0  0  0  0  0  0  0  0  0  0  0  0  # atno 6907 bound_to 6896
  151.4721  133.3560  159.2833 H   0  0  0  0  0  0  0  0  0  0  0  0  # atno 6908 bound_to 6896
  150.8885  134.8312  159.7337 H   0  0  0  0  0  0  0  0  0  0  0  0  # atno 6909 bound_to 6896
  145.7547  140.8891  143.0461 H   0  0  0  0  0  0  0  0  0  0  0  0  # atno 7974 bound_to 7965
  154.6139  140.0626  156.9529 H   0  0  0  0  0  0  0  0  0  0  0  0  # atno 8008 bound_to 7997
  155.1928  140.3308  155.4337 H   0  0  0  0  0  0  0  0  0  0  0  0  # atno 8009 bound_to 7997
  156.2393  140.1878  156.7017 H   0  0  0  0  0  0  0  0  0  0  0  0  # atno 8010 bound_to 7997
  140.5543  143.2312  151.6851 H   0  0  0  0  0  0  0  0  0  0  0  0  # atno 10167 bound_to 10162
  156.0004  130.4994  150.5654 H   0  0  0  0  0  0  0  0  0  0  0  0  # atno 10718 bound_to 10713
  154.8756  135.3927  154.3763 H   0  0  0  0  0  0  0  0  0  0  0  0  # atno 10763 bound_to 10752
  153.4516  135.7028  153.6110 H   0  0  0  0  0  0  0  0  0  0  0  0  # atno 10764 bound_to 10752
  153.4648  135.3804  155.2327 H   0  0  0  0  0  0  0  0  0  0  0  0  # atno 10765 bound_to 10752
  140.7528  134.3386  157.5121 H   0  0  0  0  0  0  0  0  0  0  0  0  # atno 11005 bound_to 11000
  144.6842  139.9639  143.7481 LP  0  0  0  0  0  0  0  0  0  0  0  0  # atno 17320 bound_to 7965
  146.0323  139.3346  143.0748 LP  0  0  0  0  0  0  0  0  0  0  0  0  # atno 17321 bound_to 7965
  139.5041  144.3767  152.0417 LP  0  0  0  0  0  0  0  0  0  0  0  0  # atno 17342 bound_to 10162
  140.2887  144.3779  150.6095 LP  0  0  0  0  0  0  0  0  0  0  0  0  # atno 17343 bound_to 10162
  157.3557  131.0741  151.1677 LP  0  0  0  0  0  0  0  0  0  0  0  0  # atno 17370 bound_to 10713
  157.2479  130.6600  149.5918 LP  0  0  0  0  0  0  0  0  0  0  0  0  # atno 17371 bound_to 10713
  139.8784  134.9153  156.3128 LP  0  0  0  0  0  0  0  0  0  0  0  0  # atno 17394 bound_to 11000
  140.9735  133.7312  156.0568 LP  0  0  0  0  0  0  0  0  0  0  0  0  # atno 17395 bound_to 11000

$$$$
