AV-unprocessed.smi:1701|AV-procd|sdf|6826|dock1
  -GOLD-   22720 8 03D 1   1.00000     0.00000
 Structure written by MMmdl.
 55 57  0  0  0  0  0  0  0  0  3 V2000
  150.5901  144.6544  159.0684 C   0  0  0  0  0  0  0  0  0  0  0  0
  151.5220  144.1941  157.9368 C   0  0  0  0  0  0  0  0  0  0  0  0
  151.8740  142.7760  158.0162 N   0  0  0  0  0  0  0  0  0  0  0  0
  152.6200  142.2858  159.1780 C   0  0  0  0  0  0  0  0  0  0  0  0
  153.1259  143.4117  160.0915 C   0  0  0  0  0  0  0  0  0  0  0  0
  151.3358  141.8561  157.0828 C   0  0  0  0  0  0  0  0  0  0  0  0
  151.7928  140.5208  156.9460 C   0  0  0  0  0  0  0  0  0  0  0  0
  151.2051  139.6640  155.9926 C   0  0  0  0  0  0  0  0  0  0  0  0
  150.1606  140.1476  155.1680 C   0  0  0  0  0  0  0  0  0  0  0  0
  149.4873  139.3647  154.1920 N   0  0  0  0  0  0  0  0  0  0  0  0
  148.1975  139.4298  153.8065 C   0  0  0  0  0  0  0  0  0  0  0  0
  147.3568  140.1755  154.3031 O   0  0  0  0  0  0  0  0  0  0  0  0
  147.8695  138.5698  152.8261 N   0  0  0  0  0  0  0  0  0  0  0  0
  146.5671  138.3857  152.1853 C   0  0  1  0  0  0  0  0  0  0  0  0
  146.6495  138.0079  150.6929 C   0  0  0  0  0  0  0  0  0  0  0  0
  145.5359  136.9644  150.4718 C   0  0  0  0  0  0  0  0  0  0  0  0
  144.8177  136.8826  151.7579 N   0  3  1  0  0  0  0  0  0  0  0  0
  144.0782  135.6332  152.0415 C   0  0  0  0  0  0  0  0  0  0  0  0
  143.3380  135.7751  153.3872 C   0  0  0  0  0  0  0  0  0  0  0  0
  144.2902  136.2010  154.5239 C   0  0  0  0  0  0  0  0  0  0  0  0
  145.0996  137.4527  154.1324 C   0  0  0  0  0  0  0  0  0  0  0  0
  145.8115  137.2041  152.7926 C   0  0  2  0  0  0  0  0  0  0  0  0
  149.7305  141.4762  155.3520 C   0  0  0  0  0  0  0  0  0  0  0  0
  150.3230  142.2612  156.2768 N   0  3  0  0  0  0  0  0  0  0  0  0
  150.3378  145.7081  158.9488 H   0  0  0  0  0  0  0  0  0  0  0  0
  151.0564  144.5419  160.0461 H   0  0  0  0  0  0  0  0  0  0  0  0
  149.6561  144.0928  159.0779 H   0  0  0  0  0  0  0  0  0  0  0  0
  151.0826  144.4165  156.9647 H   0  0  0  0  0  0  0  0  0  0  0  0
  152.4376  144.7849  157.9757 H   0  0  0  0  0  0  0  0  0  0  0  0
  152.0106  141.5846  159.7488 H   0  0  0  0  0  0  0  0  0  0  0  0
  153.4730  141.7035  158.8282 H   0  0  0  0  0  0  0  0  0  0  0  0
  153.6321  142.9973  160.9635 H   0  0  0  0  0  0  0  0  0  0  0  0
  152.3076  144.0356  160.4517 H   0  0  0  0  0  0  0  0  0  0  0  0
  153.8397  144.0551  159.5789 H   0  0  0  0  0  0  0  0  0  0  0  0
  152.5888  140.1278  157.5595 H   0  0  0  0  0  0  0  0  0  0  0  0
  151.5611  138.6476  155.9251 H   0  0  0  0  0  0  0  0  0  0  0  0
  150.0404  138.6371  153.7636 H   0  0  0  0  0  0  0  0  0  0  0  0
  148.6056  137.9551  152.5083 H   0  0  0  0  0  0  0  0  0  0  0  0
  145.9561  139.2836  152.2993 H   0  0  0  0  0  0  0  0  0  0  0  0
  146.5144  138.8848  150.0586 H   0  0  0  0  0  0  0  0  0  0  0  0
  147.6184  137.5713  150.4451 H   0  0  0  0  0  0  0  0  0  0  0  0
  144.8563  137.2434  149.6660 H   0  0  0  0  0  0  0  0  0  0  0  0
  145.9748  135.9962  150.2253 H   0  0  0  0  0  0  0  0  0  0  0  0
  143.3670  135.4381  151.2383 H   0  0  0  0  0  0  0  0  0  0  0  0
  144.7701  134.7898  152.0727 H   0  0  0  0  0  0  0  0  0  0  0  0
  142.5463  136.5186  153.2857 H   0  0  0  0  0  0  0  0  0  0  0  0
  142.8460  134.8367  153.6439 H   0  0  0  0  0  0  0  0  0  0  0  0
  143.7249  136.3897  155.4370 H   0  0  0  0  0  0  0  0  0  0  0  0
  144.9747  135.3818  154.7485 H   0  0  0  0  0  0  0  0  0  0  0  0
  144.4346  138.3139  154.0524 H   0  0  0  0  0  0  0  0  0  0  0  0
  145.8266  137.6883  154.9103 H   0  0  0  0  0  0  0  0  0  0  0  0
  146.4925  136.3555  152.8945 H   0  0  0  0  0  0  0  0  0  0  0  0
  148.9356  141.9395  154.7856 H   0  0  0  0  0  0  0  0  0  0  0  0
  144.1461  137.6370  151.7615 H   0  0  0  0  0  0  0  0  0  0  0  0
  149.9878  143.2195  156.3755 H   0  0  0  0  0  0  0  0  0  0  0  0
  1  2  1  0  0  0  0
  1 25  1  0  0  0  0
  1 26  1  0  0  0  0
  1 27  1  0  0  0  0
  2  3  1  0  0  0  0
  2 28  1  0  0  0  0
  2 29  1  0  0  0  0
  3  4  1  0  0  0  0
  3  6  1  0  0  0  0
  4  5  1  0  0  0  0
  4 30  1  0  0  0  0
  4 31  1  0  0  0  0
  5 32  1  0  0  0  0
  5 33  1  0  0  0  0
  5 34  1  0  0  0  0
  6 24  1  0  0  0  0
  6  7  2  0  0  0  0
  7  8  1  0  0  0  0
  7 35  1  0  0  0  0
  8  9  2  0  0  0  0
  8 36  1  0  0  0  0
  9 10  1  0  0  0  0
  9 23  1  0  0  0  0
 10 11  1  0  0  0  0
 10 37  1  0  0  0  0
 11 12  2  0  0  0  0
 11 13  1  0  0  0  0
 13 14  1  0  0  0  0
 13 38  1  0  0  0  0
 14 22  1  0  0  0  0
 14 15  1  0  0  0  0
 14 39  1  0  0  0  0
 15 16  1  0  0  0  0
 15 40  1  0  0  0  0
 15 41  1  0  0  0  0
 16 17  1  0  0  0  0
 16 42  1  0  0  0  0
 16 43  1  0  0  0  0
 17 22  1  0  0  0  0
 17 18  1  0  0  0  0
 17 54  1  0  0  0  0
 18 19  1  0  0  0  0
 18 44  1  0  0  0  0
 18 45  1  0  0  0  0
 19 20  1  0  0  0  0
 19 46  1  0  0  0  0
 19 47  1  0  0  0  0
 20 21  1  0  0  0  0
 20 48  1  0  0  0  0
 20 49  1  0  0  0  0
 21 22  1  0  0  0  0
 21 50  1  0  0  0  0
 21 51  1  0  0  0  0
 22 52  1  0  0  0  0
 23 24  2  0  0  0  0
 23 53  1  0  0  0  0
 24 55  1  0  0  0  0
M  CHG  1  17   1
M  CHG  1  24   1
M  END
> <s_m_source_file>
AV-unprocessed.smi

> <i_m_source_file_index>
1701

> <i_lp_mmshare_version>
43012

> <i_f3d_flags>
0

> <s_epik_input>
W0NIM11bQ0gyXU4oW0NIMl1bQ0gzXSljMVtjSF1bY0hdYyhbY0hdbjEpW05IXUMoPU8pW05IXVtDQEhdKFtDSDJdW0NIMl0yKVtDQEBIXShOMjMpW0NIMl1bQ0gyXVtDSDJdW0NIMl0z

> <s_epik_cmdline>
J2VwaWtfcHl0aG9uJywgJy1waCcsICc3LjAnLCAnLXRuJywgJzgnLCAnLW1hJywgJzIwMCcsICctbWV0YWxfYmluZGluZycsICctaW1hZScsICc8aW5maWxlLm1hZT4nLCAnLW9tYWUnLCAnPG91dGZpbGUubWFlPic=

> <r_lp_tautomer_probability>
0.999994

> <r_epik_Ionization_Penalty>
0.302862

> <r_epik_Ionization_Penalty_Charging>
0.302842

> <r_epik_Ionization_Penalty_Neutral>
1.95166e-05

> <r_epik_State_Penalty>
0.019791

> <r_epik_Charging_Adjusted_Penalty>
0.322633

> <i_epik_Tot_Q>
2

> <i_epik_Tot_abs_Q>
2

> <r_epik_Metal_State_Penalty>
0.0536763

> <b_epik_Metal_Only>
0

> <s_lp_Force_Field>
OPLS_2005

> <r_lp_Energy>
62.0902

> <b_lp_Chiralities_Consistent>
1

> <s_lp_Variant>
AV-unprocessed.smi:1701-6

> <Gold.Version>
5.8.1

> <Gold.Id.Protein>
6NUR|6NUR_protein|mol2

> <Gold.PLP.Fitness>
49.1674

> <Gold.PLP.PLP>
-40.4039

> <Gold.PLP.part.hbond>
-4.4284

> <Gold.PLP.part.metal>
0.0000

> <Gold.PLP.part.buried>
5.7651

> <Gold.PLP.part.nonpolar>
-43.3655

> <Gold.PLP.part.repulsive>
0.3907

> <Gold.PLP.ligand.clash>
0.0000

> <Gold.PLP.ligand.torsion>
0.7723

> <Gold.PLP.Chemscore.Hbond>
3.3600

> <Gold.PLP.Chemscore.CHOScore>
0.0000

> <Gold.PLP.Chemscore.Metal>
0.0000

> <Gold.Chemscore.Hbonds>
donor molecule, donor type, donor heavy atom, donor atom, acceptor molecule, acceptor atom, score
      L1  H    13    38       P1  7948  0.90
      L1  H    17    54       P1 10171  0.18
      L1  H    24    55       P1  8028  1.95

> <Gold.PLP.Chemscore.Internal.Correction>
0.2281

> <Gold.Rescore>
     Score         DG    S(hbond)    S(metal)    S(lipo)     H(rot)  DE(clash)    DE(int)     intcor
     17.27     -23.96       2.45        0.00     116.44       1.30       4.66       2.02       ----

> <Gold.Chemscore.Fitness>
17.2718

> <Gold.Chemscore.DG>
-23.9552

> <Gold.Chemscore.ZeroCoef>
-5.4800

> <Gold.Chemscore.Hbond>
2.4504

> <Gold.Chemscore.Metal>
0.0000

> <Gold.Chemscore.Lipo>
116.4444

> <Gold.Chemscore.Internal_Hbond>
0.0000

> <Gold.Chemscore.DEClash>
4.6632

> <Gold.Chemscore.DEInternal>
2.0202

> <Gold.Chemscore.Rot>
1.3020

> <Gold.Chemscore.Internal.Correction>
   9.000000E+99

> <Gold.Chemscore.Hbonds>
donor molecule, donor type, donor heavy atom, donor atom, acceptor molecule, acceptor atom, score
      L1  H    13    38       P1  7948  0.88
      L1  H    17    54       P1 10171  0.19
      L1  H    24    55       P1  8028  0.90

> <Gold.Chemscore.Hbond.Weighted>
-8.1842

> <Gold.Chemscore.Metal.Weighted>
-0.0000

> <Gold.Chemscore.Lipo.Weighted>
-13.6240

> <Gold.Chemscore.Internal_Hbond.Weighted>
0.0000

> <Gold.Chemscore.DEClash.Weighted>
4.6632

> <Gold.Chemscore.DEInternal.Weighted>
2.0202

> <Gold.Chemscore.Rot.Weighted>
3.3330

> <Gold.Chemscore.Internal.Correction.Weighted>
   9.000000E+99

> <Gold.Protein.RotatedTorsions>
[ 6907 6896 6895 6894 ] final  -67.86 input  -60.11 | X-H torsion
[ 7974 7965 7964 7962 ] final  -89.29 input  175.53 | X-H torsion
[ 8008 7997 7996 7995 ] final -136.52 input   59.86 | X-H torsion
[ 10167 10162 10161 10158 ] final    4.11 input  -65.29 | X-H torsion
[ 10718 10713 10712 10709 ] final  117.08 input   66.30 | X-H torsion
[ 10763 10752 10751 10750 ] final   69.11 input  -60.55 | X-H torsion
[ 11005 11000 10999 10996 ] final  153.98 input  -57.11 | X-H torsion

> <Gold.Protein.ActiveResidues>
 VAL166  LYS551  ARG553  GLY616  TRP617  ASP618  TYR619  PRO620  LYS621  CYS622 
 ASP623  PHE694  ASN695  SER759  ASP760  ASP761  ALA762  ILE779  LEU786  VAL792 
 PHE793  MET794  SER795  GLU796  ALA797  LYS798  CYS799  TRP800  GLU811  SER814 

> <Gold.Protein.RotatedAtoms>
  150.7387  134.5821  159.5943 H   0  0  0  0  0  0  0  0  0  0  0  0  # atno 6907 bound_to 6896
  152.3232  134.7351  160.0317 H   0  0  0  0  0  0  0  0  0  0  0  0  # atno 6908 bound_to 6896
  151.7859  133.3318  159.3521 H   0  0  0  0  0  0  0  0  0  0  0  0  # atno 6909 bound_to 6896
  145.4417  140.9559  143.2071 H   0  0  0  0  0  0  0  0  0  0  0  0  # atno 7974 bound_to 7965
  155.3966  140.0503  157.3038 H   0  0  0  0  0  0  0  0  0  0  0  0  # atno 8008 bound_to 7997
  154.5011  140.2157  155.9307 H   0  0  0  0  0  0  0  0  0  0  0  0  # atno 8009 bound_to 7997
  156.1468  140.3144  155.8588 H   0  0  0  0  0  0  0  0  0  0  0  0  # atno 8010 bound_to 7997
  140.6552  143.7446  150.7641 H   0  0  0  0  0  0  0  0  0  0  0  0  # atno 10167 bound_to 10162
  157.6120  131.1033  150.7564 H   0  0  0  0  0  0  0  0  0  0  0  0  # atno 10718 bound_to 10713
  153.0270  135.5222  154.7238 H   0  0  0  0  0  0  0  0  0  0  0  0  # atno 10763 bound_to 10752
  154.6285  135.2897  155.0246 H   0  0  0  0  0  0  0  0  0  0  0  0  # atno 10764 bound_to 10752
  154.1206  135.6608  153.4955 H   0  0  0  0  0  0  0  0  0  0  0  0  # atno 10765 bound_to 10752
  140.1447  134.8715  157.2377 H   0  0  0  0  0  0  0  0  0  0  0  0  # atno 11005 bound_to 11000
  144.8117  139.5950  143.7026 LP  0  0  0  0  0  0  0  0  0  0  0  0  # atno 17320 bound_to 7965
  146.2552  139.6287  142.9399 LP  0  0  0  0  0  0  0  0  0  0  0  0  # atno 17321 bound_to 7965
  140.1104  143.4704  152.2373 LP  0  0  0  0  0  0  0  0  0  0  0  0  # atno 17342 bound_to 10162
  139.5773  144.7493  151.3732 LP  0  0  0  0  0  0  0  0  0  0  0  0  # atno 17343 bound_to 10162
  156.7939  130.4899  149.5380 LP  0  0  0  0  0  0  0  0  0  0  0  0  # atno 17370 bound_to 10713
  156.1226  130.6121  151.0216 LP  0  0  0  0  0  0  0  0  0  0  0  0  # atno 17371 bound_to 10713
  140.2678  134.3496  155.7384 LP  0  0  0  0  0  0  0  0  0  0  0  0  # atno 17394 bound_to 11000
  141.2191  133.7406  156.9177 LP  0  0  0  0  0  0  0  0  0  0  0  0  # atno 17395 bound_to 11000

$$$$
