AV-unprocessed.smi:1368|AV-procd|sdf|5575|dock2
  -GOLD-   22720 5173D 1   1.00000     0.00000
 Structure written by MMmdl.
 46 48  0  0  0  0  0  0  0  0  1 V2000
  144.4600  133.3182  149.5894 C   0  0  0  0  0  0  0  0  0  0  0  0
  144.6886  134.2805  150.7511 C   0  0  0  0  0  0  0  0  0  0  0  0
  144.1915  134.0275  151.8475 O   0  0  0  0  0  0  0  0  0  0  0  0
  145.4179  135.3758  150.4667 N   0  0  0  0  0  0  0  0  0  0  0  0
  145.8092  136.4396  151.3256 C   0  0  0  0  0  0  0  0  0  0  0  0
  145.6453  136.2413  152.7113 C   0  0  0  0  0  0  0  0  0  0  0  0
  145.9939  137.2538  153.6252 C   0  0  0  0  0  0  0  0  0  0  0  0
  146.5045  138.4877  153.1761 C   0  0  0  0  0  0  0  0  0  0  0  0
  146.8218  139.4225  154.1383 O   0  0  0  0  0  0  0  0  0  0  0  0
  147.8377  140.3723  153.8438 C   0  0  0  0  0  0  0  0  0  0  0  0
  148.4741  140.8502  155.1584 C   0  0  2  0  0  0  0  0  0  0  0  0
  147.6650  141.8768  155.6985 O   0  0  0  0  0  0  0  0  0  0  0  0
  149.9010  141.3923  154.9363 C   0  0  0  0  0  0  0  0  0  0  0  0
  150.8474  140.9365  155.9462 N   0  0  0  0  0  0  0  0  0  0  0  0
  151.6296  139.8295  155.9173 C   0  0  0  0  0  0  0  0  0  0  0  0
  151.6117  138.8794  154.7622 C   0  0  0  0  0  0  0  0  0  0  0  0
  152.4168  139.6451  156.9772 N   0  0  0  0  0  0  0  0  0  0  0  0
  152.1189  140.7374  157.7690 C   0  0  0  0  0  0  0  0  0  0  0  0
  152.6251  141.1221  159.0314 C   0  0  0  0  0  0  0  0  0  0  0  0
  152.1635  142.2986  159.6573 C   0  0  0  0  0  0  0  0  0  0  0  0
  151.1908  143.1054  159.0320 C   0  0  0  0  0  0  0  0  0  0  0  0
  150.6745  142.7413  157.7736 C   0  0  0  0  0  0  0  0  0  0  0  0
  151.1390  141.5665  157.1524 C   0  0  0  0  0  0  0  0  0  0  0  0
  146.6547  138.6940  151.7821 C   0  0  0  0  0  0  0  0  0  0  0  0
  146.3067  137.6823  150.8661 C   0  0  0  0  0  0  0  0  0  0  0  0
  145.2809  133.3617  148.8728 H   0  0  0  0  0  0  0  0  0  0  0  0
  143.5347  133.5683  149.0698 H   0  0  0  0  0  0  0  0  0  0  0  0
  144.3825  132.2928  149.9525 H   0  0  0  0  0  0  0  0  0  0  0  0
  145.6839  135.4847  149.4989 H   0  0  0  0  0  0  0  0  0  0  0  0
  145.2542  135.3052  153.0829 H   0  0  0  0  0  0  0  0  0  0  0  0
  145.8673  137.0811  154.6841 H   0  0  0  0  0  0  0  0  0  0  0  0
  148.5979  139.8806  153.2343 H   0  0  0  0  0  0  0  0  0  0  0  0
  147.4479  141.2173  153.2728 H   0  0  0  0  0  0  0  0  0  0  0  0
  148.5116  140.0228  155.8674 H   0  0  0  0  0  0  0  0  0  0  0  0
  148.1879  142.6603  155.7760 H   0  0  0  0  0  0  0  0  0  0  0  0
  150.2692  141.0961  153.9539 H   0  0  0  0  0  0  0  0  0  0  0  0
  149.8932  142.4831  154.9364 H   0  0  0  0  0  0  0  0  0  0  0  0
  152.2893  138.0444  154.9442 H   0  0  0  0  0  0  0  0  0  0  0  0
  151.9303  139.3860  153.8513 H   0  0  0  0  0  0  0  0  0  0  0  0
  150.6089  138.4792  154.6138 H   0  0  0  0  0  0  0  0  0  0  0  0
  153.3699  140.5105  159.5191 H   0  0  0  0  0  0  0  0  0  0  0  0
  152.5570  142.5831  160.6221 H   0  0  0  0  0  0  0  0  0  0  0  0
  150.8406  144.0038  159.5190 H   0  0  0  0  0  0  0  0  0  0  0  0
  149.9276  143.3551  157.2926 H   0  0  0  0  0  0  0  0  0  0  0  0
  147.0319  139.6243  151.3858 H   0  0  0  0  0  0  0  0  0  0  0  0
  146.4191  137.8919  149.8140 H   0  0  0  0  0  0  0  0  0  0  0  0
  1  2  1  0  0  0  0
  1 26  1  0  0  0  0
  1 27  1  0  0  0  0
  1 28  1  0  0  0  0
  2  3  2  0  0  0  0
  2  4  1  0  0  0  0
  4  5  1  0  0  0  0
  4 29  1  0  0  0  0
  5 25  1  0  0  0  0
  5  6  2  0  0  0  0
  6  7  1  0  0  0  0
  6 30  1  0  0  0  0
  7  8  2  0  0  0  0
  7 31  1  0  0  0  0
  8  9  1  0  0  0  0
  8 24  1  0  0  0  0
  9 10  1  0  0  0  0
 10 11  1  0  0  0  0
 10 32  1  0  0  0  0
 10 33  1  0  0  0  0
 11 12  1  0  0  0  0
 11 13  1  0  0  0  0
 11 34  1  0  0  0  0
 12 35  1  0  0  0  0
 13 14  1  0  0  0  0
 13 36  1  0  0  0  0
 13 37  1  0  0  0  0
 14 23  1  0  0  0  0
 14 15  1  0  0  0  0
 15 16  1  0  0  0  0
 15 17  2  0  0  0  0
 16 38  1  0  0  0  0
 16 39  1  0  0  0  0
 16 40  1  0  0  0  0
 17 18  1  0  0  0  0
 18 23  2  0  0  0  0
 18 19  1  0  0  0  0
 19 20  2  0  0  0  0
 19 41  1  0  0  0  0
 20 21  1  0  0  0  0
 20 42  1  0  0  0  0
 21 22  2  0  0  0  0
 21 43  1  0  0  0  0
 22 23  1  0  0  0  0
 22 44  1  0  0  0  0
 24 25  2  0  0  0  0
 24 45  1  0  0  0  0
 25 46  1  0  0  0  0
M  END
> <s_m_source_file>
AV-unprocessed.smi

> <i_m_source_file_index>
1368

> <i_lp_mmshare_version>
43012

> <i_f3d_flags>
0

> <s_epik_input>
W0NIM11DKD1PKVtOSF1jMVtjSF1bY0hdYyhbY0hdW2NIXTEpT1tDSDJdW0NASF0oW09IXSlbQ0gyXW4oYyhuMilbQ0gzXSljKGMyMylbY0hdW2NIXVtjSF1bY0hdMw==

> <s_epik_cmdline>
J2VwaWtfcHl0aG9uJywgJy1waCcsICc3LjAnLCAnLXRuJywgJzgnLCAnLW1hJywgJzIwMCcsICctbWV0YWxfYmluZGluZycsICctaW1hZScsICc8aW5maWxlLm1hZT4nLCAnLW9tYWUnLCAnPG91dGZpbGUubWFlPic=

> <r_lp_tautomer_probability>
1

> <r_epik_Ionization_Penalty>
0.119634

> <r_epik_Ionization_Penalty_Charging>
0

> <r_epik_Ionization_Penalty_Neutral>
0.119634

> <r_epik_State_Penalty>
0.10919

> <r_epik_Charging_Adjusted_Penalty>
0.10919

> <i_epik_Tot_Q>
0

> <i_epik_Tot_abs_Q>
0

> <r_epik_Metal_State_Penalty>
0.0906856

> <b_epik_Metal_Only>
0

> <s_lp_Force_Field>
OPLS_2005

> <r_lp_Energy>
21.7849

> <b_lp_Chiralities_Consistent>
1

> <s_lp_Variant>
AV-unprocessed.smi:1368-1

> <Gold.Version>
5.8.1

> <Gold.Id.Protein>
6NUR|6NUR_protein|mol2

> <Gold.PLP.Fitness>
49.7564

> <Gold.PLP.PLP>
-44.5811

> <Gold.PLP.part.hbond>
-3.0000

> <Gold.PLP.part.metal>
0.0000

> <Gold.PLP.part.buried>
4.6541

> <Gold.PLP.part.nonpolar>
-45.7270

> <Gold.PLP.part.repulsive>
0.3368

> <Gold.PLP.ligand.clash>
0.0000

> <Gold.PLP.ligand.torsion>
1.8054

> <Gold.PLP.Chemscore.Hbond>
2.8775

> <Gold.PLP.Chemscore.CHOScore>
0.0000

> <Gold.PLP.Chemscore.Metal>
0.0000

> <Gold.Chemscore.Hbonds>
donor molecule, donor type, donor heavy atom, donor atom, acceptor molecule, acceptor atom, score
      L1  H     4    29       P1  7921  1.00
      L1  H    12    35       P1  8028  0.67
      P1  H  7997  8008       L1    17  0.96

> <Gold.PLP.Chemscore.Internal.Correction>
0.1536

> <Gold.Rescore>
     Score         DG    S(hbond)    S(metal)    S(lipo)     H(rot)  DE(clash)    DE(int)     intcor
     15.91     -22.20       2.27        0.00     130.48       2.39       3.12       3.17       ----

> <Gold.Chemscore.Fitness>
15.9071

> <Gold.Chemscore.DG>
-22.2000

> <Gold.Chemscore.ZeroCoef>
-5.4800

> <Gold.Chemscore.Hbond>
2.2681

> <Gold.Chemscore.Metal>
0.0000

> <Gold.Chemscore.Lipo>
130.4817

> <Gold.Chemscore.Internal_Hbond>
0.0000

> <Gold.Chemscore.DEClash>
3.1248

> <Gold.Chemscore.DEInternal>
3.1681

> <Gold.Chemscore.Rot>
2.3914

> <Gold.Chemscore.Internal.Correction>
   9.000000E+99

> <Gold.Chemscore.Hbonds>
donor molecule, donor type, donor heavy atom, donor atom, acceptor molecule, acceptor atom, score
      L1  H     4    29       P1  7921  0.92
      L1  H    12    35       P1  8028  0.63
      P1  H  7997  8008       L1    17  0.16

> <Gold.Chemscore.Hbond.Weighted>
-7.5756

> <Gold.Chemscore.Metal.Weighted>
-0.0000

> <Gold.Chemscore.Lipo.Weighted>
-15.2664

> <Gold.Chemscore.Internal_Hbond.Weighted>
0.0000

> <Gold.Chemscore.DEClash.Weighted>
3.1248

> <Gold.Chemscore.DEInternal.Weighted>
3.1681

> <Gold.Chemscore.Rot.Weighted>
6.1220

> <Gold.Chemscore.Internal.Correction.Weighted>
   9.000000E+99

> <Gold.Protein.RotatedTorsions>
[ 6907 6896 6895 6894 ] final   38.60 input  -60.11 | X-H torsion
[ 7974 7965 7964 7962 ] final  112.08 input  175.53 | X-H torsion
[ 8008 7997 7996 7995 ] final  -49.17 input   59.86 | X-H torsion
[ 10167 10162 10161 10158 ] final   69.32 input  -65.29 | X-H torsion
[ 10718 10713 10712 10709 ] final   35.80 input   66.30 | X-H torsion
[ 10763 10752 10751 10750 ] final  151.95 input  -60.55 | X-H torsion
[ 11005 11000 10999 10996 ] final -176.04 input  -57.11 | X-H torsion

> <Gold.Protein.ActiveResidues>
 VAL166  LYS551  ARG553  GLY616  TRP617  ASP618  TYR619  PRO620  LYS621  CYS622 
 ASP623  PHE694  ASN695  SER759  ASP760  ASP761  ALA762  ILE779  LEU786  VAL792 
 PHE793  MET794  SER795  GLU796  ALA797  LYS798  CYS799  TRP800  GLU811  SER814 

> <Gold.Protein.RotatedAtoms>
  152.1586  134.8930  160.0542 H   0  0  0  0  0  0  0  0  0  0  0  0  # atno 6907 bound_to 6896
  151.9934  133.3794  159.4161 H   0  0  0  0  0  0  0  0  0  0  0  0  # atno 6908 bound_to 6896
  150.6885  134.3834  159.5088 H   0  0  0  0  0  0  0  0  0  0  0  0  # atno 6909 bound_to 6896
  145.2340  139.2807  143.4153 H   0  0  0  0  0  0  0  0  0  0  0  0  # atno 7974 bound_to 7965
  154.4040  140.1303  156.4459 H   0  0  0  0  0  0  0  0  0  0  0  0  # atno 8008 bound_to 7997
  155.7414  140.3490  155.5086 H   0  0  0  0  0  0  0  0  0  0  0  0  # atno 8009 bound_to 7997
  155.9036  140.1023  157.1322 H   0  0  0  0  0  0  0  0  0  0  0  0  # atno 8010 bound_to 7997
  140.0691  144.5168  150.7240 H   0  0  0  0  0  0  0  0  0  0  0  0  # atno 10167 bound_to 10162
  157.3271  130.7478  149.6823 H   0  0  0  0  0  0  0  0  0  0  0  0  # atno 10718 bound_to 10713
  154.1122  135.2838  155.3228 H   0  0  0  0  0  0  0  0  0  0  0  0  # atno 10763 bound_to 10752
  154.6482  135.5378  153.7873 H   0  0  0  0  0  0  0  0  0  0  0  0  # atno 10764 bound_to 10752
  153.0341  135.6503  154.1280 H   0  0  0  0  0  0  0  0  0  0  0  0  # atno 10765 bound_to 10752
  140.4565  134.6294  157.4824 H   0  0  0  0  0  0  0  0  0  0  0  0  # atno 11005 bound_to 11000
  146.3345  140.2684  142.8605 LP  0  0  0  0  0  0  0  0  0  0  0  0  # atno 17320 bound_to 7965
  144.9650  140.8312  143.5490 LP  0  0  0  0  0  0  0  0  0  0  0  0  # atno 17321 bound_to 7965
  140.7134  143.2524  151.4509 LP  0  0  0  0  0  0  0  0  0  0  0  0  # atno 17342 bound_to 10162
  139.5847  144.1632  152.2013 LP  0  0  0  0  0  0  0  0  0  0  0  0  # atno 17343 bound_to 10162
  155.9692  130.4206  150.4430 LP  0  0  0  0  0  0  0  0  0  0  0  0  # atno 17370 bound_to 10713
  157.2456  131.0535  151.2410 LP  0  0  0  0  0  0  0  0  0  0  0  0  # atno 17371 bound_to 10713
  139.9972  134.6892  155.9589 LP  0  0  0  0  0  0  0  0  0  0  0  0  # atno 17394 bound_to 11000
  141.1640  133.6537  156.4417 LP  0  0  0  0  0  0  0  0  0  0  0  0  # atno 17395 bound_to 11000

$$$$
