AV-unprocessed.smi:562|AV-procd|sdf|2945|dock6
  -GOLD-   2262023443D 1   1.00000     0.00000
 Structure written by MMmdl.
 40 42  0  0  0  0  0  0  0  0  2 V2000
  151.7373  129.2074  155.0820 C   0  0  0  0  0  0  0  0  0  0  0  0
  150.3826  129.1168  154.6808 O   0  0  0  0  0  0  0  0  0  0  0  0
  149.4992  128.9407  155.7761 C   0  0  0  0  0  0  0  0  0  0  0  0
  148.3019  129.8893  155.6270 C   0  0  0  0  0  0  0  0  0  0  0  0
  148.7056  131.2121  155.1564 N   0  0  0  0  0  0  0  0  0  0  0  0
  148.2649  131.8814  154.0593 C   0  0  0  0  0  0  0  0  0  0  0  0
  147.2907  131.3345  153.1973 N   0  0  0  0  0  0  0  0  0  0  0  0
  147.0741  130.0010  153.1717 N   0  0  0  0  0  0  0  0  0  0  0  0
  146.1269  129.8284  152.2649 C   0  0  0  0  0  0  0  0  0  0  0  0
  145.6196  128.4452  151.9820 C   0  0  0  0  0  0  0  0  0  0  0  0
  145.7214  131.0551  151.6688 C   0  0  0  0  0  0  0  0  0  0  0  0
  146.4945  131.9999  152.2827 C   0  0  0  0  0  0  0  0  0  0  0  0
  146.5492  133.4797  152.0830 C   0  0  0  0  0  0  0  0  0  0  0  0
  148.7939  133.0945  153.8884 N   0  0  0  0  0  0  0  0  0  0  0  0
  149.6518  133.2072  154.9729 C   0  0  0  0  0  0  0  0  0  0  0  0
  149.6122  132.0930  155.7526 C   0  0  0  0  0  0  0  0  0  0  0  0
  150.3980  131.9273  156.9945 C   0  0  0  0  0  0  0  0  0  0  0  0
  150.3138  130.9014  157.6668 O   0  0  0  0  0  0  0  0  0  0  0  0
  151.1757  133.0235  157.2634 N   0  5  0  0  0  0  0  0  0  0  0  0
  151.2485  134.1714  156.5033 C   0  0  0  0  0  0  0  0  0  0  0  0
  151.9724  135.1161  156.8208 O   0  0  0  0  0  0  0  0  0  0  0  0
  150.4994  134.2808  155.3608 N   0  0  0  0  0  0  0  0  0  0  0  0
  150.5532  135.4915  154.5365 C   0  0  0  0  0  0  0  0  0  0  0  0
  152.3692  129.3458  154.2047 H   0  0  0  0  0  0  0  0  0  0  0  0
  152.0593  128.2964  155.5881 H   0  0  0  0  0  0  0  0  0  0  0  0
  151.8951  130.0555  155.7495 H   0  0  0  0  0  0  0  0  0  0  0  0
  149.1564  127.9058  155.8185 H   0  0  0  0  0  0  0  0  0  0  0  0
  150.0216  129.1497  156.7108 H   0  0  0  0  0  0  0  0  0  0  0  0
  147.5672  129.4749  154.9381 H   0  0  0  0  0  0  0  0  0  0  0  0
  147.7824  129.9764  156.5794 H   0  0  0  0  0  0  0  0  0  0  0  0
  144.8792  128.4532  151.1820 H   0  0  0  0  0  0  0  0  0  0  0  0
  145.1492  128.0119  152.8649 H   0  0  0  0  0  0  0  0  0  0  0  0
  146.4307  127.7838  151.6759 H   0  0  0  0  0  0  0  0  0  0  0  0
  144.9779  131.2170  150.9024 H   0  0  0  0  0  0  0  0  0  0  0  0
  145.6569  133.8362  151.5686 H   0  0  0  0  0  0  0  0  0  0  0  0
  147.4174  133.7553  151.4842 H   0  0  0  0  0  0  0  0  0  0  0  0
  146.6174  134.0054  153.0354 H   0  0  0  0  0  0  0  0  0  0  0  0
  151.5750  135.6875  154.2086 H   0  0  0  0  0  0  0  0  0  0  0  0
  150.2052  136.3545  155.1055 H   0  0  0  0  0  0  0  0  0  0  0  0
  149.9345  135.4197  153.6425 H   0  0  0  0  0  0  0  0  0  0  0  0
  1  2  1  0  0  0  0
  1 24  1  0  0  0  0
  1 25  1  0  0  0  0
  1 26  1  0  0  0  0
  2  3  1  0  0  0  0
  3  4  1  0  0  0  0
  3 27  1  0  0  0  0
  3 28  1  0  0  0  0
  4  5  1  0  0  0  0
  4 29  1  0  0  0  0
  4 30  1  0  0  0  0
  5 16  1  0  0  0  0
  5  6  1  0  0  0  0
  6  7  1  0  0  0  0
  6 14  2  0  0  0  0
  7 12  1  0  0  0  0
  7  8  1  0  0  0  0
  8  9  2  0  0  0  0
  9 10  1  0  0  0  0
  9 11  1  0  0  0  0
 10 31  1  0  0  0  0
 10 32  1  0  0  0  0
 10 33  1  0  0  0  0
 11 12  2  0  0  0  0
 11 34  1  0  0  0  0
 12 13  1  0  0  0  0
 13 35  1  0  0  0  0
 13 36  1  0  0  0  0
 13 37  1  0  0  0  0
 14 15  1  0  0  0  0
 15 22  1  0  0  0  0
 15 16  2  0  0  0  0
 16 17  1  0  0  0  0
 17 18  2  0  0  0  0
 17 19  1  0  0  0  0
 19 20  1  0  0  0  0
 20 21  2  0  0  0  0
 20 22  1  0  0  0  0
 22 23  1  0  0  0  0
 23 38  1  0  0  0  0
 23 39  1  0  0  0  0
 23 40  1  0  0  0  0
M  CHG  1  19  -1
M  END
> <s_m_source_file>
AV-unprocessed.smi

> <i_m_source_file_index>
562

> <i_lp_mmshare_version>
43012

> <i_f3d_flags>
0

> <s_epik_input>
W0NIM11uMWMoPU8pW25IXWMoPU8pYyhjMTIpbihbQ0gyXVtDSDJdT1tDSDNdKWMobjIpLW4zbmMoW0NIM10pW2NIXWMzW0NIM10=

> <s_epik_cmdline>
J2VwaWtfcHl0aG9uJywgJy1waCcsICc3LjAnLCAnLXRuJywgJzgnLCAnLW1hJywgJzIwMCcsICctbWV0YWxfYmluZGluZycsICctaW1hZScsICc8aW5maWxlLm1hZT4nLCAnLW9tYWUnLCAnPG91dGZpbGUubWFlPic=

> <r_lp_tautomer_probability>
1

> <r_epik_Ionization_Penalty>
3.9873

> <r_epik_Ionization_Penalty_Charging>
0.0180637

> <r_epik_Ionization_Penalty_Neutral>
3.96924

> <r_epik_State_Penalty>
3.96767

> <r_epik_Charging_Adjusted_Penalty>
3.98573

> <i_epik_Tot_Q>
-1

> <i_epik_Tot_abs_Q>
1

> <r_epik_Metal_State_Penalty>
0.612149

> <b_epik_Metal_Only>
1

> <s_lp_Force_Field>
OPLS_2005

> <r_lp_Energy>
28.5769

> <b_lp_Chiralities_Consistent>
1

> <s_lp_Variant>
AV-unprocessed.smi:562-2

> <Gold.Version>
5.8.1

> <Gold.Id.Protein>
6NUR|6NUR_protein|mol2

> <Gold.PLP.Fitness>
39.9637

> <Gold.PLP.PLP>
-32.6515

> <Gold.PLP.part.hbond>
-2.3552

> <Gold.PLP.part.metal>
0.0000

> <Gold.PLP.part.buried>
-4.7765

> <Gold.PLP.part.nonpolar>
-27.4173

> <Gold.PLP.part.repulsive>
0.3489

> <Gold.PLP.ligand.clash>
0.0925

> <Gold.PLP.ligand.torsion>
0.5819

> <Gold.PLP.Chemscore.Hbond>
2.7359

> <Gold.PLP.Chemscore.CHOScore>
0.0000

> <Gold.PLP.Chemscore.Metal>
0.0000

> <Gold.Chemscore.Hbonds>
donor molecule, donor type, donor heavy atom, donor atom, acceptor molecule, acceptor atom, score
      P1  H  6896  6908       L1    19  1.70
      P1  H 10752 10764       L1    21  0.81

> <Gold.PLP.Chemscore.Internal.Correction>
0.3609

> <Gold.Rescore>
     Score         DG    S(hbond)    S(metal)    S(lipo)     H(rot)  DE(clash)    DE(int)     intcor
      6.98     -11.78       0.91        0.00      60.98       1.52       0.12       4.68       ----

> <Gold.Chemscore.Fitness>
6.9779

> <Gold.Chemscore.DG>
-11.7772

> <Gold.Chemscore.ZeroCoef>
-5.4800

> <Gold.Chemscore.Hbond>
0.9112

> <Gold.Chemscore.Metal>
0.0000

> <Gold.Chemscore.Lipo>
60.9770

> <Gold.Chemscore.Internal_Hbond>
0.0000

> <Gold.Chemscore.DEClash>
0.1200

> <Gold.Chemscore.DEInternal>
4.6793

> <Gold.Chemscore.Rot>
1.5159

> <Gold.Chemscore.Internal.Correction>
   9.000000E+99

> <Gold.Chemscore.Hbonds>
donor molecule, donor type, donor heavy atom, donor atom, acceptor molecule, acceptor atom, score
      P1  H  6896  6908       L1    19  0.60
      P1  H 10752 10764       L1    21  0.44

> <Gold.Chemscore.Hbond.Weighted>
-3.0434

> <Gold.Chemscore.Metal.Weighted>
-0.0000

> <Gold.Chemscore.Lipo.Weighted>
-7.1343

> <Gold.Chemscore.Internal_Hbond.Weighted>
0.0000

> <Gold.Chemscore.DEClash.Weighted>
0.1200

> <Gold.Chemscore.DEInternal.Weighted>
4.6793

> <Gold.Chemscore.Rot.Weighted>
3.8806

> <Gold.Chemscore.Internal.Correction.Weighted>
   9.000000E+99

> <Gold.Protein.RotatedTorsions>
[ 6907 6896 6895 6894 ] final   72.76 input  -60.11 | X-H torsion
[ 7974 7965 7964 7962 ] final -179.11 input  175.53 | X-H torsion
[ 8008 7997 7996 7995 ] final   49.12 input   59.86 | X-H torsion
[ 10167 10162 10161 10158 ] final -165.77 input  -65.29 | X-H torsion
[ 10718 10713 10712 10709 ] final   22.80 input   66.30 | X-H torsion
[ 10763 10752 10751 10750 ] final  -18.37 input  -60.55 | X-H torsion
[ 11005 11000 10999 10996 ] final  123.61 input  -57.11 | X-H torsion

> <Gold.Protein.ActiveResidues>
 VAL166  LYS551  ARG553  GLY616  TRP617  ASP618  TYR619  PRO620  LYS621  CYS622 
 ASP623  PHE694  ASN695  SER759  ASP760  ASP761  ALA762  ILE779  LEU786  VAL792 
 PHE793  MET794  SER795  GLU796  ALA797  LYS798  CYS799  TRP800  GLU811  SER814 

> <Gold.Protein.RotatedAtoms>
  152.4886  134.4523  159.9578 H   0  0  0  0  0  0  0  0  0  0  0  0  # atno 6907 bound_to 6896
  151.4515  133.3610  159.2804 H   0  0  0  0  0  0  0  0  0  0  0  0  # atno 6908 bound_to 6896
  150.9018  134.8455  159.7426 H   0  0  0  0  0  0  0  0  0  0  0  0  # atno 6909 bound_to 6896
  144.7134  140.0767  143.6427 H   0  0  0  0  0  0  0  0  0  0  0  0  # atno 7974 bound_to 7965
  155.3970  140.3436  155.4254 H   0  0  0  0  0  0  0  0  0  0  0  0  # atno 8008 bound_to 7997
  156.1525  140.1575  156.8779 H   0  0  0  0  0  0  0  0  0  0  0  0  # atno 8009 bound_to 7997
  154.5065  140.0801  156.7886 H   0  0  0  0  0  0  0  0  0  0  0  0  # atno 8010 bound_to 7997
  139.6159  144.0720  152.1888 H   0  0  0  0  0  0  0  0  0  0  0  0  # atno 10167 bound_to 10162
  157.1573  130.6701  149.6032 H   0  0  0  0  0  0  0  0  0  0  0  0  # atno 10718 bound_to 10713
  153.5883  135.7003  153.5434 H   0  0  0  0  0  0  0  0  0  0  0  0  # atno 10763 bound_to 10752
  153.3201  135.4076  155.1409 H   0  0  0  0  0  0  0  0  0  0  0  0  # atno 10764 bound_to 10752
  154.8605  135.3693  154.5414 H   0  0  0  0  0  0  0  0  0  0  0  0  # atno 10765 bound_to 10752
  139.9321  134.9641  156.8286 H   0  0  0  0  0  0  0  0  0  0  0  0  # atno 11005 bound_to 11000
  145.9737  139.2888  143.1083 LP  0  0  0  0  0  0  0  0  0  0  0  0  # atno 17320 bound_to 7965
  145.9088  140.9194  143.0464 LP  0  0  0  0  0  0  0  0  0  0  0  0  # atno 17321 bound_to 7965
  140.0350  144.6051  150.7457 LP  0  0  0  0  0  0  0  0  0  0  0  0  # atno 17342 bound_to 10162
  140.7351  143.2736  151.3810 LP  0  0  0  0  0  0  0  0  0  0  0  0  # atno 17343 bound_to 10162
  155.9760  130.4724  150.6497 LP  0  0  0  0  0  0  0  0  0  0  0  0  # atno 17370 bound_to 10713
  157.4165  131.0831  151.1171 LP  0  0  0  0  0  0  0  0  0  0  0  0  # atno 17371 bound_to 10713
  140.6175  134.0025  155.7603 LP  0  0  0  0  0  0  0  0  0  0  0  0  # atno 17394 bound_to 11000
  141.0915  133.9910  157.3230 LP  0  0  0  0  0  0  0  0  0  0  0  0  # atno 17395 bound_to 11000

$$$$
