AV-unprocessed.smi:1208|AV-procd|sdf|5065|dock3
  -GOLD-   22720 4103D 1   1.00000     0.00000
 Structure written by MMmdl.
 36 37  0  0  0  0  0  0  0  0  1 V2000
  151.6622  145.1793  159.3558 C   0  0  0  0  0  0  0  0  0  0  0  0
  152.4676  143.8760  159.2182 C   0  0  2  0  0  0  0  0  0  0  0  0
  152.0097  143.1427  158.0411 N   0  0  0  0  0  0  0  0  0  0  0  0
  150.7857  142.6185  157.8761 C   0  0  0  0  0  0  0  0  0  0  0  0
  149.9055  142.6696  158.7363 O   0  0  0  0  0  0  0  0  0  0  0  0
  150.5310  141.9051  156.5408 C   0  0  0  0  0  0  0  0  0  0  0  0
  151.4171  140.7518  156.3290 N   0  0  0  0  0  0  0  0  0  0  0  0
  152.1910  140.4193  157.4307 N   0  0  0  0  0  0  0  0  0  0  0  0
  152.9972  139.4136  157.3718 C   0  0  0  0  0  0  0  0  0  0  0  0
  153.7419  139.1172  158.4868 O   0  0  0  0  0  0  0  0  0  0  0  0
  153.1169  138.6189  156.1693 C   0  0  0  0  0  0  0  0  0  0  0  0
  152.3636  138.9547  155.0993 C   0  0  0  0  0  0  0  0  0  0  0  0
  151.4401  140.0901  155.1311 C   0  0  0  0  0  0  0  0  0  0  0  0
  150.7461  140.4216  154.1700 O   0  0  0  0  0  0  0  0  0  0  0  0
  152.3389  142.9702  160.4583 C   0  0  2  0  0  0  0  0  0  0  0  0
  152.6130  143.6721  161.7910 C   0  0  0  0  0  0  0  0  0  0  0  0
  153.0852  142.5267  162.6560 C   0  0  0  0  0  0  0  0  0  0  0  0
  153.9195  141.7249  161.6646 C   0  0  0  0  0  0  0  0  0  0  0  0
  153.2937  141.9097  160.3985 O   0  0  0  0  0  0  0  0  0  0  0  0
  154.1849  139.9206  158.7127 H   0  0  0  0  0  0  0  0  0  0  0  0
  152.0107  145.7746  160.1997 H   0  0  0  0  0  0  0  0  0  0  0  0
  150.6016  144.9758  159.5071 H   0  0  0  0  0  0  0  0  0  0  0  0
  151.7581  145.7982  158.4631 H   0  0  0  0  0  0  0  0  0  0  0  0
  153.5219  144.1309  159.0963 H   0  0  0  0  0  0  0  0  0  0  0  0
  152.6680  143.0535  157.2806 H   0  0  0  0  0  0  0  0  0  0  0  0
  149.4877  141.5886  156.4797 H   0  0  0  0  0  0  0  0  0  0  0  0
  150.6621  142.6355  155.7404 H   0  0  0  0  0  0  0  0  0  0  0  0
  153.7951  137.7790  156.1374 H   0  0  0  0  0  0  0  0  0  0  0  0
  152.4424  138.3698  154.1946 H   0  0  0  0  0  0  0  0  0  0  0  0
  151.3474  142.5156  160.4937 H   0  0  0  0  0  0  0  0  0  0  0  0
  153.4120  144.4075  161.6835 H   0  0  0  0  0  0  0  0  0  0  0  0
  151.7354  144.1776  162.1947 H   0  0  0  0  0  0  0  0  0  0  0  0
  153.6526  142.8505  163.5290 H   0  0  0  0  0  0  0  0  0  0  0  0
  152.2335  141.9368  162.9976 H   0  0  0  0  0  0  0  0  0  0  0  0
  154.9329  142.1246  161.6103 H   0  0  0  0  0  0  0  0  0  0  0  0
  153.9845  140.6693  161.9289 H   0  0  0  0  0  0  0  0  0  0  0  0
  1  2  1  0  0  0  0
  1 21  1  0  0  0  0
  1 22  1  0  0  0  0
  1 23  1  0  0  0  0
  2  3  1  0  0  0  0
  2 15  1  0  0  0  0
  2 24  1  0  0  0  0
  3  4  1  0  0  0  0
  3 25  1  0  0  0  0
  4  5  2  0  0  0  0
  4  6  1  0  0  0  0
  6 26  1  0  0  0  0
  6 27  1  0  0  0  0
  6  7  1  0  0  0  0
  7  8  1  0  0  0  0
  7 13  1  0  0  0  0
  8  9  2  0  0  0  0
  9 10  1  0  0  0  0
  9 11  1  0  0  0  0
 10 20  1  0  0  0  0
 11 28  1  0  0  0  0
 11 12  2  0  0  0  0
 12 29  1  0  0  0  0
 12 13  1  0  0  0  0
 13 14  2  0  0  0  0
 15 19  1  0  0  0  0
 15 16  1  0  0  0  0
 15 30  1  0  0  0  0
 16 17  1  0  0  0  0
 16 31  1  0  0  0  0
 16 32  1  0  0  0  0
 17 18  1  0  0  0  0
 17 33  1  0  0  0  0
 17 34  1  0  0  0  0
 18 19  1  0  0  0  0
 18 35  1  0  0  0  0
 18 36  1  0  0  0  0
M  END
> <s_m_source_file>
AV-unprocessed.smi

> <i_m_source_file_index>
1208

> <i_lp_mmshare_version>
43012

> <i_f3d_flags>
0

> <s_epik_input>
TzFbQ0gyXVtDSDJdW0NIMl1bQ0BIXTFbQ0BIXShbQ0gzXSlbTkhdQyg9TylbQ0gyXW4yW25IXWMoPU8pW2NIXVtjSF1jMj1P

> <s_epik_cmdline>
J2VwaWtfcHl0aG9uJywgJy1waCcsICc3LjAnLCAnLXRuJywgJzgnLCAnLW1hJywgJzIwMCcsICctbWV0YWxfYmluZGluZycsICctaW1hZScsICc8aW5maWxlLm1hZT4nLCAnLW9tYWUnLCAnPG91dGZpbGUubWFlPic=

> <r_lp_tautomer_probability>
0.9996

> <r_epik_Ionization_Penalty>
2.12735

> <r_epik_Ionization_Penalty_Charging>
3.86665e-08

> <r_epik_Ionization_Penalty_Neutral>
2.12735

> <r_epik_State_Penalty>
1.70441

> <r_epik_Charging_Adjusted_Penalty>
1.70441

> <i_epik_Tot_Q>
0

> <i_epik_Tot_abs_Q>
0

> <r_epik_Metal_State_Penalty>
1.70441

> <b_epik_Metal_Only>
0

> <s_lp_Force_Field>
OPLS_2005

> <r_lp_Energy>
29.6219

> <b_lp_Chiralities_Consistent>
1

> <s_lp_Variant>
AV-unprocessed.smi:1208-5

> <Gold.Version>
5.8.1

> <Gold.Id.Protein>
6NUR|6NUR_protein|mol2

> <Gold.PLP.Fitness>
44.9169

> <Gold.PLP.PLP>
-42.2127

> <Gold.PLP.part.hbond>
-1.3472

> <Gold.PLP.part.metal>
0.0000

> <Gold.PLP.part.buried>
-4.4211

> <Gold.PLP.part.nonpolar>
-36.5546

> <Gold.PLP.part.repulsive>
0.2515

> <Gold.PLP.ligand.clash>
0.0000

> <Gold.PLP.ligand.torsion>
0.1611

> <Gold.PLP.Chemscore.Hbond>
1.0000

> <Gold.PLP.Chemscore.CHOScore>
0.0000

> <Gold.PLP.Chemscore.Metal>
0.0000

> <Gold.Chemscore.Hbonds>
donor molecule, donor type, donor heavy atom, donor atom, acceptor molecule, acceptor atom, score
      P1  H  7989  7998       L1    14  0.15

> <Gold.PLP.Chemscore.Internal.Correction>
0.0263

> <Gold.Rescore>
     Score         DG    S(hbond)    S(metal)    S(lipo)     H(rot)  DE(clash)    DE(int)     intcor
     11.05     -12.54       1.00        0.00      89.39       2.63       0.04       1.45       ----

> <Gold.Chemscore.Fitness>
11.0494

> <Gold.Chemscore.DG>
-12.5397

> <Gold.Chemscore.ZeroCoef>
-5.4800

> <Gold.Chemscore.Hbond>
0.9953

> <Gold.Chemscore.Metal>
0.0000

> <Gold.Chemscore.Lipo>
89.3929

> <Gold.Chemscore.Internal_Hbond>
0.0000

> <Gold.Chemscore.DEClash>
0.0392

> <Gold.Chemscore.DEInternal>
1.4511

> <Gold.Chemscore.Rot>
2.6264

> <Gold.Chemscore.Internal.Correction>
   9.000000E+99

> <Gold.Chemscore.Hbonds>
donor molecule, donor type, donor heavy atom, donor atom, acceptor molecule, acceptor atom, score
      P1  H  7989  7998       L1    14  0.03

> <Gold.Chemscore.Hbond.Weighted>
-3.3244

> <Gold.Chemscore.Metal.Weighted>
-0.0000

> <Gold.Chemscore.Lipo.Weighted>
-10.4590

> <Gold.Chemscore.Internal_Hbond.Weighted>
0.0000

> <Gold.Chemscore.DEClash.Weighted>
0.0392

> <Gold.Chemscore.DEInternal.Weighted>
1.4511

> <Gold.Chemscore.Rot.Weighted>
6.7237

> <Gold.Chemscore.Internal.Correction.Weighted>
   9.000000E+99

> <Gold.Protein.RotatedTorsions>
[ 6907 6896 6895 6894 ] final -163.62 input  -60.11 | X-H torsion
[ 7974 7965 7964 7962 ] final -119.95 input  175.53 | X-H torsion
[ 8008 7997 7996 7995 ] final  175.21 input   59.86 | X-H torsion
[ 10167 10162 10161 10158 ] final  117.84 input  -65.29 | X-H torsion
[ 10718 10713 10712 10709 ] final -112.02 input   66.30 | X-H torsion
[ 10763 10752 10751 10750 ] final -110.09 input  -60.55 | X-H torsion
[ 11005 11000 10999 10996 ] final  -12.91 input  -57.11 | X-H torsion

> <Gold.Protein.ActiveResidues>
 VAL166  LYS551  ARG553  GLY616  TRP617  ASP618  TYR619  PRO620  LYS621  CYS622 
 ASP623  PHE694  ASN695  SER759  ASP760  ASP761  ALA762  ILE779  LEU786  VAL792 
 PHE793  MET794  SER795  GLU796  ALA797  LYS798  CYS799  TRP800  GLU811  SER814 

> <Gold.Protein.RotatedAtoms>
  151.3990  133.3764  159.2729 H   0  0  0  0  0  0  0  0  0  0  0  0  # atno 6907 bound_to 6896
  150.9448  134.8855  159.7645 H   0  0  0  0  0  0  0  0  0  0  0  0  # atno 6908 bound_to 6896
  152.5087  134.3942  159.9446 H   0  0  0  0  0  0  0  0  0  0  0  0  # atno 6909 bound_to 6896
  145.0568  140.8260  143.4176 H   0  0  0  0  0  0  0  0  0  0  0  0  # atno 7974 bound_to 7965
  156.0894  140.1415  156.9611 H   0  0  0  0  0  0  0  0  0  0  0  0  # atno 8008 bound_to 7997
  154.4633  140.0935  156.6999 H   0  0  0  0  0  0  0  0  0  0  0  0  # atno 8009 bound_to 7997
  155.4944  140.3449  155.4362 H   0  0  0  0  0  0  0  0  0  0  0  0  # atno 8010 bound_to 7997
  139.6152  144.7090  151.2756 H   0  0  0  0  0  0  0  0  0  0  0  0  # atno 10167 bound_to 10162
  156.0681  130.5898  150.8452 H   0  0  0  0  0  0  0  0  0  0  0  0  # atno 10718 bound_to 10713
  154.8229  135.4577  154.0832 H   0  0  0  0  0  0  0  0  0  0  0  0  # atno 10763 bound_to 10752
  153.2171  135.6889  153.8051 H   0  0  0  0  0  0  0  0  0  0  0  0  # atno 10764 bound_to 10752
  153.7481  135.3302  155.3293 H   0  0  0  0  0  0  0  0  0  0  0  0  # atno 10765 bound_to 10752
  140.7706  133.8441  155.9204 H   0  0  0  0  0  0  0  0  0  0  0  0  # atno 11005 bound_to 11000
  145.1458  139.2544  143.5466 LP  0  0  0  0  0  0  0  0  0  0  0  0  # atno 17320 bound_to 7965
  146.3522  140.1148  142.8602 LP  0  0  0  0  0  0  0  0  0  0  0  0  # atno 17321 bound_to 7965
  140.7346  143.6762  150.8040 LP  0  0  0  0  0  0  0  0  0  0  0  0  # atno 17342 bound_to 10162
  140.0363  143.5392  152.2738 LP  0  0  0  0  0  0  0  0  0  0  0  0  # atno 17343 bound_to 10162
  157.5735  131.0946  150.9381 LP  0  0  0  0  0  0  0  0  0  0  0  0  # atno 17370 bound_to 10713
  156.9592  130.5449  149.5285 LP  0  0  0  0  0  0  0  0  0  0  0  0  # atno 17371 bound_to 10713
  140.9577  134.1697  157.4679 LP  0  0  0  0  0  0  0  0  0  0  0  0  # atno 17394 bound_to 11000
  139.8756  134.9933  156.5638 LP  0  0  0  0  0  0  0  0  0  0  0  0  # atno 17395 bound_to 11000

$$$$
