#       Name:                AV-unprocessed.smi:861
#       Creating user name   scv26
#       Creation time:       Fri Mar 27 01:44:56 2020


#       File generated by GOLD software.
#

@<TRIPOS>MOLECULE
AV-unprocessed.smi:861
    48    49     1
SMALL
NO_CHARGES


@<TRIPOS>ATOM
      1 ****         6.0604  -5.4739  -8.7625 C.3            1 S1                 0.0000
      2 ****         6.3550  -4.5783  -7.5472 C.3            1 S1                 0.0000
      3 ****         7.8330  -4.1589  -7.5400 C.3            1 S1                 0.0000
      4 ****         5.9726  -5.2438  -6.2089 C.3            1 S1                 0.0000
      5 ****         4.4611  -5.4914  -6.0406 C.3            1 S1                 0.0000
      6 ****         4.1295  -6.0590  -4.7060 N.4            1 S1                 1.0000
      7 ****         2.8800  -6.8583  -4.6912 C.3            1 S1                 0.0000
      8 ****         1.6385  -5.9494  -4.6694 C.3            1 S1                 0.0000
      9 ****         1.7106  -5.0796  -3.5459 O.3            1 S1                 0.0000
     10 ****         2.8392  -4.2125  -3.5969 C.3            1 S1                 0.0000
     11 ****         2.7829  -3.2783  -2.3749 C.3            1 S1                 0.0000
     12 ****         1.6670  -2.3429  -2.4348 N.pl3          1 S1                 0.0000
     13 ****         1.6864  -1.2191  -3.2739 C.ar           1 S1                 0.0000
     14 ****         0.6356  -0.2770  -3.3754 C.ar           1 S1                 0.0000
     15 ****         0.7933   0.8058  -4.2572 C.ar           1 S1                 0.0000
     16 ****         1.9922   0.8820  -4.9878 C.ar           1 S1                 0.0000
     17 ****         2.9843  -0.0292  -4.8781 N.ar           1 S1                 0.0000
     18 ****         2.8034  -1.0536  -4.0259 N.pl3          1 S1                 1.0000
     19 ****         4.1235  -5.0721  -3.5947 C.3            1 S1                 0.0000
     20 ****         6.5841  -6.4275  -8.6892 H              1 S1                 0.0000
     21 ****         6.3794  -4.9927  -9.6877 H              1 S1                 0.0000
     22 ****         4.9960  -5.6824  -8.8644 H              1 S1                 0.0000
     23 ****         5.7634  -3.6679  -7.6531 H              1 S1                 0.0000
     24 ****         8.4897  -5.0234  -7.4353 H              1 S1                 0.0000
     25 ****         8.0475  -3.4766  -6.7170 H              1 S1                 0.0000
     26 ****         8.1019  -3.6478  -8.4650 H              1 S1                 0.0000
     27 ****         6.5110  -6.1864  -6.1009 H              1 S1                 0.0000
     28 ****         6.3266  -4.6039  -5.4015 H              1 S1                 0.0000
     29 ****         3.8989  -4.5760  -6.2229 H              1 S1                 0.0000
     30 ****         4.1448  -6.1992  -6.8065 H              1 S1                 0.0000
     31 ****         2.8468  -7.5439  -5.5388 H              1 S1                 0.0000
     32 ****         2.8831  -7.4820  -3.7962 H              1 S1                 0.0000
     33 ****         1.5523  -5.3726  -5.5915 H              1 S1                 0.0000
     34 ****         0.7345  -6.5532  -4.5878 H              1 S1                 0.0000
     35 ****         2.7961  -3.6137  -4.5073 H              1 S1                 0.0000
     36 ****         2.6839  -3.8698  -1.4643 H              1 S1                 0.0000
     37 ****         3.7159  -2.7241  -2.2715 H              1 S1                 0.0000
     38 ****         0.8075  -2.5957  -1.9676 H              1 S1                 0.0000
     39 ****        -0.2733  -0.3664  -2.7998 H              1 S1                 0.0000
     40 ****         0.0218   1.5528  -4.3727 H              1 S1                 0.0000
     41 ****         2.1615   1.6945  -5.6792 H              1 S1                 0.0000
     42 ****         4.1853  -5.6251  -2.6563 H              1 S1                 0.0000
     43 ****         5.0086  -4.4380  -3.6290 H              1 S1                 0.0000
     44 ****         4.8735  -6.7138  -4.5094 H              1 S1                 0.0000
     45 ****         3.5485  -1.7453  -3.9397 H              1 S1                 0.0000
     46 ****         1.7692  -5.6334  -2.7153 LP             1 S1                 0.0000
     47 ****         0.8801  -4.5233  -3.5177 LP             1 S1                 0.0000
     48 ****         3.8250   0.0556  -5.4129 LP             1 S1                 0.0000
@<TRIPOS>BOND
    1    1    2 1     
    2    1   20 1     
    3    1   21 1     
    4    1   22 1     
    5    2    3 1     
    6    2    4 1     
    7    2   23 1     
    8    3   24 1     
    9    3   25 1     
   10    3   26 1     
   11    4    5 1     
   12    4   27 1     
   13    4   28 1     
   14    5    6 1     
   15    5   29 1     
   16    5   30 1     
   17    6   19 1     
   18    6    7 1     
   19    6   44 1     
   20    7    8 1     
   21    7   31 1     
   22    7   32 1     
   23    8    9 1     
   24    8   33 1     
   25    8   34 1     
   26    9   10 1     
   27   10   11 1     
   28   10   19 1     
   29   10   35 1     
   30   11   12 1     
   31   11   36 1     
   32   11   37 1     
   33   12   13 1     
   34   12   38 1     
   35   13   18 ar    
   36   13   14 ar    
   37   14   15 ar    
   38   14   39 1     
   39   15   16 ar    
   40   15   40 1     
   41   16   17 ar    
   42   16   41 1     
   43   17   18 ar    
   44   18   45 1     
   45   19   42 1     
   46   19   43 1     
   47    9   46 1     
   48    9   47 1     
   49   17   48 1     
@<TRIPOS>SUBSTRUCTURE
      1 S1             1
@<TRIPOS>SET
LONE_PAIRS      STATIC     ATOMS    <user>   **** ""
3 46 47 48
DONOR_HYDROGENS      STATIC     ATOMS    <user>   **** ""
3 44 38 45
ATOM$BLUE        STATIC     ATOMS    COLORGROUP SYSTEM
3 46 47 48
ATOM$RED        STATIC     ATOMS    COLORGROUP SYSTEM
3 44 38 45
