AV-unprocessed.smi:1795|AV-procd|sdf|7238|dock8
  -GOLD-   22720 8483D 1   1.00000     0.00000
 Structure written by MMmdl.
 47 48  0  0  0  0  0  0  0  0  1 V2000
  153.7336  141.5770  161.8617 C   0  0  0  0  0  0  0  0  0  0  0  0
  153.3704  142.2621  160.5401 C   0  0  1  0  0  0  0  0  0  0  0  0
  152.3670  141.4359  159.7132 C   0  0  0  0  0  0  0  0  0  0  0  0
  151.9527  142.1074  158.4764 N   0  0  0  0  0  0  0  0  0  0  0  0
  150.9700  141.3115  157.7039 C   0  0  2  0  0  0  0  0  0  0  0  0
  151.2017  139.7842  157.8316 C   0  0  0  0  0  0  0  0  0  0  0  0
  150.9229  141.6834  156.1928 C   0  0  0  0  0  0  0  0  0  0  0  0
  149.6493  141.3594  155.5556 N   0  0  0  0  0  0  0  0  0  0  0  0
  149.4907  140.4725  154.5615 C   0  0  0  0  0  0  0  0  0  0  0  0
  150.4253  139.8351  154.0732 O   0  0  0  0  0  0  0  0  0  0  0  0
  148.0587  140.3029  154.0340 C   0  0  0  0  0  0  0  0  0  0  0  0
  147.1143  141.2923  154.5796 N   0  0  0  0  0  0  0  0  0  0  0  0
  146.6958  142.3235  153.7150 C   0  0  0  0  0  0  0  0  0  0  0  0
  145.8323  143.2732  154.1082 C   0  0  0  0  0  0  0  0  0  0  0  0
  145.3292  143.2206  155.4604 C   0  0  0  0  0  0  0  0  0  0  0  0
  145.7204  142.2367  156.2947 C   0  0  0  0  0  0  0  0  0  0  0  0
  146.6616  141.1945  155.8680 C   0  0  0  0  0  0  0  0  0  0  0  0
  147.0204  140.2893  156.6218 O   0  0  0  0  0  0  0  0  0  0  0  0
  151.4462  143.4370  158.8352 C   0  0  0  0  0  0  0  0  0  0  0  0
  152.4475  144.2592  159.6690 C   0  0  1  0  0  0  0  0  0  0  0  0
  151.8662  145.6089  160.1038 C   0  0  0  0  0  0  0  0  0  0  0  0
  152.7960  143.5280  160.8375 O   0  0  0  0  0  0  0  0  0  0  0  0
  154.1926  140.6036  161.6858 H   0  0  0  0  0  0  0  0  0  0  0  0
  152.8507  141.4242  162.4830 H   0  0  0  0  0  0  0  0  0  0  0  0
  154.4414  142.1794  162.4313 H   0  0  0  0  0  0  0  0  0  0  0  0
  154.2840  142.4128  159.9621 H   0  0  0  0  0  0  0  0  0  0  0  0
  152.8462  140.4846  159.4888 H   0  0  0  0  0  0  0  0  0  0  0  0
  151.4895  141.2132  160.3224 H   0  0  0  0  0  0  0  0  0  0  0  0
  149.9813  141.5169  158.1167 H   0  0  0  0  0  0  0  0  0  0  0  0
  150.5135  139.2057  157.2165 H   0  0  0  0  0  0  0  0  0  0  0  0
  151.0425  139.4253  158.8473 H   0  0  0  0  0  0  0  0  0  0  0  0
  152.2146  139.5133  157.5322 H   0  0  0  0  0  0  0  0  0  0  0  0
  151.0907  142.7461  156.0241 H   0  0  0  0  0  0  0  0  0  0  0  0
  151.7149  141.1593  155.6570 H   0  0  0  0  0  0  0  0  0  0  0  0
  148.8320  141.8448  155.8964 H   0  0  0  0  0  0  0  0  0  0  0  0
  148.0671  140.3527  152.9434 H   0  0  0  0  0  0  0  0  0  0  0  0
  147.7281  139.2906  154.2701 H   0  0  0  0  0  0  0  0  0  0  0  0
  147.1123  142.2869  152.7188 H   0  0  0  0  0  0  0  0  0  0  0  0
  145.5189  144.0533  153.4302 H   0  0  0  0  0  0  0  0  0  0  0  0
  144.6347  143.9728  155.8044 H   0  0  0  0  0  0  0  0  0  0  0  0
  145.3324  142.2131  157.3025 H   0  0  0  0  0  0  0  0  0  0  0  0
  151.2320  144.0201  157.9421 H   0  0  0  0  0  0  0  0  0  0  0  0
  150.5078  143.3384  159.3836 H   0  0  0  0  0  0  0  0  0  0  0  0
  153.3493  144.4402  159.0815 H   0  0  0  0  0  0  0  0  0  0  0  0
  151.5945  146.2161  159.2400 H   0  0  0  0  0  0  0  0  0  0  0  0
  152.5902  146.1732  160.6922 H   0  0  0  0  0  0  0  0  0  0  0  0
  150.9724  145.4756  160.7140 H   0  0  0  0  0  0  0  0  0  0  0  0
  1  2  1  0  0  0  0
  1 23  1  0  0  0  0
  1 24  1  0  0  0  0
  1 25  1  0  0  0  0
  2 22  1  0  0  0  0
  2  3  1  0  0  0  0
  2 26  1  0  0  0  0
  3  4  1  0  0  0  0
  3 27  1  0  0  0  0
  3 28  1  0  0  0  0
  4  5  1  0  0  0  0
  4 19  1  0  0  0  0
  5  6  1  0  0  0  0
  5  7  1  0  0  0  0
  5 29  1  0  0  0  0
  6 30  1  0  0  0  0
  6 31  1  0  0  0  0
  6 32  1  0  0  0  0
  7  8  1  0  0  0  0
  7 33  1  0  0  0  0
  7 34  1  0  0  0  0
  8  9  1  0  0  0  0
  8 35  1  0  0  0  0
  9 10  2  0  0  0  0
  9 11  1  0  0  0  0
 11 12  1  0  0  0  0
 11 36  1  0  0  0  0
 11 37  1  0  0  0  0
 12 17  1  0  0  0  0
 12 13  1  0  0  0  0
 13 14  2  0  0  0  0
 13 38  1  0  0  0  0
 14 15  1  0  0  0  0
 14 39  1  0  0  0  0
 15 16  2  0  0  0  0
 15 40  1  0  0  0  0
 16 17  1  0  0  0  0
 16 41  1  0  0  0  0
 17 18  2  0  0  0  0
 19 20  1  0  0  0  0
 19 42  1  0  0  0  0
 19 43  1  0  0  0  0
 20 21  1  0  0  0  0
 20 22  1  0  0  0  0
 20 44  1  0  0  0  0
 21 45  1  0  0  0  0
 21 46  1  0  0  0  0
 21 47  1  0  0  0  0
M  END
> <s_m_source_file>
AV-unprocessed.smi

> <i_m_source_file_index>
1795

> <i_lp_mmshare_version>
43012

> <i_f3d_flags>
0

> <s_epik_input>
W0NIM11bQ0BASF0xW0NIMl1OKFtDSDJdW0NASF0oTzEpW0NIM10pW0NASF0oW0NIM10pW0NIMl1bTkhdQyg9TylbQ0gyXW4yW2NIXVtjSF1bY0hdW2NIXWMyPU8=

> <s_epik_cmdline>
J2VwaWtfcHl0aG9uJywgJy1waCcsICc3LjAnLCAnLXRuJywgJzgnLCAnLW1hJywgJzIwMCcsICctbWV0YWxfYmluZGluZycsICctaW1hZScsICc8aW5maWxlLm1hZT4nLCAnLW9tYWUnLCAnPG91dGZpbGUubWFlPic=

> <r_lp_tautomer_probability>
1

> <r_epik_Ionization_Penalty>
0.237383

> <r_epik_Ionization_Penalty_Charging>
3.58805e-07

> <r_epik_Ionization_Penalty_Neutral>
0.237382

> <r_epik_State_Penalty>
0.228245

> <r_epik_Charging_Adjusted_Penalty>
0.228245

> <i_epik_Tot_Q>
0

> <i_epik_Tot_abs_Q>
0

> <r_epik_Metal_State_Penalty>
0.228221

> <b_epik_Metal_Only>
0

> <s_lp_Force_Field>
OPLS_2005

> <r_lp_Energy>
36.5545

> <b_lp_Chiralities_Consistent>
1

> <s_lp_Variant>
AV-unprocessed.smi:1795-2

> <Gold.Version>
5.8.1

> <Gold.Id.Protein>
6NUR|6NUR_protein|mol2

> <Gold.PLP.Fitness>
48.6759

> <Gold.PLP.PLP>
-47.5450

> <Gold.PLP.part.hbond>
-1.0000

> <Gold.PLP.part.metal>
0.0000

> <Gold.PLP.part.buried>
-7.5652

> <Gold.PLP.part.nonpolar>
-38.8123

> <Gold.PLP.part.repulsive>
0.8301

> <Gold.PLP.ligand.clash>
0.0000

> <Gold.PLP.ligand.torsion>
0.9585

> <Gold.PLP.Chemscore.Hbond>
1.0000

> <Gold.PLP.Chemscore.CHOScore>
0.0000

> <Gold.PLP.Chemscore.Metal>
0.0000

> <Gold.Chemscore.Hbonds>
donor molecule, donor type, donor heavy atom, donor atom, acceptor molecule, acceptor atom, score
      P1  H  7989  7998       L1    10  1.00

> <Gold.PLP.Chemscore.Internal.Correction>
0.0478

> <Gold.Rescore>
     Score         DG    S(hbond)    S(metal)    S(lipo)     H(rot)  DE(clash)    DE(int)     intcor
     15.66     -16.74       0.91        0.00     110.09       1.83       0.05       1.03       ----

> <Gold.Chemscore.Fitness>
15.6598

> <Gold.Chemscore.DG>
-16.7390

> <Gold.Chemscore.ZeroCoef>
-5.4800

> <Gold.Chemscore.Hbond>
0.9134

> <Gold.Chemscore.Metal>
0.0000

> <Gold.Chemscore.Lipo>
110.0914

> <Gold.Chemscore.Internal_Hbond>
0.0000

> <Gold.Chemscore.DEClash>
0.0522

> <Gold.Chemscore.DEInternal>
1.0271

> <Gold.Chemscore.Rot>
1.8251

> <Gold.Chemscore.Internal.Correction>
   9.000000E+99

> <Gold.Chemscore.Hbonds>
donor molecule, donor type, donor heavy atom, donor atom, acceptor molecule, acceptor atom, score
      P1  H  7989  7998       L1    10  0.77

> <Gold.Chemscore.Hbond.Weighted>
-3.0507

> <Gold.Chemscore.Metal.Weighted>
-0.0000

> <Gold.Chemscore.Lipo.Weighted>
-12.8807

> <Gold.Chemscore.Internal_Hbond.Weighted>
0.0000

> <Gold.Chemscore.DEClash.Weighted>
0.0522

> <Gold.Chemscore.DEInternal.Weighted>
1.0271

> <Gold.Chemscore.Rot.Weighted>
4.6724

> <Gold.Chemscore.Internal.Correction.Weighted>
   9.000000E+99

> <Gold.Protein.RotatedTorsions>
[ 6907 6896 6895 6894 ] final   89.72 input  -60.11 | X-H torsion
[ 7974 7965 7964 7962 ] final  -66.24 input  175.53 | X-H torsion
[ 8008 7997 7996 7995 ] final   54.64 input   59.86 | X-H torsion
[ 10167 10162 10161 10158 ] final -126.29 input  -65.29 | X-H torsion
[ 10718 10713 10712 10709 ] final   46.27 input   66.30 | X-H torsion
[ 10763 10752 10751 10750 ] final  147.25 input  -60.55 | X-H torsion
[ 11005 11000 10999 10996 ] final   24.94 input  -57.11 | X-H torsion

> <Gold.Protein.ActiveResidues>
 VAL166  LYS551  ARG553  GLY616  TRP617  ASP618  TYR619  PRO620  LYS621  CYS622 
 ASP623  PHE694  ASN695  SER759  ASP760  ASP761  ALA762  ILE779  LEU786  VAL792 
 PHE793  MET794  SER795  GLU796  ALA797  LYS798  CYS799  TRP800  GLU811  SER814 

> <Gold.Protein.RotatedAtoms>
  152.5439  134.1922  159.8678 H   0  0  0  0  0  0  0  0  0  0  0  0  # atno 6907 bound_to 6896
  151.1917  133.4656  159.2602 H   0  0  0  0  0  0  0  0  0  0  0  0  # atno 6908 bound_to 6896
  151.1077  135.0020  159.8534 H   0  0  0  0  0  0  0  0  0  0  0  0  # atno 6909 bound_to 6896
  145.7443  140.8939  143.0513 H   0  0  0  0  0  0  0  0  0  0  0  0  # atno 7974 bound_to 7965
  155.4881  140.3470  155.4350 H   0  0  0  0  0  0  0  0  0  0  0  0  # atno 8008 bound_to 7997
  156.0995  140.1431  156.9515 H   0  0  0  0  0  0  0  0  0  0  0  0  # atno 8009 bound_to 7997
  154.4685  140.0909  156.7060 H   0  0  0  0  0  0  0  0  0  0  0  0  # atno 8010 bound_to 7997
  139.9730  143.5825  152.2406 H   0  0  0  0  0  0  0  0  0  0  0  0  # atno 10167 bound_to 10162
  157.4463  130.8111  149.7744 H   0  0  0  0  0  0  0  0  0  0  0  0  # atno 10718 bound_to 10713
  154.0353  135.2894  155.3363 H   0  0  0  0  0  0  0  0  0  0  0  0  # atno 10763 bound_to 10752
  154.6963  135.5206  153.8466 H   0  0  0  0  0  0  0  0  0  0  0  0  # atno 10764 bound_to 10752
  153.0623  135.6618  154.0562 H   0  0  0  0  0  0  0  0  0  0  0  0  # atno 10765 bound_to 10752
  140.3532  134.2206  155.7678 H   0  0  0  0  0  0  0  0  0  0  0  0  # atno 11005 bound_to 11000
  144.6863  139.9504  143.7478 LP  0  0  0  0  0  0  0  0  0  0  0  0  # atno 17320 bound_to 7965
  146.0418  139.3428  143.0693 LP  0  0  0  0  0  0  0  0  0  0  0  0  # atno 17321 bound_to 7965
  139.6467  144.7658  151.2230 LP  0  0  0  0  0  0  0  0  0  0  0  0  # atno 17342 bound_to 10162
  140.7515  143.6228  150.8497 LP  0  0  0  0  0  0  0  0  0  0  0  0  # atno 17343 bound_to 10162
  155.9969  130.3903  150.2762 LP  0  0  0  0  0  0  0  0  0  0  0  0  # atno 17370 bound_to 10713
  157.0930  131.0175  151.3114 LP  0  0  0  0  0  0  0  0  0  0  0  0  # atno 17371 bound_to 10713
  141.2006  133.7983  157.0482 LP  0  0  0  0  0  0  0  0  0  0  0  0  # atno 17394 bound_to 11000
  140.0686  134.9715  157.1428 LP  0  0  0  0  0  0  0  0  0  0  0  0  # atno 17395 bound_to 11000

$$$$
