#       Name:                AV-unprocessed.smi:101
#       Creating user name   scv26
#       Creation time:       Thu Mar 26 17:43:45 2020


#       File generated by GOLD software.
#

@<TRIPOS>MOLECULE
AV-unprocessed.smi:101
    56    58     1
SMALL
NO_CHARGES


@<TRIPOS>ATOM
      1 ****        -1.4067   3.4110   3.0058 C.3            1 S1                 0.0000
      2 ****        -2.3496   2.5286   2.2046 C.2            1 S1                 0.0000
      3 ****        -1.9338   1.3954   1.5831 C.2            1 S1                 0.0000
      4 ****        -2.7720   0.5708   0.8444 N.am           1 S1                 0.0000
      5 ****        -2.2591  -0.6897   0.1863 C.3            1 S1                 0.0000
      6 ****        -0.9228  -0.4978  -0.1750 O.3            1 S1                 0.0000
      7 ****        -0.1326  -1.5914   0.2792 C.3            1 S1                 0.0000
      8 ****         1.3060  -1.1240   0.5261 C.3            1 S1                 0.0000
      9 ****         1.9529  -0.9310  -0.7207 O.3            1 S1                 0.0000
     10 ****         3.2179  -0.4702  -0.7601 C.2            1 S1                 0.0000
     11 ****         3.8757  -0.1960   0.2458 O.2            1 S1                 0.0000
     12 ****         3.7403  -0.3267  -2.1498 C.ar           1 S1                 0.0000
     13 ****         5.0646   0.1283  -2.3488 C.ar           1 S1                 0.0000
     14 ****         5.5855   0.2738  -3.6493 C.ar           1 S1                 0.0000
     15 ****         4.7880  -0.0336  -4.7669 C.ar           1 S1                 0.0000
     16 ****         3.4689  -0.4868  -4.5823 C.ar           1 S1                 0.0000
     17 ****         2.9464  -0.6332  -3.2824 C.ar           1 S1                 0.0000
     18 ****        -0.8564  -2.0380   1.5477 C.3            1 S1                 0.0000
     19 ****        -0.5255  -3.3563   1.9420 O.3            1 S1                 0.0000
     20 ****        -2.3242  -1.8680   1.1727 C.3            1 S1                 0.0000
     21 ****        -2.8701  -3.0190   0.5538 O.3            1 S1                 0.0000
     22 ****        -4.1424   0.8872   0.7463 C.2            1 S1                 0.0000
     23 ****        -4.9505   0.1810   0.1443 O.2            1 S1                 0.0000
     24 ****        -4.5687   2.0533   1.3793 N.am           1 S1                 0.0000
     25 ****        -3.7584   2.9227   2.1136 C.2            1 S1                 0.0000
     26 ****        -4.2523   3.9259   2.6258 O.2            1 S1                 0.0000
     27 ****        -5.5481   2.2872   1.3059 H              1 S1                 0.0000
     28 ****        -0.3882   3.0215   3.0044 H              1 S1                 0.0000
     29 ****        -1.7373   3.4790   4.0428 H              1 S1                 0.0000
     30 ****        -1.3800   4.4179   2.5877 H              1 S1                 0.0000
     31 ****        -0.8928   1.1233   1.6781 H              1 S1                 0.0000
     32 ****        -2.8462  -0.8328  -0.7232 H              1 S1                 0.0000
     33 ****        -0.1645  -2.3871  -0.4674 H              1 S1                 0.0000
     34 ****         1.3147  -0.2044   1.1132 H              1 S1                 0.0000
     35 ****         1.8501  -1.8817   1.0915 H              1 S1                 0.0000
     36 ****         5.6959   0.3708  -1.5060 H              1 S1                 0.0000
     37 ****         6.5985   0.6217  -3.7887 H              1 S1                 0.0000
     38 ****         5.1871   0.0784  -5.7642 H              1 S1                 0.0000
     39 ****         2.8549  -0.7222  -5.4391 H              1 S1                 0.0000
     40 ****         1.9296  -0.9824  -3.1768 H              1 S1                 0.0000
     41 ****        -0.6171  -1.3547   2.3640 H              1 S1                 0.0000
     42 ****        -1.0791  -3.6003   2.6680 H              1 S1                 0.0000
     43 ****        -2.9369  -1.6231   2.0416 H              1 S1                 0.0000
     44 ****        -3.7609  -2.8294   0.3008 H              1 S1                 0.0000
     45 ****        -0.5863   0.3481   0.2388 LP             1 S1                 0.0000
     46 ****        -0.8553  -0.4316  -1.1705 LP             1 S1                 0.0000
     47 ****         3.4730  -0.3125   1.1537 LP             1 S1                 0.0000
     48 ****         4.8120   0.1430   0.1539 LP             1 S1                 0.0000
     49 ****         0.4338  -3.3938   2.2219 LP             1 S1                 0.0000
     50 ****        -0.6747  -3.9842   1.1782 LP             1 S1                 0.0000
     51 ****        -2.8577  -3.7853   1.1961 LP             1 S1                 0.0000
     52 ****        -2.3322  -3.2538  -0.2558 LP             1 S1                 0.0000
     53 ****        -4.6443  -0.6593  -0.3029 LP             1 S1                 0.0000
     54 ****        -5.9134   0.4475   0.1023 LP             1 S1                 0.0000
     55 ****        -3.6790   4.5503   3.1565 LP             1 S1                 0.0000
     56 ****        -5.2272   4.1173   2.5117 LP             1 S1                 0.0000
@<TRIPOS>BOND
    1    1    2 1     
    2    1   28 1     
    3    1   29 1     
    4    1   30 1     
    5    2   25 1     
    6    2    3 2     
    7    3    4 1     
    8    3   31 1     
    9    4    5 1     
   10    4   22 1     
   11    5   20 1     
   12    5    6 1     
   13    5   32 1     
   14    6    7 1     
   15    7    8 1     
   16    7   18 1     
   17    7   33 1     
   18    8    9 1     
   19    8   34 1     
   20    8   35 1     
   21    9   10 1     
   22   10   11 2     
   23   10   12 1     
   24   12   17 ar    
   25   12   13 ar    
   26   13   14 ar    
   27   13   36 1     
   28   14   15 ar    
   29   14   37 1     
   30   15   16 ar    
   31   15   38 1     
   32   16   17 ar    
   33   16   39 1     
   34   17   40 1     
   35   18   19 1     
   36   18   20 1     
   37   18   41 1     
   38   19   42 1     
   39   20   21 1     
   40   20   43 1     
   41   21   44 1     
   42   22   23 2     
   43   22   24 1     
   44   24   27 1     
   45   24   25 1     
   46   25   26 2     
   47    6   45 1     
   48    6   46 1     
   49   11   47 1     
   50   11   48 1     
   51   19   49 1     
   52   19   50 1     
   53   21   51 1     
   54   21   52 1     
   55   23   53 1     
   56   23   54 1     
   57   26   55 1     
   58   26   56 1     
@<TRIPOS>SUBSTRUCTURE
      1 S1             1
@<TRIPOS>SET
LONE_PAIRS      STATIC     ATOMS    <user>   **** ""
12 45 46 47 48 49 50 51 52 53 54 55 56
DONOR_HYDROGENS      STATIC     ATOMS    <user>   **** ""
3 42 44 27
ATOM$BLUE        STATIC     ATOMS    COLORGROUP SYSTEM
12 45 46 47 48 49 50 51 52 53 54 55 56
ATOM$RED        STATIC     ATOMS    COLORGROUP SYSTEM
3 42 44 27
