AV-unprocessed.smi:2934|AV-procd|sdf|11255|dock1
  -GOLD-   2272016143D 1   1.00000     0.00000
 Structure written by MMmdl.
 44 45  0  0  0  0  0  0  0  0  2 V2000
  149.9970  141.6688  155.9165 C   0  0  0  0  0  0  0  0  0  0  0  0
  151.2967  141.5739  156.5875 N   0  0  0  0  0  0  0  0  0  0  0  0
  152.1005  140.5178  156.2917 C   0  0  0  0  0  0  0  0  0  0  0  0
  153.0289  140.1612  157.0194 O   0  0  0  0  0  0  0  0  0  0  0  0
  151.8238  139.8978  155.1278 N   0  0  0  0  0  0  0  0  0  0  0  0
  152.5080  138.7185  154.6006 C   0  0  0  0  0  0  0  0  0  0  0  0
  151.5493  137.7459  153.8836 C   0  0  0  0  0  0  0  0  0  0  0  0
  151.3219  136.4331  154.6409 C   0  0  0  0  0  0  0  0  0  0  0  0
  152.0292  136.1466  155.6071 O   0  0  0  0  0  0  0  0  0  0  0  0
  150.3224  135.6537  154.2020 N   0  0  0  0  0  0  0  0  0  0  0  0
  149.9484  134.3645  154.7775 C   0  0  0  0  0  0  0  0  0  0  0  0
  151.1827  133.4557  154.9336 C   0  0  0  0  0  0  0  0  0  0  0  0
  150.7799  132.0950  154.3632 C   0  0  0  0  0  0  0  0  0  0  0  0
  149.7573  132.4295  153.2823 C   0  0  0  0  0  0  0  0  0  0  0  0
  148.9666  133.6013  153.8656 C   0  0  0  0  0  0  0  0  0  0  0  0
  151.6231  142.5952  157.5311 C   0  0  0  0  0  0  0  0  0  0  0  0
  152.5341  142.3700  158.5919 C   0  0  0  0  0  0  0  0  0  0  0  0
  152.8300  143.4152  159.4907 C   0  0  0  0  0  0  0  0  0  0  0  0
  152.2151  144.6710  159.3148 C   0  0  0  0  0  0  0  0  0  0  0  0
  151.3221  144.8501  158.2400 C   0  0  0  0  0  0  0  0  0  0  0  0
  151.0656  143.8231  157.4001 N   0  3  0  0  0  0  0  0  0  0  0  0
  149.4642  142.5826  156.1829 H   0  0  0  0  0  0  0  0  0  0  0  0
  149.3621  140.8238  156.1866 H   0  0  0  0  0  0  0  0  0  0  0  0
  150.1168  141.6753  154.8320 H   0  0  0  0  0  0  0  0  0  0  0  0
  151.0604  140.2578  154.5738 H   0  0  0  0  0  0  0  0  0  0  0  0
  153.2588  139.0663  153.8908 H   0  0  0  0  0  0  0  0  0  0  0  0
  153.0596  138.1902  155.3803 H   0  0  0  0  0  0  0  0  0  0  0  0
  150.5822  138.2271  153.7316 H   0  0  0  0  0  0  0  0  0  0  0  0
  151.9356  137.5266  152.8873 H   0  0  0  0  0  0  0  0  0  0  0  0
  149.7862  135.9701  153.4070 H   0  0  0  0  0  0  0  0  0  0  0  0
  149.4892  134.5181  155.7561 H   0  0  0  0  0  0  0  0  0  0  0  0
  152.0232  133.8450  154.3566 H   0  0  0  0  0  0  0  0  0  0  0  0
  151.5119  133.3824  155.9706 H   0  0  0  0  0  0  0  0  0  0  0  0
  151.6303  131.5315  153.9786 H   0  0  0  0  0  0  0  0  0  0  0  0
  150.3067  131.4950  155.1416 H   0  0  0  0  0  0  0  0  0  0  0  0
  150.2726  132.7482  152.3752 H   0  0  0  0  0  0  0  0  0  0  0  0
  149.1233  131.5803  153.0258 H   0  0  0  0  0  0  0  0  0  0  0  0
  148.1447  133.2142  154.4692 H   0  0  0  0  0  0  0  0  0  0  0  0
  148.5236  134.2219  153.0854 H   0  0  0  0  0  0  0  0  0  0  0  0
  153.0089  141.4075  158.7156 H   0  0  0  0  0  0  0  0  0  0  0  0
  153.5226  143.2554  160.3038 H   0  0  0  0  0  0  0  0  0  0  0  0
  152.4281  145.4855  159.9917 H   0  0  0  0  0  0  0  0  0  0  0  0
  150.8094  145.7771  158.0276 H   0  0  0  0  0  0  0  0  0  0  0  0
  150.4153  143.9816  156.6298 H   0  0  0  0  0  0  0  0  0  0  0  0
  1  2  1  0  0  0  0
  1 22  1  0  0  0  0
  1 23  1  0  0  0  0
  1 24  1  0  0  0  0
  2  3  1  0  0  0  0
  2 16  1  0  0  0  0
  3  4  2  0  0  0  0
  3  5  1  0  0  0  0
  5  6  1  0  0  0  0
  5 25  1  0  0  0  0
  6  7  1  0  0  0  0
  6 26  1  0  0  0  0
  6 27  1  0  0  0  0
  7  8  1  0  0  0  0
  7 28  1  0  0  0  0
  7 29  1  0  0  0  0
  8  9  2  0  0  0  0
  8 10  1  0  0  0  0
 10 11  1  0  0  0  0
 10 30  1  0  0  0  0
 11 15  1  0  0  0  0
 11 12  1  0  0  0  0
 11 31  1  0  0  0  0
 12 13  1  0  0  0  0
 12 32  1  0  0  0  0
 12 33  1  0  0  0  0
 13 14  1  0  0  0  0
 13 34  1  0  0  0  0
 13 35  1  0  0  0  0
 14 15  1  0  0  0  0
 14 36  1  0  0  0  0
 14 37  1  0  0  0  0
 15 38  1  0  0  0  0
 15 39  1  0  0  0  0
 16 21  1  0  0  0  0
 16 17  2  0  0  0  0
 17 18  1  0  0  0  0
 17 40  1  0  0  0  0
 18 19  2  0  0  0  0
 18 41  1  0  0  0  0
 19 20  1  0  0  0  0
 19 42  1  0  0  0  0
 20 21  2  0  0  0  0
 20 43  1  0  0  0  0
 21 44  1  0  0  0  0
M  CHG  1  21   1
M  END
> <s_m_source_file>
AV-unprocessed.smi

> <i_m_source_file_index>
2934

> <i_lp_mmshare_version>
43012

> <i_f3d_flags>
0

> <s_epik_input>
bjFbY0hdW2NIXVtjSF1bY0hdYzFOKFtDSDNdKUMoPU8pW05IXVtDSDJdW0NIMl1DKD1PKVtOSF1bQ0hdMltDSDJdW0NIMl1bQ0gyXVtDSDJdMg==

> <s_epik_cmdline>
J2VwaWtfcHl0aG9uJywgJy1waCcsICc3LjAnLCAnLXRuJywgJzgnLCAnLW1hJywgJzIwMCcsICctbWV0YWxfYmluZGluZycsICctaW1hZScsICc8aW5maWxlLm1hZT4nLCAnLW9tYWUnLCAnPG91dGZpbGUubWFlPic=

> <r_epik_Ionization_Penalty>
0.416827

> <r_epik_Ionization_Penalty_Charging>
0.416808

> <r_epik_Ionization_Penalty_Neutral>
1.8964e-05

> <r_epik_State_Penalty>
0.417222

> <r_epik_Charging_Adjusted_Penalty>
0.83403

> <i_epik_Tot_Q>
1

> <i_epik_Tot_abs_Q>
1

> <r_epik_Metal_State_Penalty>
0.655167

> <b_epik_Metal_Only>
0

> <s_lp_Force_Field>
OPLS_2005

> <r_lp_Energy>
36.0061

> <b_lp_Chiralities_Consistent>
1

> <s_lp_Variant>
AV-unprocessed.smi:2934-2

> <Gold.Version>
5.8.1

> <Gold.Id.Protein>
6NUR|6NUR_protein|mol2

> <Gold.PLP.Fitness>
58.6755

> <Gold.PLP.PLP>
-46.6214

> <Gold.PLP.part.hbond>
-4.1706

> <Gold.PLP.part.metal>
0.0000

> <Gold.PLP.part.buried>
-4.1192

> <Gold.PLP.part.nonpolar>
-39.0147

> <Gold.PLP.part.repulsive>
0.4593

> <Gold.PLP.ligand.clash>
3.0863

> <Gold.PLP.ligand.torsion>
1.1765

> <Gold.PLP.Chemscore.Hbond>
5.0000

> <Gold.PLP.Chemscore.CHOScore>
0.0000

> <Gold.PLP.Chemscore.Metal>
0.0000

> <Gold.Chemscore.Hbonds>
donor molecule, donor type, donor heavy atom, donor atom, acceptor molecule, acceptor atom, score
      L1  H    10    30       P1  7948  0.70
      L1  H    21    44       P1  8028  2.00
      P1  H  7997  8010       L1     4  0.67
      P1  H 10752 10763       L1     9  0.70

> <Gold.PLP.Chemscore.Internal.Correction>
2.4934

> <Gold.Rescore>
     Score         DG    S(hbond)    S(metal)    S(lipo)     H(rot)  DE(clash)    DE(int)     intcor
     19.11     -21.91       2.83        0.00      98.12       1.76       0.39       2.41       ----

> <Gold.Chemscore.Fitness>
19.1127

> <Gold.Chemscore.DG>
-21.9139

> <Gold.Chemscore.ZeroCoef>
-5.4800

> <Gold.Chemscore.Hbond>
2.8346

> <Gold.Chemscore.Metal>
0.0000

> <Gold.Chemscore.Lipo>
98.1194

> <Gold.Chemscore.Internal_Hbond>
0.0000

> <Gold.Chemscore.DEClash>
0.3935

> <Gold.Chemscore.DEInternal>
2.4078

> <Gold.Chemscore.Rot>
1.7631

> <Gold.Chemscore.Internal.Correction>
   9.000000E+99

> <Gold.Chemscore.Hbonds>
donor molecule, donor type, donor heavy atom, donor atom, acceptor molecule, acceptor atom, score
      L1  H    10    30       P1  7948  0.07
      L1  H    21    44       P1  8028  0.99
      P1  H  7997  8010       L1     4  0.64
      P1  H 10752 10763       L1     9  0.32

> <Gold.Chemscore.Hbond.Weighted>
-9.4674

> <Gold.Chemscore.Metal.Weighted>
-0.0000

> <Gold.Chemscore.Lipo.Weighted>
-11.4800

> <Gold.Chemscore.Internal_Hbond.Weighted>
0.0000

> <Gold.Chemscore.DEClash.Weighted>
0.3935

> <Gold.Chemscore.DEInternal.Weighted>
2.4078

> <Gold.Chemscore.Rot.Weighted>
4.5135

> <Gold.Chemscore.Internal.Correction.Weighted>
   9.000000E+99

> <Gold.Protein.RotatedTorsions>
[ 6907 6896 6895 6894 ] final  -33.86 input  -60.11 | X-H torsion
[ 7974 7965 7964 7962 ] final  -35.28 input  175.53 | X-H torsion
[ 8008 7997 7996 7995 ] final   62.00 input   59.86 | X-H torsion
[ 10167 10162 10161 10158 ] final   -4.68 input  -65.29 | X-H torsion
[ 10718 10713 10712 10709 ] final  121.49 input   66.30 | X-H torsion
[ 10763 10752 10751 10750 ] final   89.93 input  -60.55 | X-H torsion
[ 11005 11000 10999 10996 ] final -176.20 input  -57.11 | X-H torsion

> <Gold.Protein.ActiveResidues>
 VAL166  LYS551  ARG553  GLY616  TRP617  ASP618  TYR619  PRO620  LYS621  CYS622 
 ASP623  PHE694  ASN695  SER759  ASP760  ASP761  ALA762  ILE779  LEU786  VAL792 
 PHE793  MET794  SER795  GLU796  ALA797  LYS798  CYS799  TRP800  GLU811  SER814 

> <Gold.Protein.RotatedAtoms>
  151.0601  134.9731  159.8255 H   0  0  0  0  0  0  0  0  0  0  0  0  # atno 6907 bound_to 6896
  152.5394  134.2429  159.8879 H   0  0  0  0  0  0  0  0  0  0  0  0  # atno 6908 bound_to 6896
  151.2448  133.4337  159.2642 H   0  0  0  0  0  0  0  0  0  0  0  0  # atno 6909 bound_to 6896
  146.0759  140.6141  142.8931 H   0  0  0  0  0  0  0  0  0  0  0  0  # atno 7974 bound_to 7965
  155.6074  140.3494  155.4612 H   0  0  0  0  0  0  0  0  0  0  0  0  # atno 8008 bound_to 7997
  156.0181  140.1248  157.0410 H   0  0  0  0  0  0  0  0  0  0  0  0  # atno 8009 bound_to 7997
  154.4305  140.1068  156.5911 H   0  0  0  0  0  0  0  0  0  0  0  0  # atno 8010 bound_to 7997
  140.6936  143.6395  150.8448 H   0  0  0  0  0  0  0  0  0  0  0  0  # atno 10167 bound_to 10162
  157.5813  131.1074  150.8181 H   0  0  0  0  0  0  0  0  0  0  0  0  # atno 10718 bound_to 10713
  153.1922  135.4452  155.0164 H   0  0  0  0  0  0  0  0  0  0  0  0  # atno 10763 bound_to 10752
  154.8097  135.3289  154.7339 H   0  0  0  0  0  0  0  0  0  0  0  0  # atno 10764 bound_to 10752
  153.7792  135.6979  153.4947 H   0  0  0  0  0  0  0  0  0  0  0  0  # atno 10765 bound_to 10752
  140.4547  134.6310  157.4817 H   0  0  0  0  0  0  0  0  0  0  0  0  # atno 11005 bound_to 11000
  144.7261  140.4529  143.6972 LP  0  0  0  0  0  0  0  0  0  0  0  0  # atno 17320 bound_to 7965
  145.6307  139.1536  143.2971 LP  0  0  0  0  0  0  0  0  0  0  0  0  # atno 17321 bound_to 7965
  140.0111  143.5641  152.2838 LP  0  0  0  0  0  0  0  0  0  0  0  0  # atno 17342 bound_to 10162
  139.6366  144.7650  151.2426 LP  0  0  0  0  0  0  0  0  0  0  0  0  # atno 17343 bound_to 10162
  156.8626  130.5118  149.5302 LP  0  0  0  0  0  0  0  0  0  0  0  0  # atno 17370 bound_to 10713
  156.0860  130.5858  150.9648 LP  0  0  0  0  0  0  0  0  0  0  0  0  # atno 17371 bound_to 10713
  139.9984  134.6875  155.9571 LP  0  0  0  0  0  0  0  0  0  0  0  0  # atno 17394 bound_to 11000
  141.1648  133.6537  156.4442 LP  0  0  0  0  0  0  0  0  0  0  0  0  # atno 17395 bound_to 11000

$$$$
