#       Name:                AV-unprocessed.smi:1831
#       Creating user name   scv26
#       Creation time:       Fri Mar 27 09:15:18 2020


#       File generated by GOLD software.
#

@<TRIPOS>MOLECULE
AV-unprocessed.smi:1831
    45    46     1
SMALL
NO_CHARGES


@<TRIPOS>ATOM
      1 ****        -6.3230   5.7464   0.5196 C.3            1 S1                 0.0000
      2 ****        -5.5834   4.4987   0.8621 C.2            1 S1                 0.0000
      3 ****        -6.1781   3.4233   1.3844 N.2            1 S1                 0.0000
      4 ****        -5.2808   2.3907   1.6160 N.2            1 S1                 0.0000
      5 ****        -4.0247   2.6958   1.2608 C.2            1 S1                 0.0000
      6 ****        -3.0055   1.8326   1.4053 N.pl3          1 S1                -1.0000
      7 ****        -2.5854   1.1005   0.3490 C.2            1 S1                 0.0000
      8 ****        -3.0476   1.1356  -0.7936 O.2            1 S1                 0.0000
      9 ****        -1.5656   0.2806   0.6386 N.am           1 S1                 0.0000
     10 ****        -0.8851  -0.6183  -0.2882 C.3            1 S1                 0.0000
     11 ****         0.6386  -0.5388  -0.1020 C.3            1 S1                 0.0000
     12 ****         1.1403  -0.9484   1.2822 C.3            1 S1                 0.0000
     13 ****         2.5859  -1.4082   1.0515 C.3            1 S1                 0.0000
     14 ****         2.7683  -1.5654  -0.4140 N.4            1 S1                 1.0000
     15 ****         3.5822  -2.7425  -0.8298 C.3            1 S1                 0.0000
     16 ****         5.0011  -2.6746  -0.2334 C.3            1 S1                 0.0000
     17 ****         3.6745  -2.8608  -2.3634 C.3            1 S1                 0.0000
     18 ****         1.4227  -1.4714  -1.0212 C.3            1 S1                 0.0000
     19 ****        -3.8533   4.3294   0.6186 S.3            1 S1                 0.0000
     20 ****        -7.3747   5.5280   0.3322 H              1 S1                 0.0000
     21 ****        -5.8977   6.2009  -0.3753 H              1 S1                 0.0000
     22 ****        -6.2525   6.4576   1.3426 H              1 S1                 0.0000
     23 ****        -1.2322   0.2871   1.5914 H              1 S1                 0.0000
     24 ****        -1.2400  -1.6330  -0.1052 H              1 S1                 0.0000
     25 ****        -1.1311  -0.3843  -1.3251 H              1 S1                 0.0000
     26 ****         0.9667   0.4841  -0.2970 H              1 S1                 0.0000
     27 ****         1.0702  -0.1377   2.0082 H              1 S1                 0.0000
     28 ****         0.5495  -1.7832   1.6625 H              1 S1                 0.0000
     29 ****         3.2997  -0.6712   1.4208 H              1 S1                 0.0000
     30 ****         2.7640  -2.3415   1.5877 H              1 S1                 0.0000
     31 ****         3.0939  -3.6423  -0.4518 H              1 S1                 0.0000
     32 ****         5.5999  -3.5275  -0.5545 H              1 S1                 0.0000
     33 ****         4.9915  -2.6882   0.8565 H              1 S1                 0.0000
     34 ****         5.5209  -1.7698  -0.5507 H              1 S1                 0.0000
     35 ****         4.3116  -3.6973  -2.6527 H              1 S1                 0.0000
     36 ****         4.0954  -1.9578  -2.8072 H              1 S1                 0.0000
     37 ****         2.7003  -3.0368  -2.8198 H              1 S1                 0.0000
     38 ****         0.9579  -2.4590  -1.0394 H              1 S1                 0.0000
     39 ****         1.4646  -1.0947  -2.0437 H              1 S1                 0.0000
     40 ****         3.2629  -0.7399  -0.7212 H              1 S1                 0.0000
     41 ****        -7.1562   3.3686   1.5852 LP             1 S1                 0.0000
     42 ****        -5.5442   1.5092   2.0078 LP             1 S1                 0.0000
     43 ****        -2.5578   1.7316   2.2937 LP             1 S1                 0.0000
     44 ****        -3.8074   1.7498  -1.0070 LP             1 S1                 0.0000
     45 ****        -2.6627   0.5499  -1.5069 LP             1 S1                 0.0000
@<TRIPOS>BOND
    1    1    2 1     
    2    1   20 1     
    3    1   21 1     
    4    1   22 1     
    5    2   19 1     
    6    2    3 2     
    7    3    4 1     
    8    4    5 2     
    9    5    6 1     
   10    5   19 1     
   11    6    7 1     
   12    7    8 2     
   13    7    9 am    
   14    9   10 1     
   15    9   23 1     
   16   10   11 1     
   17   10   24 1     
   18   10   25 1     
   19   11   18 1     
   20   11   12 1     
   21   11   26 1     
   22   12   13 1     
   23   12   27 1     
   24   12   28 1     
   25   13   14 1     
   26   13   29 1     
   27   13   30 1     
   28   14   15 1     
   29   14   18 1     
   30   14   40 1     
   31   15   16 1     
   32   15   17 1     
   33   15   31 1     
   34   16   32 1     
   35   16   33 1     
   36   16   34 1     
   37   17   35 1     
   38   17   36 1     
   39   17   37 1     
   40   18   38 1     
   41   18   39 1     
   42    3   41 1     
   43    4   42 1     
   44    6   43 1     
   45    8   44 1     
   46    8   45 1     
@<TRIPOS>SUBSTRUCTURE
      1 S1             1
@<TRIPOS>SET
LONE_PAIRS      STATIC     ATOMS    <user>   **** ""
5 41 42 43 44 45
DONOR_HYDROGENS      STATIC     ATOMS    <user>   **** ""
2 23 40
ATOM$BLUE        STATIC     ATOMS    COLORGROUP SYSTEM
5 41 42 43 44 45
ATOM$RED        STATIC     ATOMS    COLORGROUP SYSTEM
2 23 40
