AV-unprocessed.smi:2445|AV-procd|sdf|9639|dock4
  -GOLD-   2272013273D 1   1.00000     0.00000
 Structure written by MMmdl.
 40 41  0  0  0  0  0  0  0  0  1 V2000
  143.1486  133.3546  151.3030 C   0  0  0  0  0  0  0  0  0  0  0  0
  144.4844  133.4985  151.9501 C   0  0  0  0  0  0  0  0  0  0  0  0
  145.3398  134.5702  151.8828 C   0  0  0  0  0  0  0  0  0  0  0  0
  146.5210  134.3953  152.6066 N   0  0  0  0  0  0  0  0  0  0  0  0
  146.5749  133.2094  153.2192 C   0  0  0  0  0  0  0  0  0  0  0  0
  147.7360  132.7541  154.0507 C   0  0  2  0  0  0  0  0  0  0  0  0
  147.5410  131.3257  154.5788 C   0  0  0  0  0  0  0  0  0  0  0  0
  148.1118  133.7599  155.1562 C   0  0  0  0  0  0  0  0  0  0  0  0
  148.6730  134.9848  154.5932 N   0  0  0  0  0  0  0  0  0  0  0  0
  149.3665  135.9030  155.2783 C   0  0  0  0  0  0  0  0  0  0  0  0
  149.6482  135.8108  156.4731 O   0  0  0  0  0  0  0  0  0  0  0  0
  149.7145  136.9387  154.5035 N   0  0  0  0  0  0  0  0  0  0  0  0
  150.4634  138.1036  154.9621 C   0  0  1  0  0  0  0  0  0  0  0  0
  151.9169  137.7889  155.2587 C   0  0  0  0  0  0  0  0  0  0  0  0
  152.5811  139.1536  155.0984 C   0  0  0  0  0  0  0  0  0  0  0  0
  151.7830  139.8809  154.1686 O   0  0  0  0  0  0  0  0  0  0  0  0
  150.6011  139.1514  153.8549 C   0  0  2  0  0  0  0  0  0  0  0  0
  149.4013  140.0985  153.7375 C   0  0  0  0  0  0  0  0  0  0  0  0
  145.1468  132.2205  152.9346 S   0  0  0  0  0  0  0  0  0  0  0  0
  142.8870  134.2495  150.7375 H   0  0  0  0  0  0  0  0  0  0  0  0
  142.3730  133.1907  152.0511 H   0  0  0  0  0  0  0  0  0  0  0  0
  143.1409  132.5079  150.6164 H   0  0  0  0  0  0  0  0  0  0  0  0
  145.1886  135.4951  151.3459 H   0  0  0  0  0  0  0  0  0  0  0  0
  148.5909  132.7100  153.3745 H   0  0  0  0  0  0  0  0  0  0  0  0
  147.3721  130.6252  153.7603 H   0  0  0  0  0  0  0  0  0  0  0  0
  146.6851  131.2646  155.2516 H   0  0  0  0  0  0  0  0  0  0  0  0
  148.4197  130.9863  155.1277 H   0  0  0  0  0  0  0  0  0  0  0  0
  147.2242  133.9870  155.7495 H   0  0  0  0  0  0  0  0  0  0  0  0
  148.8407  133.3202  155.8377 H   0  0  0  0  0  0  0  0  0  0  0  0
  148.4980  135.1560  153.6139 H   0  0  0  0  0  0  0  0  0  0  0  0
  149.4360  136.9271  153.5333 H   0  0  0  0  0  0  0  0  0  0  0  0
  149.9939  138.5488  155.8418 H   0  0  0  0  0  0  0  0  0  0  0  0
  152.0700  137.3553  156.2475 H   0  0  0  0  0  0  0  0  0  0  0  0
  152.3167  137.0952  154.5173 H   0  0  0  0  0  0  0  0  0  0  0  0
  152.5776  139.6914  156.0471 H   0  0  0  0  0  0  0  0  0  0  0  0
  153.6142  139.0738  154.7594 H   0  0  0  0  0  0  0  0  0  0  0  0
  150.7748  138.6558  152.8979 H   0  0  0  0  0  0  0  0  0  0  0  0
  148.4883  139.5480  153.5094 H   0  0  0  0  0  0  0  0  0  0  0  0
  149.5579  140.8279  152.9428 H   0  0  0  0  0  0  0  0  0  0  0  0
  149.2396  140.6463  154.6662 H   0  0  0  0  0  0  0  0  0  0  0  0
  1  2  1  0  0  0  0
  1 20  1  0  0  0  0
  1 21  1  0  0  0  0
  1 22  1  0  0  0  0
  2 19  1  0  0  0  0
  2  3  2  0  0  0  0
  3  4  1  0  0  0  0
  3 23  1  0  0  0  0
  4  5  2  0  0  0  0
  5  6  1  0  0  0  0
  5 19  1  0  0  0  0
  6  7  1  0  0  0  0
  6  8  1  0  0  0  0
  6 24  1  0  0  0  0
  7 25  1  0  0  0  0
  7 26  1  0  0  0  0
  7 27  1  0  0  0  0
  8  9  1  0  0  0  0
  8 28  1  0  0  0  0
  8 29  1  0  0  0  0
  9 10  1  0  0  0  0
  9 30  1  0  0  0  0
 10 11  2  0  0  0  0
 10 12  1  0  0  0  0
 12 13  1  0  0  0  0
 12 31  1  0  0  0  0
 13 17  1  0  0  0  0
 13 14  1  0  0  0  0
 13 32  1  0  0  0  0
 14 15  1  0  0  0  0
 14 33  1  0  0  0  0
 14 34  1  0  0  0  0
 15 16  1  0  0  0  0
 15 35  1  0  0  0  0
 15 36  1  0  0  0  0
 16 17  1  0  0  0  0
 17 18  1  0  0  0  0
 17 37  1  0  0  0  0
 18 38  1  0  0  0  0
 18 39  1  0  0  0  0
 18 40  1  0  0  0  0
M  END
> <s_m_source_file>
AV-unprocessed.smi

> <i_m_source_file_index>
2445

> <i_lp_mmshare_version>
43012

> <i_f3d_flags>
0

> <s_epik_input>
W0NIM11jMVtjSF1uYyhzMSlbQ0BIXShbQ0gzXSlbQ0gyXVtOSF1DKD1PKVtOSF1bQ0BASF0yW0NIMl1bQ0gyXU9bQ0BIXTJbQ0gzXQ==

> <s_epik_cmdline>
J2VwaWtfcHl0aG9uJywgJy1waCcsICc3LjAnLCAnLXRuJywgJzgnLCAnLW1hJywgJzIwMCcsICctbWV0YWxfYmluZGluZycsICctaW1hZScsICc8aW5maWxlLm1hZT4nLCAnLW9tYWUnLCAnPG91dGZpbGUubWFlPic=

> <r_epik_Ionization_Penalty>
0.000649483

> <r_epik_Ionization_Penalty_Charging>
0

> <r_epik_Ionization_Penalty_Neutral>
0.000649483

> <r_epik_State_Penalty>
0.000379895

> <r_epik_Charging_Adjusted_Penalty>
0.000379895

> <i_epik_Tot_Q>
0

> <i_epik_Tot_abs_Q>
0

> <r_epik_Metal_State_Penalty>
-0

> <b_epik_Metal_Only>
0

> <s_lp_Force_Field>
OPLS_2005

> <r_lp_Energy>
6.75485

> <b_lp_Chiralities_Consistent>
1

> <s_lp_Variant>
AV-unprocessed.smi:2445-7

> <Gold.Version>
5.8.1

> <Gold.Id.Protein>
6NUR|6NUR_protein|mol2

> <Gold.PLP.Fitness>
44.6252

> <Gold.PLP.PLP>
-36.1200

> <Gold.PLP.part.hbond>
-2.9965

> <Gold.PLP.part.metal>
0.0000

> <Gold.PLP.part.buried>
-5.8639

> <Gold.PLP.part.nonpolar>
-29.1250

> <Gold.PLP.part.repulsive>
1.3185

> <Gold.PLP.ligand.clash>
0.0000

> <Gold.PLP.ligand.torsion>
0.3115

> <Gold.PLP.Chemscore.Hbond>
3.0000

> <Gold.PLP.Chemscore.CHOScore>
0.0000

> <Gold.PLP.Chemscore.Metal>
0.0000

> <Gold.Chemscore.Hbonds>
donor molecule, donor type, donor heavy atom, donor atom, acceptor molecule, acceptor atom, score
      L1  H     9    30       P1  7948  0.86
      L1  H    12    31       P1  7948  1.00
      P1  H  7989  7998       L1    16  0.15

> <Gold.PLP.Chemscore.Internal.Correction>
0.1281

> <Gold.Rescore>
     Score         DG    S(hbond)    S(metal)    S(lipo)     H(rot)  DE(clash)    DE(int)     intcor
     16.72     -17.24       1.88        0.00      80.24       1.53       0.16       0.35       ----

> <Gold.Chemscore.Fitness>
16.7239

> <Gold.Chemscore.DG>
-17.2362

> <Gold.Chemscore.ZeroCoef>
-5.4800

> <Gold.Chemscore.Hbond>
1.8837

> <Gold.Chemscore.Metal>
0.0000

> <Gold.Chemscore.Lipo>
80.2395

> <Gold.Chemscore.Internal_Hbond>
0.0000

> <Gold.Chemscore.DEClash>
0.1639

> <Gold.Chemscore.DEInternal>
0.3484

> <Gold.Chemscore.Rot>
1.5325

> <Gold.Chemscore.Internal.Correction>
   9.000000E+99

> <Gold.Chemscore.Hbonds>
donor molecule, donor type, donor heavy atom, donor atom, acceptor molecule, acceptor atom, score
      L1  H     9    30       P1  7948  0.74
      L1  H    12    31       P1  7948  0.90
      P1  H  7989  7998       L1    16  0.05

> <Gold.Chemscore.Hbond.Weighted>
-6.2915

> <Gold.Chemscore.Metal.Weighted>
-0.0000

> <Gold.Chemscore.Lipo.Weighted>
-9.3880

> <Gold.Chemscore.Internal_Hbond.Weighted>
0.0000

> <Gold.Chemscore.DEClash.Weighted>
0.1639

> <Gold.Chemscore.DEInternal.Weighted>
0.3484

> <Gold.Chemscore.Rot.Weighted>
3.9233

> <Gold.Chemscore.Internal.Correction.Weighted>
   9.000000E+99

> <Gold.Protein.RotatedTorsions>
[ 6907 6896 6895 6894 ] final   -0.58 input  -60.11 | X-H torsion
[ 7974 7965 7964 7962 ] final   67.72 input  175.53 | X-H torsion
[ 8008 7997 7996 7995 ] final  -25.60 input   59.86 | X-H torsion
[ 10167 10162 10161 10158 ] final  167.28 input  -65.29 | X-H torsion
[ 10718 10713 10712 10709 ] final   94.36 input   66.30 | X-H torsion
[ 10763 10752 10751 10750 ] final   -6.98 input  -60.55 | X-H torsion
[ 11005 11000 10999 10996 ] final -133.57 input  -57.11 | X-H torsion

> <Gold.Protein.ActiveResidues>
 VAL166  LYS551  ARG553  GLY616  TRP617  ASP618  TYR619  PRO620  LYS621  CYS622 
 ASP623  PHE694  ASN695  SER759  ASP760  ASP761  ALA762  ILE779  LEU786  VAL792 
 PHE793  MET794  SER795  GLU796  ALA797  LYS798  CYS799  TRP800  GLU811  SER814 

> <Gold.Protein.RotatedAtoms>
  151.5600  135.1065  159.9970 H   0  0  0  0  0  0  0  0  0  0  0  0  # atno 6907 bound_to 6896
  152.4451  133.7517  159.6708 H   0  0  0  0  0  0  0  0  0  0  0  0  # atno 6908 bound_to 6896
  150.8365  133.7938  159.3101 H   0  0  0  0  0  0  0  0  0  0  0  0  # atno 6909 bound_to 6896
  145.8113  139.3034  143.1097 H   0  0  0  0  0  0  0  0  0  0  0  0  # atno 7974 bound_to 7965
  154.4467  140.1922  156.0644 H   0  0  0  0  0  0  0  0  0  0  0  0  # atno 8008 bound_to 7997
  156.0558  140.3303  155.7377 H   0  0  0  0  0  0  0  0  0  0  0  0  # atno 8009 bound_to 7997
  155.5487  140.0593  157.2845 H   0  0  0  0  0  0  0  0  0  0  0  0  # atno 8010 bound_to 7997
  139.4942  144.3939  151.9486 H   0  0  0  0  0  0  0  0  0  0  0  0  # atno 10167 bound_to 10162
  157.6948  131.0510  150.4175 H   0  0  0  0  0  0  0  0  0  0  0  0  # atno 10718 bound_to 10713
  153.4200  135.7010  153.6301 H   0  0  0  0  0  0  0  0  0  0  0  0  # atno 10763 bound_to 10752
  153.4759  135.3704  155.2416 H   0  0  0  0  0  0  0  0  0  0  0  0  # atno 10764 bound_to 10752
  154.8721  135.4054  154.3566 H   0  0  0  0  0  0  0  0  0  0  0  0  # atno 10765 bound_to 10752
  140.9069  134.1619  157.4419 H   0  0  0  0  0  0  0  0  0  0  0  0  # atno 11005 bound_to 11000
  145.9774  140.8711  143.0132 LP  0  0  0  0  0  0  0  0  0  0  0  0  # atno 17320 bound_to 7965
  144.6757  140.2032  143.7385 LP  0  0  0  0  0  0  0  0  0  0  0  0  # atno 17321 bound_to 7965
  140.3377  144.3241  150.5974 LP  0  0  0  0  0  0  0  0  0  0  0  0  # atno 17342 bound_to 10162
  140.5592  143.2194  151.7794 LP  0  0  0  0  0  0  0  0  0  0  0  0  # atno 17343 bound_to 10162
  156.4553  130.4020  149.6610 LP  0  0  0  0  0  0  0  0  0  0  0  0  # atno 17370 bound_to 10713
  156.3745  130.7547  151.2534 LP  0  0  0  0  0  0  0  0  0  0  0  0  # atno 17371 bound_to 10713
  139.8751  134.9920  156.5576 LP  0  0  0  0  0  0  0  0  0  0  0  0  # atno 17394 bound_to 11000
  140.8160  133.8391  155.8852 LP  0  0  0  0  0  0  0  0  0  0  0  0  # atno 17395 bound_to 11000

$$$$
