AV-unprocessed.smi:2696|AV-procd|sdf|10413|dock10
  -GOLD-   2272014453D 1   1.00000     0.00000
 Structure written by MMmdl.
 43 44  0  0  0  0  0  0  0  0  1 V2000
  157.8102  134.0781  159.4674 C   0  0  0  0  0  0  0  0  0  0  0  0
  156.2749  134.0275  159.4876 C   0  0  0  0  0  0  0  0  0  0  0  0
  155.7170  133.2255  158.3010 C   0  0  0  0  0  0  0  0  0  0  0  0
  155.6707  135.4238  159.5544 C   0  0  0  0  0  0  0  0  0  0  0  0
  155.8947  136.3581  158.5994 C   0  0  0  0  0  0  0  0  0  0  0  0
  155.2781  137.6815  158.6861 C   0  0  0  0  0  0  0  0  0  0  0  0
  155.4832  138.5610  157.8499 O   0  0  0  0  0  0  0  0  0  0  0  0
  154.4508  137.8628  159.7566 N   0  0  0  0  0  0  0  0  0  0  0  0
  153.7005  139.1245  159.9334 C   0  0  0  0  0  0  0  0  0  0  0  0
  154.5580  140.3315  160.4260 C   0  0  1  0  0  0  0  0  0  0  0  0
  155.4787  139.8883  161.5829 C   0  0  0  0  0  0  0  0  0  0  0  0
  155.4835  140.6281  159.3950 O   0  0  0  0  0  0  0  0  0  0  0  0
  153.7098  141.5496  160.8253 C   0  0  0  0  0  0  0  0  0  0  0  0
  153.6804  142.0136  162.1620 C   0  0  0  0  0  0  0  0  0  0  0  0
  152.9324  143.1544  162.5071 C   0  0  0  0  0  0  0  0  0  0  0  0
  152.2084  143.8483  161.5210 C   0  0  0  0  0  0  0  0  0  0  0  0
  152.2302  143.4074  160.1822 C   0  0  0  0  0  0  0  0  0  0  0  0
  151.4498  144.1756  159.1259 C   0  0  0  0  0  0  0  0  0  0  0  0
  151.5929  143.6387  157.9135 F   0  0  0  0  0  0  0  0  0  0  0  0
  150.1559  144.1704  159.4439 F   0  0  0  0  0  0  0  0  0  0  0  0
  151.8753  145.4380  159.0771 F   0  0  0  0  0  0  0  0  0  0  0  0
  152.9766  142.2573  159.8442 C   0  0  0  0  0  0  0  0  0  0  0  0
  154.2833  136.8695  160.7443 C   0  0  0  0  0  0  0  0  0  0  0  0
  154.8534  135.7109  160.6524 N   0  0  0  0  0  0  0  0  0  0  0  0
  158.1947  134.6199  160.3321 H   0  0  0  0  0  0  0  0  0  0  0  0
  158.1845  134.5722  158.5703 H   0  0  0  0  0  0  0  0  0  0  0  0
  158.2348  133.0742  159.4932 H   0  0  0  0  0  0  0  0  0  0  0  0
  155.9816  133.4996  160.3967 H   0  0  0  0  0  0  0  0  0  0  0  0
  154.6279  133.1814  158.3362 H   0  0  0  0  0  0  0  0  0  0  0  0
  156.0880  132.2004  158.3136 H   0  0  0  0  0  0  0  0  0  0  0  0
  156.0022  133.6670  157.3458 H   0  0  0  0  0  0  0  0  0  0  0  0
  156.5272  136.1287  157.7544 H   0  0  0  0  0  0  0  0  0  0  0  0
  153.2517  139.3986  158.9765 H   0  0  0  0  0  0  0  0  0  0  0  0
  152.8365  138.9700  160.5831 H   0  0  0  0  0  0  0  0  0  0  0  0
  154.9162  139.5479  162.4520 H   0  0  0  0  0  0  0  0  0  0  0  0
  156.1246  140.7042  161.9107 H   0  0  0  0  0  0  0  0  0  0  0  0
  156.1225  139.0598  161.2840 H   0  0  0  0  0  0  0  0  0  0  0  0
  155.7385  141.5349  159.4696 H   0  0  0  0  0  0  0  0  0  0  0  0
  154.2402  141.5110  162.9366 H   0  0  0  0  0  0  0  0  0  0  0  0
  152.9191  143.5009  163.5298 H   0  0  0  0  0  0  0  0  0  0  0  0
  151.6390  144.7249  161.7928 H   0  0  0  0  0  0  0  0  0  0  0  0
  153.0054  141.9278  158.8171 H   0  0  0  0  0  0  0  0  0  0  0  0
  153.6338  137.1387  161.5787 H   0  0  0  0  0  0  0  0  0  0  0  0
  1  2  1  0  0  0  0
  1 25  1  0  0  0  0
  1 26  1  0  0  0  0
  1 27  1  0  0  0  0
  2  3  1  0  0  0  0
  2  4  1  0  0  0  0
  2 28  1  0  0  0  0
  3 29  1  0  0  0  0
  3 30  1  0  0  0  0
  3 31  1  0  0  0  0
  4 24  1  0  0  0  0
  4  5  2  0  0  0  0
  5  6  1  0  0  0  0
  5 32  1  0  0  0  0
  6  7  2  0  0  0  0
  6  8  1  0  0  0  0
  8  9  1  0  0  0  0
  8 23  1  0  0  0  0
  9 10  1  0  0  0  0
  9 33  1  0  0  0  0
  9 34  1  0  0  0  0
 10 11  1  0  0  0  0
 10 12  1  0  0  0  0
 10 13  1  0  0  0  0
 11 35  1  0  0  0  0
 11 36  1  0  0  0  0
 11 37  1  0  0  0  0
 12 38  1  0  0  0  0
 13 22  1  0  0  0  0
 13 14  2  0  0  0  0
 14 15  1  0  0  0  0
 14 39  1  0  0  0  0
 15 16  2  0  0  0  0
 15 40  1  0  0  0  0
 16 17  1  0  0  0  0
 16 41  1  0  0  0  0
 17 18  1  0  0  0  0
 17 22  2  0  0  0  0
 18 19  1  0  0  0  0
 18 20  1  0  0  0  0
 18 21  1  0  0  0  0
 22 42  1  0  0  0  0
 23 24  2  0  0  0  0
 23 43  1  0  0  0  0
M  END
> <s_m_source_file>
AV-unprocessed.smi

> <i_m_source_file_index>
2696

> <i_lp_mmshare_version>
43012

> <i_f3d_flags>
0

> <s_epik_input>
W0NIM11bQ0hdKFtDSDNdKWMxW2NIXWMoPU8pbihbY0hdbjEpW0NIMl1bQ0BAXShbQ0gzXSkoW09IXSljMltjSF1bY0hdW2NIXWMoQyhGKShGKUYpW2NIXTI=

> <s_epik_cmdline>
J2VwaWtfcHl0aG9uJywgJy1waCcsICc3LjAnLCAnLXRuJywgJzgnLCAnLW1hJywgJzIwMCcsICctbWV0YWxfYmluZGluZycsICctaW1hZScsICc8aW5maWxlLm1hZT4nLCAnLW9tYWUnLCAnPG91dGZpbGUubWFlPic=

> <r_lp_tautomer_probability>
1

> <r_epik_Ionization_Penalty>
2.71388e-05

> <r_epik_Ionization_Penalty_Charging>
4.19927e-06

> <r_epik_Ionization_Penalty_Neutral>
2.29395e-05

> <r_epik_State_Penalty>
-0

> <r_epik_Charging_Adjusted_Penalty>
4.19927e-06

> <i_epik_Tot_Q>
0

> <i_epik_Tot_abs_Q>
0

> <r_epik_Metal_State_Penalty>
-0

> <b_epik_Metal_Only>
0

> <s_lp_Force_Field>
OPLS_2005

> <r_lp_Energy>
19.4026

> <b_lp_Chiralities_Consistent>
1

> <s_lp_Variant>
AV-unprocessed.smi:2696-1

> <Gold.Version>
5.8.1

> <Gold.Id.Protein>
6NUR|6NUR_protein|mol2

> <Gold.PLP.Fitness>
55.7812

> <Gold.PLP.PLP>
-51.0165

> <Gold.PLP.part.hbond>
-2.5207

> <Gold.PLP.part.metal>
0.0000

> <Gold.PLP.part.buried>
-4.6814

> <Gold.PLP.part.nonpolar>
-42.8495

> <Gold.PLP.part.repulsive>
0.0000

> <Gold.PLP.ligand.clash>
0.0775

> <Gold.PLP.ligand.torsion>
0.4741

> <Gold.PLP.Chemscore.Hbond>
1.8089

> <Gold.PLP.Chemscore.CHOScore>
0.0000

> <Gold.PLP.Chemscore.Metal>
0.0000

> <Gold.Chemscore.Hbonds>
donor molecule, donor type, donor heavy atom, donor atom, acceptor molecule, acceptor atom, score
      P1  H  7997  8008       L1     7  0.75

> <Gold.PLP.Chemscore.Internal.Correction>
0.3639

> <Gold.Rescore>
     Score         DG    S(hbond)    S(metal)    S(lipo)     H(rot)  DE(clash)    DE(int)     intcor
     15.78     -17.25       1.27        0.00     113.11       2.23       0.04       1.42       ----

> <Gold.Chemscore.Fitness>
15.7838

> <Gold.Chemscore.DG>
-17.2499

> <Gold.Chemscore.ZeroCoef>
-5.4800

> <Gold.Chemscore.Hbond>
1.2718

> <Gold.Chemscore.Metal>
0.0000

> <Gold.Chemscore.Lipo>
113.1115

> <Gold.Chemscore.Internal_Hbond>
0.0000

> <Gold.Chemscore.DEClash>
0.0418

> <Gold.Chemscore.DEInternal>
1.4243

> <Gold.Chemscore.Rot>
2.2312

> <Gold.Chemscore.Internal.Correction>
   9.000000E+99

> <Gold.Chemscore.Hbonds>
donor molecule, donor type, donor heavy atom, donor atom, acceptor molecule, acceptor atom, score
      P1  H  7997  8008       L1     7  0.70

> <Gold.Chemscore.Hbond.Weighted>
-4.2477

> <Gold.Chemscore.Metal.Weighted>
-0.0000

> <Gold.Chemscore.Lipo.Weighted>
-13.2340

> <Gold.Chemscore.Internal_Hbond.Weighted>
0.0000

> <Gold.Chemscore.DEClash.Weighted>
0.0418

> <Gold.Chemscore.DEInternal.Weighted>
1.4243

> <Gold.Chemscore.Rot.Weighted>
5.7118

> <Gold.Chemscore.Internal.Correction.Weighted>
   9.000000E+99

> <Gold.Protein.RotatedTorsions>
[ 6907 6896 6895 6894 ] final -165.42 input  -60.11 | X-H torsion
[ 7974 7965 7964 7962 ] final   55.55 input  175.53 | X-H torsion
[ 8008 7997 7996 7995 ] final -129.44 input   59.86 | X-H torsion
[ 10167 10162 10161 10158 ] final -161.34 input  -65.29 | X-H torsion
[ 10718 10713 10712 10709 ] final  148.49 input   66.30 | X-H torsion
[ 10763 10752 10751 10750 ] final  -71.34 input  -60.55 | X-H torsion
[ 11005 11000 10999 10996 ] final  -84.92 input  -57.11 | X-H torsion

> <Gold.Protein.ActiveResidues>
 VAL166  LYS551  ARG553  GLY616  TRP617  ASP618  TYR619  PRO620  LYS621  CYS622 
 ASP623  PHE694  ASN695  SER759  ASP760  ASP761  ALA762  ILE779  LEU786  VAL792 
 PHE793  MET794  SER795  GLU796  ALA797  LYS798  CYS799  TRP800  GLU811  SER814 

> <Gold.Protein.RotatedAtoms>
  151.4274  133.3680  159.2763 H   0  0  0  0  0  0  0  0  0  0  0  0  # atno 6907 bound_to 6896
  150.9250  134.8668  159.7524 H   0  0  0  0  0  0  0  0  0  0  0  0  # atno 6908 bound_to 6896
  152.5000  134.4214  159.9534 H   0  0  0  0  0  0  0  0  0  0  0  0  # atno 6909 bound_to 6896
  145.9493  139.3957  143.0316 H   0  0  0  0  0  0  0  0  0  0  0  0  # atno 7974 bound_to 7965
  155.2792  140.0443  157.3014 H   0  0  0  0  0  0  0  0  0  0  0  0  # atno 8008 bound_to 7997
  154.5607  140.2345  155.8308 H   0  0  0  0  0  0  0  0  0  0  0  0  # atno 8009 bound_to 7997
  156.2045  140.3016  155.9604 H   0  0  0  0  0  0  0  0  0  0  0  0  # atno 8010 bound_to 7997
  139.6473  144.0149  152.2136 H   0  0  0  0  0  0  0  0  0  0  0  0  # atno 10167 bound_to 10162
  157.3080  131.0883  151.1338 H   0  0  0  0  0  0  0  0  0  0  0  0  # atno 10718 bound_to 10713
  154.4304  135.5965  153.6065 H   0  0  0  0  0  0  0  0  0  0  0  0  # atno 10763 bound_to 10752
  152.9798  135.5974  154.3846 H   0  0  0  0  0  0  0  0  0  0  0  0  # atno 10764 bound_to 10752
  154.3683  135.2841  155.2259 H   0  0  0  0  0  0  0  0  0  0  0  0  # atno 10765 bound_to 10752
  141.1646  133.7371  156.8938 H   0  0  0  0  0  0  0  0  0  0  0  0  # atno 11005 bound_to 11000
  145.8194  140.9687  143.0907 LP  0  0  0  0  0  0  0  0  0  0  0  0  # atno 17320 bound_to 7965
  144.6793  140.0021  143.7484 LP  0  0  0  0  0  0  0  0  0  0  0  0  # atno 17321 bound_to 7965
  139.9854  144.6399  150.7862 LP  0  0  0  0  0  0  0  0  0  0  0  0  # atno 17342 bound_to 10162
  140.7520  143.2983  151.3146 LP  0  0  0  0  0  0  0  0  0  0  0  0  # atno 17343 bound_to 10162
  157.2672  130.6687  149.6002 LP  0  0  0  0  0  0  0  0  0  0  0  0  # atno 17370 bound_to 10713
  155.9676  130.4490  150.5643 LP  0  0  0  0  0  0  0  0  0  0  0  0  # atno 17371 bound_to 10713
  140.1630  134.9152  157.2738 LP  0  0  0  0  0  0  0  0  0  0  0  0  # atno 17394 bound_to 11000
  140.2589  134.3594  155.7414 LP  0  0  0  0  0  0  0  0  0  0  0  0  # atno 17395 bound_to 11000

$$$$
