AV-unprocessed.smi:2154|AV-procd|sdf|8772|dock3
  -GOLD-   2272011553D 1   1.00000     0.00000
 Structure written by MMmdl.
 32 33  0  0  0  0  0  0  0  0  1 V2000
  152.8968  142.0661  160.2185 C   0  0  0  0  0  0  0  0  0  0  0  0
  152.7909  143.5743  160.1094 C   0  0  2  0  0  0  0  0  0  0  0  0
  151.7907  144.3398  160.9445 C   0  0  0  0  0  0  0  0  0  0  0  0
  151.6141  144.2621  159.4456 C   0  0  2  0  0  0  0  0  0  0  0  0
  150.4621  143.4828  158.8337 C   0  0  0  0  0  0  0  0  0  0  0  0
  150.7141  142.9721  157.4927 N   0  0  0  0  0  0  0  0  0  0  0  0
  149.9479  142.0766  156.8520 C   0  0  0  0  0  0  0  0  0  0  0  0
  148.9161  141.6057  157.3327 O   0  0  0  0  0  0  0  0  0  0  0  0
  150.4127  141.6717  155.4460 C   0  0  0  0  0  0  0  0  0  0  0  0
  149.3791  140.9535  154.6860 N   0  0  0  0  0  0  0  0  0  0  0  0
  148.1199  141.5106  154.5142 C   0  0  0  0  0  0  0  0  0  0  0  0
  147.1216  140.9007  153.8324 C   0  0  0  0  0  0  0  0  0  0  0  0
  147.3328  139.5888  153.2295 C   0  0  0  0  0  0  0  0  0  0  0  0
  146.4927  138.9577  152.5920 O   0  0  0  0  0  0  0  0  0  0  0  0
  148.6112  139.0602  153.4270 N   0  0  0  0  0  0  0  0  0  0  0  0
  149.6438  139.6829  154.1297 C   0  0  0  0  0  0  0  0  0  0  0  0
  150.7348  139.1264  154.2473 O   0  0  0  0  0  0  0  0  0  0  0  0
  148.8037  138.1522  153.0297 H   0  0  0  0  0  0  0  0  0  0  0  0
  151.9399  141.6190  160.4865 H   0  0  0  0  0  0  0  0  0  0  0  0
  153.6235  141.8000  160.9860 H   0  0  0  0  0  0  0  0  0  0  0  0
  153.2261  141.6446  159.2687 H   0  0  0  0  0  0  0  0  0  0  0  0
  153.7536  144.0584  159.9573 H   0  0  0  0  0  0  0  0  0  0  0  0
  151.1048  143.7669  161.5658 H   0  0  0  0  0  0  0  0  0  0  0  0
  152.1090  145.2927  161.3626 H   0  0  0  0  0  0  0  0  0  0  0  0
  151.8748  145.1574  158.8839 H   0  0  0  0  0  0  0  0  0  0  0  0
  150.2078  142.6556  159.4984 H   0  0  0  0  0  0  0  0  0  0  0  0
  149.5780  144.1175  158.7823 H   0  0  0  0  0  0  0  0  0  0  0  0
  151.5409  143.3117  157.0231 H   0  0  0  0  0  0  0  0  0  0  0  0
  150.7134  142.5767  154.9164 H   0  0  0  0  0  0  0  0  0  0  0  0
  151.3172  141.0634  155.5125 H   0  0  0  0  0  0  0  0  0  0  0  0
  147.9168  142.4799  154.9471 H   0  0  0  0  0  0  0  0  0  0  0  0
  146.1612  141.3855  153.7329 H   0  0  0  0  0  0  0  0  0  0  0  0
  1  2  1  0  0  0  0
  1 19  1  0  0  0  0
  1 20  1  0  0  0  0
  1 21  1  0  0  0  0
  2  4  1  0  0  0  0
  2  3  1  0  0  0  0
  2 22  1  0  0  0  0
  3  4  1  0  0  0  0
  3 23  1  0  0  0  0
  3 24  1  0  0  0  0
  4  5  1  0  0  0  0
  4 25  1  0  0  0  0
  5  6  1  0  0  0  0
  5 26  1  0  0  0  0
  5 27  1  0  0  0  0
  6  7  1  0  0  0  0
  6 28  1  0  0  0  0
  7  8  2  0  0  0  0
  7  9  1  0  0  0  0
  9 10  1  0  0  0  0
  9 29  1  0  0  0  0
  9 30  1  0  0  0  0
 10 16  1  0  0  0  0
 10 11  1  0  0  0  0
 11 12  2  0  0  0  0
 11 31  1  0  0  0  0
 12 13  1  0  0  0  0
 12 32  1  0  0  0  0
 13 14  2  0  0  0  0
 13 15  1  0  0  0  0
 15 18  1  0  0  0  0
 15 16  1  0  0  0  0
 16 17  2  0  0  0  0
M  END
> <s_m_source_file>
AV-unprocessed.smi

> <i_m_source_file_index>
2154

> <i_lp_mmshare_version>
43012

> <i_f3d_flags>
0

> <s_epik_input>
W0NIM11bQ0BASF0xW0NIMl1bQ0BIXTFbQ0gyXVtOSF1DKD1PKVtDSDJdbjJbY0hdW2NIXWMoPU8pW25IXWMyPU8=

> <s_epik_cmdline>
J2VwaWtfcHl0aG9uJywgJy1waCcsICc3LjAnLCAnLXRuJywgJzgnLCAnLW1hJywgJzIwMCcsICctbWV0YWxfYmluZGluZycsICctaW1hZScsICc8aW5maWxlLm1hZT4nLCAnLW9tYWUnLCAnPG91dGZpbGUubWFlPic=

> <r_lp_tautomer_probability>
0.999537

> <r_epik_Ionization_Penalty>
0.00305319

> <r_epik_Ionization_Penalty_Charging>
0.00305317

> <r_epik_Ionization_Penalty_Neutral>
2.06703e-08

> <r_epik_State_Penalty>
0.00214626

> <r_epik_Charging_Adjusted_Penalty>
0.00519944

> <i_epik_Tot_Q>
0

> <i_epik_Tot_abs_Q>
0

> <r_epik_Metal_State_Penalty>
0.361976

> <b_epik_Metal_Only>
0

> <s_lp_Force_Field>
OPLS_2005

> <r_lp_Energy>
15.9584

> <b_lp_Chiralities_Consistent>
1

> <s_lp_Variant>
AV-unprocessed.smi:2154-3

> <Gold.Version>
5.8.1

> <Gold.Id.Protein>
6NUR|6NUR_protein|mol2

> <Gold.PLP.Fitness>
40.0821

> <Gold.PLP.PLP>
-34.9712

> <Gold.PLP.part.hbond>
-2.8586

> <Gold.PLP.part.metal>
0.0000

> <Gold.PLP.part.buried>
-0.6019

> <Gold.PLP.part.nonpolar>
-31.1945

> <Gold.PLP.part.repulsive>
0.6590

> <Gold.PLP.ligand.clash>
0.0000

> <Gold.PLP.ligand.torsion>
0.5101

> <Gold.PLP.Chemscore.Hbond>
0.8678

> <Gold.PLP.Chemscore.CHOScore>
0.9982

> <Gold.PLP.Chemscore.Metal>
0.0000

> <Gold.Chemscore.Hbonds>
donor molecule, donor type, donor heavy atom, donor atom, acceptor molecule, acceptor atom, score
      L1  H    15    18       P1  7948  0.50
      P1  H  7989  7998       L1    17  0.34
      L1  C    11    31       P1  8028  1.00

> <Gold.PLP.Chemscore.Internal.Correction>
0.5332

> <Gold.Rescore>
     Score         DG    S(hbond)    S(metal)    S(lipo)     H(rot)  DE(clash)    DE(int)     intcor
     10.40     -12.07       0.97        0.00      72.58       2.01       0.00       1.67       ----

> <Gold.Chemscore.Fitness>
10.3955

> <Gold.Chemscore.DG>
-12.0669

> <Gold.Chemscore.ZeroCoef>
-5.4800

> <Gold.Chemscore.Hbond>
0.9675

> <Gold.Chemscore.Metal>
0.0000

> <Gold.Chemscore.Lipo>
72.5836

> <Gold.Chemscore.Internal_Hbond>
0.0000

> <Gold.Chemscore.DEClash>
0.0038

> <Gold.Chemscore.DEInternal>
1.6676

> <Gold.Chemscore.Rot>
2.0065

> <Gold.Chemscore.Internal.Correction>
   9.000000E+99

> <Gold.Chemscore.Hbonds>
donor molecule, donor type, donor heavy atom, donor atom, acceptor molecule, acceptor atom, score
      L1  H    15    18       P1  7948  0.50
      P1  H  7989  7998       L1    17  0.01

> <Gold.Chemscore.Hbond.Weighted>
-3.2313

> <Gold.Chemscore.Metal.Weighted>
-0.0000

> <Gold.Chemscore.Lipo.Weighted>
-8.4923

> <Gold.Chemscore.Internal_Hbond.Weighted>
0.0000

> <Gold.Chemscore.DEClash.Weighted>
0.0038

> <Gold.Chemscore.DEInternal.Weighted>
1.6676

> <Gold.Chemscore.Rot.Weighted>
5.1366

> <Gold.Chemscore.Internal.Correction.Weighted>
   9.000000E+99

> <Gold.Protein.RotatedTorsions>
[ 6907 6896 6895 6894 ] final   55.23 input  -60.11 | X-H torsion
[ 7974 7965 7964 7962 ] final  -51.16 input  175.53 | X-H torsion
[ 8008 7997 7996 7995 ] final  -11.10 input   59.86 | X-H torsion
[ 10167 10162 10161 10158 ] final   81.66 input  -65.29 | X-H torsion
[ 10718 10713 10712 10709 ] final -115.89 input   66.30 | X-H torsion
[ 10763 10752 10751 10750 ] final  -10.38 input  -60.55 | X-H torsion
[ 11005 11000 10999 10996 ] final -175.66 input  -57.11 | X-H torsion

> <Gold.Protein.ActiveResidues>
 VAL166  LYS551  ARG553  GLY616  TRP617  ASP618  TYR619  PRO620  LYS621  CYS622 
 ASP623  PHE694  ASN695  SER759  ASP760  ASP761  ALA762  ILE779  LEU786  VAL792 
 PHE793  MET794  SER795  GLU796  ALA797  LYS798  CYS799  TRP800  GLU811  SER814 

> <Gold.Protein.RotatedAtoms>
  152.3518  134.6995  160.0233 H   0  0  0  0  0  0  0  0  0  0  0  0  # atno 6907 bound_to 6896
  151.7346  133.3314  159.3357 H   0  0  0  0  0  0  0  0  0  0  0  0  # atno 6908 bound_to 6896
  150.7545  134.6266  159.6208 H   0  0  0  0  0  0  0  0  0  0  0  0  # atno 6909 bound_to 6896
  145.9220  140.7825  142.9642 H   0  0  0  0  0  0  0  0  0  0  0  0  # atno 7974 bound_to 7965
  154.5495  140.2311  155.8508 H   0  0  0  0  0  0  0  0  0  0  0  0  # atno 8008 bound_to 7997
  156.1933  140.3071  155.9338 H   0  0  0  0  0  0  0  0  0  0  0  0  # atno 8009 bound_to 7997
  155.3099  140.0435  157.3025 H   0  0  0  0  0  0  0  0  0  0  0  0  # atno 8010 bound_to 7997
  139.9369  144.6115  150.8290 H   0  0  0  0  0  0  0  0  0  0  0  0  # atno 10167 bound_to 10162
  156.0926  130.6105  150.8964 H   0  0  0  0  0  0  0  0  0  0  0  0  # atno 10718 bound_to 10713
  153.4683  135.7016  153.6009 H   0  0  0  0  0  0  0  0  0  0  0  0  # atno 10763 bound_to 10752
  153.4273  135.3811  155.2149 H   0  0  0  0  0  0  0  0  0  0  0  0  # atno 10764 bound_to 10752
  154.8726  135.3942  154.4118 H   0  0  0  0  0  0  0  0  0  0  0  0  # atno 10765 bound_to 10752
  140.4608  134.6256  157.4842 H   0  0  0  0  0  0  0  0  0  0  0  0  # atno 11005 bound_to 11000
  144.6754  140.1991  143.7389 LP  0  0  0  0  0  0  0  0  0  0  0  0  # atno 17320 bound_to 7965
  145.8537  139.2188  143.1757 LP  0  0  0  0  0  0  0  0  0  0  0  0  # atno 17321 bound_to 7965
  140.7622  143.3192  151.2661 LP  0  0  0  0  0  0  0  0  0  0  0  0  # atno 17342 bound_to 10162
  139.6736  143.9977  152.2768 LP  0  0  0  0  0  0  0  0  0  0  0  0  # atno 17343 bound_to 10162
  157.6079  131.0938  150.8847 LP  0  0  0  0  0  0  0  0  0  0  0  0  # atno 17370 bound_to 10713
  156.8992  130.5240  149.5283 LP  0  0  0  0  0  0  0  0  0  0  0  0  # atno 17371 bound_to 10713
  139.9946  134.6931  155.9631 LP  0  0  0  0  0  0  0  0  0  0  0  0  # atno 17394 bound_to 11000
  141.1622  133.6538  156.4356 LP  0  0  0  0  0  0  0  0  0  0  0  0  # atno 17395 bound_to 11000

$$$$
