AV-unprocessed.smi:769|AV-procd|sdf|3676|dock5
  -GOLD-   22720 1 93D 1   1.00000     0.00000
 Structure written by MMmdl.
 50 52  0  0  0  0  0  0  0  0  2 V2000
  144.7090  137.5365  152.7687 O   0  0  0  0  0  0  0  0  0  0  0  0
  145.8131  137.0779  152.4763 C   0  0  0  0  0  0  0  0  0  0  0  0
  146.9621  137.7414  152.6693 N   0  0  0  0  0  0  0  0  0  0  0  0
  147.0688  139.0727  153.2541 C   0  0  0  0  0  0  0  0  0  0  0  0
  147.6567  139.0135  154.6779 C   0  0  0  0  0  0  0  0  0  0  0  0
  148.9372  139.7115  154.7807 N   0  0  0  0  0  0  0  0  0  0  0  0
  149.9979  138.8144  155.2583 C   0  0  0  0  0  0  0  0  0  0  0  0
  151.3261  139.5842  155.3895 C   0  0  0  0  0  0  0  0  0  0  0  0
  151.1390  140.6862  156.3374 N   0  0  0  0  0  0  0  0  0  0  0  0
  151.7270  140.8080  157.5520 C   0  0  0  0  0  0  0  0  0  0  0  0
  152.5193  139.9678  157.9807 O   0  0  0  0  0  0  0  0  0  0  0  0
  151.4328  142.0625  158.3986 C   0  0  0  0  0  0  0  0  0  0  0  0
  151.7523  143.4202  157.7391 C   0  0  0  0  0  0  0  0  0  0  0  0
  152.3615  143.8697  159.0700 C   0  0  0  0  0  0  0  0  0  0  0  0
  152.5222  142.3911  159.4342 C   0  0  0  0  0  0  0  0  0  0  0  0
  150.1166  141.6105  155.8401 C   0  0  0  0  0  0  0  0  0  0  0  0
  148.7865  140.8438  155.7018 C   0  0  0  0  0  0  0  0  0  0  0  0
  146.0330  135.8765  151.9140 N   0  0  0  0  0  0  0  0  0  0  0  0
  145.0893  134.8753  151.5548 C   0  0  0  0  0  0  0  0  0  0  0  0
  145.5509  133.8000  150.7632 C   0  0  0  0  0  0  0  0  0  0  0  0
  144.6576  132.7745  150.3918 C   0  0  0  0  0  0  0  0  0  0  0  0
  143.3719  132.8221  150.8010 N   0  3  0  0  0  0  0  0  0  0  0  0
  142.8872  133.8209  151.5693 C   0  0  0  0  0  0  0  0  0  0  0  0
  143.7335  134.8742  151.9726 C   0  0  0  0  0  0  0  0  0  0  0  0
  147.8258  137.2949  152.3971 H   0  0  0  0  0  0  0  0  0  0  0  0
  147.6674  139.7011  152.5942 H   0  0  0  0  0  0  0  0  0  0  0  0
  146.0706  139.5104  153.2816 H   0  0  0  0  0  0  0  0  0  0  0  0
  146.9446  139.4871  155.3556 H   0  0  0  0  0  0  0  0  0  0  0  0
  147.7663  137.9808  155.0131 H   0  0  0  0  0  0  0  0  0  0  0  0
  149.7186  138.3776  156.2187 H   0  0  0  0  0  0  0  0  0  0  0  0
  150.1410  137.9910  154.5603 H   0  0  0  0  0  0  0  0  0  0  0  0
  152.1233  138.8978  155.6677 H   0  0  0  0  0  0  0  0  0  0  0  0
  151.6214  139.9907  154.4210 H   0  0  0  0  0  0  0  0  0  0  0  0
  150.4265  142.0712  158.8214 H   0  0  0  0  0  0  0  0  0  0  0  0
  152.4953  143.3857  156.9409 H   0  0  0  0  0  0  0  0  0  0  0  0
  150.8744  143.9927  157.4391 H   0  0  0  0  0  0  0  0  0  0  0  0
  153.2972  144.4223  158.9805 H   0  0  0  0  0  0  0  0  0  0  0  0
  151.6441  144.3863  159.7094 H   0  0  0  0  0  0  0  0  0  0  0  0
  152.2544  142.1569  160.4650 H   0  0  0  0  0  0  0  0  0  0  0  0
  153.5067  141.9952  159.1774 H   0  0  0  0  0  0  0  0  0  0  0  0
  149.9725  142.4722  156.4929 H   0  0  0  0  0  0  0  0  0  0  0  0
  150.4263  142.0145  154.8750 H   0  0  0  0  0  0  0  0  0  0  0  0
  148.0163  141.5196  155.3282 H   0  0  0  0  0  0  0  0  0  0  0  0
  148.4559  140.4891  156.6794 H   0  0  0  0  0  0  0  0  0  0  0  0
  146.9909  135.6765  151.6657 H   0  0  0  0  0  0  0  0  0  0  0  0
  146.5799  133.7604  150.4358 H   0  0  0  0  0  0  0  0  0  0  0  0
  144.9312  131.9234  149.7851 H   0  0  0  0  0  0  0  0  0  0  0  0
  141.8447  133.7456  151.8428 H   0  0  0  0  0  0  0  0  0  0  0  0
  143.3270  135.6503  152.6024 H   0  0  0  0  0  0  0  0  0  0  0  0
  142.7412  132.0697  150.5224 H   0  0  0  0  0  0  0  0  0  0  0  0
  1  2  2  0  0  0  0
  2  3  1  0  0  0  0
  2 18  1  0  0  0  0
  3  4  1  0  0  0  0
  3 25  1  0  0  0  0
  4  5  1  0  0  0  0
  4 26  1  0  0  0  0
  4 27  1  0  0  0  0
  5  6  1  0  0  0  0
  5 28  1  0  0  0  0
  5 29  1  0  0  0  0
  6 17  1  0  0  0  0
  6  7  1  0  0  0  0
  7  8  1  0  0  0  0
  7 30  1  0  0  0  0
  7 31  1  0  0  0  0
  8  9  1  0  0  0  0
  8 32  1  0  0  0  0
  8 33  1  0  0  0  0
  9 10  1  0  0  0  0
  9 16  1  0  0  0  0
 10 11  2  0  0  0  0
 10 12  1  0  0  0  0
 12 15  1  0  0  0  0
 12 13  1  0  0  0  0
 12 34  1  0  0  0  0
 13 14  1  0  0  0  0
 13 35  1  0  0  0  0
 13 36  1  0  0  0  0
 14 15  1  0  0  0  0
 14 37  1  0  0  0  0
 14 38  1  0  0  0  0
 15 39  1  0  0  0  0
 15 40  1  0  0  0  0
 16 17  1  0  0  0  0
 16 41  1  0  0  0  0
 16 42  1  0  0  0  0
 17 43  1  0  0  0  0
 17 44  1  0  0  0  0
 18 19  1  0  0  0  0
 18 45  1  0  0  0  0
 19 24  1  0  0  0  0
 19 20  2  0  0  0  0
 20 21  1  0  0  0  0
 20 46  1  0  0  0  0
 21 22  2  0  0  0  0
 21 47  1  0  0  0  0
 22 23  1  0  0  0  0
 22 50  1  0  0  0  0
 23 24  2  0  0  0  0
 23 48  1  0  0  0  0
 24 49  1  0  0  0  0
M  CHG  1  22   1
M  END
> <s_m_source_file>
AV-unprocessed.smi

> <i_m_source_file_index>
769

> <i_lp_mmshare_version>
43012

> <i_f3d_flags>
0

> <s_epik_input>
W2NIXTFbY0hdbltjSF1bY0hdYzFbTkhdQyg9TylbTkhdW0NIMl1bQ0gyXU4yW0NIMl1bQ0gyXU4oW0NIMl1bQ0gyXTIpQyg9TylbQ0hdM1tDSDJdW0NIMl1bQ0gyXTM=

> <s_epik_cmdline>
J2VwaWtfcHl0aG9uJywgJy1waCcsICc3LjAnLCAnLXRuJywgJzgnLCAnLW1hJywgJzIwMCcsICctbWV0YWxfYmluZGluZycsICctaW1hZScsICc8aW5maWxlLm1hZT4nLCAnLW9tYWUnLCAnPG91dGZpbGUubWFlPic=

> <r_epik_Ionization_Penalty>
1.23972

> <r_epik_Ionization_Penalty_Charging>
0.991409

> <r_epik_Ionization_Penalty_Neutral>
0.248308

> <r_epik_State_Penalty>
1.32283

> <r_epik_Charging_Adjusted_Penalty>
2.31424

> <i_epik_Tot_Q>
1

> <i_epik_Tot_abs_Q>
1

> <r_epik_Metal_State_Penalty>
1.42026

> <b_epik_Metal_Only>
0

> <s_lp_Force_Field>
OPLS_2005

> <r_lp_Energy>
53.8523

> <b_lp_Chiralities_Consistent>
1

> <s_lp_Variant>
AV-unprocessed.smi:769-3

> <Gold.Version>
5.8.1

> <Gold.Id.Protein>
6NUR|6NUR_protein|mol2

> <Gold.PLP.Fitness>
50.0097

> <Gold.PLP.PLP>
-43.8594

> <Gold.PLP.part.hbond>
-2.9731

> <Gold.PLP.part.metal>
0.0000

> <Gold.PLP.part.buried>
-4.2196

> <Gold.PLP.part.nonpolar>
-36.5041

> <Gold.PLP.part.repulsive>
0.4377

> <Gold.PLP.ligand.clash>
0.0000

> <Gold.PLP.ligand.torsion>
1.5478

> <Gold.PLP.Chemscore.Hbond>
2.9280

> <Gold.PLP.Chemscore.CHOScore>
0.0000

> <Gold.PLP.Chemscore.Metal>
0.0000

> <Gold.Chemscore.Hbonds>
donor molecule, donor type, donor heavy atom, donor atom, acceptor molecule, acceptor atom, score
      L1  H     3    25       P1  7948  1.00
      L1  H    18    45       P1  7948  0.96
      P1  H  7997  8008       L1    11  0.46

> <Gold.PLP.Chemscore.Internal.Correction>
0.4620

> <Gold.Rescore>
     Score         DG    S(hbond)    S(metal)    S(lipo)     H(rot)  DE(clash)    DE(int)     intcor
     20.47     -23.17       2.86        0.00     107.36       1.72       0.09       2.61       ----

> <Gold.Chemscore.Fitness>
20.4712

> <Gold.Chemscore.DG>
-23.1697

> <Gold.Chemscore.ZeroCoef>
-5.4800

> <Gold.Chemscore.Hbond>
2.8564

> <Gold.Chemscore.Metal>
0.0000

> <Gold.Chemscore.Lipo>
107.3576

> <Gold.Chemscore.Internal_Hbond>
0.0000

> <Gold.Chemscore.DEClash>
0.0851

> <Gold.Chemscore.DEInternal>
2.6134

> <Gold.Chemscore.Rot>
1.7233

> <Gold.Chemscore.Internal.Correction>
   9.000000E+99

> <Gold.Chemscore.Hbonds>
donor molecule, donor type, donor heavy atom, donor atom, acceptor molecule, acceptor atom, score
      L1  H     3    25       P1  7948  0.99
      L1  H    18    45       P1  7948  0.88
      P1  H  7997  8008       L1    11  0.33

> <Gold.Chemscore.Hbond.Weighted>
-9.5405

> <Gold.Chemscore.Metal.Weighted>
-0.0000

> <Gold.Chemscore.Lipo.Weighted>
-12.5608

> <Gold.Chemscore.Internal_Hbond.Weighted>
0.0000

> <Gold.Chemscore.DEClash.Weighted>
0.0851

> <Gold.Chemscore.DEInternal.Weighted>
2.6134

> <Gold.Chemscore.Rot.Weighted>
4.4116

> <Gold.Chemscore.Internal.Correction.Weighted>
   9.000000E+99

> <Gold.Protein.RotatedTorsions>
[ 6907 6896 6895 6894 ] final  -78.99 input  -60.11 | X-H torsion
[ 7974 7965 7964 7962 ] final -156.46 input  175.53 | X-H torsion
[ 8008 7997 7996 7995 ] final  -72.08 input   59.86 | X-H torsion
[ 10167 10162 10161 10158 ] final   -3.49 input  -65.29 | X-H torsion
[ 10718 10713 10712 10709 ] final  143.08 input   66.30 | X-H torsion
[ 10763 10752 10751 10750 ] final   34.23 input  -60.55 | X-H torsion
[ 11005 11000 10999 10996 ] final -114.57 input  -57.11 | X-H torsion

> <Gold.Protein.ActiveResidues>
 VAL166  LYS551  ARG553  GLY616  TRP617  ASP618  TYR619  PRO620  LYS621  CYS622 
 ASP623  PHE694  ASN695  SER759  ASP760  ASP761  ALA762  ILE779  LEU786  VAL792 
 PHE793  MET794  SER795  GLU796  ALA797  LYS798  CYS799  TRP800  GLU811  SER814 

> <Gold.Protein.RotatedAtoms>
  150.6960  134.4188  159.5195 H   0  0  0  0  0  0  0  0  0  0  0  0  # atno 6907 bound_to 6896
  152.1935  134.8648  160.0524 H   0  0  0  0  0  0  0  0  0  0  0  0  # atno 6908 bound_to 6896
  151.9595  133.3656  159.4067 H   0  0  0  0  0  0  0  0  0  0  0  0  # atno 6909 bound_to 6896
  144.7592  140.4106  143.5989 H   0  0  0  0  0  0  0  0  0  0  0  0  # atno 7974 bound_to 7965
  154.5138  140.0804  156.8041 H   0  0  0  0  0  0  0  0  0  0  0  0  # atno 8008 bound_to 7997
  155.3727  140.3424  155.4225 H   0  0  0  0  0  0  0  0  0  0  0  0  # atno 8009 bound_to 7997
  156.1604  140.1586  156.8610 H   0  0  0  0  0  0  0  0  0  0  0  0  # atno 8010 bound_to 7997
  140.6892  143.6534  150.8330 H   0  0  0  0  0  0  0  0  0  0  0  0  # atno 10167 bound_to 10162
  157.3731  131.0982  151.0809 H   0  0  0  0  0  0  0  0  0  0  0  0  # atno 10718 bound_to 10713
  153.0174  135.6366  154.1637 H   0  0  0  0  0  0  0  0  0  0  0  0  # atno 10763 bound_to 10752
  154.1374  135.2836  155.3171 H   0  0  0  0  0  0  0  0  0  0  0  0  # atno 10764 bound_to 10752
  154.6149  135.5544  153.7574 H   0  0  0  0  0  0  0  0  0  0  0  0  # atno 10765 bound_to 10752
  141.0543  133.9637  157.2781 H   0  0  0  0  0  0  0  0  0  0  0  0  # atno 11005 bound_to 11000
  145.6676  139.1593  143.2773 LP  0  0  0  0  0  0  0  0  0  0  0  0  # atno 17320 bound_to 7965
  146.1637  140.6751  142.9266 LP  0  0  0  0  0  0  0  0  0  0  0  0  # atno 17321 bound_to 7965
  140.0244  143.5508  152.2787 LP  0  0  0  0  0  0  0  0  0  0  0  0  # atno 17342 bound_to 10162
  139.6278  144.7640  151.2600 LP  0  0  0  0  0  0  0  0  0  0  0  0  # atno 17343 bound_to 10162
  157.1906  130.6350  149.5703 LP  0  0  0  0  0  0  0  0  0  0  0  0  # atno 17370 bound_to 10713
  155.9759  130.4723  150.6495 LP  0  0  0  0  0  0  0  0  0  0  0  0  # atno 17371 bound_to 10713
  139.9377  135.0195  156.8609 LP  0  0  0  0  0  0  0  0  0  0  0  0  # atno 17394 bound_to 11000
  140.5994  134.0186  155.7531 LP  0  0  0  0  0  0  0  0  0  0  0  0  # atno 17395 bound_to 11000

$$$$
