AV-unprocessed.smi:3158|AV-procd|sdf|12042|dock8
  -GOLD-   2272017463D 1   1.00000     0.00000
 Structure written by MMmdl.
 40 40  0  0  0  0  0  0  0  0  2 V2000
  140.9200  136.5343  153.7732 C   0  0  0  0  0  0  0  0  0  0  0  0
  142.0391  137.4552  153.2648 C   0  0  0  0  0  0  0  0  0  0  0  0
  143.4174  136.7717  153.1993 C   0  0  1  0  0  0  0  0  0  0  0  0
  143.3640  135.4513  152.4167 C   0  0  0  0  0  0  0  0  0  0  0  0
  144.3943  137.6685  152.5854 N   0  0  0  0  0  0  0  0  0  0  0  0
  145.6979  137.7355  152.8966 C   0  0  0  0  0  0  0  0  0  0  0  0
  146.2339  137.0157  153.7400 O   0  0  0  0  0  0  0  0  0  0  0  0
  146.5293  138.7728  152.1304 C   0  0  2  0  0  0  0  0  0  0  0  0
  146.5461  138.4303  150.6332 C   0  0  0  0  0  0  0  0  0  0  0  0
  147.9144  138.8344  152.6465 N   0  3  0  0  0  0  0  0  0  0  0  0
  148.0399  139.2998  154.0454 C   0  0  0  0  0  0  0  0  0  0  0  0
  148.6159  140.7247  154.1120 C   0  0  0  0  0  0  0  0  0  0  0  0
  149.7352  140.8401  155.0329 N   0  0  0  0  0  0  0  0  0  0  0  0
  149.8508  141.6561  156.1389 C   0  0  0  0  0  0  0  0  0  0  0  0
  151.0672  141.4040  156.7058 C   0  0  0  0  0  0  0  0  0  0  0  0
  151.6265  140.3952  155.8730 C   0  0  0  0  0  0  0  0  0  0  0  0
  150.8233  140.0539  154.8784 N   0  0  0  0  0  0  0  0  0  0  0  0
  139.9590  137.0485  153.7557 H   0  0  0  0  0  0  0  0  0  0  0  0
  141.0998  136.2093  154.7984 H   0  0  0  0  0  0  0  0  0  0  0  0
  140.8311  135.6438  153.1502 H   0  0  0  0  0  0  0  0  0  0  0  0
  141.7692  137.8119  152.2700 H   0  0  0  0  0  0  0  0  0  0  0  0
  142.0936  138.3412  153.8987 H   0  0  0  0  0  0  0  0  0  0  0  0
  143.7192  136.5426  154.2231 H   0  0  0  0  0  0  0  0  0  0  0  0
  142.6559  134.7563  152.8683 H   0  0  0  0  0  0  0  0  0  0  0  0
  144.3386  134.9622  152.4028 H   0  0  0  0  0  0  0  0  0  0  0  0
  143.0575  135.6138  151.3828 H   0  0  0  0  0  0  0  0  0  0  0  0
  144.0446  138.2943  151.8741 H   0  0  0  0  0  0  0  0  0  0  0  0
  146.0760  139.7590  152.2476 H   0  0  0  0  0  0  0  0  0  0  0  0
  145.5362  138.3984  150.2223 H   0  0  0  0  0  0  0  0  0  0  0  0
  147.0107  137.4605  150.4481 H   0  0  0  0  0  0  0  0  0  0  0  0
  147.1039  139.1771  150.0675 H   0  0  0  0  0  0  0  0  0  0  0  0
  148.3137  137.9089  152.5749 H   0  0  0  0  0  0  0  0  0  0  0  0
  147.0552  139.2774  154.5131 H   0  0  0  0  0  0  0  0  0  0  0  0
  148.6703  138.6172  154.6170 H   0  0  0  0  0  0  0  0  0  0  0  0
  148.9423  141.0457  153.1218 H   0  0  0  0  0  0  0  0  0  0  0  0
  147.8429  141.4249  154.4302 H   0  0  0  0  0  0  0  0  0  0  0  0
  149.0682  142.3426  156.4277 H   0  0  0  0  0  0  0  0  0  0  0  0
  151.4916  141.8658  157.5850 H   0  0  0  0  0  0  0  0  0  0  0  0
  152.5832  139.9019  155.9632 H   0  0  0  0  0  0  0  0  0  0  0  0
  148.4467  139.4630  152.0626 H   0  0  0  0  0  0  0  0  0  0  0  0
  1  2  1  0  0  0  0
  1 18  1  0  0  0  0
  1 19  1  0  0  0  0
  1 20  1  0  0  0  0
  2  3  1  0  0  0  0
  2 21  1  0  0  0  0
  2 22  1  0  0  0  0
  3  4  1  0  0  0  0
  3  5  1  0  0  0  0
  3 23  1  0  0  0  0
  4 24  1  0  0  0  0
  4 25  1  0  0  0  0
  4 26  1  0  0  0  0
  5  6  1  0  0  0  0
  5 27  1  0  0  0  0
  6  7  2  0  0  0  0
  6  8  1  0  0  0  0
  8  9  1  0  0  0  0
  8 10  1  0  0  0  0
  8 28  1  0  0  0  0
  9 29  1  0  0  0  0
  9 30  1  0  0  0  0
  9 31  1  0  0  0  0
 10 11  1  0  0  0  0
 10 32  1  0  0  0  0
 10 40  1  0  0  0  0
 11 12  1  0  0  0  0
 11 33  1  0  0  0  0
 11 34  1  0  0  0  0
 12 13  1  0  0  0  0
 12 35  1  0  0  0  0
 12 36  1  0  0  0  0
 13 17  1  0  0  0  0
 13 14  1  0  0  0  0
 14 15  2  0  0  0  0
 14 37  1  0  0  0  0
 15 16  1  0  0  0  0
 15 38  1  0  0  0  0
 16 17  2  0  0  0  0
 16 39  1  0  0  0  0
M  CHG  1  10   1
M  END
> <s_m_source_file>
AV-unprocessed.smi

> <i_m_source_file_index>
3158

> <i_lp_mmshare_version>
43012

> <i_f3d_flags>
0

> <s_epik_input>
W0NIM11bQ0gyXVtDQEhdKFtDSDNdKVtOSF1DKD1PKVtDQEhdKFtDSDNdKVtOSF1bQ0gyXVtDSDJdbjFbY0hdW2NIXVtjSF1uMQ==

> <s_epik_cmdline>
J2VwaWtfcHl0aG9uJywgJy1waCcsICc3LjAnLCAnLXRuJywgJzgnLCAnLW1hJywgJzIwMCcsICctbWV0YWxfYmluZGluZycsICctaW1hZScsICc8aW5maWxlLm1hZT4nLCAnLW9tYWUnLCAnPG91dGZpbGUubWFlPic=

> <r_lp_tautomer_probability>
1

> <r_epik_Ionization_Penalty>
0.20724

> <r_epik_Ionization_Penalty_Charging>
0.207237

> <r_epik_Ionization_Penalty_Neutral>
3.33806e-06

> <r_epik_State_Penalty>
0.197234

> <r_epik_Charging_Adjusted_Penalty>
0.404471

> <i_epik_Tot_Q>
1

> <i_epik_Tot_abs_Q>
1

> <r_epik_Metal_State_Penalty>
0.197524

> <b_epik_Metal_Only>
0

> <s_lp_Force_Field>
OPLS_2005

> <r_lp_Energy>
6.13047

> <b_lp_Chiralities_Consistent>
1

> <s_lp_Variant>
AV-unprocessed.smi:3158-2

> <Gold.Version>
5.8.1

> <Gold.Id.Protein>
6NUR|6NUR_protein|mol2

> <Gold.PLP.Fitness>
48.8298

> <Gold.PLP.PLP>
-33.4121

> <Gold.PLP.part.hbond>
-5.0000

> <Gold.PLP.part.metal>
0.0000

> <Gold.PLP.part.buried>
2.3407

> <Gold.PLP.part.nonpolar>
-30.8384

> <Gold.PLP.part.repulsive>
0.2598

> <Gold.PLP.ligand.clash>
0.0000

> <Gold.PLP.ligand.torsion>
1.1392

> <Gold.PLP.Chemscore.Hbond>
4.9280

> <Gold.PLP.Chemscore.CHOScore>
0.9395

> <Gold.PLP.Chemscore.Metal>
0.0000

> <Gold.Chemscore.Hbonds>
donor molecule, donor type, donor heavy atom, donor atom, acceptor molecule, acceptor atom, score
      L1  H     5    27       P1 10171  0.79
      L1  H    10    32       P1  7948  2.00
      L1  H    10    40       P1  7957  1.00
      P1  H  7989  7998       L1    17  1.00
      L1  C    14    37       P1  8028  0.91

> <Gold.PLP.Chemscore.Internal.Correction>
0.0934

> <Gold.Rescore>
     Score         DG    S(hbond)    S(metal)    S(lipo)     H(rot)  DE(clash)    DE(int)     intcor
     15.11     -19.72       3.52        0.00      69.56       2.21       2.28       2.33       ----

> <Gold.Chemscore.Fitness>
15.1060

> <Gold.Chemscore.DG>
-19.7183

> <Gold.Chemscore.ZeroCoef>
-5.4800

> <Gold.Chemscore.Hbond>
3.5228

> <Gold.Chemscore.Metal>
0.0000

> <Gold.Chemscore.Lipo>
69.5556

> <Gold.Chemscore.Internal_Hbond>
0.0000

> <Gold.Chemscore.DEClash>
2.2835

> <Gold.Chemscore.DEInternal>
2.3288

> <Gold.Chemscore.Rot>
2.2132

> <Gold.Chemscore.Internal.Correction>
   9.000000E+99

> <Gold.Chemscore.Hbonds>
donor molecule, donor type, donor heavy atom, donor atom, acceptor molecule, acceptor atom, score
      L1  H     5    27       P1 10171  0.75
      L1  H    10    32       P1  7948  0.99
      L1  H    10    40       P1  7957  0.96
      P1  H  7989  7998       L1    17  0.09

> <Gold.Chemscore.Hbond.Weighted>
-11.7661

> <Gold.Chemscore.Metal.Weighted>
-0.0000

> <Gold.Chemscore.Lipo.Weighted>
-8.1380

> <Gold.Chemscore.Internal_Hbond.Weighted>
0.0000

> <Gold.Chemscore.DEClash.Weighted>
2.2835

> <Gold.Chemscore.DEInternal.Weighted>
2.3288

> <Gold.Chemscore.Rot.Weighted>
5.6658

> <Gold.Chemscore.Internal.Correction.Weighted>
   9.000000E+99

> <Gold.Protein.RotatedTorsions>
[ 6907 6896 6895 6894 ] final  -66.25 input  -60.11 | X-H torsion
[ 7974 7965 7964 7962 ] final -135.38 input  175.53 | X-H torsion
[ 8008 7997 7996 7995 ] final  -87.84 input   59.86 | X-H torsion
[ 10167 10162 10161 10158 ] final  179.84 input  -65.29 | X-H torsion
[ 10718 10713 10712 10709 ] final   98.46 input   66.30 | X-H torsion
[ 10763 10752 10751 10750 ] final  101.86 input  -60.55 | X-H torsion
[ 11005 11000 10999 10996 ] final   10.41 input  -57.11 | X-H torsion

> <Gold.Protein.ActiveResidues>
 VAL166  LYS551  ARG553  GLY616  TRP617  ASP618  TYR619  PRO620  LYS621  CYS622 
 ASP623  PHE694  ASN695  SER759  ASP760  ASP761  ALA762  ILE779  LEU786  VAL792 
 PHE793  MET794  SER795  GLU796  ALA797  LYS798  CYS799  TRP800  GLU811  SER814 

> <Gold.Protein.RotatedAtoms>
  150.7476  134.6047  159.6054 H   0  0  0  0  0  0  0  0  0  0  0  0  # atno 6907 bound_to 6896
  152.3398  134.7147  160.0276 H   0  0  0  0  0  0  0  0  0  0  0  0  # atno 6908 bound_to 6896
  151.7603  133.3297  159.3452 H   0  0  0  0  0  0  0  0  0  0  0  0  # atno 6909 bound_to 6896
  144.9019  140.6782  143.5080 H   0  0  0  0  0  0  0  0  0  0  0  0  # atno 7974 bound_to 7965
  154.6679  140.0561  157.0133 H   0  0  0  0  0  0  0  0  0  0  0  0  # atno 8008 bound_to 7997
  155.1132  140.3240  155.4497 H   0  0  0  0  0  0  0  0  0  0  0  0  # atno 8009 bound_to 7997
  156.2645  140.2010  156.6256 H   0  0  0  0  0  0  0  0  0  0  0  0  # atno 8010 bound_to 7997
  139.5354  144.2512  152.0782 H   0  0  0  0  0  0  0  0  0  0  0  0  # atno 10167 bound_to 10162
  157.6895  131.0641  150.4800 H   0  0  0  0  0  0  0  0  0  0  0  0  # atno 10718 bound_to 10713
  153.3321  135.4030  155.1504 H   0  0  0  0  0  0  0  0  0  0  0  0  # atno 10763 bound_to 10752
  154.8625  135.3613  154.5457 H   0  0  0  0  0  0  0  0  0  0  0  0  # atno 10764 bound_to 10752
  153.5896  135.7074  153.5488 H   0  0  0  0  0  0  0  0  0  0  0  0  # atno 10765 bound_to 10752
  140.5148  134.0617  155.7828 H   0  0  0  0  0  0  0  0  0  0  0  0  # atno 11005 bound_to 11000
  145.3602  139.1684  143.4387 LP  0  0  0  0  0  0  0  0  0  0  0  0  # atno 17320 bound_to 7965
  146.3113  140.3663  142.8670 LP  0  0  0  0  0  0  0  0  0  0  0  0  # atno 17321 bound_to 7965
  140.1982  144.4684  150.6444 LP  0  0  0  0  0  0  0  0  0  0  0  0  # atno 17342 bound_to 10162
  140.6557  143.2237  151.5973 LP  0  0  0  0  0  0  0  0  0  0  0  0  # atno 17343 bound_to 10162
  156.5132  130.4144  149.6290 LP  0  0  0  0  0  0  0  0  0  0  0  0  # atno 17370 bound_to 10713
  156.3221  130.7286  151.2200 LP  0  0  0  0  0  0  0  0  0  0  0  0  # atno 17371 bound_to 10713
  141.1366  133.9211  157.2420 LP  0  0  0  0  0  0  0  0  0  0  0  0  # atno 17394 bound_to 11000
  139.9638  135.0147  156.9333 LP  0  0  0  0  0  0  0  0  0  0  0  0  # atno 17395 bound_to 11000

$$$$
