AV-unprocessed.smi:171|AV-procd|sdf|1414|dock9
  -GOLD-   2262019173D 1   1.00000     0.00000
 Structure written by MMmdl.
 56 59  0  0  0  0  0  0  0  0  1 V2000
  152.1738  143.9243  160.2247 C   0  0  0  0  0  0  0  0  0  0  0  0
  152.4514  142.4743  160.6547 C   0  0  0  0  0  0  0  0  0  0  0  0
  153.1755  142.4529  162.0104 C   0  0  0  0  0  0  0  0  0  0  0  0
  153.2505  141.6768  159.5893 C   0  0  0  0  0  0  0  0  0  0  0  0
  153.6573  140.2234  159.9715 C   0  0  2  0  0  0  0  0  0  0  0  0
  155.1043  140.1236  160.5064 C   0  0  0  0  0  0  0  0  0  0  0  0
  155.5046  140.9314  161.3425 O   0  0  0  0  0  0  0  0  0  0  0  0
  155.8965  139.1296  160.0692 N   0  0  0  0  0  0  0  0  0  0  0  0
  155.5238  138.1215  159.0809 C   0  0  0  0  0  0  0  0  0  0  0  0
  154.0022  137.9681  158.9485 C   0  0  0  0  0  0  0  0  0  0  0  0
  153.3776  139.2821  158.8740 N   0  0  0  0  0  0  0  0  0  0  0  0
  152.1014  139.2266  158.4321 C   0  0  0  0  0  0  0  0  0  0  0  0
  151.2684  138.2491  158.8746 N   0  0  0  0  0  0  0  0  0  0  0  0
  150.0006  138.2155  158.4522 C   0  0  0  0  0  0  0  0  0  0  0  0
  149.3773  139.0468  157.6134 N   0  0  0  0  0  0  0  0  0  0  0  0
  150.2173  140.0251  157.1674 C   0  0  0  0  0  0  0  0  0  0  0  0
  151.5873  140.1781  157.5143 C   0  0  0  0  0  0  0  0  0  0  0  0
  152.1284  141.2781  156.8623 N   0  0  0  0  0  0  0  0  0  0  0  0
  151.1280  141.7591  156.1764 C   0  0  0  0  0  0  0  0  0  0  0  0
  149.9389  141.0775  156.3129 N   0  0  0  0  0  0  0  0  0  0  0  0
  148.6686  141.4050  155.6853 C   0  0  0  0  0  0  0  0  0  0  0  0
  148.4427  140.6686  154.3382 C   0  0  1  0  0  0  0  0  0  0  0  0
  149.6254  140.7890  153.5654 O   0  0  0  0  0  0  0  0  0  0  0  0
  148.1458  139.1795  154.5013 C   0  0  0  0  0  0  0  0  0  0  0  0
  147.2704  138.8672  153.2977 C   0  0  0  0  0  0  0  0  0  0  0  0
  146.4545  140.0212  153.2091 O   0  0  0  0  0  0  0  0  0  0  0  0
  147.2560  141.1709  153.4674 C   0  0  1  0  0  0  0  0  0  0  0  0
  146.3490  142.2476  154.0832 C   0  0  0  0  0  0  0  0  0  0  0  0
  153.1004  144.4670  160.0351 H   0  0  0  0  0  0  0  0  0  0  0  0
  151.6278  144.4635  160.9992 H   0  0  0  0  0  0  0  0  0  0  0  0
  151.5693  143.9689  159.3202 H   0  0  0  0  0  0  0  0  0  0  0  0
  151.4864  141.9950  160.8160 H   0  0  0  0  0  0  0  0  0  0  0  0
  154.1597  142.9175  161.9421 H   0  0  0  0  0  0  0  0  0  0  0  0
  153.3120  141.4316  162.3682 H   0  0  0  0  0  0  0  0  0  0  0  0
  152.6053  142.9881  162.7701 H   0  0  0  0  0  0  0  0  0  0  0  0
  152.7031  141.6785  158.6458 H   0  0  0  0  0  0  0  0  0  0  0  0
  154.1661  142.2215  159.3556 H   0  0  0  0  0  0  0  0  0  0  0  0
  153.0389  139.9272  160.8205 H   0  0  0  0  0  0  0  0  0  0  0  0
  156.8333  139.0769  160.4427 H   0  0  0  0  0  0  0  0  0  0  0  0
  155.9473  138.4234  158.1223 H   0  0  0  0  0  0  0  0  0  0  0  0
  155.9815  137.1674  159.3431 H   0  0  0  0  0  0  0  0  0  0  0  0
  153.7663  137.3712  158.0657 H   0  0  0  0  0  0  0  0  0  0  0  0
  153.6040  137.4329  159.8125 H   0  0  0  0  0  0  0  0  0  0  0  0
  149.3976  137.4110  158.8469 H   0  0  0  0  0  0  0  0  0  0  0  0
  151.2287  142.6377  155.5560 H   0  0  0  0  0  0  0  0  0  0  0  0
  147.8783  141.1565  156.3943 H   0  0  0  0  0  0  0  0  0  0  0  0
  148.6281  142.4854  155.5415 H   0  0  0  0  0  0  0  0  0  0  0  0
  149.6365  140.0951  152.9240 H   0  0  0  0  0  0  0  0  0  0  0  0
  149.0376  138.5535  154.5596 H   0  0  0  0  0  0  0  0  0  0  0  0
  147.5626  139.0111  155.4075 H   0  0  0  0  0  0  0  0  0  0  0  0
  147.8671  138.7631  152.3902 H   0  0  0  0  0  0  0  0  0  0  0  0
  146.6764  137.9630  153.4303 H   0  0  0  0  0  0  0  0  0  0  0  0
  147.6198  141.5381  152.5058 H   0  0  0  0  0  0  0  0  0  0  0  0
  146.9032  143.1619  154.2964 H   0  0  0  0  0  0  0  0  0  0  0  0
  145.8880  141.9025  155.0089 H   0  0  0  0  0  0  0  0  0  0  0  0
  145.5436  142.5085  153.3964 H   0  0  0  0  0  0  0  0  0  0  0  0
  1  2  1  0  0  0  0
  1 29  1  0  0  0  0
  1 30  1  0  0  0  0
  1 31  1  0  0  0  0
  2  3  1  0  0  0  0
  2  4  1  0  0  0  0
  2 32  1  0  0  0  0
  3 33  1  0  0  0  0
  3 34  1  0  0  0  0
  3 35  1  0  0  0  0
  4  5  1  0  0  0  0
  4 36  1  0  0  0  0
  4 37  1  0  0  0  0
  5 11  1  0  0  0  0
  5  6  1  0  0  0  0
  5 38  1  0  0  0  0
  6  7  2  0  0  0  0
  6  8  1  0  0  0  0
  8  9  1  0  0  0  0
  8 39  1  0  0  0  0
  9 10  1  0  0  0  0
  9 40  1  0  0  0  0
  9 41  1  0  0  0  0
 10 11  1  0  0  0  0
 10 42  1  0  0  0  0
 10 43  1  0  0  0  0
 11 12  1  0  0  0  0
 12 17  1  0  0  0  0
 12 13  2  0  0  0  0
 13 14  1  0  0  0  0
 14 15  2  0  0  0  0
 14 44  1  0  0  0  0
 15 16  1  0  0  0  0
 16 20  1  0  0  0  0
 16 17  2  0  0  0  0
 17 18  1  0  0  0  0
 18 19  2  0  0  0  0
 19 20  1  0  0  0  0
 19 45  1  0  0  0  0
 20 21  1  0  0  0  0
 21 22  1  0  0  0  0
 21 46  1  0  0  0  0
 21 47  1  0  0  0  0
 22 27  1  0  0  0  0
 22 23  1  0  0  0  0
 22 24  1  0  0  0  0
 23 48  1  0  0  0  0
 24 25  1  0  0  0  0
 24 49  1  0  0  0  0
 24 50  1  0  0  0  0
 25 26  1  0  0  0  0
 25 51  1  0  0  0  0
 25 52  1  0  0  0  0
 26 27  1  0  0  0  0
 27 28  1  0  0  0  0
 27 53  1  0  0  0  0
 28 54  1  0  0  0  0
 28 55  1  0  0  0  0
 28 56  1  0  0  0  0
M  END
> <s_m_source_file>
AV-unprocessed.smi

> <i_m_source_file_index>
171

> <i_lp_mmshare_version>
43012

> <i_f3d_flags>
0

> <s_epik_input>
W0NIM11bQ0hdKFtDSDNdKVtDSDJdW0NAQEhdMUMoPU8pW05IXVtDSDJdW0NIMl1OMWMobltjSF1uMiljKGMyMyluW2NIXW4zW0NIMl1bQ0BAXTQoW09IXSlbQ0gyXVtDSDJdT1tDQEhdNFtDSDNd

> <s_epik_cmdline>
J2VwaWtfcHl0aG9uJywgJy1waCcsICc3LjAnLCAnLXRuJywgJzgnLCAnLW1hJywgJzIwMCcsICctbWV0YWxfYmluZGluZycsICctaW1hZScsICc8aW5maWxlLm1hZT4nLCAnLW9tYWUnLCAnPG91dGZpbGUubWFlPic=

> <r_lp_tautomer_probability>
1

> <r_epik_Ionization_Penalty>
0.000670584

> <r_epik_Ionization_Penalty_Charging>
0

> <r_epik_Ionization_Penalty_Neutral>
0.000670584

> <r_epik_State_Penalty>
0.000304767

> <r_epik_Charging_Adjusted_Penalty>
0.000304767

> <i_epik_Tot_Q>
0

> <i_epik_Tot_abs_Q>
0

> <r_epik_Metal_State_Penalty>
-0

> <b_epik_Metal_Only>
0

> <s_lp_Force_Field>
OPLS_2005

> <r_lp_Energy>
42.1077

> <b_lp_Chiralities_Consistent>
1

> <s_lp_Variant>
AV-unprocessed.smi:171-1

> <Gold.Version>
5.8.1

> <Gold.Id.Protein>
6NUR|6NUR_protein|mol2

> <Gold.PLP.Fitness>
46.6267

> <Gold.PLP.PLP>
-43.2057

> <Gold.PLP.part.hbond>
-4.4367

> <Gold.PLP.part.metal>
0.0000

> <Gold.PLP.part.buried>
-1.4709

> <Gold.PLP.part.nonpolar>
-36.4534

> <Gold.PLP.part.repulsive>
0.9640

> <Gold.PLP.ligand.clash>
0.0000

> <Gold.PLP.ligand.torsion>
1.6462

> <Gold.PLP.Chemscore.Hbond>
2.0883

> <Gold.PLP.Chemscore.CHOScore>
0.0000

> <Gold.PLP.Chemscore.Metal>
0.0000

> <Gold.Chemscore.Hbonds>
donor molecule, donor type, donor heavy atom, donor atom, acceptor molecule, acceptor atom, score
      L1  H    23    48       P1  7957  0.69
      P1  H  7989  7998       L1    23  0.17
      P1  H  7997  8008       L1    11  0.20
      P1  H  8011  8017       L1    23  0.96

> <Gold.PLP.Chemscore.Internal.Correction>
0.4484

> <Gold.Rescore>
     Score         DG    S(hbond)    S(metal)    S(lipo)     H(rot)  DE(clash)    DE(int)     intcor
      8.80     -13.51       1.02        0.00      96.69       2.61       3.03       1.69       ----

> <Gold.Chemscore.Fitness>
8.7958

> <Gold.Chemscore.DG>
-13.5149

> <Gold.Chemscore.ZeroCoef>
-5.4800

> <Gold.Chemscore.Hbond>
1.0172

> <Gold.Chemscore.Metal>
0.0000

> <Gold.Chemscore.Lipo>
96.6864

> <Gold.Chemscore.Internal_Hbond>
0.0000

> <Gold.Chemscore.DEClash>
3.0331

> <Gold.Chemscore.DEInternal>
1.6861

> <Gold.Chemscore.Rot>
2.6074

> <Gold.Chemscore.Internal.Correction>
   9.000000E+99

> <Gold.Chemscore.Hbonds>
donor molecule, donor type, donor heavy atom, donor atom, acceptor molecule, acceptor atom, score
      L1  H    23    48       P1  7957  0.68
      P1  H  7989  7998       L1    23  0.01
      P1  H  7997  8008       L1    11  0.01
      P1  H  8011  8017       L1    23  0.22

> <Gold.Chemscore.Hbond.Weighted>
-3.3974

> <Gold.Chemscore.Metal.Weighted>
-0.0000

> <Gold.Chemscore.Lipo.Weighted>
-11.3123

> <Gold.Chemscore.Internal_Hbond.Weighted>
0.0000

> <Gold.Chemscore.DEClash.Weighted>
3.0331

> <Gold.Chemscore.DEInternal.Weighted>
1.6861

> <Gold.Chemscore.Rot.Weighted>
6.6748

> <Gold.Chemscore.Internal.Correction.Weighted>
   9.000000E+99

> <Gold.Protein.RotatedTorsions>
[ 6907 6896 6895 6894 ] final  -11.29 input  -60.11 | X-H torsion
[ 7974 7965 7964 7962 ] final  -38.01 input  175.53 | X-H torsion
[ 8008 7997 7996 7995 ] final -101.22 input   59.86 | X-H torsion
[ 10167 10162 10161 10158 ] final   89.62 input  -65.29 | X-H torsion
[ 10718 10713 10712 10709 ] final  -80.67 input   66.30 | X-H torsion
[ 10763 10752 10751 10750 ] final   79.86 input  -60.55 | X-H torsion
[ 11005 11000 10999 10996 ] final   67.51 input  -57.11 | X-H torsion

> <Gold.Protein.ActiveResidues>
 VAL166  LYS551  ARG553  GLY616  TRP617  ASP618  TYR619  PRO620  LYS621  CYS622 
 ASP623  PHE694  ASN695  SER759  ASP760  ASP761  ALA762  ILE779  LEU786  VAL792 
 PHE793  MET794  SER795  GLU796  ALA797  LYS798  CYS799  TRP800  GLU811  SER814 

> <Gold.Protein.RotatedAtoms>
  151.3885  135.0952  159.9518 H   0  0  0  0  0  0  0  0  0  0  0  0  # atno 6907 bound_to 6896
  152.5087  133.9003  159.7448 H   0  0  0  0  0  0  0  0  0  0  0  0  # atno 6908 bound_to 6896
  150.9451  133.6556  159.2811 H   0  0  0  0  0  0  0  0  0  0  0  0  # atno 6909 bound_to 6896
  146.0524  140.6462  142.9035 H   0  0  0  0  0  0  0  0  0  0  0  0  # atno 7974 bound_to 7965
  154.8395  140.0436  157.1532 H   0  0  0  0  0  0  0  0  0  0  0  0  # atno 8008 bound_to 7997
  154.9062  140.3007  155.5270 H   0  0  0  0  0  0  0  0  0  0  0  0  # atno 8009 bound_to 7997
  156.2991  140.2366  156.4096 H   0  0  0  0  0  0  0  0  0  0  0  0  # atno 8010 bound_to 7997
  139.8554  144.6572  150.9120 H   0  0  0  0  0  0  0  0  0  0  0  0  # atno 10167 bound_to 10162
  156.0065  130.4581  150.3835 H   0  0  0  0  0  0  0  0  0  0  0  0  # atno 10718 bound_to 10713
  153.0987  135.4824  154.8826 H   0  0  0  0  0  0  0  0  0  0  0  0  # atno 10763 bound_to 10752
  154.7353  135.3069  154.8823 H   0  0  0  0  0  0  0  0  0  0  0  0  # atno 10764 bound_to 10752
  153.9447  135.6830  153.4797 H   0  0  0  0  0  0  0  0  0  0  0  0  # atno 10765 bound_to 10752
  139.9767  134.6811  156.0341 H   0  0  0  0  0  0  0  0  0  0  0  0  # atno 11005 bound_to 11000
  144.7130  140.4107  143.7066 LP  0  0  0  0  0  0  0  0  0  0  0  0  # atno 17320 bound_to 7965
  145.6701  139.1597  143.2759 LP  0  0  0  0  0  0  0  0  0  0  0  0  # atno 17321 bound_to 7965
  140.7782  143.3790  151.1510 LP  0  0  0  0  0  0  0  0  0  0  0  0  # atno 17342 bound_to 10162
  139.7425  143.8903  152.3054 LP  0  0  0  0  0  0  0  0  0  0  0  0  # atno 17343 bound_to 10162
  157.1914  131.0416  151.2698 LP  0  0  0  0  0  0  0  0  0  0  0  0  # atno 17370 bound_to 10713
  157.4058  130.7358  149.6801 LP  0  0  0  0  0  0  0  0  0  0  0  0  # atno 17371 bound_to 10713
  141.1443  133.6559  156.3821 LP  0  0  0  0  0  0  0  0  0  0  0  0  # atno 17394 bound_to 11000
  140.5181  134.6331  157.5308 LP  0  0  0  0  0  0  0  0  0  0  0  0  # atno 17395 bound_to 11000

$$$$
