#       Name:                AV-unprocessed.smi:3055
#       Creating user name   scv26
#       Creation time:       Fri Mar 27 17:03:34 2020


#       File generated by GOLD software.
#

@<TRIPOS>MOLECULE
AV-unprocessed.smi:3055
    50    52     1
SMALL
NO_CHARGES


@<TRIPOS>ATOM
      1 ****         1.1820   1.5679   1.0340 O.2            1 S1                 0.0000
      2 ****         0.9431   0.7404   0.1547 C.2            1 S1                 0.0000
      3 ****         1.6662  -0.3830   0.0222 N.am           1 S1                 0.0000
      4 ****         2.7941  -0.7485   0.8701 C.3            1 S1                 0.0000
      5 ****         3.5136  -1.9956   0.3327 C.3            1 S1                 0.0000
      6 ****         4.1658  -1.7530  -0.9581 N.pl3          1 S1                 0.0000
      7 ****         5.2846  -0.9949  -1.1920 C.2            1 S1                 0.0000
      8 ****         5.5272  -1.0613  -2.5398 C.2            1 S1                 0.0000
      9 ****         4.5502  -1.8604  -3.0707 N.pl3          1 S1                 1.0000
     10 ****         3.7247  -2.2821  -2.1071 C.2            1 S1                 0.0000
     11 ****        -0.0764   0.8705  -0.7320 N.am           1 S1                 0.0000
     12 ****        -0.4002  -0.0539  -1.8328 C.3            1 S1                 0.0000
     13 ****        -1.7661  -0.7034  -1.5552 C.3            1 S1                 0.0000
     14 ****        -2.8534   0.3691  -1.3517 C.3            1 S1                 0.0000
     15 ****        -2.4504   1.4270  -0.2906 C.3            1 S1                 0.0000
     16 ****        -2.4988   0.8798   1.0979 N.4            1 S1                 1.0000
     17 ****        -2.1664   1.8441   2.1686 C.3            1 S1                 0.0000
     18 ****        -2.7025   1.2102   3.4461 C.3            1 S1                 0.0000
     19 ****        -3.9906   0.5341   2.9888 C.3            1 S1                 0.0000
     20 ****        -3.7847   0.2522   1.4934 C.3            1 S1                 0.0000
     21 ****        -1.0468   1.9747  -0.6595 C.3            1 S1                 0.0000
     22 ****         1.4115  -1.0280  -0.7113 H              1 S1                 0.0000
     23 ****         3.4926   0.0866   0.9465 H              1 S1                 0.0000
     24 ****         2.4247  -0.9452   1.8776 H              1 S1                 0.0000
     25 ****         4.2880  -2.3120   1.0324 H              1 S1                 0.0000
     26 ****         2.8199  -2.8315   0.2281 H              1 S1                 0.0000
     27 ****         5.8101  -0.4766  -0.4027 H              1 S1                 0.0000
     28 ****         6.3026  -0.6134  -3.1443 H              1 S1                 0.0000
     29 ****         2.8707  -2.9233  -2.2348 H              1 S1                 0.0000
     30 ****        -0.4408   0.5089  -2.7668 H              1 S1                 0.0000
     31 ****         0.3463  -0.8300  -2.0008 H              1 S1                 0.0000
     32 ****        -2.0423  -1.3582  -2.3821 H              1 S1                 0.0000
     33 ****        -1.6993  -1.3359  -0.6691 H              1 S1                 0.0000
     34 ****        -3.0080   0.8805  -2.3028 H              1 S1                 0.0000
     35 ****        -3.8092  -0.1014  -1.1240 H              1 S1                 0.0000
     36 ****        -3.1673   2.2481  -0.3405 H              1 S1                 0.0000
     37 ****        -1.0982   2.0426   2.2368 H              1 S1                 0.0000
     38 ****        -2.6760   2.7912   1.9840 H              1 S1                 0.0000
     39 ****        -1.9992   0.4594   3.8088 H              1 S1                 0.0000
     40 ****        -2.8623   1.9352   4.2450 H              1 S1                 0.0000
     41 ****        -4.2025  -0.3715   3.5584 H              1 S1                 0.0000
     42 ****        -4.8340   1.2131   3.1231 H              1 S1                 0.0000
     43 ****        -4.6192   0.6733   0.9306 H              1 S1                 0.0000
     44 ****        -3.7491  -0.8184   1.2887 H              1 S1                 0.0000
     45 ****        -0.7420   2.7644   0.0277 H              1 S1                 0.0000
     46 ****        -1.0918   2.4628  -1.6343 H              1 S1                 0.0000
     47 ****        -1.8037   0.1495   1.1556 H              1 S1                 0.0000
     48 ****         4.4656  -2.1029  -4.0501 H              1 S1                 0.0000
     49 ****         1.9331   1.4129   1.6757 LP             1 S1                 0.0000
     50 ****         0.6249   2.3952   1.1067 LP             1 S1                 0.0000
@<TRIPOS>BOND
    1    1    2 2     
    2    2    3 am    
    3    2   11 am    
    4    3    4 1     
    5    3   22 1     
    6    4    5 1     
    7    4   23 1     
    8    4   24 1     
    9    5    6 1     
   10    5   25 1     
   11    5   26 1     
   12    6   10 1     
   13    6    7 1     
   14    7    8 2     
   15    7   27 1     
   16    8    9 1     
   17    8   28 1     
   18    9   10 2     
   19    9   48 1     
   20   10   29 1     
   21   11   21 1     
   22   11   12 1     
   23   12   13 1     
   24   12   30 1     
   25   12   31 1     
   26   13   14 1     
   27   13   32 1     
   28   13   33 1     
   29   14   15 1     
   30   14   34 1     
   31   14   35 1     
   32   15   16 1     
   33   15   21 1     
   34   15   36 1     
   35   16   20 1     
   36   16   17 1     
   37   16   47 1     
   38   17   18 1     
   39   17   37 1     
   40   17   38 1     
   41   18   19 1     
   42   18   39 1     
   43   18   40 1     
   44   19   20 1     
   45   19   41 1     
   46   19   42 1     
   47   20   43 1     
   48   20   44 1     
   49   21   45 1     
   50   21   46 1     
   51    1   49 1     
   52    1   50 1     
@<TRIPOS>SUBSTRUCTURE
      1 S1             1
@<TRIPOS>SET
LONE_PAIRS      STATIC     ATOMS    <user>   **** ""
2 49 50
DONOR_HYDROGENS      STATIC     ATOMS    <user>   **** ""
3 22 48 47
ATOM$BLUE        STATIC     ATOMS    COLORGROUP SYSTEM
2 49 50
ATOM$RED        STATIC     ATOMS    COLORGROUP SYSTEM
3 22 48 47
