AV-unprocessed.smi:3185|AV-procd|sdf|12167|dock3
  -GOLD-   2272018 03D 1   1.00000     0.00000
 Structure written by MMmdl.
 38 39  0  0  0  0  0  0  0  0  2 V2000
  149.3170  133.7291  157.9873 N   0  0  0  0  0  0  0  0  0  0  0  0
  149.7168  134.0808  156.9606 C   0  0  0  0  0  0  0  0  0  0  0  0
  150.2264  134.5276  155.6556 C   0  0  0  0  0  0  0  0  0  0  0  0
  149.1041  134.9164  154.6866 C   0  0  0  0  0  0  0  0  0  0  0  0
  148.3500  133.6940  154.1509 C   0  0  0  0  0  0  0  0  0  0  0  0
  147.5855  134.0387  152.9344 N   0  3  0  0  0  0  0  0  0  0  0  0
  146.3450  134.8191  153.1545 C   0  0  2  0  0  0  0  0  0  0  0  0
  145.5076  134.1664  154.2774 C   0  0  0  0  0  0  0  0  0  0  0  0
  144.1826  134.9062  154.5139 C   0  0  0  0  0  0  0  0  0  0  0  0
  143.3694  135.0247  153.2174 C   0  0  0  0  0  0  0  0  0  0  0  0
  144.1837  135.7364  152.1256 C   0  0  0  0  0  0  0  0  0  0  0  0
  145.5370  135.0502  151.8403 C   0  0  2  0  0  0  0  0  0  0  0  0
  145.3780  133.8638  150.9972 N   0  0  0  0  0  0  0  0  0  0  0  0
  144.2042  133.3762  150.4578 C   0  0  0  0  0  0  0  0  0  0  0  0
  144.5071  132.2430  149.7595 C   0  0  0  0  0  0  0  0  0  0  0  0
  145.9090  132.0986  149.9451 C   0  0  0  0  0  0  0  0  0  0  0  0
  146.4236  133.0639  150.6883 N   0  0  0  0  0  0  0  0  0  0  0  0
  150.8928  135.3731  155.8285 H   0  0  0  0  0  0  0  0  0  0  0  0
  150.8282  133.7194  155.2392 H   0  0  0  0  0  0  0  0  0  0  0  0
  148.4062  135.5828  155.1951 H   0  0  0  0  0  0  0  0  0  0  0  0
  149.5246  135.4828  153.8546 H   0  0  0  0  0  0  0  0  0  0  0  0
  149.0533  132.8921  153.9230 H   0  0  0  0  0  0  0  0  0  0  0  0
  147.6736  133.3237  154.9212 H   0  0  0  0  0  0  0  0  0  0  0  0
  148.1823  134.5640  152.3107 H   0  0  0  0  0  0  0  0  0  0  0  0
  146.6475  135.7992  153.5276 H   0  0  0  0  0  0  0  0  0  0  0  0
  145.3004  133.1210  154.0516 H   0  0  0  0  0  0  0  0  0  0  0  0
  146.0825  134.1575  155.2040 H   0  0  0  0  0  0  0  0  0  0  0  0
  143.5976  134.3854  155.2729 H   0  0  0  0  0  0  0  0  0  0  0  0
  144.3852  135.9019  154.9104 H   0  0  0  0  0  0  0  0  0  0  0  0
  143.0645  134.0350  152.8768 H   0  0  0  0  0  0  0  0  0  0  0  0
  142.4495  135.5778  153.4097 H   0  0  0  0  0  0  0  0  0  0  0  0
  143.5961  135.8091  151.2096 H   0  0  0  0  0  0  0  0  0  0  0  0
  144.3685  136.7630  152.4443 H   0  0  0  0  0  0  0  0  0  0  0  0
  146.1060  135.7587  151.2371 H   0  0  0  0  0  0  0  0  0  0  0  0
  143.2575  133.8734  150.6114 H   0  0  0  0  0  0  0  0  0  0  0  0
  143.8292  131.6093  149.2072 H   0  0  0  0  0  0  0  0  0  0  0  0
  146.5627  131.3265  149.5673 H   0  0  0  0  0  0  0  0  0  0  0  0
  147.3288  133.1751  152.4779 H   0  0  0  0  0  0  0  0  0  0  0  0
  1  2  3  0  0  0  0
  2  3  1  0  0  0  0
  3  4  1  0  0  0  0
  3 18  1  0  0  0  0
  3 19  1  0  0  0  0
  4  5  1  0  0  0  0
  4 20  1  0  0  0  0
  4 21  1  0  0  0  0
  5  6  1  0  0  0  0
  5 22  1  0  0  0  0
  5 23  1  0  0  0  0
  6  7  1  0  0  0  0
  6 24  1  0  0  0  0
  6 38  1  0  0  0  0
  7 12  1  0  0  0  0
  7  8  1  0  0  0  0
  7 25  1  0  0  0  0
  8  9  1  0  0  0  0
  8 26  1  0  0  0  0
  8 27  1  0  0  0  0
  9 10  1  0  0  0  0
  9 28  1  0  0  0  0
  9 29  1  0  0  0  0
 10 11  1  0  0  0  0
 10 30  1  0  0  0  0
 10 31  1  0  0  0  0
 11 12  1  0  0  0  0
 11 32  1  0  0  0  0
 11 33  1  0  0  0  0
 12 13  1  0  0  0  0
 12 34  1  0  0  0  0
 13 17  1  0  0  0  0
 13 14  1  0  0  0  0
 14 15  2  0  0  0  0
 14 35  1  0  0  0  0
 15 16  1  0  0  0  0
 15 36  1  0  0  0  0
 16 17  2  0  0  0  0
 16 37  1  0  0  0  0
M  CHG  1   6   1
M  END
> <s_m_source_file>
AV-unprocessed.smi

> <i_m_source_file_index>
3185

> <i_lp_mmshare_version>
43012

> <i_f3d_flags>
0

> <s_epik_input>
TiNDW0NIMl1bQ0gyXVtDSDJdW05IXVtDQEBIXTFbQ0gyXVtDSDJdW0NIMl1bQ0gyXVtDQEhdMW4yW2NIXVtjSF1bY0hdbjI=

> <s_epik_cmdline>
J2VwaWtfcHl0aG9uJywgJy1waCcsICc3LjAnLCAnLXRuJywgJzgnLCAnLW1hJywgJzIwMCcsICctbWV0YWxfYmluZGluZycsICctaW1hZScsICc8aW5maWxlLm1hZT4nLCAnLW9tYWUnLCAnPG91dGZpbGUubWFlPic=

> <r_lp_tautomer_probability>
1

> <r_epik_Ionization_Penalty>
0.0143465

> <r_epik_Ionization_Penalty_Charging>
0.0143338

> <r_epik_Ionization_Penalty_Neutral>
1.27047e-05

> <r_epik_State_Penalty>
0.0112058

> <r_epik_Charging_Adjusted_Penalty>
0.0255397

> <i_epik_Tot_Q>
1

> <i_epik_Tot_abs_Q>
1

> <r_epik_Metal_State_Penalty>
0.0112253

> <b_epik_Metal_Only>
0

> <s_lp_Force_Field>
OPLS_2005

> <r_lp_Energy>
17.7884

> <b_lp_Chiralities_Consistent>
1

> <s_lp_Variant>
AV-unprocessed.smi:3185-3

> <Gold.Version>
5.8.1

> <Gold.Id.Protein>
6NUR|6NUR_protein|mol2

> <Gold.PLP.Fitness>
41.3834

> <Gold.PLP.PLP>
-26.9980

> <Gold.PLP.part.hbond>
-2.0000

> <Gold.PLP.part.metal>
0.0000

> <Gold.PLP.part.buried>
-3.8758

> <Gold.PLP.part.nonpolar>
-21.8055

> <Gold.PLP.part.repulsive>
0.2076

> <Gold.PLP.ligand.clash>
0.0000

> <Gold.PLP.ligand.torsion>
0.3343

> <Gold.PLP.Chemscore.Hbond>
3.0000

> <Gold.PLP.Chemscore.CHOScore>
1.9761

> <Gold.PLP.Chemscore.Metal>
0.0000

> <Gold.Chemscore.Hbonds>
donor molecule, donor type, donor heavy atom, donor atom, acceptor molecule, acceptor atom, score
      L1  H     6    24       P1  7948  1.88
      P1  H  6896  6909       L1     1  1.00
      L1  C    14    35       P1 10186  0.97
      L1  C    16    37       P1 10747  0.95

> <Gold.PLP.Chemscore.Internal.Correction>
0.1258

> <Gold.Rescore>
     Score         DG    S(hbond)    S(metal)    S(lipo)     H(rot)  DE(clash)    DE(int)     intcor
     12.36     -14.28       1.87        0.00      62.82       1.88       0.04       1.87       ----

> <Gold.Chemscore.Fitness>
12.3632

> <Gold.Chemscore.DG>
-14.2755

> <Gold.Chemscore.ZeroCoef>
-5.4800

> <Gold.Chemscore.Hbond>
1.8715

> <Gold.Chemscore.Metal>
0.0000

> <Gold.Chemscore.Lipo>
62.8175

> <Gold.Chemscore.Internal_Hbond>
0.0000

> <Gold.Chemscore.DEClash>
0.0379

> <Gold.Chemscore.DEInternal>
1.8745

> <Gold.Chemscore.Rot>
1.8769

> <Gold.Chemscore.Internal.Correction>
   9.000000E+99

> <Gold.Chemscore.Hbonds>
donor molecule, donor type, donor heavy atom, donor atom, acceptor molecule, acceptor atom, score
      L1  H     6    24       P1  7948  0.20
      P1  H  6896  6909       L1     1  0.63

> <Gold.Chemscore.Hbond.Weighted>
-6.2508

> <Gold.Chemscore.Metal.Weighted>
-0.0000

> <Gold.Chemscore.Lipo.Weighted>
-7.3496

> <Gold.Chemscore.Internal_Hbond.Weighted>
0.0000

> <Gold.Chemscore.DEClash.Weighted>
0.0379

> <Gold.Chemscore.DEInternal.Weighted>
1.8745

> <Gold.Chemscore.Rot.Weighted>
4.8049

> <Gold.Chemscore.Internal.Correction.Weighted>
   9.000000E+99

> <Gold.Protein.RotatedTorsions>
[ 6907 6896 6895 6894 ] final   -5.63 input  -60.11 | X-H torsion
[ 7974 7965 7964 7962 ] final  -14.51 input  175.53 | X-H torsion
[ 8008 7997 7996 7995 ] final  112.40 input   59.86 | X-H torsion
[ 10167 10162 10161 10158 ] final -152.26 input  -65.29 | X-H torsion
[ 10718 10713 10712 10709 ] final  -76.84 input   66.30 | X-H torsion
[ 10763 10752 10751 10750 ] final  -78.55 input  -60.55 | X-H torsion
[ 11005 11000 10999 10996 ] final  127.44 input  -57.11 | X-H torsion

> <Gold.Protein.ActiveResidues>
 VAL166  LYS551  ARG553  GLY616  TRP617  ASP618  TYR619  PRO620  LYS621  CYS622 
 ASP623  PHE694  ASN695  SER759  ASP760  ASP761  ALA762  ILE779  LEU786  VAL792 
 PHE793  MET794  SER795  GLU796  ALA797  LYS798  CYS799  TRP800  GLU811  SER814 

> <Gold.Protein.RotatedAtoms>
  151.4785  135.1050  159.9770 H   0  0  0  0  0  0  0  0  0  0  0  0  # atno 6907 bound_to 6896
  152.4788  133.8200  159.7059 H   0  0  0  0  0  0  0  0  0  0  0  0  # atno 6908 bound_to 6896
  150.8845  133.7265  159.2949 H   0  0  0  0  0  0  0  0  0  0  0  0  # atno 6909 bound_to 6896
  146.2071  140.3359  142.8403 H   0  0  0  0  0  0  0  0  0  0  0  0  # atno 7974 bound_to 7965
  156.2190  140.3000  155.9906 H   0  0  0  0  0  0  0  0  0  0  0  0  # atno 8008 bound_to 7997
  155.2532  140.0427  157.3006 H   0  0  0  0  0  0  0  0  0  0  0  0  # atno 8009 bound_to 7997
  154.5811  140.2375  155.8061 H   0  0  0  0  0  0  0  0  0  0  0  0  # atno 8010 bound_to 7997
  139.7197  143.8977  152.2499 H   0  0  0  0  0  0  0  0  0  0  0  0  # atno 10167 bound_to 10162
  156.0163  130.4476  150.3254 H   0  0  0  0  0  0  0  0  0  0  0  0  # atno 10718 bound_to 10713
  154.5273  135.5726  153.6730 H   0  0  0  0  0  0  0  0  0  0  0  0  # atno 10763 bound_to 10752
  152.9931  135.6196  154.2675 H   0  0  0  0  0  0  0  0  0  0  0  0  # atno 10764 bound_to 10752
  154.2600  135.2856  155.2761 H   0  0  0  0  0  0  0  0  0  0  0  0  # atno 10765 bound_to 10752
  139.9508  134.9622  156.8855 H   0  0  0  0  0  0  0  0  0  0  0  0  # atno 11005 bound_to 11000
  144.8819  140.7412  143.5981 LP  0  0  0  0  0  0  0  0  0  0  0  0  # atno 17320 bound_to 7965
  145.3280  139.1768  143.4552 LP  0  0  0  0  0  0  0  0  0  0  0  0  # atno 17321 bound_to 7965
  139.8869  144.6987  150.8814 LP  0  0  0  0  0  0  0  0  0  0  0  0  # atno 17342 bound_to 10162
  140.7751  143.3616  151.1816 LP  0  0  0  0  0  0  0  0  0  0  0  0  # atno 17343 bound_to 10162
  157.1354  131.0282  151.2951 LP  0  0  0  0  0  0  0  0  0  0  0  0  # atno 17370 bound_to 10713
  157.4516  130.7602  149.7156 LP  0  0  0  0  0  0  0  0  0  0  0  0  # atno 17371 bound_to 10713
  140.5724  134.0430  155.7435 LP  0  0  0  0  0  0  0  0  0  0  0  0  # atno 17394 bound_to 11000
  141.1170  133.9524  157.2803 LP  0  0  0  0  0  0  0  0  0  0  0  0  # atno 17395 bound_to 11000

$$$$
