AV-unprocessed.smi:2855|AV-procd|sdf|10984|dock5
  -GOLD-   2272015433D 1   1.00000     0.00000
 Structure written by MMmdl.
 47 48  0  0  0  0  0  0  0  0  1 V2000
  152.9692  140.3945  158.6648 C   0  0  0  0  0  0  0  0  0  0  0  0
  151.7539  139.9917  157.8175 C   0  0  1  0  0  0  0  0  0  0  0  0
  150.7769  141.1638  157.6394 C   0  0  0  0  0  0  0  0  0  0  0  0
  149.5611  140.7673  156.7874 C   0  0  0  0  0  0  0  0  0  0  0  0
  149.9614  140.2198  155.3935 C   0  0  2  0  0  0  0  0  0  0  0  0
  148.7151  139.8461  154.5306 C   0  0  0  0  0  0  0  0  0  0  0  0
  148.0356  141.0735  153.8932 C   0  0  0  0  0  0  0  0  0  0  0  0
  147.6613  139.0534  155.3273 C   0  0  0  0  0  0  0  0  0  0  0  0
  150.9817  139.0566  155.5576 C   0  0  2  0  0  0  0  0  0  0  0  0
  150.3134  137.8653  156.0749 N   0  0  0  0  0  0  0  0  0  0  0  0
  150.4242  136.6142  155.6005 C   0  0  0  0  0  0  0  0  0  0  0  0
  151.1870  136.3091  154.6847 O   0  0  0  0  0  0  0  0  0  0  0  0
  149.5272  135.5354  156.2313 C   0  0  0  0  0  0  0  0  0  0  0  0
  149.6246  134.2176  155.5798 N   0  0  0  0  0  0  0  0  0  0  0  0
  149.3375  134.0794  154.2291 C   0  0  0  0  0  0  0  0  0  0  0  0
  149.4470  132.9071  153.5602 C   0  0  0  0  0  0  0  0  0  0  0  0
  149.8853  131.6994  154.2518 C   0  0  0  0  0  0  0  0  0  0  0  0
  150.0187  130.5935  153.7329 O   0  0  0  0  0  0  0  0  0  0  0  0
  150.1620  131.8786  155.6097 N   0  0  0  0  0  0  0  0  0  0  0  0
  150.0517  133.0832  156.3051 C   0  0  0  0  0  0  0  0  0  0  0  0
  150.3350  133.1338  157.5012 O   0  0  0  0  0  0  0  0  0  0  0  0
  152.1831  139.4576  156.4402 C   0  0  0  0  0  0  0  0  0  0  0  0
  150.4700  131.0703  156.1305 H   0  0  0  0  0  0  0  0  0  0  0  0
  153.5400  141.1907  158.1860 H   0  0  0  0  0  0  0  0  0  0  0  0
  153.6399  139.5480  158.8148 H   0  0  0  0  0  0  0  0  0  0  0  0
  152.6619  140.7493  159.6489 H   0  0  0  0  0  0  0  0  0  0  0  0
  151.2344  139.1936  158.3500 H   0  0  0  0  0  0  0  0  0  0  0  0
  150.4377  141.5157  158.6143 H   0  0  0  0  0  0  0  0  0  0  0  0
  151.2893  142.0051  157.1706 H   0  0  0  0  0  0  0  0  0  0  0  0
  148.9690  140.0232  157.3220 H   0  0  0  0  0  0  0  0  0  0  0  0
  148.9273  141.6469  156.6890 H   0  0  0  0  0  0  0  0  0  0  0  0
  150.4843  141.0232  154.8719 H   0  0  0  0  0  0  0  0  0  0  0  0
  149.0417  139.2024  153.7130 H   0  0  0  0  0  0  0  0  0  0  0  0
  147.7550  141.8088  154.6477 H   0  0  0  0  0  0  0  0  0  0  0  0
  147.1305  140.7873  153.3568 H   0  0  0  0  0  0  0  0  0  0  0  0
  148.6808  141.5646  153.1652 H   0  0  0  0  0  0  0  0  0  0  0  0
  147.3503  139.5941  156.2216 H   0  0  0  0  0  0  0  0  0  0  0  0
  148.0295  138.0752  155.6341 H   0  0  0  0  0  0  0  0  0  0  0  0
  146.7700  138.8712  154.7260 H   0  0  0  0  0  0  0  0  0  0  0  0
  151.3856  138.8130  154.5742 H   0  0  0  0  0  0  0  0  0  0  0  0
  149.6619  138.0146  156.8314 H   0  0  0  0  0  0  0  0  0  0  0  0
  149.7670  135.4510  157.2931 H   0  0  0  0  0  0  0  0  0  0  0  0
  148.4977  135.8946  156.1987 H   0  0  0  0  0  0  0  0  0  0  0  0
  149.0161  134.9495  153.6744 H   0  0  0  0  0  0  0  0  0  0  0  0
  149.2118  132.8633  152.5067 H   0  0  0  0  0  0  0  0  0  0  0  0
  152.7587  140.2258  155.9217 H   0  0  0  0  0  0  0  0  0  0  0  0
  152.8599  138.6111  156.5625 H   0  0  0  0  0  0  0  0  0  0  0  0
  1  2  1  0  0  0  0
  1 24  1  0  0  0  0
  1 25  1  0  0  0  0
  1 26  1  0  0  0  0
  2 22  1  0  0  0  0
  2  3  1  0  0  0  0
  2 27  1  0  0  0  0
  3  4  1  0  0  0  0
  3 28  1  0  0  0  0
  3 29  1  0  0  0  0
  4  5  1  0  0  0  0
  4 30  1  0  0  0  0
  4 31  1  0  0  0  0
  5  6  1  0  0  0  0
  5  9  1  0  0  0  0
  5 32  1  0  0  0  0
  6  7  1  0  0  0  0
  6  8  1  0  0  0  0
  6 33  1  0  0  0  0
  7 34  1  0  0  0  0
  7 35  1  0  0  0  0
  7 36  1  0  0  0  0
  8 37  1  0  0  0  0
  8 38  1  0  0  0  0
  8 39  1  0  0  0  0
  9 10  1  0  0  0  0
  9 22  1  0  0  0  0
  9 40  1  0  0  0  0
 10 11  1  0  0  0  0
 10 41  1  0  0  0  0
 11 12  2  0  0  0  0
 11 13  1  0  0  0  0
 13 14  1  0  0  0  0
 13 42  1  0  0  0  0
 13 43  1  0  0  0  0
 14 20  1  0  0  0  0
 14 15  1  0  0  0  0
 15 16  2  0  0  0  0
 15 44  1  0  0  0  0
 16 17  1  0  0  0  0
 16 45  1  0  0  0  0
 17 18  2  0  0  0  0
 17 19  1  0  0  0  0
 19 23  1  0  0  0  0
 19 20  1  0  0  0  0
 20 21  2  0  0  0  0
 22 46  1  0  0  0  0
 22 47  1  0  0  0  0
M  END
> <s_m_source_file>
AV-unprocessed.smi

> <i_m_source_file_index>
2855

> <i_lp_mmshare_version>
43012

> <i_f3d_flags>
0

> <s_epik_input>
W0NIM11bQ0BASF0xW0NIMl1bQ0gyXVtDQEBIXShbQ0hdKFtDSDNdKVtDSDNdKVtDQEhdKFtDSDJdMSlbTkhdQyg9TylbQ0gyXW4yW2NIXVtjSF1jKD1PKVtuSF1jMj1P

> <s_epik_cmdline>
J2VwaWtfcHl0aG9uJywgJy1waCcsICc3LjAnLCAnLXRuJywgJzgnLCAnLW1hJywgJzIwMCcsICctbWV0YWxfYmluZGluZycsICctaW1hZScsICc8aW5maWxlLm1hZT4nLCAnLW9tYWUnLCAnPG91dGZpbGUubWFlPic=

> <r_lp_tautomer_probability>
0.999537

> <r_epik_Ionization_Penalty>
0.00306256

> <r_epik_Ionization_Penalty_Charging>
0.00306254

> <r_epik_Ionization_Penalty_Neutral>
2.0223e-08

> <r_epik_State_Penalty>
0.0021533

> <r_epik_Charging_Adjusted_Penalty>
0.00521583

> <i_epik_Tot_Q>
0

> <i_epik_Tot_abs_Q>
0

> <r_epik_Metal_State_Penalty>
0.362116

> <b_epik_Metal_Only>
0

> <s_lp_Force_Field>
OPLS_2005

> <r_lp_Energy>
12.2647

> <b_lp_Chiralities_Consistent>
1

> <s_lp_Variant>
AV-unprocessed.smi:2855-8

> <Gold.Version>
5.8.1

> <Gold.Id.Protein>
6NUR|6NUR_protein|mol2

> <Gold.PLP.Fitness>
39.5200

> <Gold.PLP.PLP>
-31.6059

> <Gold.PLP.part.hbond>
-2.0000

> <Gold.PLP.part.metal>
0.0000

> <Gold.PLP.part.buried>
-1.8121

> <Gold.PLP.part.nonpolar>
-27.1692

> <Gold.PLP.part.repulsive>
0.2585

> <Gold.PLP.ligand.clash>
0.0000

> <Gold.PLP.ligand.torsion>
0.5624

> <Gold.PLP.Chemscore.Hbond>
2.0000

> <Gold.PLP.Chemscore.CHOScore>
1.0000

> <Gold.PLP.Chemscore.Metal>
0.0000

> <Gold.Chemscore.Hbonds>
donor molecule, donor type, donor heavy atom, donor atom, acceptor molecule, acceptor atom, score
      P1  H  6896  6908       L1    21  1.00
      P1  H 10752 10765       L1    12  1.00
      L1  C    15    44       P1  7948  1.00

> <Gold.PLP.Chemscore.Internal.Correction>
0.0390

> <Gold.Rescore>
     Score         DG    S(hbond)    S(metal)    S(lipo)     H(rot)  DE(clash)    DE(int)     intcor
     13.50     -15.68       2.00        0.00      70.77       1.85       0.11       2.07       ----

> <Gold.Chemscore.Fitness>
13.5024

> <Gold.Chemscore.DG>
-15.6842

> <Gold.Chemscore.ZeroCoef>
-5.4800

> <Gold.Chemscore.Hbond>
1.9969

> <Gold.Chemscore.Metal>
0.0000

> <Gold.Chemscore.Lipo>
70.7725

> <Gold.Chemscore.Internal_Hbond>
0.0000

> <Gold.Chemscore.DEClash>
0.1086

> <Gold.Chemscore.DEInternal>
2.0732

> <Gold.Chemscore.Rot>
1.8539

> <Gold.Chemscore.Internal.Correction>
   9.000000E+99

> <Gold.Chemscore.Hbonds>
donor molecule, donor type, donor heavy atom, donor atom, acceptor molecule, acceptor atom, score
      P1  H  6896  6908       L1    21  0.99
      P1  H 10752 10765       L1    12  1.00

> <Gold.Chemscore.Hbond.Weighted>
-6.6698

> <Gold.Chemscore.Metal.Weighted>
-0.0000

> <Gold.Chemscore.Lipo.Weighted>
-8.2804

> <Gold.Chemscore.Internal_Hbond.Weighted>
0.0000

> <Gold.Chemscore.DEClash.Weighted>
0.1086

> <Gold.Chemscore.DEInternal.Weighted>
2.0732

> <Gold.Chemscore.Rot.Weighted>
4.7460

> <Gold.Chemscore.Internal.Correction.Weighted>
   9.000000E+99

> <Gold.Protein.RotatedTorsions>
[ 6907 6896 6895 6894 ] final   98.54 input  -60.11 | X-H torsion
[ 7974 7965 7964 7962 ] final   14.48 input  175.53 | X-H torsion
[ 8008 7997 7996 7995 ] final  101.02 input   59.86 | X-H torsion
[ 10167 10162 10161 10158 ] final  -76.22 input  -65.29 | X-H torsion
[ 10718 10713 10712 10709 ] final   41.67 input   66.30 | X-H torsion
[ 10763 10752 10751 10750 ] final  176.17 input  -60.55 | X-H torsion
[ 11005 11000 10999 10996 ] final  -60.16 input  -57.11 | X-H torsion

> <Gold.Protein.ActiveResidues>
 VAL166  LYS551  ARG553  GLY616  TRP617  ASP618  TYR619  PRO620  LYS621  CYS622 
 ASP623  PHE694  ASN695  SER759  ASP760  ASP761  ALA762  ILE779  LEU786  VAL792 
 PHE793  MET794  SER795  GLU796  ALA797  LYS798  CYS799  TRP800  GLU811  SER814 

> <Gold.Protein.RotatedAtoms>
  152.5407  134.0565  159.8133 H   0  0  0  0  0  0  0  0  0  0  0  0  # atno 6907 bound_to 6896
  151.0699  133.5467  159.2635 H   0  0  0  0  0  0  0  0  0  0  0  0  # atno 6908 bound_to 6896
  151.2334  135.0571  159.9050 H   0  0  0  0  0  0  0  0  0  0  0  0  # atno 6909 bound_to 6896
  146.2304  139.9034  142.8535 H   0  0  0  0  0  0  0  0  0  0  0  0  # atno 7974 bound_to 7965
  156.1259  140.3204  155.8277 H   0  0  0  0  0  0  0  0  0  0  0  0  # atno 8008 bound_to 7997
  155.4420  140.0526  157.3026 H   0  0  0  0  0  0  0  0  0  0  0  0  # atno 8009 bound_to 7997
  154.4862  140.2073  155.9663 H   0  0  0  0  0  0  0  0  0  0  0  0  # atno 8010 bound_to 7997
  140.4876  143.2387  151.7959 H   0  0  0  0  0  0  0  0  0  0  0  0  # atno 10167 bound_to 10162
  157.3962  130.7834  149.7310 H   0  0  0  0  0  0  0  0  0  0  0  0  # atno 10718 bound_to 10713
  154.4775  135.2773  155.1596 H   0  0  0  0  0  0  0  0  0  0  0  0  # atno 10763 bound_to 10752
  154.3319  135.6188  153.5559 H   0  0  0  0  0  0  0  0  0  0  0  0  # atno 10764 bound_to 10752
  152.9871  135.5767  154.5169 H   0  0  0  0  0  0  0  0  0  0  0  0  # atno 10765 bound_to 10752
  141.1276  133.6620  156.5181 H   0  0  0  0  0  0  0  0  0  0  0  0  # atno 11005 bound_to 11000
  145.2301  140.9969  143.3996 LP  0  0  0  0  0  0  0  0  0  0  0  0  # atno 17320 bound_to 7965
  144.9538  139.4054  143.6389 LP  0  0  0  0  0  0  0  0  0  0  0  0  # atno 17321 bound_to 7965
  139.4845  144.4692  151.9446 LP  0  0  0  0  0  0  0  0  0  0  0  0  # atno 17342 bound_to 10162
  140.3778  144.2774  150.5912 LP  0  0  0  0  0  0  0  0  0  0  0  0  # atno 17343 bound_to 10162
  155.9811  130.4023  150.3491 LP  0  0  0  0  0  0  0  0  0  0  0  0  # atno 17370 bound_to 10713
  157.1613  131.0346  151.2839 LP  0  0  0  0  0  0  0  0  0  0  0  0  # atno 17371 bound_to 10713
  140.4314  134.7098  157.4944 LP  0  0  0  0  0  0  0  0  0  0  0  0  # atno 17394 bound_to 11000
  140.0291  134.6433  155.9131 LP  0  0  0  0  0  0  0  0  0  0  0  0  # atno 17395 bound_to 11000

$$$$
