AV-unprocessed.smi:61|AV-procd|sdf|599|dock7
  -GOLD-   2262016493D 1   1.00000     0.00000
 Structure written by MMmdl.
 29 30  0  0  0  0  0  0  0  0  2 V2000
  144.7240  132.3584  157.1229 N   0  0  0  0  0  0  0  0  0  0  0  0
  145.6998  132.7966  156.2613 C   0  0  0  0  0  0  0  0  0  0  0  0
  146.8792  133.1661  156.7714 N   0  0  0  0  0  0  0  0  0  0  0  0
  147.8429  133.5967  155.9338 C   0  0  0  0  0  0  0  0  0  0  0  0
  147.6329  133.6658  154.5466 C   0  0  0  0  0  0  0  0  0  0  0  0
  146.3644  133.2648  154.0724 C   0  0  0  0  0  0  0  0  0  0  0  0
  146.0071  133.2780  152.7164 N   0  0  0  0  0  0  0  0  0  0  0  0
  145.9283  131.9562  152.1020 C   0  0  0  0  0  0  0  0  0  0  0  0
  146.5204  132.0811  150.6899 C   0  0  0  0  0  0  0  0  0  0  0  0
  146.5844  133.5857  150.4385 C   0  0  0  0  0  0  0  0  0  0  0  0
  146.8158  134.1269  151.8494 C   0  0  1  0  0  0  0  0  0  0  0  0
  146.5592  135.6350  152.0481 C   0  0  0  0  0  0  0  0  0  0  0  0
  147.7645  136.3519  152.2189 O   0  0  0  0  0  0  0  0  0  0  0  0
  145.4241  132.8343  154.9501 N   0  3  0  0  0  0  0  0  0  0  0  0
  143.8218  132.0726  156.7701 H   0  0  0  0  0  0  0  0  0  0  0  0
  144.8957  132.3144  158.1169 H   0  0  0  0  0  0  0  0  0  0  0  0
  148.7855  133.8867  156.3736 H   0  0  0  0  0  0  0  0  0  0  0  0
  148.4125  134.0081  153.8820 H   0  0  0  0  0  0  0  0  0  0  0  0
  146.4457  131.1889  152.6797 H   0  0  0  0  0  0  0  0  0  0  0  0
  144.8776  131.6704  152.0457 H   0  0  0  0  0  0  0  0  0  0  0  0
  147.5285  131.6649  150.6790 H   0  0  0  0  0  0  0  0  0  0  0  0
  145.9336  131.5524  149.9380 H   0  0  0  0  0  0  0  0  0  0  0  0
  147.3722  133.8680  149.7397 H   0  0  0  0  0  0  0  0  0  0  0  0
  145.6314  133.9296  150.0344 H   0  0  0  0  0  0  0  0  0  0  0  0
  147.8637  133.9465  152.0922 H   0  0  0  0  0  0  0  0  0  0  0  0
  146.0046  136.0547  151.2082 H   0  0  0  0  0  0  0  0  0  0  0  0
  145.9470  135.7884  152.9372 H   0  0  0  0  0  0  0  0  0  0  0  0
  148.4106  136.0028  151.6236 H   0  0  0  0  0  0  0  0  0  0  0  0
  144.5099  132.5436  154.6029 H   0  0  0  0  0  0  0  0  0  0  0  0
  1  2  1  0  0  0  0
  1 15  1  0  0  0  0
  1 16  1  0  0  0  0
  2 14  1  0  0  0  0
  2  3  2  0  0  0  0
  3  4  1  0  0  0  0
  4  5  2  0  0  0  0
  4 17  1  0  0  0  0
  5  6  1  0  0  0  0
  5 18  1  0  0  0  0
  6  7  1  0  0  0  0
  6 14  2  0  0  0  0
  7 11  1  0  0  0  0
  7  8  1  0  0  0  0
  8  9  1  0  0  0  0
  8 19  1  0  0  0  0
  8 20  1  0  0  0  0
  9 10  1  0  0  0  0
  9 21  1  0  0  0  0
  9 22  1  0  0  0  0
 10 11  1  0  0  0  0
 10 23  1  0  0  0  0
 10 24  1  0  0  0  0
 11 12  1  0  0  0  0
 11 25  1  0  0  0  0
 12 13  1  0  0  0  0
 12 26  1  0  0  0  0
 12 27  1  0  0  0  0
 13 28  1  0  0  0  0
 14 29  1  0  0  0  0
M  CHG  1  14   1
M  END
> <s_m_source_file>
AV-unprocessed.smi

> <i_m_source_file_index>
61

> <i_lp_mmshare_version>
43012

> <i_f3d_flags>
0

> <s_epik_input>
W05IMl1jMW5bY0hdW2NIXWMobjEpTjJbQ0gyXVtDSDJdW0NIMl1bQ0BIXTJbQ0gyXVtPSF0=

> <s_epik_cmdline>
J2VwaWtfcHl0aG9uJywgJy1waCcsICc3LjAnLCAnLXRuJywgJzgnLCAnLW1hJywgJzIwMCcsICctbWV0YWxfYmluZGluZycsICctaW1hZScsICc8aW5maWxlLm1hZT4nLCAnLW9tYWUnLCAnPG91dGZpbGUubWFlPic=

> <r_lp_tautomer_probability>
0.424989

> <r_epik_Ionization_Penalty>
0.696162

> <r_epik_Ionization_Penalty_Charging>
0.696158

> <r_epik_Ionization_Penalty_Neutral>
4.43138e-06

> <r_epik_State_Penalty>
0.906374

> <r_epik_Charging_Adjusted_Penalty>
1.60253

> <i_epik_Tot_Q>
1

> <i_epik_Tot_abs_Q>
1

> <r_epik_Metal_State_Penalty>
1.16703

> <b_epik_Metal_Only>
0

> <s_lp_Force_Field>
OPLS_2005

> <r_lp_Energy>
33.2177

> <b_lp_Chiralities_Consistent>
1

> <s_lp_Variant>
AV-unprocessed.smi:61-5

> <Gold.Version>
5.8.1

> <Gold.Id.Protein>
6NUR|6NUR_protein|mol2

> <Gold.PLP.Fitness>
43.3422

> <Gold.PLP.PLP>
-25.4781

> <Gold.PLP.part.hbond>
-6.9000

> <Gold.PLP.part.metal>
0.0000

> <Gold.PLP.part.buried>
2.7279

> <Gold.PLP.part.nonpolar>
-22.1505

> <Gold.PLP.part.repulsive>
0.3346

> <Gold.PLP.ligand.clash>
0.0000

> <Gold.PLP.ligand.torsion>
1.1110

> <Gold.PLP.Chemscore.Hbond>
5.6800

> <Gold.PLP.Chemscore.CHOScore>
1.0000

> <Gold.PLP.Chemscore.Metal>
0.0000

> <Gold.Chemscore.Hbonds>
donor molecule, donor type, donor heavy atom, donor atom, acceptor molecule, acceptor atom, score
      L1  H     1    15       P1 10957  0.74
      L1  H    14    29       P1 10957  2.00

> <Gold.PLP.Chemscore.Internal.Correction>
0.0461

> <Gold.Rescore>
     Score         DG    S(hbond)    S(metal)    S(lipo)     H(rot)  DE(clash)    DE(int)     intcor
     15.81     -18.88       3.43        0.00      59.86       1.98       2.09       0.97       ----

> <Gold.Chemscore.Fitness>
15.8136

> <Gold.Chemscore.DG>
-18.8763

> <Gold.Chemscore.ZeroCoef>
-5.4800

> <Gold.Chemscore.Hbond>
3.4345

> <Gold.Chemscore.Metal>
0.0000

> <Gold.Chemscore.Lipo>
59.8609

> <Gold.Chemscore.Internal_Hbond>
0.0000

> <Gold.Chemscore.DEClash>
2.0927

> <Gold.Chemscore.DEInternal>
0.9699

> <Gold.Chemscore.Rot>
1.9838

> <Gold.Chemscore.Internal.Correction>
   9.000000E+99

> <Gold.Chemscore.Hbonds>
donor molecule, donor type, donor heavy atom, donor atom, acceptor molecule, acceptor atom, score
      L1  H     1    15       P1 10957  0.36
      L1  H    14    29       P1 10957  0.83

> <Gold.Chemscore.Hbond.Weighted>
-11.4711

> <Gold.Chemscore.Metal.Weighted>
-0.0000

> <Gold.Chemscore.Lipo.Weighted>
-7.0037

> <Gold.Chemscore.Internal_Hbond.Weighted>
0.0000

> <Gold.Chemscore.DEClash.Weighted>
2.0927

> <Gold.Chemscore.DEInternal.Weighted>
0.9699

> <Gold.Chemscore.Rot.Weighted>
5.0786

> <Gold.Chemscore.Internal.Correction.Weighted>
   9.000000E+99

> <Gold.Protein.RotatedTorsions>
[ 6907 6896 6895 6894 ] final   21.08 input  -60.11 | X-H torsion
[ 7974 7965 7964 7962 ] final   28.90 input  175.53 | X-H torsion
[ 8008 7997 7996 7995 ] final  -52.72 input   59.86 | X-H torsion
[ 10167 10162 10161 10158 ] final -177.71 input  -65.29 | X-H torsion
[ 10718 10713 10712 10709 ] final   -9.82 input   66.30 | X-H torsion
[ 10763 10752 10751 10750 ] final   90.04 input  -60.55 | X-H torsion
[ 11005 11000 10999 10996 ] final  -38.45 input  -57.11 | X-H torsion

> <Gold.Protein.ActiveResidues>
 VAL166  LYS551  ARG553  GLY616  TRP617  ASP618  TYR619  PRO620  LYS621  CYS622 
 ASP623  PHE694  ASN695  SER759  ASP760  ASP761  ALA762  ILE779  LEU786  VAL792 
 PHE793  MET794  SER795  GLU796  ALA797  LYS798  CYS799  TRP800  GLU811  SER814 

> <Gold.Protein.RotatedAtoms>
  151.9062  135.0358  160.0510 H   0  0  0  0  0  0  0  0  0  0  0  0  # atno 6907 bound_to 6896
  152.2317  133.5059  159.5228 H   0  0  0  0  0  0  0  0  0  0  0  0  # atno 6908 bound_to 6896
  150.7027  134.1124  159.4047 H   0  0  0  0  0  0  0  0  0  0  0  0  # atno 6909 bound_to 6896
  146.1703  139.6994  142.8972 H   0  0  0  0  0  0  0  0  0  0  0  0  # atno 7974 bound_to 7965
  154.4114  140.1217  156.5037 H   0  0  0  0  0  0  0  0  0  0  0  0  # atno 8008 bound_to 7997
  155.6869  140.3495  155.4858 H   0  0  0  0  0  0  0  0  0  0  0  0  # atno 8009 bound_to 7997
  155.9503  140.1103  157.0972 H   0  0  0  0  0  0  0  0  0  0  0  0  # atno 8010 bound_to 7997
  139.5467  144.2217  152.1001 H   0  0  0  0  0  0  0  0  0  0  0  0  # atno 10167 bound_to 10162
  156.6825  130.5041  149.5967 H   0  0  0  0  0  0  0  0  0  0  0  0  # atno 10718 bound_to 10713
  153.1934  135.4448  155.0178 H   0  0  0  0  0  0  0  0  0  0  0  0  # atno 10763 bound_to 10752
  154.8104  135.3292  154.7322 H   0  0  0  0  0  0  0  0  0  0  0  0  # atno 10764 bound_to 10752
  153.7774  135.6980  153.4950 H   0  0  0  0  0  0  0  0  0  0  0  0  # atno 10765 bound_to 10752
  141.0029  133.6946  156.2055 H   0  0  0  0  0  0  0  0  0  0  0  0  # atno 11005 bound_to 11000
  145.4359  141.0419  143.2885 LP  0  0  0  0  0  0  0  0  0  0  0  0  # atno 17320 bound_to 7965
  144.8152  139.5889  143.7011 LP  0  0  0  0  0  0  0  0  0  0  0  0  # atno 17321 bound_to 7965
  140.1705  144.4940  150.6582 LP  0  0  0  0  0  0  0  0  0  0  0  0  # atno 17342 bound_to 10162
  140.6717  143.2288  151.5608 LP  0  0  0  0  0  0  0  0  0  0  0  0  # atno 17343 bound_to 10162
  156.1857  130.6528  151.1004 LP  0  0  0  0  0  0  0  0  0  0  0  0  # atno 17370 bound_to 10713
  157.7038  131.0765  150.6733 LP  0  0  0  0  0  0  0  0  0  0  0  0  # atno 17371 bound_to 10713
  140.6860  134.4716  157.5589 LP  0  0  0  0  0  0  0  0  0  0  0  0  # atno 17394 bound_to 11000
  139.9048  134.8474  156.1750 LP  0  0  0  0  0  0  0  0  0  0  0  0  # atno 17395 bound_to 11000

$$$$
