AV-unprocessed.smi:2028|AV-procd|sdf|8221|dock4
  -GOLD-   2272010493D 1   1.00000     0.00000
 Structure written by MMmdl.
 38 39  0  0  0  0  0  0  0  0  1 V2000
  148.2757  145.2795  161.1265 C   0  0  0  0  0  0  0  0  0  0  0  0
  146.9104  145.2667  160.4169 C   0  0  0  0  0  0  0  0  0  0  0  0
  145.8683  144.6068  161.3439 C   0  0  0  0  0  0  0  0  0  0  0  0
  146.5037  146.7184  160.0861 C   0  0  0  0  0  0  0  0  0  0  0  0
  147.0769  144.4772  159.1916 N   0  0  0  0  0  0  0  0  0  0  0  0
  147.1458  143.1401  159.0582 C   0  0  0  0  0  0  0  0  0  0  0  0
  147.0403  142.3458  159.9922 O   0  0  0  0  0  0  0  0  0  0  0  0
  147.3885  142.6182  157.6415 C   0  0  0  0  0  0  0  0  0  0  0  0
  148.8023  142.1311  157.5126 C   0  0  0  0  0  0  0  0  0  0  0  0
  149.3339  141.4187  156.4654 C   0  0  0  0  0  0  0  0  0  0  0  0
  151.0149  141.0382  156.7202 S   0  0  0  0  0  0  0  0  0  0  0  0
  150.9359  141.8810  158.2703 C   0  0  0  0  0  0  0  0  0  0  0  0
  152.0002  142.0284  159.2085 N   0  0  0  0  0  0  0  0  0  0  0  0
  152.0000  143.0915  160.2089 C   0  0  0  0  0  0  0  0  0  0  0  0
  153.1652  142.7800  161.1545 C   0  0  0  0  0  0  0  0  0  0  0  0
  154.0129  141.7404  160.4235 C   0  0  0  0  0  0  0  0  0  0  0  0
  153.1087  141.2720  159.2955 C   0  0  0  0  0  0  0  0  0  0  0  0
  153.4143  140.3183  158.5813 O   0  0  0  0  0  0  0  0  0  0  0  0
  149.7284  142.3936  158.5287 N   0  0  0  0  0  0  0  0  0  0  0  0
  148.2356  145.8485  162.0561 H   0  0  0  0  0  0  0  0  0  0  0  0
  149.0458  145.7311  160.4995 H   0  0  0  0  0  0  0  0  0  0  0  0
  148.6049  144.2696  161.3747 H   0  0  0  0  0  0  0  0  0  0  0  0
  146.1305  143.5705  161.5613 H   0  0  0  0  0  0  0  0  0  0  0  0
  144.8705  144.6081  160.9049 H   0  0  0  0  0  0  0  0  0  0  0  0
  145.7998  145.1338  162.2962 H   0  0  0  0  0  0  0  0  0  0  0  0
  146.4770  147.3321  160.9871 H   0  0  0  0  0  0  0  0  0  0  0  0
  145.5135  146.7760  159.6342 H   0  0  0  0  0  0  0  0  0  0  0  0
  147.2094  147.1816  159.3957 H   0  0  0  0  0  0  0  0  0  0  0  0
  147.1805  145.0155  158.3436 H   0  0  0  0  0  0  0  0  0  0  0  0
  146.6825  141.8136  157.4326 H   0  0  0  0  0  0  0  0  0  0  0  0
  147.1812  143.4051  156.9145 H   0  0  0  0  0  0  0  0  0  0  0  0
  148.8369  141.0898  155.5649 H   0  0  0  0  0  0  0  0  0  0  0  0
  152.1507  144.0516  159.7129 H   0  0  0  0  0  0  0  0  0  0  0  0
  151.0533  143.1331  160.7498 H   0  0  0  0  0  0  0  0  0  0  0  0
  153.7364  143.6755  161.4017 H   0  0  0  0  0  0  0  0  0  0  0  0
  152.7893  142.3609  162.0889 H   0  0  0  0  0  0  0  0  0  0  0  0
  154.9140  142.1870  160.0020 H   0  0  0  0  0  0  0  0  0  0  0  0
  154.3022  140.9138  161.0732 H   0  0  0  0  0  0  0  0  0  0  0  0
  1  2  1  0  0  0  0
  1 20  1  0  0  0  0
  1 21  1  0  0  0  0
  1 22  1  0  0  0  0
  2  3  1  0  0  0  0
  2  4  1  0  0  0  0
  2  5  1  0  0  0  0
  3 23  1  0  0  0  0
  3 24  1  0  0  0  0
  3 25  1  0  0  0  0
  4 26  1  0  0  0  0
  4 27  1  0  0  0  0
  4 28  1  0  0  0  0
  5  6  1  0  0  0  0
  5 29  1  0  0  0  0
  6  7  2  0  0  0  0
  6  8  1  0  0  0  0
  8  9  1  0  0  0  0
  8 30  1  0  0  0  0
  8 31  1  0  0  0  0
  9 19  1  0  0  0  0
  9 10  2  0  0  0  0
 10 11  1  0  0  0  0
 10 32  1  0  0  0  0
 11 12  1  0  0  0  0
 12 13  1  0  0  0  0
 12 19  2  0  0  0  0
 13 17  1  0  0  0  0
 13 14  1  0  0  0  0
 14 15  1  0  0  0  0
 14 33  1  0  0  0  0
 14 34  1  0  0  0  0
 15 16  1  0  0  0  0
 15 35  1  0  0  0  0
 15 36  1  0  0  0  0
 16 17  1  0  0  0  0
 16 37  1  0  0  0  0
 16 38  1  0  0  0  0
 17 18  2  0  0  0  0
M  END
> <s_m_source_file>
AV-unprocessed.smi

> <i_m_source_file_index>
2028

> <i_lp_mmshare_version>
43012

> <i_f3d_flags>
0

> <s_epik_input>
W0NIM11DKFtDSDNdKShbQ0gzXSlbTkhdQyg9TylbQ0gyXWMxW2NIXXNjKG4xKU4yW0NIMl1bQ0gyXVtDSDJdQzI9Tw==

> <s_epik_cmdline>
J2VwaWtfcHl0aG9uJywgJy1waCcsICc3LjAnLCAnLXRuJywgJzgnLCAnLW1hJywgJzIwMCcsICctbWV0YWxfYmluZGluZycsICctaW1hZScsICc8aW5maWxlLm1hZT4nLCAnLW9tYWUnLCAnPG91dGZpbGUubWFlPic=

> <r_lp_tautomer_probability>
1

> <r_epik_Ionization_Penalty>
2.98188e-05

> <r_epik_Ionization_Penalty_Charging>
0

> <r_epik_Ionization_Penalty_Neutral>
2.98188e-05

> <r_epik_State_Penalty>
-0

> <r_epik_Charging_Adjusted_Penalty>
0

> <i_epik_Tot_Q>
0

> <i_epik_Tot_abs_Q>
0

> <r_epik_Metal_State_Penalty>
-0

> <b_epik_Metal_Only>
0

> <s_lp_Force_Field>
OPLS_2005

> <r_lp_Energy>
17.4642

> <b_lp_Chiralities_Consistent>
1

> <s_lp_Variant>
AV-unprocessed.smi:2028-1

> <Gold.Version>
5.8.1

> <Gold.Id.Protein>
6NUR|6NUR_protein|mol2

> <Gold.PLP.Fitness>
46.3727

> <Gold.PLP.PLP>
-37.9581

> <Gold.PLP.part.hbond>
-3.9323

> <Gold.PLP.part.metal>
0.0000

> <Gold.PLP.part.buried>
-2.4745

> <Gold.PLP.part.nonpolar>
-30.4029

> <Gold.PLP.part.repulsive>
0.1830

> <Gold.PLP.ligand.clash>
0.0000

> <Gold.PLP.ligand.torsion>
0.7957

> <Gold.PLP.Chemscore.Hbond>
3.3294

> <Gold.PLP.Chemscore.CHOScore>
0.0000

> <Gold.PLP.Chemscore.Metal>
0.0000

> <Gold.Chemscore.Hbonds>
donor molecule, donor type, donor heavy atom, donor atom, acceptor molecule, acceptor atom, score
      L1  H     5    29       P1  8029  1.00
      P1  H  6933  6944       L1     7  0.58
      P1  H  6934  6946       L1     7  0.85
      P1  H  7997  8008       L1    18  0.88

> <Gold.PLP.Chemscore.Internal.Correction>
0.0177

> <Gold.Rescore>
     Score         DG    S(hbond)    S(metal)    S(lipo)     H(rot)  DE(clash)    DE(int)     intcor
     18.29     -20.18       2.98        0.00      71.95       1.44       0.08       1.81       ----

> <Gold.Chemscore.Fitness>
18.2897

> <Gold.Chemscore.DG>
-20.1850

> <Gold.Chemscore.ZeroCoef>
-5.4800

> <Gold.Chemscore.Hbond>
2.9839

> <Gold.Chemscore.Metal>
0.0000

> <Gold.Chemscore.Lipo>
71.9452

> <Gold.Chemscore.Internal_Hbond>
0.0000

> <Gold.Chemscore.DEClash>
0.0830

> <Gold.Chemscore.DEInternal>
1.8123

> <Gold.Chemscore.Rot>
1.4371

> <Gold.Chemscore.Internal.Correction>
   9.000000E+99

> <Gold.Chemscore.Hbonds>
donor molecule, donor type, donor heavy atom, donor atom, acceptor molecule, acceptor atom, score
      L1  H     5    29       P1  8029  0.96
      P1  H  6933  6944       L1     7  0.52
      P1  H  6934  6946       L1     7  0.83
      P1  H  7997  8008       L1    18  0.86

> <Gold.Chemscore.Hbond.Weighted>
-9.9663

> <Gold.Chemscore.Metal.Weighted>
-0.0000

> <Gold.Chemscore.Lipo.Weighted>
-8.4176

> <Gold.Chemscore.Internal_Hbond.Weighted>
0.0000

> <Gold.Chemscore.DEClash.Weighted>
0.0830

> <Gold.Chemscore.DEInternal.Weighted>
1.8123

> <Gold.Chemscore.Rot.Weighted>
3.6789

> <Gold.Chemscore.Internal.Correction.Weighted>
   9.000000E+99

> <Gold.Protein.RotatedTorsions>
[ 6907 6896 6895 6894 ] final  -90.39 input  -60.11 | X-H torsion
[ 7974 7965 7964 7962 ] final  -48.28 input  175.53 | X-H torsion
[ 8008 7997 7996 7995 ] final  -93.79 input   59.86 | X-H torsion
[ 10167 10162 10161 10158 ] final  176.86 input  -65.29 | X-H torsion
[ 10718 10713 10712 10709 ] final -166.82 input   66.30 | X-H torsion
[ 10763 10752 10751 10750 ] final   13.91 input  -60.55 | X-H torsion
[ 11005 11000 10999 10996 ] final -130.20 input  -57.11 | X-H torsion

> <Gold.Protein.ActiveResidues>
 VAL166  LYS551  ARG553  GLY616  TRP617  ASP618  TYR619  PRO620  LYS621  CYS622 
 ASP623  PHE694  ASN695  SER759  ASP760  ASP761  ALA762  ILE779  LEU786  VAL792 
 PHE793  MET794  SER795  GLU796  ALA797  LYS798  CYS799  TRP800  GLU811  SER814 

> <Gold.Protein.RotatedAtoms>
  150.6881  134.2440  159.4483 H   0  0  0  0  0  0  0  0  0  0  0  0  # atno 6907 bound_to 6896
  152.0382  134.9725  160.0583 H   0  0  0  0  0  0  0  0  0  0  0  0  # atno 6908 bound_to 6896
  152.1237  133.4333  159.4724 H   0  0  0  0  0  0  0  0  0  0  0  0  # atno 6909 bound_to 6896
  145.9528  140.7556  142.9496 H   0  0  0  0  0  0  0  0  0  0  0  0  # atno 7974 bound_to 7965
  154.7401  140.0495  157.0803 H   0  0  0  0  0  0  0  0  0  0  0  0  # atno 8008 bound_to 7997
  155.0189  140.3145  155.4781 H   0  0  0  0  0  0  0  0  0  0  0  0  # atno 8009 bound_to 7997
  156.2862  140.2170  156.5307 H   0  0  0  0  0  0  0  0  0  0  0  0  # atno 8010 bound_to 7997
  139.5231  144.2866  152.0501 H   0  0  0  0  0  0  0  0  0  0  0  0  # atno 10167 bound_to 10162
  156.6734  130.9093  151.3047 H   0  0  0  0  0  0  0  0  0  0  0  0  # atno 10718 bound_to 10713
  153.1674  135.6806  153.8655 H   0  0  0  0  0  0  0  0  0  0  0  0  # atno 10763 bound_to 10752
  153.8031  135.3153  155.3393 H   0  0  0  0  0  0  0  0  0  0  0  0  # atno 10764 bound_to 10752
  154.7975  135.4798  154.0286 H   0  0  0  0  0  0  0  0  0  0  0  0  # atno 10765 bound_to 10752
  140.9366  134.1249  157.4188 H   0  0  0  0  0  0  0  0  0  0  0  0  # atno 11005 bound_to 11000
  144.6799  140.2462  143.7337 LP  0  0  0  0  0  0  0  0  0  0  0  0  # atno 17320 bound_to 7965
  145.8148  139.2018  143.1972 LP  0  0  0  0  0  0  0  0  0  0  0  0  # atno 17321 bound_to 7965
  140.2318  144.4360  150.6296 LP  0  0  0  0  0  0  0  0  0  0  0  0  # atno 17342 bound_to 10162
  140.6350  143.2193  151.6415 LP  0  0  0  0  0  0  0  0  0  0  0  0  # atno 17343 bound_to 10162
  157.7069  130.9395  150.0960 LP  0  0  0  0  0  0  0  0  0  0  0  0  # atno 17370 bound_to 10713
  156.1921  130.3655  149.8896 LP  0  0  0  0  0  0  0  0  0  0  0  0  # atno 17371 bound_to 10713
  139.8809  135.0023  156.6117 LP  0  0  0  0  0  0  0  0  0  0  0  0  # atno 17394 bound_to 11000
  140.7791  133.8675  155.8553 LP  0  0  0  0  0  0  0  0  0  0  0  0  # atno 17395 bound_to 11000

$$$$
