AV-unprocessed.smi:438|AV-procd|sdf|2566|dock3
  -GOLD-   2262022543D 1   1.00000     0.00000
 Structure written by MMmdl.
 48 49  0  0  0  0  0  0  0  0  1 V2000
  145.6840  129.9563  152.2163 C   0  0  0  0  0  0  0  0  0  0  0  0
  146.1514  131.3999  152.2780 C   0  0  0  0  0  0  0  0  0  0  0  0
  147.3923  131.6036  152.8922 N   0  0  0  0  0  0  0  0  0  0  0  0
  147.8962  132.7936  152.9694 C   0  0  0  0  0  0  0  0  0  0  0  0
  149.4854  133.3347  153.6736 S   0  0  0  0  0  0  0  0  0  0  0  0
  149.0356  133.7399  155.3895 C   0  0  0  0  0  0  0  0  0  0  0  0
  149.8971  134.8523  155.9879 C   0  0  0  0  0  0  0  0  0  0  0  0
  150.4885  134.6662  157.0507 O   0  0  0  0  0  0  0  0  0  0  0  0
  149.9241  136.0099  155.3052 N   0  0  0  0  0  0  0  0  0  0  0  0
  150.5384  137.2748  155.7133 C   0  0  1  0  0  0  0  0  0  0  0  0
  151.4203  137.8597  154.5887 C   0  0  0  0  0  0  0  0  0  0  0  0
  152.1485  139.1267  155.0588 C   0  0  0  0  0  0  0  0  0  0  0  0
  151.1522  140.1704  155.5857 C   0  0  0  0  0  0  0  0  0  0  0  0
  150.2752  139.5904  156.7075 C   0  0  0  0  0  0  0  0  0  0  0  0
  149.5265  138.3201  156.2546 C   0  0  2  0  0  0  0  0  0  0  0  0
  148.6554  137.7688  157.3972 C   0  0  0  0  0  0  0  0  0  0  0  0
  147.1979  133.8882  152.4592 N   0  0  0  0  0  0  0  0  0  0  0  0
  145.9907  133.8006  151.8577 C   0  0  0  0  0  0  0  0  0  0  0  0
  145.4348  134.8101  151.4272 O   0  0  0  0  0  0  0  0  0  0  0  0
  145.4329  132.4404  151.7695 C   0  0  0  0  0  0  0  0  0  0  0  0
  144.0816  132.2710  151.0753 C   0  0  0  0  0  0  0  0  0  0  0  0
  144.1392  132.5308  149.5597 C   0  0  0  0  0  0  0  0  0  0  0  0
  142.9175  132.1834  148.9427 O   0  0  0  0  0  0  0  0  0  0  0  0
  144.6911  129.8516  152.6533 H   0  0  0  0  0  0  0  0  0  0  0  0
  146.3602  129.2971  152.7622 H   0  0  0  0  0  0  0  0  0  0  0  0
  145.6481  129.6131  151.1821 H   0  0  0  0  0  0  0  0  0  0  0  0
  149.0893  132.8359  155.9981 H   0  0  0  0  0  0  0  0  0  0  0  0
  147.9953  134.0653  155.4037 H   0  0  0  0  0  0  0  0  0  0  0  0
  149.4022  136.0389  154.4410 H   0  0  0  0  0  0  0  0  0  0  0  0
  151.2028  137.0076  156.5362 H   0  0  0  0  0  0  0  0  0  0  0  0
  152.1517  137.1192  154.2621 H   0  0  0  0  0  0  0  0  0  0  0  0
  150.8144  138.1006  153.7148 H   0  0  0  0  0  0  0  0  0  0  0  0
  152.8611  138.8699  155.8436 H   0  0  0  0  0  0  0  0  0  0  0  0
  152.7297  139.5473  154.2374 H   0  0  0  0  0  0  0  0  0  0  0  0
  151.6910  141.0450  155.9513 H   0  0  0  0  0  0  0  0  0  0  0  0
  150.5183  140.5171  154.7686 H   0  0  0  0  0  0  0  0  0  0  0  0
  150.8990  139.3618  157.5727 H   0  0  0  0  0  0  0  0  0  0  0  0
  149.5612  140.3467  157.0354 H   0  0  0  0  0  0  0  0  0  0  0  0
  148.8570  138.6128  155.4452 H   0  0  0  0  0  0  0  0  0  0  0  0
  149.2672  137.4333  158.2350 H   0  0  0  0  0  0  0  0  0  0  0  0
  148.0469  136.9260  157.0688 H   0  0  0  0  0  0  0  0  0  0  0  0
  147.9716  138.5319  157.7697 H   0  0  0  0  0  0  0  0  0  0  0  0
  147.6164  134.8037  152.5366 H   0  0  0  0  0  0  0  0  0  0  0  0
  143.3284  132.9171  151.5250 H   0  0  0  0  0  0  0  0  0  0  0  0
  143.7245  131.2560  151.2543 H   0  0  0  0  0  0  0  0  0  0  0  0
  144.3639  133.5762  149.3471 H   0  0  0  0  0  0  0  0  0  0  0  0
  144.9350  131.9368  149.1097 H   0  0  0  0  0  0  0  0  0  0  0  0
  142.3178  132.9083  149.0347 H   0  0  0  0  0  0  0  0  0  0  0  0
  1 24  1  0  0  0  0
  1 25  1  0  0  0  0
  1 26  1  0  0  0  0
  1  2  1  0  0  0  0
  2 20  2  0  0  0  0
  2  3  1  0  0  0  0
  3  4  2  0  0  0  0
  4  5  1  0  0  0  0
  4 17  1  0  0  0  0
  5  6  1  0  0  0  0
  6  7  1  0  0  0  0
  6 27  1  0  0  0  0
  6 28  1  0  0  0  0
  7  8  2  0  0  0  0
  7  9  1  0  0  0  0
  9 10  1  0  0  0  0
  9 29  1  0  0  0  0
 10 15  1  0  0  0  0
 10 11  1  0  0  0  0
 10 30  1  0  0  0  0
 11 12  1  0  0  0  0
 11 31  1  0  0  0  0
 11 32  1  0  0  0  0
 12 13  1  0  0  0  0
 12 33  1  0  0  0  0
 12 34  1  0  0  0  0
 13 14  1  0  0  0  0
 13 35  1  0  0  0  0
 13 36  1  0  0  0  0
 14 15  1  0  0  0  0
 14 37  1  0  0  0  0
 14 38  1  0  0  0  0
 15 16  1  0  0  0  0
 15 39  1  0  0  0  0
 16 40  1  0  0  0  0
 16 41  1  0  0  0  0
 16 42  1  0  0  0  0
 17 43  1  0  0  0  0
 17 18  1  0  0  0  0
 18 19  2  0  0  0  0
 18 20  1  0  0  0  0
 20 21  1  0  0  0  0
 21 22  1  0  0  0  0
 21 44  1  0  0  0  0
 21 45  1  0  0  0  0
 22 23  1  0  0  0  0
 22 46  1  0  0  0  0
 22 47  1  0  0  0  0
 23 48  1  0  0  0  0
M  END
> <s_m_source_file>
AV-unprocessed.smi

> <i_m_source_file_index>
438

> <i_lp_mmshare_version>
43012

> <i_f3d_flags>
0

> <s_epik_input>
W09IXVtDSDJdW0NIMl1jMWMoW09IXSluYyhuYzFbQ0gzXSlTW0NIMl1DKD1PKVtOSF1bQ0BASF0yW0NIMl1bQ0gyXVtDSDJdW0NIMl1bQ0BIXTJbQ0gzXQ==

> <s_epik_cmdline>
J2VwaWtfcHl0aG9uJywgJy1waCcsICc3LjAnLCAnLXRuJywgJzgnLCAnLW1hJywgJzIwMCcsICctbWV0YWxfYmluZGluZycsICctaW1hZScsICc8aW5maWxlLm1hZT4nLCAnLW9tYWUnLCAnPG91dGZpbGUubWFlPic=

> <r_lp_tautomer_probability>
0.660323

> <r_epik_Ionization_Penalty>
0.00860626

> <r_epik_Ionization_Penalty_Charging>
0.00860522

> <r_epik_Ionization_Penalty_Neutral>
1.04215e-06

> <r_epik_State_Penalty>
0.156825

> <r_epik_Charging_Adjusted_Penalty>
0.16543

> <i_epik_Tot_Q>
0

> <i_epik_Tot_abs_Q>
0

> <r_epik_Metal_State_Penalty>
0.752038

> <b_epik_Metal_Only>
0

> <s_lp_Force_Field>
OPLS_2005

> <r_lp_Energy>
14.076

> <b_lp_Chiralities_Consistent>
1

> <s_lp_Variant>
AV-unprocessed.smi:438-4

> <Gold.Version>
5.8.1

> <Gold.Id.Protein>
6NUR|6NUR_protein|mol2

> <Gold.PLP.Fitness>
49.5622

> <Gold.PLP.PLP>
-42.2554

> <Gold.PLP.part.hbond>
-4.8270

> <Gold.PLP.part.metal>
0.0000

> <Gold.PLP.part.buried>
-7.6649

> <Gold.PLP.part.nonpolar>
-30.9312

> <Gold.PLP.part.repulsive>
0.3971

> <Gold.PLP.ligand.clash>
0.0000

> <Gold.PLP.ligand.torsion>
0.8748

> <Gold.PLP.Chemscore.Hbond>
2.9601

> <Gold.PLP.Chemscore.CHOScore>
0.0000

> <Gold.PLP.Chemscore.Metal>
0.0000

> <Gold.Chemscore.Hbonds>
donor molecule, donor type, donor heavy atom, donor atom, acceptor molecule, acceptor atom, score
      L1  H    17    43       P1  7948  0.97
      L1  H    23    48       P1 10186  0.94
      P1  H  6896  6907       L1     8  0.10
      P1  H 10785 10796       L1    23  0.91

> <Gold.PLP.Chemscore.Internal.Correction>
0.1760

> <Gold.Rescore>
     Score         DG    S(hbond)    S(metal)    S(lipo)     H(rot)  DE(clash)    DE(int)     intcor
     15.08     -15.95       2.50        0.00      80.86       2.86       0.00       0.88       ----

> <Gold.Chemscore.Fitness>
15.0769

> <Gold.Chemscore.DG>
-15.9527

> <Gold.Chemscore.ZeroCoef>
-5.4800

> <Gold.Chemscore.Hbond>
2.4985

> <Gold.Chemscore.Metal>
0.0000

> <Gold.Chemscore.Lipo>
80.8627

> <Gold.Chemscore.Internal_Hbond>
0.0000

> <Gold.Chemscore.DEClash>
0.0000

> <Gold.Chemscore.DEInternal>
0.8758

> <Gold.Chemscore.Rot>
2.8645

> <Gold.Chemscore.Internal.Correction>
   9.000000E+99

> <Gold.Chemscore.Hbonds>
donor molecule, donor type, donor heavy atom, donor atom, acceptor molecule, acceptor atom, score
      L1  H    17    43       P1  7948  0.80
      L1  H    23    48       P1 10186  0.90
      P1  H  6896  6907       L1     8  0.11
      P1  H 10785 10796       L1    23  0.22

> <Gold.Chemscore.Hbond.Weighted>
-8.3448

> <Gold.Chemscore.Metal.Weighted>
-0.0000

> <Gold.Chemscore.Lipo.Weighted>
-9.4609

> <Gold.Chemscore.Internal_Hbond.Weighted>
0.0000

> <Gold.Chemscore.DEClash.Weighted>
0.0000

> <Gold.Chemscore.DEInternal.Weighted>
0.8758

> <Gold.Chemscore.Rot.Weighted>
7.3331

> <Gold.Chemscore.Internal.Correction.Weighted>
   9.000000E+99

> <Gold.Protein.RotatedTorsions>
[ 6907 6896 6895 6894 ] final -114.30 input  -60.11 | X-H torsion
[ 7974 7965 7964 7962 ] final -118.27 input  175.53 | X-H torsion
[ 8008 7997 7996 7995 ] final   53.95 input   59.86 | X-H torsion
[ 10167 10162 10161 10158 ] final   65.71 input  -65.29 | X-H torsion
[ 10718 10713 10712 10709 ] final -169.44 input   66.30 | X-H torsion
[ 10763 10752 10751 10750 ] final  111.11 input  -60.55 | X-H torsion
[ 11005 11000 10999 10996 ] final  -92.49 input  -57.11 | X-H torsion

> <Gold.Protein.ActiveResidues>
 VAL166  LYS551  ARG553  GLY616  TRP617  ASP618  TYR619  PRO620  LYS621  CYS622 
 ASP623  PHE694  ASN695  SER759  ASP760  ASP761  ALA762  ILE779  LEU786  VAL792 
 PHE793  MET794  SER795  GLU796  ALA797  LYS798  CYS799  TRP800  GLU811  SER814 

> <Gold.Protein.RotatedAtoms>
  150.7892  133.8821  159.3288 H   0  0  0  0  0  0  0  0  0  0  0  0  # atno 6907 bound_to 6896
  151.6663  135.0980  160.0199 H   0  0  0  0  0  0  0  0  0  0  0  0  # atno 6908 bound_to 6896
  152.3963  133.6712  159.6314 H   0  0  0  0  0  0  0  0  0  0  0  0  # atno 6909 bound_to 6896
  145.0758  140.8391  143.4069 H   0  0  0  0  0  0  0  0  0  0  0  0  # atno 7974 bound_to 7965
  155.4767  140.3467  155.4333 H   0  0  0  0  0  0  0  0  0  0  0  0  # atno 8008 bound_to 7997
  156.1065  140.1449  156.9425 H   0  0  0  0  0  0  0  0  0  0  0  0  # atno 8009 bound_to 7997
  154.4728  140.0895  156.7165 H   0  0  0  0  0  0  0  0  0  0  0  0  # atno 8010 bound_to 7997
  140.1083  144.4841  150.6993 H   0  0  0  0  0  0  0  0  0  0  0  0  # atno 10167 bound_to 10162
  156.7116  130.9235  151.3089 H   0  0  0  0  0  0  0  0  0  0  0  0  # atno 10718 bound_to 10713
  153.4586  135.3727  155.2325 H   0  0  0  0  0  0  0  0  0  0  0  0  # atno 10763 bound_to 10752
  154.8757  135.3903  154.3952 H   0  0  0  0  0  0  0  0  0  0  0  0  # atno 10764 bound_to 10752
  153.4522  135.7085  153.6166 H   0  0  0  0  0  0  0  0  0  0  0  0  # atno 10765 bound_to 10752
  141.1520  133.7824  157.0027 H   0  0  0  0  0  0  0  0  0  0  0  0  # atno 11005 bound_to 11000
  145.1238  139.2676  143.5575 LP  0  0  0  0  0  0  0  0  0  0  0  0  # atno 17320 bound_to 7965
  146.3530  140.0869  142.8614 LP  0  0  0  0  0  0  0  0  0  0  0  0  # atno 17321 bound_to 7965
  140.6939  143.2392  151.5054 LP  0  0  0  0  0  0  0  0  0  0  0  0  # atno 17342 bound_to 10162
  139.5633  144.2104  152.1725 LP  0  0  0  0  0  0  0  0  0  0  0  0  # atno 17343 bound_to 10162
  157.6934  130.9256  150.0576 LP  0  0  0  0  0  0  0  0  0  0  0  0  # atno 17370 bound_to 10713
  156.1657  130.3645  149.9235 LP  0  0  0  0  0  0  0  0  0  0  0  0  # atno 17371 bound_to 10713
  140.0929  134.9581  157.1805 LP  0  0  0  0  0  0  0  0  0  0  0  0  # atno 17394 bound_to 11000
  140.3421  134.2692  155.7210 LP  0  0  0  0  0  0  0  0  0  0  0  0  # atno 17395 bound_to 11000

$$$$
