AV-unprocessed.smi:243|AV-procd|sdf|1860|dock7
  -GOLD-   2262020493D 1   1.00000     0.00000
 Structure written by MMmdl.
 58 61  0  0  0  0  0  0  0  0  2 V2000
  144.9809  135.9684  151.9732 C   0  0  0  0  0  0  0  0  0  0  0  0
  144.3587  137.0853  152.8240 C   0  0  0  0  0  0  0  0  0  0  0  0
  145.3501  138.1149  153.2267 N   0  3  2  0  0  0  0  0  0  0  0  0
  146.3238  138.4084  152.1458 C   0  0  0  0  0  0  0  0  0  0  0  0
  147.2124  139.6018  152.5212 C   0  0  0  0  0  0  0  0  0  0  0  0
  147.9447  139.3560  153.8589 C   0  0  1  0  0  0  0  0  0  0  0  0
  148.8505  140.4557  154.2253 N   0  0  0  0  0  0  0  0  0  0  0  0
  148.2765  141.7749  154.4601 C   0  0  0  0  0  0  0  0  0  0  0  0
  149.9954  140.2386  154.9212 C   0  0  0  0  0  0  0  0  0  0  0  0
  151.0099  139.5223  154.3709 N   0  0  0  0  0  0  0  0  0  0  0  0
  152.1320  139.3018  155.0623 C   0  0  0  0  0  0  0  0  0  0  0  0
  152.4425  139.6997  156.2975 N   0  0  0  0  0  0  0  0  0  0  0  0
  151.4257  140.4160  156.8571 C   0  0  0  0  0  0  0  0  0  0  0  0
  150.1804  140.7288  156.2432 C   0  0  0  0  0  0  0  0  0  0  0  0
  149.4037  141.4909  157.1068 N   0  0  0  0  0  0  0  0  0  0  0  0
  150.1470  141.6202  158.1715 C   0  0  0  0  0  0  0  0  0  0  0  0
  151.3721  140.9937  158.1141 N   0  0  0  0  0  0  0  0  0  0  0  0
  152.3939  140.9754  159.1506 C   0  0  0  0  0  0  0  0  0  0  0  0
  152.7592  142.3748  159.7092 C   0  0  2  0  0  0  0  0  0  0  0  0
  153.0858  143.2372  158.6350 O   0  0  0  0  0  0  0  0  0  0  0  0
  153.9143  142.3677  160.7133 C   0  0  0  0  0  0  0  0  0  0  0  0
  153.2004  142.3968  162.0565 C   0  0  0  0  0  0  0  0  0  0  0  0
  152.1275  143.2866  161.8071 O   0  0  0  0  0  0  0  0  0  0  0  0
  151.5966  142.9793  160.5235 C   0  0  0  0  0  0  0  0  0  0  0  0
  146.9386  138.9609  154.9739 C   0  0  2  0  0  0  0  0  0  0  0  0
  147.6455  138.5768  156.2866 C   0  0  0  0  0  0  0  0  0  0  0  0
  146.0455  137.7951  154.5007 C   0  0  0  0  0  0  0  0  0  0  0  0
  144.2520  135.1802  151.7839 H   0  0  0  0  0  0  0  0  0  0  0  0
  145.8322  135.5135  152.4807 H   0  0  0  0  0  0  0  0  0  0  0  0
  145.3201  136.3304  151.0030 H   0  0  0  0  0  0  0  0  0  0  0  0
  143.5240  137.5520  152.2990 H   0  0  0  0  0  0  0  0  0  0  0  0
  143.9400  136.6221  153.7185 H   0  0  0  0  0  0  0  0  0  0  0  0
  146.9352  137.5258  151.9511 H   0  0  0  0  0  0  0  0  0  0  0  0
  145.7948  138.6388  151.2201 H   0  0  0  0  0  0  0  0  0  0  0  0
  147.9343  139.7775  151.7229 H   0  0  0  0  0  0  0  0  0  0  0  0
  146.5901  140.4941  152.5719 H   0  0  0  0  0  0  0  0  0  0  0  0
  148.5902  138.4895  153.7076 H   0  0  0  0  0  0  0  0  0  0  0  0
  148.1395  141.9508  155.5279 H   0  0  0  0  0  0  0  0  0  0  0  0
  147.3043  141.8702  153.9760 H   0  0  0  0  0  0  0  0  0  0  0  0
  148.9213  142.5590  154.0634 H   0  0  0  0  0  0  0  0  0  0  0  0
  152.8885  138.7218  154.5547 H   0  0  0  0  0  0  0  0  0  0  0  0
  149.8175  142.1784  159.0357 H   0  0  0  0  0  0  0  0  0  0  0  0
  152.0435  140.3316  159.9586 H   0  0  0  0  0  0  0  0  0  0  0  0
  153.2815  140.4914  158.7411 H   0  0  0  0  0  0  0  0  0  0  0  0
  152.3160  143.7346  158.4051 H   0  0  0  0  0  0  0  0  0  0  0  0
  154.5932  141.5221  160.6192 H   0  0  0  0  0  0  0  0  0  0  0  0
  154.5141  143.2747  160.6194 H   0  0  0  0  0  0  0  0  0  0  0  0
  152.8136  141.4107  162.3186 H   0  0  0  0  0  0  0  0  0  0  0  0
  153.8380  142.7485  162.8677 H   0  0  0  0  0  0  0  0  0  0  0  0
  151.1686  143.8730  160.0675 H   0  0  0  0  0  0  0  0  0  0  0  0
  150.7861  142.2601  160.6505 H   0  0  0  0  0  0  0  0  0  0  0  0
  146.2785  139.8023  155.1847 H   0  0  0  0  0  0  0  0  0  0  0  0
  148.3345  137.7449  156.1368 H   0  0  0  0  0  0  0  0  0  0  0  0
  146.9247  138.2777  157.0479 H   0  0  0  0  0  0  0  0  0  0  0  0
  148.2166  139.4090  156.6975 H   0  0  0  0  0  0  0  0  0  0  0  0
  145.3151  137.5769  155.2789 H   0  0  0  0  0  0  0  0  0  0  0  0
  146.6414  136.8903  154.3697 H   0  0  0  0  0  0  0  0  0  0  0  0
  144.8300  138.9677  153.3782 H   0  0  0  0  0  0  0  0  0  0  0  0
  1  2  1  0  0  0  0
  1 28  1  0  0  0  0
  1 29  1  0  0  0  0
  1 30  1  0  0  0  0
  2  3  1  0  0  0  0
  2 31  1  0  0  0  0
  2 32  1  0  0  0  0
  3 27  1  0  0  0  0
  3  4  1  0  0  0  0
  3 58  1  0  0  0  0
  4  5  1  0  0  0  0
  4 33  1  0  0  0  0
  4 34  1  0  0  0  0
  5  6  1  0  0  0  0
  5 35  1  0  0  0  0
  5 36  1  0  0  0  0
  6  7  1  0  0  0  0
  6 25  1  0  0  0  0
  6 37  1  0  0  0  0
  7  8  1  0  0  0  0
  7  9  1  0  0  0  0
  8 38  1  0  0  0  0
  8 39  1  0  0  0  0
  8 40  1  0  0  0  0
  9 14  1  0  0  0  0
  9 10  2  0  0  0  0
 10 11  1  0  0  0  0
 11 12  2  0  0  0  0
 11 41  1  0  0  0  0
 12 13  1  0  0  0  0
 13 17  1  0  0  0  0
 13 14  2  0  0  0  0
 14 15  1  0  0  0  0
 15 16  2  0  0  0  0
 16 17  1  0  0  0  0
 16 42  1  0  0  0  0
 17 18  1  0  0  0  0
 18 19  1  0  0  0  0
 18 43  1  0  0  0  0
 18 44  1  0  0  0  0
 19 24  1  0  0  0  0
 19 20  1  0  0  0  0
 19 21  1  0  0  0  0
 20 45  1  0  0  0  0
 21 22  1  0  0  0  0
 21 46  1  0  0  0  0
 21 47  1  0  0  0  0
 22 23  1  0  0  0  0
 22 48  1  0  0  0  0
 22 49  1  0  0  0  0
 23 24  1  0  0  0  0
 24 50  1  0  0  0  0
 24 51  1  0  0  0  0
 25 26  1  0  0  0  0
 25 27  1  0  0  0  0
 25 52  1  0  0  0  0
 26 53  1  0  0  0  0
 26 54  1  0  0  0  0
 26 55  1  0  0  0  0
 27 56  1  0  0  0  0
 27 57  1  0  0  0  0
M  CHG  1   3   1
M  END
> <s_m_source_file>
AV-unprocessed.smi

> <i_m_source_file_index>
243

> <i_lp_mmshare_version>
43012

> <i_f3d_flags>
0

> <s_epik_input>
W0NIM11bQ0gyXU4xW0NIMl1bQ0gyXVtDQEhdKFtDQEBIXShbQ0gzXSlbQ0gyXTEpTihbQ0gzXSljKG5bY0hdbjIpYyhjMjMpbltjSF1uM1tDSDJdW0NAQF00KFtPSF0pW0NIMl1bQ0gyXU9bQ0gyXTQ=

> <s_epik_cmdline>
J2VwaWtfcHl0aG9uJywgJy1waCcsICc3LjAnLCAnLXRuJywgJzgnLCAnLW1hJywgJzIwMCcsICctbWV0YWxfYmluZGluZycsICctaW1hZScsICc8aW5maWxlLm1hZT4nLCAnLW9tYWUnLCAnPG91dGZpbGUubWFlPic=

> <r_lp_tautomer_probability>
1

> <r_epik_Ionization_Penalty>
0.00253099

> <r_epik_Ionization_Penalty_Charging>
0.00137877

> <r_epik_Ionization_Penalty_Neutral>
0.00115221

> <r_epik_State_Penalty>
-0

> <r_epik_Charging_Adjusted_Penalty>
0.00137877

> <i_epik_Tot_Q>
1

> <i_epik_Tot_abs_Q>
1

> <r_epik_Metal_State_Penalty>
-0

> <b_epik_Metal_Only>
0

> <s_lp_Force_Field>
OPLS_2005

> <r_lp_Energy>
45.5006

> <b_lp_Chiralities_Consistent>
1

> <s_lp_Variant>
AV-unprocessed.smi:243-13

> <Gold.Version>
5.8.1

> <Gold.Id.Protein>
6NUR|6NUR_protein|mol2

> <Gold.PLP.Fitness>
53.4791

> <Gold.PLP.PLP>
-44.8858

> <Gold.PLP.part.hbond>
-3.4563

> <Gold.PLP.part.metal>
0.0000

> <Gold.PLP.part.buried>
3.6081

> <Gold.PLP.part.nonpolar>
-45.0446

> <Gold.PLP.part.repulsive>
0.8089

> <Gold.PLP.ligand.clash>
0.0000

> <Gold.PLP.ligand.torsion>
1.6596

> <Gold.PLP.Chemscore.Hbond>
3.6175

> <Gold.PLP.Chemscore.CHOScore>
0.0000

> <Gold.PLP.Chemscore.Metal>
0.0000

> <Gold.Chemscore.Hbonds>
donor molecule, donor type, donor heavy atom, donor atom, acceptor molecule, acceptor atom, score
      L1  H     3    58       P1 10175  1.51
      P1  H  7989  7998       L1    10  0.53
      P1  H  7997  8009       L1    12  1.00

> <Gold.PLP.Chemscore.Internal.Correction>
1.0601

> <Gold.Rescore>
     Score         DG    S(hbond)    S(metal)    S(lipo)     H(rot)  DE(clash)    DE(int)     intcor
     11.26     -16.59       1.64        0.00      97.11       2.24       2.32       3.01       ----

> <Gold.Chemscore.Fitness>
11.2616

> <Gold.Chemscore.DG>
-16.5950

> <Gold.Chemscore.ZeroCoef>
-5.4800

> <Gold.Chemscore.Hbond>
1.6415

> <Gold.Chemscore.Metal>
0.0000

> <Gold.Chemscore.Lipo>
97.1054

> <Gold.Chemscore.Internal_Hbond>
0.0000

> <Gold.Chemscore.DEClash>
2.3188

> <Gold.Chemscore.DEInternal>
3.0146

> <Gold.Chemscore.Rot>
2.2379

> <Gold.Chemscore.Internal.Correction>
   9.000000E+99

> <Gold.Chemscore.Hbonds>
donor molecule, donor type, donor heavy atom, donor atom, acceptor molecule, acceptor atom, score
      L1  H     3    58       P1 10175  0.72
      P1  H  7989  7998       L1    10  0.01
      P1  H  7997  8009       L1    12  0.74

> <Gold.Chemscore.Hbond.Weighted>
-5.4828

> <Gold.Chemscore.Metal.Weighted>
-0.0000

> <Gold.Chemscore.Lipo.Weighted>
-11.3613

> <Gold.Chemscore.Internal_Hbond.Weighted>
0.0000

> <Gold.Chemscore.DEClash.Weighted>
2.3188

> <Gold.Chemscore.DEInternal.Weighted>
3.0146

> <Gold.Chemscore.Rot.Weighted>
5.7291

> <Gold.Chemscore.Internal.Correction.Weighted>
   9.000000E+99

> <Gold.Protein.RotatedTorsions>
[ 6907 6896 6895 6894 ] final   60.12 input  -60.11 | X-H torsion
[ 7974 7965 7964 7962 ] final -102.46 input  175.53 | X-H torsion
[ 8008 7997 7996 7995 ] final -166.09 input   59.86 | X-H torsion
[ 10167 10162 10161 10158 ] final -127.03 input  -65.29 | X-H torsion
[ 10718 10713 10712 10709 ] final  -46.95 input   66.30 | X-H torsion
[ 10763 10752 10751 10750 ] final -138.02 input  -60.55 | X-H torsion
[ 11005 11000 10999 10996 ] final   67.68 input  -57.11 | X-H torsion

> <Gold.Protein.ActiveResidues>
 VAL166  LYS551  ARG553  GLY616  TRP617  ASP618  TYR619  PRO620  LYS621  CYS622 
 ASP623  PHE694  ASN695  SER759  ASP760  ASP761  ALA762  ILE779  LEU786  VAL792 
 PHE793  MET794  SER795  GLU796  ALA797  LYS798  CYS799  TRP800  GLU811  SER814 

> <Gold.Protein.RotatedAtoms>
  152.3975  134.6341  160.0082 H   0  0  0  0  0  0  0  0  0  0  0  0  # atno 6907 bound_to 6896
  151.6556  133.3313  159.3170 H   0  0  0  0  0  0  0  0  0  0  0  0  # atno 6908 bound_to 6896
  150.7881  134.6925  159.6549 H   0  0  0  0  0  0  0  0  0  0  0  0  # atno 6909 bound_to 6896
  145.2684  140.9291  143.3000 H   0  0  0  0  0  0  0  0  0  0  0  0  # atno 7974 bound_to 7965
  155.8590  140.0975  157.1626 H   0  0  0  0  0  0  0  0  0  0  0  0  # atno 8008 bound_to 7997
  154.3989  140.1369  156.3999 H   0  0  0  0  0  0  0  0  0  0  0  0  # atno 8009 bound_to 7997
  155.7878  140.3456  155.5335 H   0  0  0  0  0  0  0  0  0  0  0  0  # atno 8010 bound_to 7997
  139.9652  143.5906  152.2431 H   0  0  0  0  0  0  0  0  0  0  0  0  # atno 10167 bound_to 10162
  156.2132  130.4162  149.9087 H   0  0  0  0  0  0  0  0  0  0  0  0  # atno 10718 bound_to 10713
  154.8647  135.3624  154.5318 H   0  0  0  0  0  0  0  0  0  0  0  0  # atno 10763 bound_to 10752
  153.5943  135.7014  153.5415 H   0  0  0  0  0  0  0  0  0  0  0  0  # atno 10764 bound_to 10752
  153.3346  135.4115  155.1484 H   0  0  0  0  0  0  0  0  0  0  0  0  # atno 10765 bound_to 10752
  139.9756  134.6827  156.0360 H   0  0  0  0  0  0  0  0  0  0  0  0  # atno 11005 bound_to 11000
  144.9356  139.4248  143.6474 LP  0  0  0  0  0  0  0  0  0  0  0  0  # atno 17320 bound_to 7965
  146.3254  139.8290  142.8912 LP  0  0  0  0  0  0  0  0  0  0  0  0  # atno 17321 bound_to 7965
  139.6523  144.7661  151.2124 LP  0  0  0  0  0  0  0  0  0  0  0  0  # atno 17342 bound_to 10162
  140.7540  143.6141  150.8577 LP  0  0  0  0  0  0  0  0  0  0  0  0  # atno 17343 bound_to 10162
  156.6758  130.8838  151.3569 LP  0  0  0  0  0  0  0  0  0  0  0  0  # atno 17370 bound_to 10713
  157.7049  130.9374  150.0901 LP  0  0  0  0  0  0  0  0  0  0  0  0  # atno 17371 bound_to 10713
  141.1434  133.6560  156.3795 LP  0  0  0  0  0  0  0  0  0  0  0  0  # atno 17394 bound_to 11000
  140.5201  134.6312  157.5315 LP  0  0  0  0  0  0  0  0  0  0  0  0  # atno 17395 bound_to 11000

$$$$
