#       Name:                AV-unprocessed.smi:1810
#       Creating user name   scv26
#       Creation time:       Fri Mar 27 08:59:10 2020


#       File generated by GOLD software.
#

@<TRIPOS>MOLECULE
AV-unprocessed.smi:1810
    47    48     1
SMALL
NO_CHARGES


@<TRIPOS>ATOM
      1 ****        -3.6280   2.8301   2.6732 C.3            1 S1                 0.0000
      2 ****        -3.3185   2.3419   1.2835 C.2            1 S1                 0.0000
      3 ****        -2.8112   1.1572   1.1834 N.2            1 S1                 0.0000
      4 ****        -2.4916   0.6133  -0.0449 N.am           1 S1                 0.0000
      5 ****        -1.9142  -0.7331   0.0299 C.3            1 S1                 0.0000
      6 ****        -0.3805  -0.6946  -0.0519 C.3            1 S1                 0.0000
      7 ****         0.1154  -2.0190   0.0867 O.3            1 S1                 0.0000
      8 ****         1.4797  -2.2123   0.0446 C.ar           1 S1                 0.0000
      9 ****         2.4261  -1.1738  -0.1519 C.ar           1 S1                 0.0000
     10 ****         3.8045  -1.4611  -0.1834 C.ar           1 S1                 0.0000
     11 ****         4.2467  -2.7870  -0.0174 C.ar           1 S1                 0.0000
     12 ****         6.0002  -3.1371  -0.0607 S.o2           1 S1                 0.0000
     13 ****         6.3557  -2.9785  -1.7365 N.3            1 S1                 0.0000
     14 ****         6.7059  -2.0567   0.6453 O.2            1 S1                 0.0000
     15 ****         6.2181  -4.5446   0.3077 O.2            1 S1                 0.0000
     16 ****         3.3197  -3.8285   0.1790 C.ar           1 S1                 0.0000
     17 ****         1.9427  -3.5352   0.2084 C.ar           1 S1                 0.0000
     18 ****        -2.6667   1.2415  -1.2422 C.2            1 S1                 0.0000
     19 ****        -2.3620   0.7191  -2.3154 O.2            1 S1                 0.0000
     20 ****        -3.2413   2.5835  -1.1219 C.2            1 S1                 0.0000
     21 ****        -3.4402   3.2781  -2.3529 C.1            1 S1                 0.0000
     22 ****        -3.6075   3.8583  -3.3405 N.1            1 S1                 0.0000
     23 ****        -3.5602   3.1291   0.0786 C.2            1 S1                 0.0000
     24 ****        -4.1585   4.5178   0.2580 C.3            1 S1                 0.0000
     25 ****        -4.6880   3.0634   2.7749 H              1 S1                 0.0000
     26 ****        -3.0591   3.7313   2.9021 H              1 S1                 0.0000
     27 ****        -3.3815   2.0845   3.4307 H              1 S1                 0.0000
     28 ****        -2.2134  -1.2146   0.9628 H              1 S1                 0.0000
     29 ****        -2.3161  -1.3649  -0.7641 H              1 S1                 0.0000
     30 ****        -0.0680  -0.2751  -1.0094 H              1 S1                 0.0000
     31 ****         0.0147  -0.0615   0.7442 H              1 S1                 0.0000
     32 ****         2.1204  -0.1470  -0.2823 H              1 S1                 0.0000
     33 ****         4.5177  -0.6641  -0.3348 H              1 S1                 0.0000
     34 ****         6.2168  -2.0259  -2.0725 H              1 S1                 0.0000
     35 ****         5.8762  -3.6794  -2.3009 H              1 S1                 0.0000
     36 ****         3.6534  -4.8476   0.3061 H              1 S1                 0.0000
     37 ****         1.2326  -4.3352   0.3590 H              1 S1                 0.0000
     38 ****        -4.2953   5.0348  -0.6914 H              1 S1                 0.0000
     39 ****        -3.5089   5.1378   0.8769 H              1 S1                 0.0000
     40 ****        -5.1350   4.4539   0.7391 H              1 S1                 0.0000
     41 ****        -2.6468   0.6234   2.0129 LP             1 S1                 0.0000
     42 ****        -0.2840  -2.5636  -0.6507 LP             1 S1                 0.0000
     43 ****        -0.2059  -2.3650   0.9682 LP             1 S1                 0.0000
     44 ****         7.3322  -3.1643  -1.8458 LP             1 S1                 0.0000
     45 ****        -1.9697  -0.2006  -2.3302 LP             1 S1                 0.0000
     46 ****        -2.5070   1.2148  -3.1717 LP             1 S1                 0.0000
     47 ****        -3.7520   4.3596  -4.1936 LP             1 S1                 0.0000
@<TRIPOS>BOND
    1    1    2 1     
    2    1   25 1     
    3    1   26 1     
    4    1   27 1     
    5    2   23 1     
    6    2    3 2     
    7    3    4 1     
    8    4    5 1     
    9    4   18 am    
   10    5    6 1     
   11    5   28 1     
   12    5   29 1     
   13    6    7 1     
   14    6   30 1     
   15    6   31 1     
   16    7    8 1     
   17    8   17 ar    
   18    8    9 ar    
   19    9   10 ar    
   20    9   32 1     
   21   10   11 ar    
   22   10   33 1     
   23   11   12 1     
   24   11   16 ar    
   25   12   13 1     
   26   12   14 2     
   27   12   15 2     
   28   13   34 1     
   29   13   35 1     
   30   16   17 ar    
   31   16   36 1     
   32   17   37 1     
   33   18   19 2     
   34   18   20 1     
   35   20   21 1     
   36   20   23 2     
   37   21   22 3     
   38   23   24 1     
   39   24   38 1     
   40   24   39 1     
   41   24   40 1     
   42    3   41 1     
   43    7   42 1     
   44    7   43 1     
   45   13   44 1     
   46   19   45 1     
   47   19   46 1     
   48   22   47 1     
@<TRIPOS>SUBSTRUCTURE
      1 S1             1
@<TRIPOS>SET
LONE_PAIRS      STATIC     ATOMS    <user>   **** ""
9 41 42 43 44 14 15 45 46 47
DONOR_HYDROGENS      STATIC     ATOMS    <user>   **** ""
2 34 35
ATOM$BLUE        STATIC     ATOMS    COLORGROUP SYSTEM
9 41 42 43 44 14 15 45 46 47
ATOM$RED        STATIC     ATOMS    COLORGROUP SYSTEM
2 34 35
