AV-unprocessed.smi:3044|AV-procd|sdf|11607|dock9
  -GOLD-   2272016583D 1   1.00000     0.00000
 Structure written by MMmdl.
 41 42  0  0  0  0  0  0  0  0  1 V2000
  147.5812  141.6616  158.0438 C   0  0  0  0  0  0  0  0  0  0  0  0
  147.3141  141.6858  156.5486 C   0  0  0  0  0  0  0  0  0  0  0  0
  146.0447  141.9821  156.1902 N   0  0  0  0  0  0  0  0  0  0  0  0
  145.7443  142.0177  154.8754 C   0  0  0  0  0  0  0  0  0  0  0  0
  146.6850  141.7545  153.8622 C   0  0  0  0  0  0  0  0  0  0  0  0
  148.0065  141.4467  154.2367 C   0  0  0  0  0  0  0  0  0  0  0  0
  148.3432  141.4215  155.6118 C   0  0  0  0  0  0  0  0  0  0  0  0
  149.6442  141.1021  156.0891 N   0  0  0  0  0  0  0  0  0  0  0  0
  150.6144  140.3968  155.4782 C   0  0  0  0  0  0  0  0  0  0  0  0
  150.5065  139.8770  154.3682 O   0  0  0  0  0  0  0  0  0  0  0  0
  151.9306  140.2537  156.2444 C   0  0  0  0  0  0  0  0  0  0  0  0
  151.6763  140.3238  157.6427 O   0  0  0  0  0  0  0  0  0  0  0  0
  152.4481  141.2954  158.3351 C   0  0  2  0  0  0  0  0  0  0  0  0
  152.5287  140.8516  159.8053 C   0  0  0  0  0  0  0  0  0  0  0  0
  153.2772  141.8853  160.6597 C   0  0  0  0  0  0  0  0  0  0  0  0
  152.6264  143.2728  160.5462 C   0  0  0  0  0  0  0  0  0  0  0  0
  152.5351  143.7366  159.0795 C   0  0  2  0  0  0  0  0  0  0  0  0
  151.8756  145.1189  158.9697 C   0  0  0  0  0  0  0  0  0  0  0  0
  151.7947  142.6887  158.2248 C   0  0  0  0  0  0  0  0  0  0  0  0
  148.3456  142.3942  158.3040 H   0  0  0  0  0  0  0  0  0  0  0  0
  147.9301  140.6757  158.3517 H   0  0  0  0  0  0  0  0  0  0  0  0
  146.6829  141.8946  158.6168 H   0  0  0  0  0  0  0  0  0  0  0  0
  144.7218  142.2571  154.6233 H   0  0  0  0  0  0  0  0  0  0  0  0
  146.3984  141.7832  152.8213 H   0  0  0  0  0  0  0  0  0  0  0  0
  148.7299  141.2231  153.4679 H   0  0  0  0  0  0  0  0  0  0  0  0
  149.9078  141.5406  156.9599 H   0  0  0  0  0  0  0  0  0  0  0  0
  152.3846  139.2954  155.9886 H   0  0  0  0  0  0  0  0  0  0  0  0
  152.6144  141.0430  155.9312 H   0  0  0  0  0  0  0  0  0  0  0  0
  153.4615  141.3266  157.9300 H   0  0  0  0  0  0  0  0  0  0  0  0
  151.5226  140.7116  160.2033 H   0  0  0  0  0  0  0  0  0  0  0  0
  153.0262  139.8838  159.8747 H   0  0  0  0  0  0  0  0  0  0  0  0
  153.2911  141.5660  161.7021 H   0  0  0  0  0  0  0  0  0  0  0  0
  154.3184  141.9412  160.3394 H   0  0  0  0  0  0  0  0  0  0  0  0
  151.6287  143.2424  160.9867 H   0  0  0  0  0  0  0  0  0  0  0  0
  153.1991  143.9933  161.1309 H   0  0  0  0  0  0  0  0  0  0  0  0
  153.5512  143.8266  158.6927 H   0  0  0  0  0  0  0  0  0  0  0  0
  150.8486  145.0987  159.3360 H   0  0  0  0  0  0  0  0  0  0  0  0
  151.8530  145.4626  157.9350 H   0  0  0  0  0  0  0  0  0  0  0  0
  152.4217  145.8622  159.5511 H   0  0  0  0  0  0  0  0  0  0  0  0
  151.7789  143.0176  157.1858 H   0  0  0  0  0  0  0  0  0  0  0  0
  150.7530  142.6262  158.5427 H   0  0  0  0  0  0  0  0  0  0  0  0
  1  2  1  0  0  0  0
  1 20  1  0  0  0  0
  1 21  1  0  0  0  0
  1 22  1  0  0  0  0
  2  7  1  0  0  0  0
  2  3  2  0  0  0  0
  3  4  1  0  0  0  0
  4  5  2  0  0  0  0
  4 23  1  0  0  0  0
  5  6  1  0  0  0  0
  5 24  1  0  0  0  0
  6  7  2  0  0  0  0
  6 25  1  0  0  0  0
  7  8  1  0  0  0  0
  8  9  1  0  0  0  0
  8 26  1  0  0  0  0
  9 10  2  0  0  0  0
  9 11  1  0  0  0  0
 11 12  1  0  0  0  0
 11 27  1  0  0  0  0
 11 28  1  0  0  0  0
 12 13  1  0  0  0  0
 13 19  1  0  0  0  0
 13 14  1  0  0  0  0
 13 29  1  0  0  0  0
 14 15  1  0  0  0  0
 14 30  1  0  0  0  0
 14 31  1  0  0  0  0
 15 16  1  0  0  0  0
 15 32  1  0  0  0  0
 15 33  1  0  0  0  0
 16 17  1  0  0  0  0
 16 34  1  0  0  0  0
 16 35  1  0  0  0  0
 17 18  1  0  0  0  0
 17 19  1  0  0  0  0
 17 36  1  0  0  0  0
 18 37  1  0  0  0  0
 18 38  1  0  0  0  0
 18 39  1  0  0  0  0
 19 40  1  0  0  0  0
 19 41  1  0  0  0  0
M  END
> <s_m_source_file>
AV-unprocessed.smi

> <i_m_source_file_index>
3044

> <i_lp_mmshare_version>
43012

> <i_f3d_flags>
0

> <s_epik_input>
W0NIM11jMW5bY0hdW2NIXVtjSF1jMVtOSF1DKD1PKVtDSDJdT1tDQEBIXTJbQ0gyXVtDSDJdW0NIMl1bQ0BASF0oW0NIM10pW0NIMl0y

> <s_epik_cmdline>
J2VwaWtfcHl0aG9uJywgJy1waCcsICc3LjAnLCAnLXRuJywgJzgnLCAnLW1hJywgJzIwMCcsICctbWV0YWxfYmluZGluZycsICctaW1hZScsICc8aW5maWxlLm1hZT4nLCAnLW9tYWUnLCAnPG91dGZpbGUubWFlPic=

> <r_epik_Ionization_Penalty>
0.0077122

> <r_epik_Ionization_Penalty_Charging>
0

> <r_epik_Ionization_Penalty_Neutral>
0.0077122

> <r_epik_State_Penalty>
0.00577497

> <r_epik_Charging_Adjusted_Penalty>
0.00577497

> <i_epik_Tot_Q>
0

> <i_epik_Tot_abs_Q>
0

> <r_epik_Metal_State_Penalty>
-0

> <b_epik_Metal_Only>
0

> <s_lp_Force_Field>
OPLS_2005

> <r_lp_Energy>
17.0629

> <b_lp_Chiralities_Consistent>
1

> <s_lp_Variant>
AV-unprocessed.smi:3044-3

> <Gold.Version>
5.8.1

> <Gold.Id.Protein>
6NUR|6NUR_protein|mol2

> <Gold.PLP.Fitness>
42.9793

> <Gold.PLP.PLP>
-42.1897

> <Gold.PLP.part.hbond>
-1.0000

> <Gold.PLP.part.metal>
0.0000

> <Gold.PLP.part.buried>
-3.9843

> <Gold.PLP.part.nonpolar>
-35.7124

> <Gold.PLP.part.repulsive>
0.3213

> <Gold.PLP.ligand.clash>
0.0000

> <Gold.PLP.ligand.torsion>
1.1120

> <Gold.PLP.Chemscore.Hbond>
1.0000

> <Gold.PLP.Chemscore.CHOScore>
0.0000

> <Gold.PLP.Chemscore.Metal>
0.0000

> <Gold.Chemscore.Hbonds>
donor molecule, donor type, donor heavy atom, donor atom, acceptor molecule, acceptor atom, score
      P1  H  7989  7998       L1    10  0.95

> <Gold.PLP.Chemscore.Internal.Correction>
0.0137

> <Gold.Rescore>
     Score         DG    S(hbond)    S(metal)    S(lipo)     H(rot)  DE(clash)    DE(int)     intcor
     16.17     -18.53       1.00        0.00     111.67       1.31       0.11       2.24       ----

> <Gold.Chemscore.Fitness>
16.1723

> <Gold.Chemscore.DG>
-18.5261

> <Gold.Chemscore.ZeroCoef>
-5.4800

> <Gold.Chemscore.Hbond>
0.9955

> <Gold.Chemscore.Metal>
0.0000

> <Gold.Chemscore.Lipo>
111.6703

> <Gold.Chemscore.Internal_Hbond>
0.0000

> <Gold.Chemscore.DEClash>
0.1124

> <Gold.Chemscore.DEInternal>
2.2414

> <Gold.Chemscore.Rot>
1.3064

> <Gold.Chemscore.Internal.Correction>
   9.000000E+99

> <Gold.Chemscore.Hbonds>
donor molecule, donor type, donor heavy atom, donor atom, acceptor molecule, acceptor atom, score
      P1  H  7989  7998       L1    10  0.22

> <Gold.Chemscore.Hbond.Weighted>
-3.3250

> <Gold.Chemscore.Metal.Weighted>
-0.0000

> <Gold.Chemscore.Lipo.Weighted>
-13.0654

> <Gold.Chemscore.Internal_Hbond.Weighted>
0.0000

> <Gold.Chemscore.DEClash.Weighted>
0.1124

> <Gold.Chemscore.DEInternal.Weighted>
2.2414

> <Gold.Chemscore.Rot.Weighted>
3.3443

> <Gold.Chemscore.Internal.Correction.Weighted>
   9.000000E+99

> <Gold.Protein.RotatedTorsions>
[ 6907 6896 6895 6894 ] final   82.44 input  -60.11 | X-H torsion
[ 7974 7965 7964 7962 ] final  -23.19 input  175.53 | X-H torsion
[ 8008 7997 7996 7995 ] final  -37.78 input   59.86 | X-H torsion
[ 10167 10162 10161 10158 ] final  -47.48 input  -65.29 | X-H torsion
[ 10718 10713 10712 10709 ] final -171.30 input   66.30 | X-H torsion
[ 10763 10752 10751 10750 ] final  -38.16 input  -60.55 | X-H torsion
[ 11005 11000 10999 10996 ] final  157.19 input  -57.11 | X-H torsion

> <Gold.Protein.ActiveResidues>
 VAL166  LYS551  ARG553  GLY616  TRP617  ASP618  TYR619  PRO620  LYS621  CYS622 
 ASP623  PHE694  ASN695  SER759  ASP760  ASP761  ALA762  ILE779  LEU786  VAL792 
 PHE793  MET794  SER795  GLU796  ALA797  LYS798  CYS799  TRP800  GLU811  SER814 

> <Gold.Protein.RotatedAtoms>
  152.5299  134.3049  159.9092 H   0  0  0  0  0  0  0  0  0  0  0  0  # atno 6907 bound_to 6896
  151.3000  133.4120  159.2646 H   0  0  0  0  0  0  0  0  0  0  0  0  # atno 6908 bound_to 6896
  151.0127  134.9426  159.8073 H   0  0  0  0  0  0  0  0  0  0  0  0  # atno 6909 bound_to 6896
  146.1631  140.4582  142.8563 H   0  0  0  0  0  0  0  0  0  0  0  0  # atno 7974 bound_to 7965
  154.4047  140.1595  156.2593 H   0  0  0  0  0  0  0  0  0  0  0  0  # atno 8008 bound_to 7997
  155.9051  140.3431  155.6033 H   0  0  0  0  0  0  0  0  0  0  0  0  # atno 8009 bound_to 7997
  155.7402  140.0791  157.2239 H   0  0  0  0  0  0  0  0  0  0  0  0  # atno 8010 bound_to 7997
  140.6773  143.2783  151.3932 H   0  0  0  0  0  0  0  0  0  0  0  0  # atno 10167 bound_to 10162
  156.7389  130.9334  151.3109 H   0  0  0  0  0  0  0  0  0  0  0  0  # atno 10718 bound_to 10713
  153.9083  135.6795  153.4752 H   0  0  0  0  0  0  0  0  0  0  0  0  # atno 10763 bound_to 10752
  153.1092  135.4791  154.9002 H   0  0  0  0  0  0  0  0  0  0  0  0  # atno 10764 bound_to 10752
  154.7540  135.3192  154.8460 H   0  0  0  0  0  0  0  0  0  0  0  0  # atno 10765 bound_to 10752
  140.1746  134.8519  157.2731 H   0  0  0  0  0  0  0  0  0  0  0  0  # atno 11005 bound_to 11000
  144.8054  140.6290  143.6450 LP  0  0  0  0  0  0  0  0  0  0  0  0  # atno 17320 bound_to 7965
  145.4538  139.1520  143.3904 LP  0  0  0  0  0  0  0  0  0  0  0  0  # atno 17321 bound_to 7965
  139.6073  144.1170  152.2263 LP  0  0  0  0  0  0  0  0  0  0  0  0  # atno 17342 bound_to 10162
  140.0573  144.5885  150.7290 LP  0  0  0  0  0  0  0  0  0  0  0  0  # atno 17343 bound_to 10162
  157.6827  130.9155  150.0308 LP  0  0  0  0  0  0  0  0  0  0  0  0  # atno 17370 bound_to 10713
  156.1478  130.3642  149.9483 LP  0  0  0  0  0  0  0  0  0  0  0  0  # atno 17371 bound_to 10713
  140.2337  134.3878  155.7510 LP  0  0  0  0  0  0  0  0  0  0  0  0  # atno 17394 bound_to 11000
  141.2219  133.7228  156.8681 LP  0  0  0  0  0  0  0  0  0  0  0  0  # atno 17395 bound_to 11000

$$$$
