AV-unprocessed.smi:2154|AV-procd|sdf|8773|dock6
  -GOLD-   2272011553D 1   1.00000     0.00000
 Structure written by MMmdl.
 32 33  0  0  0  0  0  0  0  0  1 V2000
  153.6972  142.6911  159.9486 C   0  0  0  0  0  0  0  0  0  0  0  0
  152.2882  143.2310  160.0650 C   0  0  1  0  0  0  0  0  0  0  0  0
  152.0198  144.7136  159.9439 C   0  0  0  0  0  0  0  0  0  0  0  0
  151.5677  143.7740  158.8512 C   0  0  2  0  0  0  0  0  0  0  0  0
  150.0901  143.5080  158.6333 C   0  0  0  0  0  0  0  0  0  0  0  0
  149.7563  142.9133  157.3457 N   0  0  0  0  0  0  0  0  0  0  0  0
  149.4548  141.6209  157.1487 C   0  0  0  0  0  0  0  0  0  0  0  0
  149.4203  140.7913  158.0588 O   0  0  0  0  0  0  0  0  0  0  0  0
  149.1212  141.2186  155.7050 C   0  0  0  0  0  0  0  0  0  0  0  0
  149.9554  140.1156  155.2060 N   0  0  0  0  0  0  0  0  0  0  0  0
  151.2957  140.0369  155.5569 C   0  0  0  0  0  0  0  0  0  0  0  0
  152.1229  139.0550  155.1264 C   0  0  0  0  0  0  0  0  0  0  0  0
  151.6254  138.0035  154.2460 C   0  0  0  0  0  0  0  0  0  0  0  0
  152.2950  137.0719  153.8053 O   0  0  0  0  0  0  0  0  0  0  0  0
  150.2731  138.1192  153.9132 N   0  0  0  0  0  0  0  0  0  0  0  0
  149.4159  139.1293  154.3516 C   0  0  0  0  0  0  0  0  0  0  0  0
  148.2387  139.1398  153.9934 O   0  0  0  0  0  0  0  0  0  0  0  0
  149.8846  137.4150  153.3027 H   0  0  0  0  0  0  0  0  0  0  0  0
  154.2718  143.2607  159.2174 H   0  0  0  0  0  0  0  0  0  0  0  0
  153.6727  141.6478  159.6344 H   0  0  0  0  0  0  0  0  0  0  0  0
  154.2025  142.7529  160.9125 H   0  0  0  0  0  0  0  0  0  0  0  0
  151.6759  142.6948  160.7876 H   0  0  0  0  0  0  0  0  0  0  0  0
  151.2590  145.1388  160.5956 H   0  0  0  0  0  0  0  0  0  0  0  0
  152.8624  145.3664  159.7255 H   0  0  0  0  0  0  0  0  0  0  0  0
  152.1433  143.8275  157.9288 H   0  0  0  0  0  0  0  0  0  0  0  0
  149.7265  142.8423  159.4169 H   0  0  0  0  0  0  0  0  0  0  0  0
  149.5451  144.4456  158.7541 H   0  0  0  0  0  0  0  0  0  0  0  0
  149.7569  143.5280  156.5448 H   0  0  0  0  0  0  0  0  0  0  0  0
  148.0667  140.9413  155.6661 H   0  0  0  0  0  0  0  0  0  0  0  0
  149.2149  142.0866  155.0488 H   0  0  0  0  0  0  0  0  0  0  0  0
  151.7090  140.7973  156.2042 H   0  0  0  0  0  0  0  0  0  0  0  0
  153.1584  139.0484  155.4343 H   0  0  0  0  0  0  0  0  0  0  0  0
  1  2  1  0  0  0  0
  1 19  1  0  0  0  0
  1 20  1  0  0  0  0
  1 21  1  0  0  0  0
  2  4  1  0  0  0  0
  2  3  1  0  0  0  0
  2 22  1  0  0  0  0
  3  4  1  0  0  0  0
  3 23  1  0  0  0  0
  3 24  1  0  0  0  0
  4  5  1  0  0  0  0
  4 25  1  0  0  0  0
  5  6  1  0  0  0  0
  5 26  1  0  0  0  0
  5 27  1  0  0  0  0
  6  7  1  0  0  0  0
  6 28  1  0  0  0  0
  7  8  2  0  0  0  0
  7  9  1  0  0  0  0
  9 10  1  0  0  0  0
  9 29  1  0  0  0  0
  9 30  1  0  0  0  0
 10 16  1  0  0  0  0
 10 11  1  0  0  0  0
 11 12  2  0  0  0  0
 11 31  1  0  0  0  0
 12 13  1  0  0  0  0
 12 32  1  0  0  0  0
 13 14  2  0  0  0  0
 13 15  1  0  0  0  0
 15 18  1  0  0  0  0
 15 16  1  0  0  0  0
 16 17  2  0  0  0  0
M  END
> <s_m_source_file>
AV-unprocessed.smi

> <i_m_source_file_index>
2154

> <i_lp_mmshare_version>
43012

> <i_f3d_flags>
0

> <s_epik_input>
W0NIM11bQ0BASF0xW0NIMl1bQ0BIXTFbQ0gyXVtOSF1DKD1PKVtDSDJdbjJbY0hdW2NIXWMoPU8pW25IXWMyPU8=

> <s_epik_cmdline>
J2VwaWtfcHl0aG9uJywgJy1waCcsICc3LjAnLCAnLXRuJywgJzgnLCAnLW1hJywgJzIwMCcsICctbWV0YWxfYmluZGluZycsICctaW1hZScsICc8aW5maWxlLm1hZT4nLCAnLW9tYWUnLCAnPG91dGZpbGUubWFlPic=

> <r_lp_tautomer_probability>
0.999537

> <r_epik_Ionization_Penalty>
0.00305319

> <r_epik_Ionization_Penalty_Charging>
0.00305317

> <r_epik_Ionization_Penalty_Neutral>
2.06703e-08

> <r_epik_State_Penalty>
0.00214626

> <r_epik_Charging_Adjusted_Penalty>
0.00519944

> <i_epik_Tot_Q>
0

> <i_epik_Tot_abs_Q>
0

> <r_epik_Metal_State_Penalty>
0.361976

> <b_epik_Metal_Only>
0

> <s_lp_Force_Field>
OPLS_2005

> <r_lp_Energy>
14.6752

> <b_lp_Chiralities_Consistent>
1

> <s_lp_Variant>
AV-unprocessed.smi:2154-4

> <Gold.Version>
5.8.1

> <Gold.Id.Protein>
6NUR|6NUR_protein|mol2

> <Gold.PLP.Fitness>
42.4589

> <Gold.PLP.PLP>
-35.3730

> <Gold.PLP.part.hbond>
-2.7326

> <Gold.PLP.part.metal>
0.0000

> <Gold.PLP.part.buried>
-6.0272

> <Gold.PLP.part.nonpolar>
-30.9385

> <Gold.PLP.part.repulsive>
2.3545

> <Gold.PLP.ligand.clash>
0.0000

> <Gold.PLP.ligand.torsion>
0.8924

> <Gold.PLP.Chemscore.Hbond>
2.7748

> <Gold.PLP.Chemscore.CHOScore>
0.0000

> <Gold.PLP.Chemscore.Metal>
0.0000

> <Gold.Chemscore.Hbonds>
donor molecule, donor type, donor heavy atom, donor atom, acceptor molecule, acceptor atom, score
      L1  H     6    28       P1  8028  0.91
      L1  H    15    18       P1  7948  0.98
      P1  H 10752 10764       L1    14  0.96

> <Gold.PLP.Chemscore.Internal.Correction>
0.5464

> <Gold.Rescore>
     Score         DG    S(hbond)    S(metal)    S(lipo)     H(rot)  DE(clash)    DE(int)     intcor
     16.38     -18.73       2.85        0.00      75.68       2.01       1.61       0.75       ----

> <Gold.Chemscore.Fitness>
16.3782

> <Gold.Chemscore.DG>
-18.7314

> <Gold.Chemscore.ZeroCoef>
-5.4800

> <Gold.Chemscore.Hbond>
2.8545

> <Gold.Chemscore.Metal>
0.0000

> <Gold.Chemscore.Lipo>
75.6763

> <Gold.Chemscore.Internal_Hbond>
0.0000

> <Gold.Chemscore.DEClash>
1.6061

> <Gold.Chemscore.DEInternal>
0.7471

> <Gold.Chemscore.Rot>
2.0065

> <Gold.Chemscore.Internal.Correction>
   9.000000E+99

> <Gold.Chemscore.Hbonds>
donor molecule, donor type, donor heavy atom, donor atom, acceptor molecule, acceptor atom, score
      L1  H     6    28       P1  8028  0.90
      L1  H    15    18       P1  7948  0.41
      P1  H 10752 10764       L1    14  0.89

> <Gold.Chemscore.Hbond.Weighted>
-9.5339

> <Gold.Chemscore.Metal.Weighted>
-0.0000

> <Gold.Chemscore.Lipo.Weighted>
-8.8541

> <Gold.Chemscore.Internal_Hbond.Weighted>
0.0000

> <Gold.Chemscore.DEClash.Weighted>
1.6061

> <Gold.Chemscore.DEInternal.Weighted>
0.7471

> <Gold.Chemscore.Rot.Weighted>
5.1366

> <Gold.Chemscore.Internal.Correction.Weighted>
   9.000000E+99

> <Gold.Protein.RotatedTorsions>
[ 6907 6896 6895 6894 ] final -172.24 input  -60.11 | X-H torsion
[ 7974 7965 7964 7962 ] final   53.64 input  175.53 | X-H torsion
[ 8008 7997 7996 7995 ] final  -80.70 input   59.86 | X-H torsion
[ 10167 10162 10161 10158 ] final   98.21 input  -65.29 | X-H torsion
[ 10718 10713 10712 10709 ] final -113.68 input   66.30 | X-H torsion
[ 10763 10752 10751 10750 ] final  -89.54 input  -60.55 | X-H torsion
[ 11005 11000 10999 10996 ] final  141.08 input  -57.11 | X-H torsion

> <Gold.Protein.ActiveResidues>
 VAL166  LYS551  ARG553  GLY616  TRP617  ASP618  TYR619  PRO620  LYS621  CYS622 
 ASP623  PHE694  ASN695  SER759  ASP760  ASP761  ALA762  ILE779  LEU786  VAL792 
 PHE793  MET794  SER795  GLU796  ALA797  LYS798  CYS799  TRP800  GLU811  SER814 

> <Gold.Protein.RotatedAtoms>
  151.5367  133.3439  159.2927 H   0  0  0  0  0  0  0  0  0  0  0  0  # atno 6907 bound_to 6896
  150.8560  134.7901  159.7057 H   0  0  0  0  0  0  0  0  0  0  0  0  # atno 6908 bound_to 6896
  152.4593  134.5228  159.9839 H   0  0  0  0  0  0  0  0  0  0  0  0  # atno 6909 bound_to 6896
  145.9690  139.4131  143.0201 H   0  0  0  0  0  0  0  0  0  0  0  0  # atno 7974 bound_to 7965
  154.5909  140.0659  156.9237 H   0  0  0  0  0  0  0  0  0  0  0  0  # atno 8008 bound_to 7997
  155.2297  140.3336  155.4286 H   0  0  0  0  0  0  0  0  0  0  0  0  # atno 8009 bound_to 7997
  156.2255  140.1817  156.7358 H   0  0  0  0  0  0  0  0  0  0  0  0  # atno 8010 bound_to 7997
  139.7729  144.6916  151.0130 H   0  0  0  0  0  0  0  0  0  0  0  0  # atno 10167 bound_to 10162
  156.0782  130.5986  150.8675 H   0  0  0  0  0  0  0  0  0  0  0  0  # atno 10718 bound_to 10713
  154.6564  135.5337  153.7964 H   0  0  0  0  0  0  0  0  0  0  0  0  # atno 10763 bound_to 10752
  153.0416  135.6495  154.0939 H   0  0  0  0  0  0  0  0  0  0  0  0  # atno 10764 bound_to 10752
  154.0851  135.2944  155.3262 H   0  0  0  0  0  0  0  0  0  0  0  0  # atno 10765 bound_to 10752
  140.0375  134.9321  157.0780 H   0  0  0  0  0  0  0  0  0  0  0  0  # atno 11005 bound_to 11000
  145.7932  140.9805  143.1038 LP  0  0  0  0  0  0  0  0  0  0  0  0  # atno 17320 bound_to 7965
  144.6832  139.9709  143.7482 LP  0  0  0  0  0  0  0  0  0  0  0  0  # atno 17321 bound_to 7965
  140.7815  143.4568  151.0335 LP  0  0  0  0  0  0  0  0  0  0  0  0  # atno 17342 bound_to 10162
  139.8251  143.7767  152.3178 LP  0  0  0  0  0  0  0  0  0  0  0  0  # atno 17343 bound_to 10162
  157.5887  131.0945  150.9154 LP  0  0  0  0  0  0  0  0  0  0  0  0  # atno 17370 bound_to 10713
  156.9335  130.5358  149.5279 LP  0  0  0  0  0  0  0  0  0  0  0  0  # atno 17371 bound_to 10713
  140.4123  134.1968  155.7163 LP  0  0  0  0  0  0  0  0  0  0  0  0  # atno 17394 bound_to 11000
  141.1865  133.8301  157.1065 LP  0  0  0  0  0  0  0  0  0  0  0  0  # atno 17395 bound_to 11000

$$$$
