AV-unprocessed.smi:3103|AV-procd|sdf|11814|dock8
  -GOLD-   2272017183D 1   1.00000     0.00000
 Structure written by MMmdl.
 32 32  0  0  0  0  0  0  0  0  1 V2000
  153.2581  142.5239  161.0837 C   0  0  0  0  0  0  0  0  0  0  0  0
  152.4632  142.5280  159.7922 C   0  0  0  0  0  0  0  0  0  0  0  0
  152.4114  141.3905  158.9589 C   0  0  0  0  0  0  0  0  0  0  0  0
  151.7099  141.3835  157.8047 N   0  0  0  0  0  0  0  0  0  0  0  0
  151.0626  142.5052  157.4813 C   0  0  0  0  0  0  0  0  0  0  0  0
  150.3640  142.4661  156.2901 N   0  0  0  0  0  0  0  0  0  0  0  0
  150.1183  141.2497  155.5306 C   0  0  0  0  0  0  0  0  0  0  0  0
  149.2241  141.5158  154.3158 C   0  0  0  0  0  0  0  0  0  0  0  0
  147.8865  141.6738  154.7585 O   0  0  0  0  0  0  0  0  0  0  0  0
  147.0504  142.2790  153.7868 C   0  0  0  0  0  0  0  0  0  0  0  0
  145.6831  142.5677  154.4182 C   0  0  0  0  0  0  0  0  0  0  0  0
  145.0655  141.3608  154.8115 O   0  0  0  0  0  0  0  0  0  0  0  0
  151.0371  143.6382  158.1930 N   0  0  0  0  0  0  0  0  0  0  0  0
  151.7355  143.6573  159.3501 C   0  0  0  0  0  0  0  0  0  0  0  0
  151.6963  144.9509  160.1411 C   0  0  0  0  0  0  0  0  0  0  0  0
  153.7833  141.5779  161.2190 H   0  0  0  0  0  0  0  0  0  0  0  0
  152.5964  142.6696  161.9378 H   0  0  0  0  0  0  0  0  0  0  0  0
  153.9985  143.3242  161.0785 H   0  0  0  0  0  0  0  0  0  0  0  0
  152.9342  140.4810  159.2158 H   0  0  0  0  0  0  0  0  0  0  0  0
  149.8988  143.3135  155.9990 H   0  0  0  0  0  0  0  0  0  0  0  0
  151.0777  140.8521  155.1979 H   0  0  0  0  0  0  0  0  0  0  0  0
  149.6630  140.4956  156.1739 H   0  0  0  0  0  0  0  0  0  0  0  0
  149.5622  142.3993  153.7719 H   0  0  0  0  0  0  0  0  0  0  0  0
  149.2815  140.6678  153.6320 H   0  0  0  0  0  0  0  0  0  0  0  0
  147.5054  143.2194  153.4718 H   0  0  0  0  0  0  0  0  0  0  0  0
  146.9506  141.6531  152.8980 H   0  0  0  0  0  0  0  0  0  0  0  0
  145.7733  143.2458  155.2676 H   0  0  0  0  0  0  0  0  0  0  0  0
  145.0326  143.0490  153.6876 H   0  0  0  0  0  0  0  0  0  0  0  0
  144.6561  140.9721  154.0537 H   0  0  0  0  0  0  0  0  0  0  0  0
  151.3333  144.7676  161.1526 H   0  0  0  0  0  0  0  0  0  0  0  0
  151.0367  145.6839  159.6745 H   0  0  0  0  0  0  0  0  0  0  0  0
  152.6940  145.3857  160.2048 H   0  0  0  0  0  0  0  0  0  0  0  0
  1  2  1  0  0  0  0
  1 16  1  0  0  0  0
  1 17  1  0  0  0  0
  1 18  1  0  0  0  0
  2 14  1  0  0  0  0
  2  3  2  0  0  0  0
  3  4  1  0  0  0  0
  3 19  1  0  0  0  0
  4  5  2  0  0  0  0
  5  6  1  0  0  0  0
  5 13  1  0  0  0  0
  6  7  1  0  0  0  0
  6 20  1  0  0  0  0
  7  8  1  0  0  0  0
  7 21  1  0  0  0  0
  7 22  1  0  0  0  0
  8  9  1  0  0  0  0
  8 23  1  0  0  0  0
  8 24  1  0  0  0  0
  9 10  1  0  0  0  0
 10 11  1  0  0  0  0
 10 25  1  0  0  0  0
 10 26  1  0  0  0  0
 11 12  1  0  0  0  0
 11 27  1  0  0  0  0
 11 28  1  0  0  0  0
 12 29  1  0  0  0  0
 13 14  2  0  0  0  0
 14 15  1  0  0  0  0
 15 30  1  0  0  0  0
 15 31  1  0  0  0  0
 15 32  1  0  0  0  0
M  END
> <s_m_source_file>
AV-unprocessed.smi

> <i_m_source_file_index>
3103

> <i_lp_mmshare_version>
43012

> <i_f3d_flags>
0

> <s_epik_input>
W0NIM11jMVtjSF1uYyhuYzFbQ0gzXSlbTkhdW0NIMl1bQ0gyXU9bQ0gyXVtDSDJdW09IXQ==

> <s_epik_cmdline>
J2VwaWtfcHl0aG9uJywgJy1waCcsICc3LjAnLCAnLXRuJywgJzgnLCAnLW1hJywgJzIwMCcsICctbWV0YWxfYmluZGluZycsICctaW1hZScsICc8aW5maWxlLm1hZT4nLCAnLW9tYWUnLCAnPG91dGZpbGUubWFlPic=

> <r_lp_tautomer_probability>
1

> <r_epik_Ionization_Penalty>
0.00815169

> <r_epik_Ionization_Penalty_Charging>
0

> <r_epik_Ionization_Penalty_Neutral>
0.00815169

> <r_epik_State_Penalty>
0.00530275

> <r_epik_Charging_Adjusted_Penalty>
0.00530275

> <i_epik_Tot_Q>
0

> <i_epik_Tot_abs_Q>
0

> <r_epik_Metal_State_Penalty>
-0

> <b_epik_Metal_Only>
0

> <s_lp_Force_Field>
OPLS_2005

> <r_lp_Energy>
-2.90403

> <b_lp_Chiralities_Consistent>
1

> <s_lp_Variant>
AV-unprocessed.smi:3103-1

> <Gold.Version>
5.8.1

> <Gold.Id.Protein>
6NUR|6NUR_protein|mol2

> <Gold.PLP.Fitness>
41.9458

> <Gold.PLP.PLP>
-36.2784

> <Gold.PLP.part.hbond>
-2.0000

> <Gold.PLP.part.metal>
0.0000

> <Gold.PLP.part.buried>
-5.0056

> <Gold.PLP.part.nonpolar>
-28.7179

> <Gold.PLP.part.repulsive>
0.3405

> <Gold.PLP.ligand.clash>
0.0000

> <Gold.PLP.ligand.torsion>
0.1775

> <Gold.PLP.Chemscore.Hbond>
2.0000

> <Gold.PLP.Chemscore.CHOScore>
0.0000

> <Gold.PLP.Chemscore.Metal>
0.0000

> <Gold.Chemscore.Hbonds>
donor molecule, donor type, donor heavy atom, donor atom, acceptor molecule, acceptor atom, score
      L1  H     6    20       P1  8028  1.00
      L1  H    12    29       P1 10175  1.00

> <Gold.PLP.Chemscore.Internal.Correction>
0.0225

> <Gold.Rescore>
     Score         DG    S(hbond)    S(metal)    S(lipo)     H(rot)  DE(clash)    DE(int)     intcor
     14.77     -15.03       2.00        0.00      81.77       2.61       0.02       0.23       ----

> <Gold.Chemscore.Fitness>
14.7725

> <Gold.Chemscore.DG>
-15.0284

> <Gold.Chemscore.ZeroCoef>
-5.4800

> <Gold.Chemscore.Hbond>
1.9959

> <Gold.Chemscore.Metal>
0.0000

> <Gold.Chemscore.Lipo>
81.7691

> <Gold.Chemscore.Internal_Hbond>
0.0000

> <Gold.Chemscore.DEClash>
0.0240

> <Gold.Chemscore.DEInternal>
0.2319

> <Gold.Chemscore.Rot>
2.6113

> <Gold.Chemscore.Internal.Correction>
   9.000000E+99

> <Gold.Chemscore.Hbonds>
donor molecule, donor type, donor heavy atom, donor atom, acceptor molecule, acceptor atom, score
      L1  H     6    20       P1  8028  1.00
      L1  H    12    29       P1 10175  0.88

> <Gold.Chemscore.Hbond.Weighted>
-6.6663

> <Gold.Chemscore.Metal.Weighted>
-0.0000

> <Gold.Chemscore.Lipo.Weighted>
-9.5670

> <Gold.Chemscore.Internal_Hbond.Weighted>
0.0000

> <Gold.Chemscore.DEClash.Weighted>
0.0240

> <Gold.Chemscore.DEInternal.Weighted>
0.2319

> <Gold.Chemscore.Rot.Weighted>
6.6849

> <Gold.Chemscore.Internal.Correction.Weighted>
   9.000000E+99

> <Gold.Protein.RotatedTorsions>
[ 6907 6896 6895 6894 ] final  157.17 input  -60.11 | X-H torsion
[ 7974 7965 7964 7962 ] final   17.51 input  175.53 | X-H torsion
[ 8008 7997 7996 7995 ] final -150.79 input   59.86 | X-H torsion
[ 10167 10162 10161 10158 ] final -130.64 input  -65.29 | X-H torsion
[ 10718 10713 10712 10709 ] final   77.33 input   66.30 | X-H torsion
[ 10763 10752 10751 10750 ] final   36.01 input  -60.55 | X-H torsion
[ 11005 11000 10999 10996 ] final  -50.66 input  -57.11 | X-H torsion

> <Gold.Protein.ActiveResidues>
 VAL166  LYS551  ARG553  GLY616  TRP617  ASP618  TYR619  PRO620  LYS621  CYS622 
 ASP623  PHE694  ASN695  SER759  ASP760  ASP761  ALA762  ILE779  LEU786  VAL792 
 PHE793  MET794  SER795  GLU796  ALA797  LYS798  CYS799  TRP800  GLU811  SER814 

> <Gold.Protein.RotatedAtoms>
  152.0190  133.3891  159.4250 H   0  0  0  0  0  0  0  0  0  0  0  0  # atno 6907 bound_to 6896
  150.6892  134.3647  159.4975 H   0  0  0  0  0  0  0  0  0  0  0  0  # atno 6908 bound_to 6896
  152.1418  134.9056  160.0604 H   0  0  0  0  0  0  0  0  0  0  0  0  # atno 6909 bound_to 6896
  146.2216  139.8592  142.8608 H   0  0  0  0  0  0  0  0  0  0  0  0  # atno 7974 bound_to 7965
  155.6291  140.0689  157.2654 H   0  0  0  0  0  0  0  0  0  0  0  0  # atno 8008 bound_to 7997
  154.4210  140.1770  156.1502 H   0  0  0  0  0  0  0  0  0  0  0  0  # atno 8009 bound_to 7997
  155.9947  140.3342  155.6790 H   0  0  0  0  0  0  0  0  0  0  0  0  # atno 8010 bound_to 7997
  139.9272  143.6313  152.2539 H   0  0  0  0  0  0  0  0  0  0  0  0  # atno 10167 bound_to 10162
  157.6706  130.9817  150.1626 H   0  0  0  0  0  0  0  0  0  0  0  0  # atno 10718 bound_to 10713
  153.0095  135.6317  154.1917 H   0  0  0  0  0  0  0  0  0  0  0  0  # atno 10763 bound_to 10752
  154.1659  135.2821  155.3097 H   0  0  0  0  0  0  0  0  0  0  0  0  # atno 10764 bound_to 10752
  154.5945  135.5607  153.7372 H   0  0  0  0  0  0  0  0  0  0  0  0  # atno 10765 bound_to 10752
  141.0828  133.6649  156.3764 H   0  0  0  0  0  0  0  0  0  0  0  0  # atno 11005 bound_to 11000
  145.2722  141.0112  143.3765 LP  0  0  0  0  0  0  0  0  0  0  0  0  # atno 17320 bound_to 7965
  144.9215  139.4406  143.6539 LP  0  0  0  0  0  0  0  0  0  0  0  0  # atno 17321 bound_to 7965
  139.6812  144.7655  151.1605 LP  0  0  0  0  0  0  0  0  0  0  0  0  # atno 17342 bound_to 10162
  140.7647  143.5722  150.8983 LP  0  0  0  0  0  0  0  0  0  0  0  0  # atno 17343 bound_to 10162
  156.2399  130.3690  149.8349 LP  0  0  0  0  0  0  0  0  0  0  0  0  # atno 17370 bound_to 10713
  156.6152  130.8603  151.3463 LP  0  0  0  0  0  0  0  0  0  0  0  0  # atno 17371 bound_to 10713
  140.5430  134.6102  157.5385 LP  0  0  0  0  0  0  0  0  0  0  0  0  # atno 17394 bound_to 11000
  139.9643  134.7399  156.0170 LP  0  0  0  0  0  0  0  0  0  0  0  0  # atno 17395 bound_to 11000

$$$$
