AV-unprocessed.smi:3134|AV-procd|sdf|11944|dock3
  -GOLD-   2272017333D 1   1.00000     0.00000
 Structure written by MMmdl.
 36 36  0  0  0  0  0  0  0  0  1 V2000
  153.1132  138.7386  154.5833 C   0  0  0  0  0  0  0  0  0  0  0  0
  152.1088  138.3563  155.6823 C   0  0  0  0  0  0  0  0  0  0  0  0
  151.1606  137.2418  155.2208 C   0  0  0  0  0  0  0  0  0  0  0  0
  151.3287  139.5222  156.0853 N   0  0  0  0  0  0  0  0  0  0  0  0
  150.5344  140.2441  155.2791 C   0  0  0  0  0  0  0  0  0  0  0  0
  150.3793  139.9951  154.0828 O   0  0  0  0  0  0  0  0  0  0  0  0
  149.7665  141.4051  155.9337 C   0  0  1  0  0  0  0  0  0  0  0  0
  148.8541  140.8903  157.0585 C   0  0  0  0  0  0  0  0  0  0  0  0
  150.6463  142.4673  156.4549 N   0  0  0  0  0  0  0  0  0  0  0  0
  151.2761  142.1564  157.7334 C   0  0  0  0  0  0  0  0  0  0  0  0
  151.9959  143.4043  158.2631 C   0  0  0  0  0  0  0  0  0  0  0  0
  152.3584  143.2546  159.6588 N   0  0  0  0  0  0  0  0  0  0  0  0
  153.1151  142.2623  160.2453 C   0  0  0  0  0  0  0  0  0  0  0  0
  153.1925  142.5460  161.5787 C   0  0  0  0  0  0  0  0  0  0  0  0
  152.4426  143.7480  161.7126 C   0  0  0  0  0  0  0  0  0  0  0  0
  151.9460  144.1707  160.5613 N   0  0  0  0  0  0  0  0  0  0  0  0
  153.7054  137.8758  154.2777 H   0  0  0  0  0  0  0  0  0  0  0  0
  153.8073  139.5053  154.9292 H   0  0  0  0  0  0  0  0  0  0  0  0
  152.6059  139.1247  153.6985 H   0  0  0  0  0  0  0  0  0  0  0  0
  152.6629  137.9840  156.5458 H   0  0  0  0  0  0  0  0  0  0  0  0
  151.7165  136.3473  154.9388 H   0  0  0  0  0  0  0  0  0  0  0  0
  150.5707  137.5525  154.3578 H   0  0  0  0  0  0  0  0  0  0  0  0
  150.4680  136.9611  156.0150 H   0  0  0  0  0  0  0  0  0  0  0  0
  151.3864  139.7945  157.0560 H   0  0  0  0  0  0  0  0  0  0  0  0
  149.1213  141.8518  155.1748 H   0  0  0  0  0  0  0  0  0  0  0  0
  148.1734  140.1195  156.6949 H   0  0  0  0  0  0  0  0  0  0  0  0
  148.2436  141.6974  157.4647 H   0  0  0  0  0  0  0  0  0  0  0  0
  149.4289  140.4657  157.8829 H   0  0  0  0  0  0  0  0  0  0  0  0
  150.1640  143.3528  156.5160 H   0  0  0  0  0  0  0  0  0  0  0  0
  150.5309  141.8337  158.4613 H   0  0  0  0  0  0  0  0  0  0  0  0
  151.9878  141.3394  157.6049 H   0  0  0  0  0  0  0  0  0  0  0  0
  152.9003  143.6029  157.6858 H   0  0  0  0  0  0  0  0  0  0  0  0
  151.3578  144.2838  158.1661 H   0  0  0  0  0  0  0  0  0  0  0  0
  153.5314  141.4476  159.6711 H   0  0  0  0  0  0  0  0  0  0  0  0
  153.7067  141.9815  162.3423 H   0  0  0  0  0  0  0  0  0  0  0  0
  152.2464  144.3223  162.6058 H   0  0  0  0  0  0  0  0  0  0  0  0
  1  2  1  0  0  0  0
  1 17  1  0  0  0  0
  1 18  1  0  0  0  0
  1 19  1  0  0  0  0
  2  3  1  0  0  0  0
  2  4  1  0  0  0  0
  2 20  1  0  0  0  0
  3 21  1  0  0  0  0
  3 22  1  0  0  0  0
  3 23  1  0  0  0  0
  4  5  1  0  0  0  0
  4 24  1  0  0  0  0
  5  6  2  0  0  0  0
  5  7  1  0  0  0  0
  7  8  1  0  0  0  0
  7  9  1  0  0  0  0
  7 25  1  0  0  0  0
  8 26  1  0  0  0  0
  8 27  1  0  0  0  0
  8 28  1  0  0  0  0
  9 10  1  0  0  0  0
  9 29  1  0  0  0  0
 10 11  1  0  0  0  0
 10 30  1  0  0  0  0
 10 31  1  0  0  0  0
 11 12  1  0  0  0  0
 11 32  1  0  0  0  0
 11 33  1  0  0  0  0
 12 16  1  0  0  0  0
 12 13  1  0  0  0  0
 13 14  2  0  0  0  0
 13 34  1  0  0  0  0
 14 15  1  0  0  0  0
 14 35  1  0  0  0  0
 15 16  2  0  0  0  0
 15 36  1  0  0  0  0
M  END
> <s_m_source_file>
AV-unprocessed.smi

> <i_m_source_file_index>
3134

> <i_lp_mmshare_version>
43012

> <i_f3d_flags>
0

> <s_epik_input>
W0NIM11bQ0hdKFtDSDNdKVtOSF1DKD1PKVtDQEhdKFtDSDNdKVtOSF1bQ0gyXVtDSDJdbjFbY0hdW2NIXVtjSF1uMQ==

> <s_epik_cmdline>
J2VwaWtfcHl0aG9uJywgJy1waCcsICc3LjAnLCAnLXRuJywgJzgnLCAnLW1hJywgJzIwMCcsICctbWV0YWxfYmluZGluZycsICctaW1hZScsICc8aW5maWxlLm1hZT4nLCAnLW9tYWUnLCAnPG91dGZpbGUubWFlPic=

> <r_lp_tautomer_probability>
1

> <r_epik_Ionization_Penalty>
0.731872

> <r_epik_Ionization_Penalty_Charging>
0

> <r_epik_Ionization_Penalty_Neutral>
0.731872

> <r_epik_State_Penalty>
0.75611

> <r_epik_Charging_Adjusted_Penalty>
0.75611

> <i_epik_Tot_Q>
0

> <i_epik_Tot_abs_Q>
0

> <r_epik_Metal_State_Penalty>
0.755373

> <b_epik_Metal_Only>
0

> <s_lp_Force_Field>
OPLS_2005

> <r_lp_Energy>
3.64981

> <b_lp_Chiralities_Consistent>
1

> <s_lp_Variant>
AV-unprocessed.smi:3134-4

> <Gold.Version>
5.8.1

> <Gold.Id.Protein>
6NUR|6NUR_protein|mol2

> <Gold.PLP.Fitness>
44.0102

> <Gold.PLP.PLP>
-38.4090

> <Gold.PLP.part.hbond>
-2.0000

> <Gold.PLP.part.metal>
0.0000

> <Gold.PLP.part.buried>
-5.4208

> <Gold.PLP.part.nonpolar>
-31.8351

> <Gold.PLP.part.repulsive>
0.9183

> <Gold.PLP.ligand.clash>
0.0000

> <Gold.PLP.ligand.torsion>
0.2317

> <Gold.PLP.Chemscore.Hbond>
1.9913

> <Gold.PLP.Chemscore.CHOScore>
0.0000

> <Gold.PLP.Chemscore.Metal>
0.0000

> <Gold.Chemscore.Hbonds>
donor molecule, donor type, donor heavy atom, donor atom, acceptor molecule, acceptor atom, score
      L1  H     9    29       P1  8028  0.93
      P1  H  7989  7998       L1     6  0.95

> <Gold.PLP.Chemscore.Internal.Correction>
0.0909

> <Gold.Rescore>
     Score         DG    S(hbond)    S(metal)    S(lipo)     H(rot)  DE(clash)    DE(int)     intcor
     14.91     -16.42       1.88        0.00      84.68       2.05       0.05       1.47       ----

> <Gold.Chemscore.Fitness>
14.9064

> <Gold.Chemscore.DG>
-16.4204

> <Gold.Chemscore.ZeroCoef>
-5.4800

> <Gold.Chemscore.Hbond>
1.8827

> <Gold.Chemscore.Metal>
0.0000

> <Gold.Chemscore.Lipo>
84.6807

> <Gold.Chemscore.Internal_Hbond>
0.0000

> <Gold.Chemscore.DEClash>
0.0486

> <Gold.Chemscore.DEInternal>
1.4653

> <Gold.Chemscore.Rot>
2.0529

> <Gold.Chemscore.Internal.Correction>
   9.000000E+99

> <Gold.Chemscore.Hbonds>
donor molecule, donor type, donor heavy atom, donor atom, acceptor molecule, acceptor atom, score
      L1  H     9    29       P1  8028  0.84
      P1  H  7989  7998       L1     6  0.21

> <Gold.Chemscore.Hbond.Weighted>
-6.2881

> <Gold.Chemscore.Metal.Weighted>
-0.0000

> <Gold.Chemscore.Lipo.Weighted>
-9.9076

> <Gold.Chemscore.Internal_Hbond.Weighted>
0.0000

> <Gold.Chemscore.DEClash.Weighted>
0.0486

> <Gold.Chemscore.DEInternal.Weighted>
1.4653

> <Gold.Chemscore.Rot.Weighted>
5.2554

> <Gold.Chemscore.Internal.Correction.Weighted>
   9.000000E+99

> <Gold.Protein.RotatedTorsions>
[ 6907 6896 6895 6894 ] final   32.40 input  -60.11 | X-H torsion
[ 7974 7965 7964 7962 ] final  131.98 input  175.53 | X-H torsion
[ 8008 7997 7996 7995 ] final   74.06 input   59.86 | X-H torsion
[ 10167 10162 10161 10158 ] final   11.49 input  -65.29 | X-H torsion
[ 10718 10713 10712 10709 ] final  -81.44 input   66.30 | X-H torsion
[ 10763 10752 10751 10750 ] final -135.46 input  -60.55 | X-H torsion
[ 11005 11000 10999 10996 ] final   -1.76 input  -57.11 | X-H torsion

> <Gold.Protein.ActiveResidues>
 VAL166  LYS551  ARG553  GLY616  TRP617  ASP618  TYR619  PRO620  LYS621  CYS622 
 ASP623  PHE694  ASN695  SER759  ASP760  ASP761  ALA762  ILE779  LEU786  VAL792 
 PHE793  MET794  SER795  GLU796  ALA797  LYS798  CYS799  TRP800  GLU811  SER814 

> <Gold.Protein.RotatedAtoms>
  152.0740  134.9515  160.0574 H   0  0  0  0  0  0  0  0  0  0  0  0  # atno 6907 bound_to 6896
  152.0830  133.4157  159.4518 H   0  0  0  0  0  0  0  0  0  0  0  0  # atno 6908 bound_to 6896
  150.6836  134.2880  159.4698 H   0  0  0  0  0  0  0  0  0  0  0  0  # atno 6909 bound_to 6896
  145.0017  139.4306  143.5289 H   0  0  0  0  0  0  0  0  0  0  0  0  # atno 7974 bound_to 7965
  155.7928  140.3478  155.5359 H   0  0  0  0  0  0  0  0  0  0  0  0  # atno 8008 bound_to 7997
  155.8617  140.0972  157.1629 H   0  0  0  0  0  0  0  0  0  0  0  0  # atno 8009 bound_to 7997
  154.4012  140.1357  156.3956 H   0  0  0  0  0  0  0  0  0  0  0  0  # atno 8010 bound_to 7997
  140.6128  143.8371  150.7084 H   0  0  0  0  0  0  0  0  0  0  0  0  # atno 10167 bound_to 10162
  156.0050  130.4604  150.3953 H   0  0  0  0  0  0  0  0  0  0  0  0  # atno 10718 bound_to 10713
  154.8702  135.3702  154.4903 H   0  0  0  0  0  0  0  0  0  0  0  0  # atno 10763 bound_to 10752
  153.5550  135.7024  153.5578 H   0  0  0  0  0  0  0  0  0  0  0  0  # atno 10764 bound_to 10752
  153.3680  135.4029  155.1731 H   0  0  0  0  0  0  0  0  0  0  0  0  # atno 10765 bound_to 10752
  140.6508  133.9406  155.8379 H   0  0  0  0  0  0  0  0  0  0  0  0  # atno 11005 bound_to 11000
  146.3453  139.9409  142.8741 LP  0  0  0  0  0  0  0  0  0  0  0  0  # atno 17320 bound_to 7965
  145.2144  140.9909  143.4081 LP  0  0  0  0  0  0  0  0  0  0  0  0  # atno 17321 bound_to 7965
  140.1944  143.4010  152.1839 LP  0  0  0  0  0  0  0  0  0  0  0  0  # atno 17342 bound_to 10162
  139.5375  144.7224  151.4845 LP  0  0  0  0  0  0  0  0  0  0  0  0  # atno 17343 bound_to 10162
  157.2025  131.0441  151.2642 LP  0  0  0  0  0  0  0  0  0  0  0  0  # atno 17370 bound_to 10713
  157.3962  130.7308  149.6733 LP  0  0  0  0  0  0  0  0  0  0  0  0  # atno 17371 bound_to 10713
  141.0538  134.0446  157.3749 LP  0  0  0  0  0  0  0  0  0  0  0  0  # atno 17394 bound_to 11000
  139.9046  135.0176  156.7429 LP  0  0  0  0  0  0  0  0  0  0  0  0  # atno 17395 bound_to 11000

$$$$
