AV-unprocessed.smi:218|AV-procd|sdf|1664|dock10
  -GOLD-   2262020 63D 1   1.00000     0.00000
 Structure written by MMmdl.
 54 57  0  0  0  0  0  0  0  0  1 V2000
  152.5709  143.3693  162.2314 C   0  0  0  0  0  0  0  0  0  0  0  0
  153.0259  142.0880  161.5223 C   0  0  0  0  0  0  0  0  0  0  0  0
  154.0540  141.3187  162.3697 C   0  0  0  0  0  0  0  0  0  0  0  0
  153.6054  142.4865  160.2785 O   0  0  0  0  0  0  0  0  0  0  0  0
  152.8005  142.9373  159.2499 C   0  0  0  0  0  0  0  0  0  0  0  0
  152.0421  141.9901  158.5326 C   0  0  0  0  0  0  0  0  0  0  0  0
  151.2251  142.4312  157.4697 C   0  0  0  0  0  0  0  0  0  0  0  0
  150.3943  141.4520  156.6545 C   0  0  0  0  0  0  0  0  0  0  0  0
  149.1167  141.9701  156.1743 N   0  0  0  0  0  0  0  0  0  0  0  0
  148.0181  141.1834  156.1880 C   0  0  0  0  0  0  0  0  0  0  0  0
  147.0653  141.3279  157.1456 N   0  0  0  0  0  0  0  0  0  0  0  0
  145.9831  140.5441  157.1341 C   0  0  0  0  0  0  0  0  0  0  0  0
  145.6663  139.5718  156.2760 N   0  0  0  0  0  0  0  0  0  0  0  0
  146.6240  139.4181  155.3160 C   0  0  0  0  0  0  0  0  0  0  0  0
  147.8216  140.1783  155.2064 C   0  0  0  0  0  0  0  0  0  0  0  0
  148.5547  139.7471  154.1086 N   0  0  0  0  0  0  0  0  0  0  0  0
  147.8267  138.7894  153.5998 C   0  0  0  0  0  0  0  0  0  0  0  0
  146.6498  138.5245  154.2647 N   0  0  0  0  0  0  0  0  0  0  0  0
  145.6162  137.5036  153.9176 C   0  0  2  0  0  0  0  0  0  0  0  0
  146.2065  136.2423  154.0247 O   0  0  0  0  0  0  0  0  0  0  0  0
  145.7741  135.4058  152.9583 C   0  0  1  0  0  0  0  0  0  0  0  0
  144.5035  134.6541  153.4104 C   0  0  0  0  0  0  0  0  0  0  0  0
  144.8170  133.6816  154.3854 O   0  0  0  0  0  0  0  0  0  0  0  0
  145.6069  136.3996  151.7997 C   0  0  1  0  0  0  0  0  0  0  0  0
  144.7844  135.9459  150.7398 O   0  0  0  0  0  0  0  0  0  0  0  0
  145.1210  137.6838  152.4709 C   0  0  1  0  0  0  0  0  0  0  0  0
  143.7114  137.8143  152.4267 O   0  0  0  0  0  0  0  0  0  0  0  0
  151.1903  143.8088  157.1764 C   0  0  0  0  0  0  0  0  0  0  0  0
  151.9824  144.6797  157.9492 C   0  0  0  0  0  0  0  0  0  0  0  0
  152.7722  144.2622  158.9609 N   0  0  0  0  0  0  0  0  0  0  0  0
  144.8343  137.6287  154.6683 H   0  0  0  0  0  0  0  0  0  0  0  0
  146.5633  134.6841  152.7425 H   0  0  0  0  0  0  0  0  0  0  0  0
  146.5945  136.5893  151.3785 H   0  0  0  0  0  0  0  0  0  0  0  0
  145.5655  138.5670  152.0096 H   0  0  0  0  0  0  0  0  0  0  0  0
  152.1025  143.1440  163.1898 H   0  0  0  0  0  0  0  0  0  0  0  0
  151.8437  143.9117  161.6267 H   0  0  0  0  0  0  0  0  0  0  0  0
  153.4121  144.0374  162.4188 H   0  0  0  0  0  0  0  0  0  0  0  0
  152.1379  141.4744  161.3641 H   0  0  0  0  0  0  0  0  0  0  0  0
  153.6355  141.0475  163.3392 H   0  0  0  0  0  0  0  0  0  0  0  0
  154.9449  141.9211  162.5489 H   0  0  0  0  0  0  0  0  0  0  0  0
  154.3720  140.3970  161.8833 H   0  0  0  0  0  0  0  0  0  0  0  0
  152.0952  140.9433  158.7937 H   0  0  0  0  0  0  0  0  0  0  0  0
  150.9823  141.1501  155.7876 H   0  0  0  0  0  0  0  0  0  0  0  0
  150.2184  140.5453  157.2346 H   0  0  0  0  0  0  0  0  0  0  0  0
  149.0627  142.9743  156.0824 H   0  0  0  0  0  0  0  0  0  0  0  0
  145.2684  140.7228  157.9238 H   0  0  0  0  0  0  0  0  0  0  0  0
  148.1317  138.2452  152.7178 H   0  0  0  0  0  0  0  0  0  0  0  0
  143.8042  135.3562  153.8654 H   0  0  0  0  0  0  0  0  0  0  0  0
  143.9840  134.1874  152.5741 H   0  0  0  0  0  0  0  0  0  0  0  0
  144.0132  133.2795  154.6783 H   0  0  0  0  0  0  0  0  0  0  0  0
  144.4715  136.6979  150.2601 H   0  0  0  0  0  0  0  0  0  0  0  0
  143.5006  138.6922  152.1482 H   0  0  0  0  0  0  0  0  0  0  0  0
  150.5762  144.1918  156.3744 H   0  0  0  0  0  0  0  0  0  0  0  0
  151.9811  145.7411  157.7496 H   0  0  0  0  0  0  0  0  0  0  0  0
  1  2  1  0  0  0  0
  1 35  1  0  0  0  0
  1 36  1  0  0  0  0
  1 37  1  0  0  0  0
  2  3  1  0  0  0  0
  2  4  1  0  0  0  0
  2 38  1  0  0  0  0
  3 39  1  0  0  0  0
  3 40  1  0  0  0  0
  3 41  1  0  0  0  0
  4  5  1  0  0  0  0
  5 30  1  0  0  0  0
  5  6  2  0  0  0  0
  6  7  1  0  0  0  0
  6 42  1  0  0  0  0
  7  8  1  0  0  0  0
  7 28  2  0  0  0  0
  8  9  1  0  0  0  0
  8 43  1  0  0  0  0
  8 44  1  0  0  0  0
  9 10  1  0  0  0  0
  9 45  1  0  0  0  0
 10 15  1  0  0  0  0
 10 11  2  0  0  0  0
 11 12  1  0  0  0  0
 12 13  2  0  0  0  0
 12 46  1  0  0  0  0
 13 14  1  0  0  0  0
 14 18  1  0  0  0  0
 14 15  2  0  0  0  0
 15 16  1  0  0  0  0
 16 17  2  0  0  0  0
 17 18  1  0  0  0  0
 17 47  1  0  0  0  0
 18 19  1  0  0  0  0
 19 31  1  0  0  0  0
 19 26  1  0  0  0  0
 19 20  1  0  0  0  0
 20 21  1  0  0  0  0
 21 32  1  0  0  0  0
 21 22  1  0  0  0  0
 21 24  1  0  0  0  0
 22 23  1  0  0  0  0
 22 48  1  0  0  0  0
 22 49  1  0  0  0  0
 23 50  1  0  0  0  0
 24 33  1  0  0  0  0
 24 25  1  0  0  0  0
 24 26  1  0  0  0  0
 25 51  1  0  0  0  0
 26 34  1  0  0  0  0
 26 27  1  0  0  0  0
 27 52  1  0  0  0  0
 28 29  1  0  0  0  0
 28 53  1  0  0  0  0
 29 30  2  0  0  0  0
 29 54  1  0  0  0  0
M  END
> <s_m_source_file>
AV-unprocessed.smi

> <i_m_source_file_index>
218

> <i_lp_mmshare_version>
43012

> <i_f3d_flags>
0

> <s_epik_input>
W0NIM11bQ0hdKFtDSDNdKU9jMVtjSF1jKFtjSF1bY0hdbjEpW0NIMl1bTkhdYyhuW2NIXW4yKWMoYzIzKW5bY0hdbjNbQ0BASF00T1tDQEhdKFtDSDJdW09IXSlbQ0BASF0oW09IXSlbQ0BIXTRbT0hd

> <s_epik_cmdline>
J2VwaWtfcHl0aG9uJywgJy1waCcsICc3LjAnLCAnLXRuJywgJzgnLCAnLW1hJywgJzIwMCcsICctbWV0YWxfYmluZGluZycsICctaW1hZScsICc8aW5maWxlLm1hZT4nLCAnLW9tYWUnLCAnPG91dGZpbGUubWFlPic=

> <r_lp_tautomer_probability>
1

> <r_epik_Ionization_Penalty>
0.00457014

> <r_epik_Ionization_Penalty_Charging>
0

> <r_epik_Ionization_Penalty_Neutral>
0.00457014

> <r_epik_State_Penalty>
-0

> <r_epik_Charging_Adjusted_Penalty>
0

> <i_epik_Tot_Q>
0

> <i_epik_Tot_abs_Q>
0

> <r_epik_Metal_State_Penalty>
-0

> <b_epik_Metal_Only>
0

> <s_epik_Chemistry_Notes>
This compound contains an acetal/aminal-like group ( X-CH(R)-Y where X, Y are N, S, or O) that may be acid/base labile, releasing an aldehyde.

> <s_lp_Force_Field>
OPLS_2005

> <r_lp_Energy>
44.1408

> <b_lp_Chiralities_Consistent>
1

> <s_lp_Variant>
AV-unprocessed.smi:218-3

> <Gold.Version>
5.8.1

> <Gold.Id.Protein>
6NUR|6NUR_protein|mol2

> <Gold.PLP.Fitness>
55.7627

> <Gold.PLP.PLP>
-42.9455

> <Gold.PLP.part.hbond>
-5.0000

> <Gold.PLP.part.metal>
0.0000

> <Gold.PLP.part.buried>
-2.8657

> <Gold.PLP.part.nonpolar>
-35.0925

> <Gold.PLP.part.repulsive>
0.3924

> <Gold.PLP.ligand.clash>
0.0000

> <Gold.PLP.ligand.torsion>
1.5445

> <Gold.PLP.Chemscore.Hbond>
3.9913

> <Gold.PLP.Chemscore.CHOScore>
1.2751

> <Gold.PLP.Chemscore.Metal>
0.0000

> <Gold.Chemscore.Hbonds>
donor molecule, donor type, donor heavy atom, donor atom, acceptor molecule, acceptor atom, score
      L1  H     9    45       P1  8028  1.00
      L1  H    23    50       P1 10957  1.00
      L1  H    25    51       P1 10171  1.00
      L1  H    27    52       P1 10175  0.98
      L1  C    17    47       P1  7948  1.00
      L1  C    17    47       P1  7957  0.21

> <Gold.PLP.Chemscore.Internal.Correction>
0.1071

> <Gold.Rescore>
     Score         DG    S(hbond)    S(metal)    S(lipo)     H(rot)  DE(clash)    DE(int)     intcor
     16.64     -18.28       3.96        0.00     103.66       4.90       0.17       1.47       ----

> <Gold.Chemscore.Fitness>
16.6403

> <Gold.Chemscore.DG>
-18.2814

> <Gold.Chemscore.ZeroCoef>
-5.4800

> <Gold.Chemscore.Hbond>
3.9596

> <Gold.Chemscore.Metal>
0.0000

> <Gold.Chemscore.Lipo>
103.6558

> <Gold.Chemscore.Internal_Hbond>
0.0000

> <Gold.Chemscore.DEClash>
0.1666

> <Gold.Chemscore.DEInternal>
1.4745

> <Gold.Chemscore.Rot>
4.9029

> <Gold.Chemscore.Internal.Correction>
   9.000000E+99

> <Gold.Chemscore.Hbonds>
donor molecule, donor type, donor heavy atom, donor atom, acceptor molecule, acceptor atom, score
      L1  H     9    45       P1  8028  1.00
      L1  H    23    50       P1 10957  0.91
      L1  H    25    51       P1 10171  0.94
      L1  H    27    52       P1 10175  0.93

> <Gold.Chemscore.Hbond.Weighted>
-13.2252

> <Gold.Chemscore.Metal.Weighted>
-0.0000

> <Gold.Chemscore.Lipo.Weighted>
-12.1277

> <Gold.Chemscore.Internal_Hbond.Weighted>
0.0000

> <Gold.Chemscore.DEClash.Weighted>
0.1666

> <Gold.Chemscore.DEInternal.Weighted>
1.4745

> <Gold.Chemscore.Rot.Weighted>
12.5515

> <Gold.Chemscore.Internal.Correction.Weighted>
   9.000000E+99

> <Gold.Protein.RotatedTorsions>
[ 6907 6896 6895 6894 ] final   91.94 input  -60.11 | X-H torsion
[ 7974 7965 7964 7962 ] final   73.08 input  175.53 | X-H torsion
[ 8008 7997 7996 7995 ] final  -29.66 input   59.86 | X-H torsion
[ 10167 10162 10161 10158 ] final   29.97 input  -65.29 | X-H torsion
[ 10718 10713 10712 10709 ] final  154.85 input   66.30 | X-H torsion
[ 10763 10752 10751 10750 ] final -166.08 input  -60.55 | X-H torsion
[ 11005 11000 10999 10996 ] final  -21.76 input  -57.11 | X-H torsion

> <Gold.Protein.ActiveResidues>
 VAL166  LYS551  ARG553  GLY616  TRP617  ASP618  TYR619  PRO620  LYS621  CYS622 
 ASP623  PHE694  ASN695  SER759  ASP760  ASP761  ALA762  ILE779  LEU786  VAL792 
 PHE793  MET794  SER795  GLU796  ALA797  LYS798  CYS799  TRP800  GLU811  SER814 

> <Gold.Protein.RotatedAtoms>
  152.5451  134.1579  159.8545 H   0  0  0  0  0  0  0  0  0  0  0  0  # atno 6907 bound_to 6896
  151.1600  133.4844  159.2602 H   0  0  0  0  0  0  0  0  0  0  0  0  # atno 6908 bound_to 6896
  151.1383  135.0177  159.8669 H   0  0  0  0  0  0  0  0  0  0  0  0  # atno 6909 bound_to 6896
  145.7453  139.2737  143.1463 H   0  0  0  0  0  0  0  0  0  0  0  0  # atno 7974 bound_to 7965
  154.4281  140.1812  156.1283 H   0  0  0  0  0  0  0  0  0  0  0  0  # atno 8008 bound_to 7997
  156.0088  140.3352  155.6895 H   0  0  0  0  0  0  0  0  0  0  0  0  # atno 8009 bound_to 7997
  155.6139  140.0653  157.2688 H   0  0  0  0  0  0  0  0  0  0  0  0  # atno 8010 bound_to 7997
  140.4719  144.0750  150.6239 H   0  0  0  0  0  0  0  0  0  0  0  0  # atno 10167 bound_to 10162
  157.2261  131.0729  151.1882 H   0  0  0  0  0  0  0  0  0  0  0  0  # atno 10718 bound_to 10713
  154.6868  135.2964  154.9536 H   0  0  0  0  0  0  0  0  0  0  0  0  # atno 10763 bound_to 10752
  154.0512  135.6644  153.4804 H   0  0  0  0  0  0  0  0  0  0  0  0  # atno 10764 bound_to 10752
  153.0584  135.5130  154.7940 H   0  0  0  0  0  0  0  0  0  0  0  0  # atno 10765 bound_to 10752
  140.8592  133.7800  156.0055 H   0  0  0  0  0  0  0  0  0  0  0  0  # atno 11005 bound_to 11000
  146.0409  140.8166  142.9829 LP  0  0  0  0  0  0  0  0  0  0  0  0  # atno 17320 bound_to 7965
  144.6861  140.2908  143.7278 LP  0  0  0  0  0  0  0  0  0  0  0  0  # atno 17321 bound_to 7965
  140.3967  143.2725  151.9997 LP  0  0  0  0  0  0  0  0  0  0  0  0  # atno 17342 bound_to 10162
  139.4820  144.6032  151.7568 LP  0  0  0  0  0  0  0  0  0  0  0  0  # atno 17343 bound_to 10162
  157.3526  130.7090  149.6450 LP  0  0  0  0  0  0  0  0  0  0  0  0  # atno 17370 bound_to 10713
  155.9678  130.4248  150.4625 LP  0  0  0  0  0  0  0  0  0  0  0  0  # atno 17371 bound_to 10713
  140.8702  134.2735  157.5194 LP  0  0  0  0  0  0  0  0  0  0  0  0  # atno 17394 bound_to 11000
  139.8706  134.9563  156.4234 LP  0  0  0  0  0  0  0  0  0  0  0  0  # atno 17395 bound_to 11000

$$$$
