#       Name:                AV-unprocessed.smi:2426
#       Creating user name   scv26
#       Creation time:       Fri Mar 27 13:20:57 2020


#       File generated by GOLD software.
#

@<TRIPOS>MOLECULE
AV-unprocessed.smi:2426
    42    43     1
SMALL
NO_CHARGES


@<TRIPOS>ATOM
      1 ****        -6.5217  -2.6797  -0.8313 C.3            1 S1                 0.0000
      2 ****        -5.0992  -2.6671  -0.8690 O.3            1 S1                 0.0000
      3 ****        -4.4508  -1.4820  -0.5901 C.ar           1 S1                 0.0000
      4 ****        -3.0416  -1.4429  -0.6158 C.ar           1 S1                 0.0000
      5 ****        -2.4169  -0.2095  -0.3243 C.ar           1 S1                 0.0000
      6 ****        -0.9975  -0.2133  -0.3620 N.am           1 S1                 0.0000
      7 ****        -0.1586   0.8091  -0.1191 C.2            1 S1                 0.0000
      8 ****        -0.4988   1.9514   0.1904 O.2            1 S1                 0.0000
      9 ****         1.1201   0.4291  -0.2582 N.am           1 S1                 0.0000
     10 ****         2.2862   1.2862  -0.0634 C.3            1 S1                 0.0000
     11 ****         2.5854   2.0759  -1.3479 C.3            1 S1                 0.0000
     12 ****         3.4714   0.4261   0.3717 C.3            1 S1                 0.0000
     13 ****         3.4577  -0.2619   1.7457 C.3            1 S1                 0.0000
     14 ****         4.9706  -0.0378   1.8215 C.3            1 S1                 0.0000
     15 ****         4.7886   1.0901   0.8020 C.3            1 S1                 0.0000
     16 ****        -3.1717   0.8790  -0.0342 N.ar           1 S1                 0.0000
     17 ****        -4.4984   0.7384  -0.0357 C.ar           1 S1                 0.0000
     18 ****        -5.1793  -0.3780  -0.2967 N.ar           1 S1                 0.0000
     19 ****        -6.8805  -3.6800  -1.0726 H              1 S1                 0.0000
     20 ****        -6.9466  -1.9908  -1.5627 H              1 S1                 0.0000
     21 ****        -6.8960  -2.4243   0.1610 H              1 S1                 0.0000
     22 ****        -2.4677  -2.3275  -0.8503 H              1 S1                 0.0000
     23 ****        -0.5717  -1.0958  -0.6030 H              1 S1                 0.0000
     24 ****         1.3046  -0.5290  -0.5170 H              1 S1                 0.0000
     25 ****         2.0667   2.0025   0.7307 H              1 S1                 0.0000
     26 ****         3.4455   2.7321  -1.2140 H              1 S1                 0.0000
     27 ****         1.7398   2.7019  -1.6342 H              1 S1                 0.0000
     28 ****         2.8030   1.4081  -2.1820 H              1 S1                 0.0000
     29 ****         3.7011  -0.3249  -0.3878 H              1 S1                 0.0000
     30 ****         2.9102   0.3063   2.4995 H              1 S1                 0.0000
     31 ****         3.1505  -1.3080   1.7294 H              1 S1                 0.0000
     32 ****         5.3376   0.2816   2.7973 H              1 S1                 0.0000
     33 ****         5.5439  -0.8778   1.4258 H              1 S1                 0.0000
     34 ****         5.5525   1.1322   0.0251 H              1 S1                 0.0000
     35 ****         4.6394   2.0631   1.2731 H              1 S1                 0.0000
     36 ****        -5.0794   1.6179   0.1988 H              1 S1                 0.0000
     37 ****        -4.8243  -2.9462  -1.7891 LP             1 S1                 0.0000
     38 ****        -4.7789  -3.3437  -0.2059 LP             1 S1                 0.0000
     39 ****        -1.4688   2.1776   0.2786 LP             1 S1                 0.0000
     40 ****         0.1951   2.6528   0.3535 LP             1 S1                 0.0000
     41 ****        -2.7470   1.7599   0.1744 LP             1 S1                 0.0000
     42 ****        -6.1788  -0.3994  -0.2769 LP             1 S1                 0.0000
@<TRIPOS>BOND
    1    1    2 1     
    2    1   19 1     
    3    1   20 1     
    4    1   21 1     
    5    2    3 1     
    6    3   18 ar    
    7    3    4 ar    
    8    4    5 ar    
    9    4   22 1     
   10    5    6 1     
   11    5   16 ar    
   12    6    7 am    
   13    6   23 1     
   14    7    8 2     
   15    7    9 am    
   16    9   10 1     
   17    9   24 1     
   18   10   11 1     
   19   10   12 1     
   20   10   25 1     
   21   11   26 1     
   22   11   27 1     
   23   11   28 1     
   24   12   15 1     
   25   12   13 1     
   26   12   29 1     
   27   13   14 1     
   28   13   30 1     
   29   13   31 1     
   30   14   15 1     
   31   14   32 1     
   32   14   33 1     
   33   15   34 1     
   34   15   35 1     
   35   16   17 ar    
   36   17   18 ar    
   37   17   36 1     
   38    2   37 1     
   39    2   38 1     
   40    8   39 1     
   41    8   40 1     
   42   16   41 1     
   43   18   42 1     
@<TRIPOS>SUBSTRUCTURE
      1 S1             1
@<TRIPOS>SET
LONE_PAIRS      STATIC     ATOMS    <user>   **** ""
6 37 38 39 40 41 42
DONOR_HYDROGENS      STATIC     ATOMS    <user>   **** ""
2 23 24
ATOM$BLUE        STATIC     ATOMS    COLORGROUP SYSTEM
6 37 38 39 40 41 42
ATOM$RED        STATIC     ATOMS    COLORGROUP SYSTEM
2 23 24
