#       Name:                AV-unprocessed.smi:2057
#       Creating user name   scv26
#       Creation time:       Fri Mar 27 11:00:58 2020


#       File generated by GOLD software.
#

@<TRIPOS>MOLECULE
AV-unprocessed.smi:2057
    53    55     1
SMALL
NO_CHARGES


@<TRIPOS>ATOM
      1 ****        -4.0439  -3.6474   0.7697 C.3            1 S1                 0.0000
      2 ****        -4.6547  -2.3664   0.7148 O.3            1 S1                 0.0000
      3 ****        -3.8368  -1.2577   0.6717 C.ar           1 S1                 0.0000
      4 ****        -4.4650  -0.0011   0.5986 C.ar           1 S1                 0.0000
      5 ****        -3.7075   1.1826   0.5405 C.ar           1 S1                 0.0000
      6 ****        -2.2915   1.1362   0.5602 C.ar           1 S1                 0.0000
      7 ****        -1.4951   2.2617   0.4890 O.3            1 S1                 0.0000
      8 ****        -2.1227   3.5313   0.3872 C.3            1 S1                 0.0000
      9 ****        -1.6513  -0.1244   0.6499 C.ar           1 S1                 0.0000
     10 ****        -0.1279  -0.2107   0.6678 C.3            1 S1                 0.0000
     11 ****         0.3548  -1.2511   1.4972 O.3            1 S1                 0.0000
     12 ****         0.4329  -0.3742  -0.7583 C.3            1 S1                 0.0000
     13 ****         1.8865  -0.2937  -0.7976 N.pl3          1 S1                 0.0000
     14 ****         2.7887  -1.3014  -0.9074 C.2            1 S1                 0.0000
     15 ****         2.3543  -2.7358  -1.0119 C.3            1 S1                 0.0000
     16 ****         3.4257  -3.6567  -1.0502 O.3            1 S1                 0.0000
     17 ****         4.0709  -0.9272  -0.9144 N.2            1 S1                 0.0000
     18 ****         3.9905   0.4472  -0.8045 C.ar           1 S1                 0.0000
     19 ****         5.0075   1.4276  -0.7582 C.ar           1 S1                 0.0000
     20 ****         4.6770   2.7940  -0.6420 C.ar           1 S1                 0.0000
     21 ****         3.3282   3.1991  -0.5702 C.ar           1 S1                 0.0000
     22 ****         2.2998   2.2383  -0.6140 C.ar           1 S1                 0.0000
     23 ****         2.6357   0.8760  -0.7304 C.ar           1 S1                 0.0000
     24 ****        -2.4223  -1.3084   0.6943 C.ar           1 S1                 0.0000
     25 ****        -4.8182  -4.4142   0.7943 H              1 S1                 0.0000
     26 ****        -3.4376  -3.7629   1.6691 H              1 S1                 0.0000
     27 ****        -3.4253  -3.8317  -0.1097 H              1 S1                 0.0000
     28 ****        -5.5435   0.0572   0.5808 H              1 S1                 0.0000
     29 ****        -4.2422   2.1178   0.4775 H              1 S1                 0.0000
     30 ****        -1.3576   4.3061   0.3385 H              1 S1                 0.0000
     31 ****        -2.7469   3.7392   1.2574 H              1 S1                 0.0000
     32 ****        -2.7255   3.6067  -0.5186 H              1 S1                 0.0000
     33 ****         0.2691   0.7078   1.1006 H              1 S1                 0.0000
     34 ****         0.0950  -1.0679   2.3872 H              1 S1                 0.0000
     35 ****         0.0979  -1.3127  -1.2001 H              1 S1                 0.0000
     36 ****         0.0422   0.4169  -1.3998 H              1 S1                 0.0000
     37 ****         1.7172  -2.9829  -0.1629 H              1 S1                 0.0000
     38 ****         1.7595  -2.8629  -1.9167 H              1 S1                 0.0000
     39 ****         3.9352  -3.5509  -0.2611 H              1 S1                 0.0000
     40 ****         6.0435   1.1279  -0.8126 H              1 S1                 0.0000
     41 ****         5.4624   3.5349  -0.6081 H              1 S1                 0.0000
     42 ****         3.0835   4.2475  -0.4815 H              1 S1                 0.0000
     43 ****         1.2654   2.5440  -0.5586 H              1 S1                 0.0000
     44 ****        -1.9071  -2.2556   0.7417 H              1 S1                 0.0000
     45 ****        -5.2321  -2.2779   1.5265 LP             1 S1                 0.0000
     46 ****        -5.2268  -2.3453  -0.1051 LP             1 S1                 0.0000
     47 ****        -0.9081   2.1575  -0.3138 LP             1 S1                 0.0000
     48 ****        -0.9311   2.2767   1.3146 LP             1 S1                 0.0000
     49 ****         1.3521  -1.2946   1.4387 LP             1 S1                 0.0000
     50 ****        -0.0346  -2.1245   1.2047 LP             1 S1                 0.0000
     51 ****         3.9986  -3.4762  -1.8496 LP             1 S1                 0.0000
     52 ****         3.0685  -4.5895  -1.0998 LP             1 S1                 0.0000
     53 ****         4.8874  -1.5006  -0.9824 LP             1 S1                 0.0000
@<TRIPOS>BOND
    1    1    2 1     
    2    1   25 1     
    3    1   26 1     
    4    1   27 1     
    5    2    3 1     
    6    3   24 ar    
    7    3    4 ar    
    8    4    5 ar    
    9    4   28 1     
   10    5    6 ar    
   11    5   29 1     
   12    6    7 1     
   13    6    9 ar    
   14    7    8 1     
   15    8   30 1     
   16    8   31 1     
   17    8   32 1     
   18    9   10 1     
   19    9   24 ar    
   20   10   11 1     
   21   10   12 1     
   22   10   33 1     
   23   11   34 1     
   24   12   13 1     
   25   12   35 1     
   26   12   36 1     
   27   13   23 1     
   28   13   14 1     
   29   14   15 1     
   30   14   17 2     
   31   15   16 1     
   32   15   37 1     
   33   15   38 1     
   34   16   39 1     
   35   17   18 1     
   36   18   23 ar    
   37   18   19 ar    
   38   19   20 ar    
   39   19   40 1     
   40   20   21 ar    
   41   20   41 1     
   42   21   22 ar    
   43   21   42 1     
   44   22   23 ar    
   45   22   43 1     
   46   24   44 1     
   47    2   45 1     
   48    2   46 1     
   49    7   47 1     
   50    7   48 1     
   51   11   49 1     
   52   11   50 1     
   53   16   51 1     
   54   16   52 1     
   55   17   53 1     
@<TRIPOS>SUBSTRUCTURE
      1 S1             1
@<TRIPOS>SET
LONE_PAIRS      STATIC     ATOMS    <user>   **** ""
9 45 46 47 48 49 50 51 52 53
DONOR_HYDROGENS      STATIC     ATOMS    <user>   **** ""
2 34 39
ATOM$BLUE        STATIC     ATOMS    COLORGROUP SYSTEM
9 45 46 47 48 49 50 51 52 53
ATOM$RED        STATIC     ATOMS    COLORGROUP SYSTEM
2 34 39
