AV-unprocessed.smi:517|AV-procd|sdf|2790|dock4
  -GOLD-   2262023263D 1   1.00000     0.00000
 Structure written by MMmdl.
 36 37  0  0  0  0  0  0  0  0  2 V2000
  154.5480  140.4165  160.4020 C   0  0  0  0  0  0  0  0  0  0  0  0
  153.5570  139.5312  159.6432 C   0  0  0  0  0  0  0  0  0  0  0  0
  153.6659  139.8130  158.2594 O   0  0  0  0  0  0  0  0  0  0  0  0
  152.5556  139.3476  157.5091 C   0  0  0  0  0  0  0  0  0  0  0  0
  151.2598  139.8716  158.1441 C   0  0  0  0  0  0  0  0  0  0  0  0
  151.0088  141.2792  157.8029 N   0  0  0  0  0  0  0  0  0  0  0  0
  150.3333  141.8294  156.7518 C   0  0  0  0  0  0  0  0  0  0  0  0
  149.6671  141.1014  155.6252 C   0  0  2  0  0  0  0  0  0  0  0  0
  150.6132  140.0613  155.0119 C   0  0  0  0  0  0  0  0  0  0  0  0
  149.2342  141.9801  154.6079 O   0  0  0  0  0  0  0  0  0  0  0  0
  150.3903  143.1837  156.9041 N   0  3  0  0  0  0  0  0  0  0  0  0
  151.0943  143.5016  158.0657 C   0  0  0  0  0  0  0  0  0  0  0  0
  151.4056  144.7324  158.6356 C   0  0  0  0  0  0  0  0  0  0  0  0
  152.1423  144.7047  159.8381 C   0  0  0  0  0  0  0  0  0  0  0  0
  152.5375  143.4870  160.4291 C   0  0  0  0  0  0  0  0  0  0  0  0
  152.2157  142.2454  159.8420 C   0  0  0  0  0  0  0  0  0  0  0  0
  151.4910  142.2820  158.6509 C   0  0  0  0  0  0  0  0  0  0  0  0
  154.4956  140.2298  161.4749 H   0  0  0  0  0  0  0  0  0  0  0  0
  154.3356  141.4728  160.2353 H   0  0  0  0  0  0  0  0  0  0  0  0
  155.5711  140.2245  160.0779 H   0  0  0  0  0  0  0  0  0  0  0  0
  153.7764  138.4795  159.8326 H   0  0  0  0  0  0  0  0  0  0  0  0
  152.5407  139.7259  159.9889 H   0  0  0  0  0  0  0  0  0  0  0  0
  152.6325  139.6930  156.4770 H   0  0  0  0  0  0  0  0  0  0  0  0
  152.5448  138.2570  157.4892 H   0  0  0  0  0  0  0  0  0  0  0  0
  150.4018  139.2710  157.8409 H   0  0  0  0  0  0  0  0  0  0  0  0
  151.3160  139.7959  159.2303 H   0  0  0  0  0  0  0  0  0  0  0  0
  148.7807  140.5935  156.0047 H   0  0  0  0  0  0  0  0  0  0  0  0
  150.9331  139.3352  155.7600 H   0  0  0  0  0  0  0  0  0  0  0  0
  151.5075  140.5290  154.5985 H   0  0  0  0  0  0  0  0  0  0  0  0
  150.1235  139.5105  154.2080 H   0  0  0  0  0  0  0  0  0  0  0  0
  149.1113  142.8379  154.9857 H   0  0  0  0  0  0  0  0  0  0  0  0
  151.1016  145.6663  158.1858 H   0  0  0  0  0  0  0  0  0  0  0  0
  152.4084  145.6356  160.3175 H   0  0  0  0  0  0  0  0  0  0  0  0
  153.0993  143.5051  161.3519 H   0  0  0  0  0  0  0  0  0  0  0  0
  152.5215  141.3186  160.3042 H   0  0  0  0  0  0  0  0  0  0  0  0
  149.9700  143.8384  156.2569 H   0  0  0  0  0  0  0  0  0  0  0  0
  1  2  1  0  0  0  0
  1 18  1  0  0  0  0
  1 19  1  0  0  0  0
  1 20  1  0  0  0  0
  2  3  1  0  0  0  0
  2 21  1  0  0  0  0
  2 22  1  0  0  0  0
  3  4  1  0  0  0  0
  4  5  1  0  0  0  0
  4 23  1  0  0  0  0
  4 24  1  0  0  0  0
  5  6  1  0  0  0  0
  5 25  1  0  0  0  0
  5 26  1  0  0  0  0
  6 17  1  0  0  0  0
  6  7  1  0  0  0  0
  7  8  1  0  0  0  0
  7 11  2  0  0  0  0
  8  9  1  0  0  0  0
  8 10  1  0  0  0  0
  8 27  1  0  0  0  0
  9 28  1  0  0  0  0
  9 29  1  0  0  0  0
  9 30  1  0  0  0  0
 10 31  1  0  0  0  0
 11 12  1  0  0  0  0
 11 36  1  0  0  0  0
 12 17  2  0  0  0  0
 12 13  1  0  0  0  0
 13 14  2  0  0  0  0
 13 32  1  0  0  0  0
 14 15  1  0  0  0  0
 14 33  1  0  0  0  0
 15 16  2  0  0  0  0
 15 34  1  0  0  0  0
 16 17  1  0  0  0  0
 16 35  1  0  0  0  0
M  CHG  1  11   1
M  END
> <s_m_source_file>
AV-unprocessed.smi

> <i_m_source_file_index>
517

> <i_lp_mmshare_version>
43012

> <i_f3d_flags>
0

> <s_epik_input>
W0NIM11bQ0gyXU9bQ0gyXVtDSDJdbihjKG4xKVtDQEhdKFtDSDNdKVtPSF0pYyhjMTIpW2NIXVtjSF1bY0hdW2NIXTI=

> <s_epik_cmdline>
J2VwaWtfcHl0aG9uJywgJy1waCcsICc3LjAnLCAnLXRuJywgJzgnLCAnLW1hJywgJzIwMCcsICctbWV0YWxfYmluZGluZycsICctaW1hZScsICc8aW5maWxlLm1hZT4nLCAnLW9tYWUnLCAnPG91dGZpbGUubWFlPic=

> <r_epik_Ionization_Penalty>
1.46962

> <r_epik_Ionization_Penalty_Charging>
1.46959

> <r_epik_Ionization_Penalty_Neutral>
2.92192e-05

> <r_epik_State_Penalty>
1.55729

> <r_epik_Charging_Adjusted_Penalty>
3.02688

> <i_epik_Tot_Q>
1

> <i_epik_Tot_abs_Q>
1

> <r_epik_Metal_State_Penalty>
5.60569

> <b_epik_Metal_Only>
0

> <s_lp_Force_Field>
OPLS_2005

> <r_lp_Energy>
10.0589

> <b_lp_Chiralities_Consistent>
1

> <s_lp_Variant>
AV-unprocessed.smi:517-3

> <Gold.Version>
5.8.1

> <Gold.Id.Protein>
6NUR|6NUR_protein|mol2

> <Gold.PLP.Fitness>
50.8436

> <Gold.PLP.PLP>
-39.8840

> <Gold.PLP.part.hbond>
-4.4002

> <Gold.PLP.part.metal>
0.0000

> <Gold.PLP.part.buried>
-2.3016

> <Gold.PLP.part.nonpolar>
-33.1452

> <Gold.PLP.part.repulsive>
0.0294

> <Gold.PLP.ligand.clash>
0.0000

> <Gold.PLP.ligand.torsion>
0.6978

> <Gold.PLP.Chemscore.Hbond>
4.1041

> <Gold.PLP.Chemscore.CHOScore>
0.0000

> <Gold.PLP.Chemscore.Metal>
0.0000

> <Gold.Chemscore.Hbonds>
donor molecule, donor type, donor heavy atom, donor atom, acceptor molecule, acceptor atom, score
      L1  H    10    31       P1  8028  1.00
      L1  H    11    36       P1  8028  1.89
      P1  H  7997  8008       L1     3  1.00
      P1  H  8011  8017       L1    10  0.05

> <Gold.PLP.Chemscore.Internal.Correction>
0.0428

> <Gold.Rescore>
     Score         DG    S(hbond)    S(metal)    S(lipo)     H(rot)  DE(clash)    DE(int)     intcor
     21.33     -21.89       2.93        0.00     104.29       2.18       0.01       0.55       ----

> <Gold.Chemscore.Fitness>
21.3298

> <Gold.Chemscore.DG>
-21.8856

> <Gold.Chemscore.ZeroCoef>
-5.4800

> <Gold.Chemscore.Hbond>
2.9293

> <Gold.Chemscore.Metal>
0.0000

> <Gold.Chemscore.Lipo>
104.2884

> <Gold.Chemscore.Internal_Hbond>
0.0000

> <Gold.Chemscore.DEClash>
0.0103

> <Gold.Chemscore.DEInternal>
0.5454

> <Gold.Chemscore.Rot>
2.1797

> <Gold.Chemscore.Internal.Correction>
   9.000000E+99

> <Gold.Chemscore.Hbonds>
donor molecule, donor type, donor heavy atom, donor atom, acceptor molecule, acceptor atom, score
      L1  H    10    31       P1  8028  0.96
      L1  H    11    36       P1  8028  0.89
      P1  H  7997  8008       L1     3  0.56
      P1  H  8011  8017       L1    10  0.02

> <Gold.Chemscore.Hbond.Weighted>
-9.7840

> <Gold.Chemscore.Metal.Weighted>
-0.0000

> <Gold.Chemscore.Lipo.Weighted>
-12.2017

> <Gold.Chemscore.Internal_Hbond.Weighted>
0.0000

> <Gold.Chemscore.DEClash.Weighted>
0.0103

> <Gold.Chemscore.DEInternal.Weighted>
0.5454

> <Gold.Chemscore.Rot.Weighted>
5.5801

> <Gold.Chemscore.Internal.Correction.Weighted>
   9.000000E+99

> <Gold.Protein.RotatedTorsions>
[ 6907 6896 6895 6894 ] final   93.94 input  -60.11 | X-H torsion
[ 7974 7965 7964 7962 ] final   74.72 input  175.53 | X-H torsion
[ 8008 7997 7996 7995 ] final -106.01 input   59.86 | X-H torsion
[ 10167 10162 10161 10158 ] final -114.01 input  -65.29 | X-H torsion
[ 10718 10713 10712 10709 ] final -152.00 input   66.30 | X-H torsion
[ 10763 10752 10751 10750 ] final  -26.84 input  -60.55 | X-H torsion
[ 11005 11000 10999 10996 ] final -134.19 input  -57.11 | X-H torsion

> <Gold.Protein.ActiveResidues>
 VAL166  LYS551  ARG553  GLY616  TRP617  ASP618  TYR619  PRO620  LYS621  CYS622 
 ASP623  PHE694  ASN695  SER759  ASP760  ASP761  ALA762  ILE779  LEU786  VAL792 
 PHE793  MET794  SER795  GLU796  ALA797  LYS798  CYS799  TRP800  GLU811  SER814 

> <Gold.Protein.RotatedAtoms>
  152.5451  134.1271  159.8423 H   0  0  0  0  0  0  0  0  0  0  0  0  # atno 6907 bound_to 6896
  151.1320  133.5023  159.2606 H   0  0  0  0  0  0  0  0  0  0  0  0  # atno 6908 bound_to 6896
  151.1664  135.0308  159.8787 H   0  0  0  0  0  0  0  0  0  0  0  0  # atno 6909 bound_to 6896
  145.7247  139.2661  143.1576 H   0  0  0  0  0  0  0  0  0  0  0  0  # atno 7974 bound_to 7965
  154.9083  140.0411  157.1932 H   0  0  0  0  0  0  0  0  0  0  0  0  # atno 8008 bound_to 7997
  154.8374  140.2909  155.5660 H   0  0  0  0  0  0  0  0  0  0  0  0  # atno 8009 bound_to 7997
  156.2990  140.2489  156.3310 H   0  0  0  0  0  0  0  0  0  0  0  0  # atno 8010 bound_to 7997
  140.1057  143.4573  152.1784 H   0  0  0  0  0  0  0  0  0  0  0  0  # atno 10167 bound_to 10162
  156.4666  130.8238  151.2469 H   0  0  0  0  0  0  0  0  0  0  0  0  # atno 10718 bound_to 10713
  153.7225  135.6944  153.5009 H   0  0  0  0  0  0  0  0  0  0  0  0  # atno 10763 bound_to 10752
  153.2194  135.4375  155.0470 H   0  0  0  0  0  0  0  0  0  0  0  0  # atno 10764 bound_to 10752
  154.8280  135.3456  154.6758 H   0  0  0  0  0  0  0  0  0  0  0  0  # atno 10765 bound_to 10752
  140.9012  134.1688  157.4459 H   0  0  0  0  0  0  0  0  0  0  0  0  # atno 11005 bound_to 11000
  146.0593  140.7987  142.9743 LP  0  0  0  0  0  0  0  0  0  0  0  0  # atno 17320 bound_to 7965
  144.6908  140.3172  143.7238 LP  0  0  0  0  0  0  0  0  0  0  0  0  # atno 17321 bound_to 7965
  139.5647  144.7427  151.4056 LP  0  0  0  0  0  0  0  0  0  0  0  0  # atno 17342 bound_to 10162
  140.6953  143.7763  150.7318 LP  0  0  0  0  0  0  0  0  0  0  0  0  # atno 17343 bound_to 10162
  157.7494  131.0090  150.3249 LP  0  0  0  0  0  0  0  0  0  0  0  0  # atno 17370 bound_to 10713
  156.3661  130.3855  149.7212 LP  0  0  0  0  0  0  0  0  0  0  0  0  # atno 17371 bound_to 10713
  139.8742  134.9899  156.5477 LP  0  0  0  0  0  0  0  0  0  0  0  0  # atno 17394 bound_to 11000
  140.8227  133.8341  155.8911 LP  0  0  0  0  0  0  0  0  0  0  0  0  # atno 17395 bound_to 11000

$$$$
