AV-unprocessed.smi:1627|AV-procd|sdf|6519|dock1
  -GOLD-   22720 7193D 1   1.00000     0.00000
 Structure written by MMmdl.
 44 45  0  0  0  0  0  0  0  0  2 V2000
  149.4877  142.2452  157.4507 C   0  0  0  0  0  0  0  0  0  0  0  0
  150.8313  141.6753  156.9726 C   0  0  1  0  0  0  0  0  0  0  0  0
  151.6511  141.4932  158.1236 O   0  0  0  0  0  0  0  0  0  0  0  0
  151.7276  142.6097  159.0039 C   0  0  0  0  0  0  0  0  0  0  0  0
  152.8461  142.3744  160.0261 C   0  0  0  0  0  0  0  0  0  0  0  0
  152.6246  143.1306  161.1006 F   0  0  0  0  0  0  0  0  0  0  0  0
  152.8685  141.0955  160.4004 F   0  0  0  0  0  0  0  0  0  0  0  0
  154.0248  142.7095  159.5025 F   0  0  0  0  0  0  0  0  0  0  0  0
  150.6385  140.3374  156.2401 C   0  0  0  0  0  0  0  0  0  0  0  0
  151.0881  140.1963  155.1032 O   0  0  0  0  0  0  0  0  0  0  0  0
  149.9365  139.4001  156.9038 N   0  0  0  0  0  0  0  0  0  0  0  0
  149.6030  138.0836  156.4851 C   0  0  0  0  0  0  0  0  0  0  0  0
  149.3502  137.0093  157.3727 C   0  0  0  0  0  0  0  0  0  0  0  0
  149.0097  135.7434  156.8535 C   0  0  0  0  0  0  0  0  0  0  0  0
  148.9122  135.5545  155.4541 C   0  0  0  0  0  0  0  0  0  0  0  0
  148.5759  134.3084  154.8813 N   0  0  0  0  0  0  0  0  0  0  0  0
  147.3665  134.2934  154.0550 C   0  0  0  0  0  0  0  0  0  0  0  0
  146.8605  132.8574  153.8341 C   0  0  0  0  0  0  0  0  0  0  0  0
  147.9718  131.9594  153.2715 C   0  0  0  0  0  0  0  0  0  0  0  0
  149.2011  132.0104  154.1896 C   0  0  0  0  0  0  0  0  0  0  0  0
  149.6716  133.4590  154.4059 C   0  0  0  0  0  0  0  0  0  0  0  0
  149.1542  136.6174  154.6474 N   0  3  0  0  0  0  0  0  0  0  0  0
  149.4815  137.8465  155.1013 C   0  0  0  0  0  0  0  0  0  0  0  0
  148.8019  142.3989  156.6166 H   0  0  0  0  0  0  0  0  0  0  0  0
  149.6301  143.2086  157.9406 H   0  0  0  0  0  0  0  0  0  0  0  0
  149.0016  141.5819  158.1672 H   0  0  0  0  0  0  0  0  0  0  0  0
  151.2952  142.4048  156.3059 H   0  0  0  0  0  0  0  0  0  0  0  0
  151.9268  143.5301  158.4541 H   0  0  0  0  0  0  0  0  0  0  0  0
  150.7757  142.7385  159.5213 H   0  0  0  0  0  0  0  0  0  0  0  0
  149.5478  139.6866  157.7908 H   0  0  0  0  0  0  0  0  0  0  0  0
  149.4003  137.1313  158.4436 H   0  0  0  0  0  0  0  0  0  0  0  0
  148.8385  134.9273  157.5395 H   0  0  0  0  0  0  0  0  0  0  0  0
  146.5646  134.8820  154.4977 H   0  0  0  0  0  0  0  0  0  0  0  0
  147.5980  134.7558  153.0944 H   0  0  0  0  0  0  0  0  0  0  0  0
  146.5039  132.4470  154.7798 H   0  0  0  0  0  0  0  0  0  0  0  0
  146.0055  132.8633  153.1575 H   0  0  0  0  0  0  0  0  0  0  0  0
  147.6150  130.9335  153.1752 H   0  0  0  0  0  0  0  0  0  0  0  0
  148.2450  132.2922  152.2693 H   0  0  0  0  0  0  0  0  0  0  0  0
  148.9555  131.5594  155.1520 H   0  0  0  0  0  0  0  0  0  0  0  0
  150.0101  131.4143  153.7663 H   0  0  0  0  0  0  0  0  0  0  0  0
  150.0610  133.8682  153.4726 H   0  0  0  0  0  0  0  0  0  0  0  0
  150.4906  133.4583  155.1262 H   0  0  0  0  0  0  0  0  0  0  0  0
  149.6420  138.5982  154.3420 H   0  0  0  0  0  0  0  0  0  0  0  0
  149.0815  136.4824  153.6389 H   0  0  0  0  0  0  0  0  0  0  0  0
  1  2  1  0  0  0  0
  1 24  1  0  0  0  0
  1 25  1  0  0  0  0
  1 26  1  0  0  0  0
  2  3  1  0  0  0  0
  2  9  1  0  0  0  0
  2 27  1  0  0  0  0
  3  4  1  0  0  0  0
  4  5  1  0  0  0  0
  4 28  1  0  0  0  0
  4 29  1  0  0  0  0
  5  6  1  0  0  0  0
  5  7  1  0  0  0  0
  5  8  1  0  0  0  0
  9 10  2  0  0  0  0
  9 11  1  0  0  0  0
 11 12  1  0  0  0  0
 11 30  1  0  0  0  0
 12 23  1  0  0  0  0
 12 13  2  0  0  0  0
 13 14  1  0  0  0  0
 13 31  1  0  0  0  0
 14 15  2  0  0  0  0
 14 32  1  0  0  0  0
 15 16  1  0  0  0  0
 15 22  1  0  0  0  0
 16 21  1  0  0  0  0
 16 17  1  0  0  0  0
 17 18  1  0  0  0  0
 17 33  1  0  0  0  0
 17 34  1  0  0  0  0
 18 19  1  0  0  0  0
 18 35  1  0  0  0  0
 18 36  1  0  0  0  0
 19 20  1  0  0  0  0
 19 37  1  0  0  0  0
 19 38  1  0  0  0  0
 20 21  1  0  0  0  0
 20 39  1  0  0  0  0
 20 40  1  0  0  0  0
 21 41  1  0  0  0  0
 21 42  1  0  0  0  0
 22 23  2  0  0  0  0
 22 44  1  0  0  0  0
 23 43  1  0  0  0  0
M  CHG  1  22   1
M  END
> <s_m_source_file>
AV-unprocessed.smi

> <i_m_source_file_index>
1627

> <i_lp_mmshare_version>
43012

> <i_f3d_flags>
0

> <s_epik_input>
RkMoRikoRilbQ0gyXU9bQ0BASF0oW0NIM10pQyg9TylbTkhdYzFbY0hdW2NIXWMobltjSF0xKU4yW0NIMl1bQ0gyXVtDSDJdW0NIMl1bQ0gyXTI=

> <s_epik_cmdline>
J2VwaWtfcHl0aG9uJywgJy1waCcsICc3LjAnLCAnLXRuJywgJzgnLCAnLW1hJywgJzIwMCcsICctbWV0YWxfYmluZGluZycsICctaW1hZScsICc8aW5maWxlLm1hZT4nLCAnLW9tYWUnLCAnPG91dGZpbGUubWFlPic=

> <r_lp_tautomer_probability>
0.999994

> <r_epik_Ionization_Penalty>
1.93197

> <r_epik_Ionization_Penalty_Charging>
1.93197

> <r_epik_Ionization_Penalty_Neutral>
3.16684e-06

> <r_epik_State_Penalty>
2.05557

> <r_epik_Charging_Adjusted_Penalty>
3.98754

> <i_epik_Tot_Q>
1

> <i_epik_Tot_abs_Q>
1

> <r_epik_Metal_State_Penalty>
2.08108

> <b_epik_Metal_Only>
0

> <s_lp_Force_Field>
OPLS_2005

> <r_lp_Energy>
31.3841

> <b_lp_Chiralities_Consistent>
1

> <s_lp_Variant>
AV-unprocessed.smi:1627-4

> <Gold.Version>
5.8.1

> <Gold.Id.Protein>
6NUR|6NUR_protein|mol2

> <Gold.PLP.Fitness>
40.7193

> <Gold.PLP.PLP>
-33.0611

> <Gold.PLP.part.hbond>
-2.0000

> <Gold.PLP.part.metal>
0.0000

> <Gold.PLP.part.buried>
-4.8007

> <Gold.PLP.part.nonpolar>
-25.7324

> <Gold.PLP.part.repulsive>
0.1576

> <Gold.PLP.ligand.clash>
0.0010

> <Gold.PLP.ligand.torsion>
0.9698

> <Gold.PLP.Chemscore.Hbond>
3.0000

> <Gold.PLP.Chemscore.CHOScore>
0.0000

> <Gold.PLP.Chemscore.Metal>
0.0000

> <Gold.Chemscore.Hbonds>
donor molecule, donor type, donor heavy atom, donor atom, acceptor molecule, acceptor atom, score
      L1  H    22    44       P1  7948  2.00
      P1  H  7989  7998       L1    10  1.00

> <Gold.PLP.Chemscore.Internal.Correction>
0.5988

> <Gold.Rescore>
     Score         DG    S(hbond)    S(metal)    S(lipo)     H(rot)  DE(clash)    DE(int)     intcor
     12.65     -14.93       1.96        0.00      66.33       1.90       0.04       2.24       ----

> <Gold.Chemscore.Fitness>
12.6532

> <Gold.Chemscore.DG>
-14.9260

> <Gold.Chemscore.ZeroCoef>
-5.4800

> <Gold.Chemscore.Hbond>
1.9613

> <Gold.Chemscore.Metal>
0.0000

> <Gold.Chemscore.Lipo>
66.3324

> <Gold.Chemscore.Internal_Hbond>
0.0000

> <Gold.Chemscore.DEClash>
0.0351

> <Gold.Chemscore.DEInternal>
2.2378

> <Gold.Chemscore.Rot>
1.9007

> <Gold.Chemscore.Internal.Correction>
   9.000000E+99

> <Gold.Chemscore.Hbonds>
donor molecule, donor type, donor heavy atom, donor atom, acceptor molecule, acceptor atom, score
      L1  H    22    44       P1  7948  0.99
      P1  H  7989  7998       L1    10  0.99

> <Gold.Chemscore.Hbond.Weighted>
-6.5508

> <Gold.Chemscore.Metal.Weighted>
-0.0000

> <Gold.Chemscore.Lipo.Weighted>
-7.7609

> <Gold.Chemscore.Internal_Hbond.Weighted>
0.0000

> <Gold.Chemscore.DEClash.Weighted>
0.0351

> <Gold.Chemscore.DEInternal.Weighted>
2.2378

> <Gold.Chemscore.Rot.Weighted>
4.8657

> <Gold.Chemscore.Internal.Correction.Weighted>
   9.000000E+99

> <Gold.Protein.RotatedTorsions>
[ 6907 6896 6895 6894 ] final  -90.89 input  -60.11 | X-H torsion
[ 7974 7965 7964 7962 ] final   82.29 input  175.53 | X-H torsion
[ 8008 7997 7996 7995 ] final  -22.98 input   59.86 | X-H torsion
[ 10167 10162 10161 10158 ] final  -92.84 input  -65.29 | X-H torsion
[ 10718 10713 10712 10709 ] final  -48.18 input   66.30 | X-H torsion
[ 10763 10752 10751 10750 ] final   -0.56 input  -60.55 | X-H torsion
[ 11005 11000 10999 10996 ] final  -66.31 input  -57.11 | X-H torsion

> <Gold.Protein.ActiveResidues>
 VAL166  LYS551  ARG553  GLY616  TRP617  ASP618  TYR619  PRO620  LYS621  CYS622 
 ASP623  PHE694  ASN695  SER759  ASP760  ASP761  ALA762  ILE779  LEU786  VAL792 
 PHE793  MET794  SER795  GLU796  ALA797  LYS798  CYS799  TRP800  GLU811  SER814 

> <Gold.Protein.RotatedAtoms>
  150.6886  134.2362  159.4454 H   0  0  0  0  0  0  0  0  0  0  0  0  # atno 6907 bound_to 6896
  152.0310  134.9765  160.0582 H   0  0  0  0  0  0  0  0  0  0  0  0  # atno 6908 bound_to 6896
  152.1305  133.4370  159.4755 H   0  0  0  0  0  0  0  0  0  0  0  0  # atno 6909 bound_to 6896
  145.6270  139.2397  143.2106 H   0  0  0  0  0  0  0  0  0  0  0  0  # atno 7974 bound_to 7965
  154.4612  140.1993  156.0241 H   0  0  0  0  0  0  0  0  0  0  0  0  # atno 8008 bound_to 7997
  156.0843  140.3267  155.7705 H   0  0  0  0  0  0  0  0  0  0  0  0  # atno 8009 bound_to 7997
  155.5061  140.0558  157.2922 H   0  0  0  0  0  0  0  0  0  0  0  0  # atno 8010 bound_to 7997
  140.3308  143.2996  151.9944 H   0  0  0  0  0  0  0  0  0  0  0  0  # atno 10167 bound_to 10162
  156.2013  130.4156  149.9237 H   0  0  0  0  0  0  0  0  0  0  0  0  # atno 10718 bound_to 10713
  153.3335  135.6976  153.6927 H   0  0  0  0  0  0  0  0  0  0  0  0  # atno 10763 bound_to 10752
  153.5720  135.3514  155.2842 H   0  0  0  0  0  0  0  0  0  0  0  0  # atno 10764 bound_to 10752
  154.8623  135.4274  154.2530 H   0  0  0  0  0  0  0  0  0  0  0  0  # atno 10765 bound_to 10752
  141.1478  133.6697  156.6119 H   0  0  0  0  0  0  0  0  0  0  0  0  # atno 11005 bound_to 11000
  146.1387  140.7088  142.9377 LP  0  0  0  0  0  0  0  0  0  0  0  0  # atno 17320 bound_to 7965
  144.7208  140.4368  143.7009 LP  0  0  0  0  0  0  0  0  0  0  0  0  # atno 17321 bound_to 7965
  139.4857  144.6237  151.7206 LP  0  0  0  0  0  0  0  0  0  0  0  0  # atno 17342 bound_to 10162
  140.5399  144.0596  150.6084 LP  0  0  0  0  0  0  0  0  0  0  0  0  # atno 17343 bound_to 10162
  156.6946  130.8909  151.3592 LP  0  0  0  0  0  0  0  0  0  0  0  0  # atno 17370 bound_to 10713
  157.6987  130.9310  150.0721 LP  0  0  0  0  0  0  0  0  0  0  0  0  # atno 17371 bound_to 10713
  140.3607  134.7689  157.4532 LP  0  0  0  0  0  0  0  0  0  0  0  0  # atno 17394 bound_to 11000
  140.0787  134.5761  155.8564 LP  0  0  0  0  0  0  0  0  0  0  0  0  # atno 17395 bound_to 11000

$$$$
