AV-unprocessed.smi:2451|AV-procd|sdf|9671|dock3
  -GOLD-   2272013313D 1   1.00000     0.00000
 Structure written by MMmdl.
 38 39  0  0  0  0  0  0  0  0  1 V2000
  152.8331  142.7122  161.3201 C   0  0  0  0  0  0  0  0  0  0  0  0
  152.6635  142.6227  159.7923 C   0  0  2  0  0  0  0  0  0  0  0  0
  151.4384  143.4530  159.3601 C   0  0  0  0  0  0  0  0  0  0  0  0
  151.2440  143.4299  157.8404 C   0  0  0  0  0  0  0  0  0  0  0  0
  151.0854  141.9906  157.3438 C   0  0  0  0  0  0  0  0  0  0  0  0
  152.2888  141.1223  157.7499 C   0  0  2  0  0  0  0  0  0  0  0  0
  152.0339  139.7456  157.3140 N   0  0  0  0  0  0  0  0  0  0  0  0
  152.0852  139.3839  155.6288 S   0  0  0  0  0  0  0  0  0  0  0  0
  151.1124  140.2589  154.9570 O   0  0  0  0  0  0  0  0  0  0  0  0
  153.4963  139.3987  155.2124 O   0  0  0  0  0  0  0  0  0  0  0  0
  151.4766  137.6465  155.5788 C   0  0  0  0  0  0  0  0  0  0  0  0
  150.8785  137.2835  156.9074 C   0  0  0  0  0  0  0  0  0  0  0  0
  149.7171  137.8205  157.5287 C   0  0  0  0  0  0  0  0  0  0  0  0
  149.6395  137.1340  158.7060 C   0  0  0  0  0  0  0  0  0  0  0  0
  150.6603  136.2457  158.8060 O   0  0  0  0  0  0  0  0  0  0  0  0
  151.4451  136.3469  157.6516 N   0  0  0  0  0  0  0  0  0  0  0  0
  152.5650  141.1583  159.2765 C   0  0  1  0  0  0  0  0  0  0  0  0
  153.8365  140.3502  159.6169 C   0  0  0  0  0  0  0  0  0  0  0  0
  152.0303  142.1884  161.8396 H   0  0  0  0  0  0  0  0  0  0  0  0
  152.8211  143.7499  161.6549 H   0  0  0  0  0  0  0  0  0  0  0  0
  153.7809  142.2888  161.6506 H   0  0  0  0  0  0  0  0  0  0  0  0
  153.5434  143.0811  159.3386 H   0  0  0  0  0  0  0  0  0  0  0  0
  150.5409  143.0705  159.8486 H   0  0  0  0  0  0  0  0  0  0  0  0
  151.5518  144.4860  159.6913 H   0  0  0  0  0  0  0  0  0  0  0  0
  150.3663  144.0167  157.5678 H   0  0  0  0  0  0  0  0  0  0  0  0
  152.0977  143.8993  157.3499 H   0  0  0  0  0  0  0  0  0  0  0  0
  150.1672  141.5682  157.7545 H   0  0  0  0  0  0  0  0  0  0  0  0
  150.9694  141.9874  156.2592 H   0  0  0  0  0  0  0  0  0  0  0  0
  153.1716  141.5015  157.2330 H   0  0  0  0  0  0  0  0  0  0  0  0
  151.1919  139.3695  157.7493 H   0  0  0  0  0  0  0  0  0  0  0  0
  150.7329  137.5685  154.7860 H   0  0  0  0  0  0  0  0  0  0  0  0
  152.3102  136.9935  155.3191 H   0  0  0  0  0  0  0  0  0  0  0  0
  149.0502  138.5900  157.1693 H   0  0  0  0  0  0  0  0  0  0  0  0
  148.9501  137.1610  159.5370 H   0  0  0  0  0  0  0  0  0  0  0  0
  151.7218  140.6831  159.7810 H   0  0  0  0  0  0  0  0  0  0  0  0
  154.7251  140.8107  159.1841 H   0  0  0  0  0  0  0  0  0  0  0  0
  153.7809  139.3294  159.2390 H   0  0  0  0  0  0  0  0  0  0  0  0
  153.9904  140.2675  160.6919 H   0  0  0  0  0  0  0  0  0  0  0  0
  1  2  1  0  0  0  0
  1 19  1  0  0  0  0
  1 20  1  0  0  0  0
  1 21  1  0  0  0  0
  2 17  1  0  0  0  0
  2  3  1  0  0  0  0
  2 22  1  0  0  0  0
  3  4  1  0  0  0  0
  3 23  1  0  0  0  0
  3 24  1  0  0  0  0
  4  5  1  0  0  0  0
  4 25  1  0  0  0  0
  4 26  1  0  0  0  0
  5  6  1  0  0  0  0
  5 27  1  0  0  0  0
  5 28  1  0  0  0  0
  6  7  1  0  0  0  0
  6 17  1  0  0  0  0
  6 29  1  0  0  0  0
  7  8  1  0  0  0  0
  7 30  1  0  0  0  0
  8  9  2  0  0  0  0
  8 10  2  0  0  0  0
  8 11  1  0  0  0  0
 11 12  1  0  0  0  0
 11 31  1  0  0  0  0
 11 32  1  0  0  0  0
 12 16  2  0  0  0  0
 12 13  1  0  0  0  0
 13 14  2  0  0  0  0
 13 33  1  0  0  0  0
 14 15  1  0  0  0  0
 14 34  1  0  0  0  0
 15 16  1  0  0  0  0
 17 18  1  0  0  0  0
 17 35  1  0  0  0  0
 18 36  1  0  0  0  0
 18 37  1  0  0  0  0
 18 38  1  0  0  0  0
M  END
> <s_m_source_file>
AV-unprocessed.smi

> <i_m_source_file_index>
2451

> <i_lp_mmshare_version>
43012

> <i_f3d_flags>
0

> <s_epik_input>
W0NIM11bQ0BASF0xW0NIMl1bQ0gyXVtDSDJdW0NASF0oW0NASF0xW0NIM10pW05IXVMoPU8pKD1PKVtDSDJdYzJbY0hdW2NIXW9uMg==

> <s_epik_cmdline>
J2VwaWtfcHl0aG9uJywgJy1waCcsICc3LjAnLCAnLXRuJywgJzgnLCAnLW1hJywgJzIwMCcsICctbWV0YWxfYmluZGluZycsICctaW1hZScsICc8aW5maWxlLm1hZT4nLCAnLW9tYWUnLCAnPG91dGZpbGUubWFlPic=

> <r_lp_tautomer_probability>
1

> <r_epik_Ionization_Penalty>
8.73668e-05

> <r_epik_Ionization_Penalty_Charging>
0

> <r_epik_Ionization_Penalty_Neutral>
8.73668e-05

> <r_epik_State_Penalty>
-0

> <r_epik_Charging_Adjusted_Penalty>
0

> <i_epik_Tot_Q>
0

> <i_epik_Tot_abs_Q>
0

> <r_epik_Metal_State_Penalty>
0.0716439

> <b_epik_Metal_Only>
0

> <s_lp_Force_Field>
OPLS_2005

> <r_lp_Energy>
6.58047

> <b_lp_Chiralities_Consistent>
1

> <s_lp_Variant>
AV-unprocessed.smi:2451-3

> <Gold.Version>
5.8.1

> <Gold.Id.Protein>
6NUR|6NUR_protein|mol2

> <Gold.PLP.Fitness>
42.0803

> <Gold.PLP.PLP>
-33.8232

> <Gold.PLP.part.hbond>
-3.6929

> <Gold.PLP.part.metal>
0.0000

> <Gold.PLP.part.buried>
-6.3036

> <Gold.PLP.part.nonpolar>
-23.6928

> <Gold.PLP.part.repulsive>
0.0499

> <Gold.PLP.ligand.clash>
0.0045

> <Gold.PLP.ligand.torsion>
0.4414

> <Gold.PLP.Chemscore.Hbond>
3.0000

> <Gold.PLP.Chemscore.CHOScore>
0.0000

> <Gold.PLP.Chemscore.Metal>
0.0000

> <Gold.Chemscore.Hbonds>
donor molecule, donor type, donor heavy atom, donor atom, acceptor molecule, acceptor atom, score
      P1  H  6896  6907       L1    15  0.85
      P1  H  7989  7998       L1     9  1.00
      P1  H  7997  8009       L1    10  0.70

> <Gold.PLP.Chemscore.Internal.Correction>
0.1445

> <Gold.Rescore>
     Score         DG    S(hbond)    S(metal)    S(lipo)     H(rot)  DE(clash)    DE(int)     intcor
     19.17     -20.67       2.77        0.00      87.05       1.66       0.00       1.50       ----

> <Gold.Chemscore.Fitness>
19.1704

> <Gold.Chemscore.DG>
-20.6728

> <Gold.Chemscore.ZeroCoef>
-5.4800

> <Gold.Chemscore.Hbond>
2.7709

> <Gold.Chemscore.Metal>
0.0000

> <Gold.Chemscore.Lipo>
87.0474

> <Gold.Chemscore.Internal_Hbond>
0.0000

> <Gold.Chemscore.DEClash>
0.0019

> <Gold.Chemscore.DEInternal>
1.5005

> <Gold.Chemscore.Rot>
1.6588

> <Gold.Chemscore.Internal.Correction>
   9.000000E+99

> <Gold.Chemscore.Hbonds>
donor molecule, donor type, donor heavy atom, donor atom, acceptor molecule, acceptor atom, score
      P1  H  6896  6907       L1    15  0.77
      P1  H  7989  7998       L1     9  0.87
      P1  H  7997  8009       L1    10  0.70

> <Gold.Chemscore.Hbond.Weighted>
-9.2548

> <Gold.Chemscore.Metal.Weighted>
-0.0000

> <Gold.Chemscore.Lipo.Weighted>
-10.1845

> <Gold.Chemscore.Internal_Hbond.Weighted>
0.0000

> <Gold.Chemscore.DEClash.Weighted>
0.0019

> <Gold.Chemscore.DEInternal.Weighted>
1.5005

> <Gold.Chemscore.Rot.Weighted>
4.2466

> <Gold.Chemscore.Internal.Correction.Weighted>
   9.000000E+99

> <Gold.Protein.RotatedTorsions>
[ 6907 6896 6895 6894 ] final  -51.61 input  -60.11 | X-H torsion
[ 7974 7965 7964 7962 ] final  165.42 input  175.53 | X-H torsion
[ 8008 7997 7996 7995 ] final -136.84 input   59.86 | X-H torsion
[ 10167 10162 10161 10158 ] final  -85.43 input  -65.29 | X-H torsion
[ 10718 10713 10712 10709 ] final    9.18 input   66.30 | X-H torsion
[ 10763 10752 10751 10750 ] final  -19.23 input  -60.55 | X-H torsion
[ 11005 11000 10999 10996 ] final -109.82 input  -57.11 | X-H torsion

> <Gold.Protein.ActiveResidues>
 VAL166  LYS551  ARG553  GLY616  TRP617  ASP618  TYR619  PRO620  LYS621  CYS622 
 ASP623  PHE694  ASN695  SER759  ASP760  ASP761  ALA762  ILE779  LEU786  VAL792 
 PHE793  MET794  SER795  GLU796  ALA797  LYS798  CYS799  TRP800  GLU811  SER814 

> <Gold.Protein.RotatedAtoms>
  150.8595  134.7943  159.7071 H   0  0  0  0  0  0  0  0  0  0  0  0  # atno 6907 bound_to 6896
  152.4637  134.5123  159.9767 H   0  0  0  0  0  0  0  0  0  0  0  0  # atno 6908 bound_to 6896
  151.5229  133.3425  159.2940 H   0  0  0  0  0  0  0  0  0  0  0  0  # atno 6909 bound_to 6896
  144.7503  139.8468  143.6368 H   0  0  0  0  0  0  0  0  0  0  0  0  # atno 7974 bound_to 7965
  155.4019  140.0506  157.3036 H   0  0  0  0  0  0  0  0  0  0  0  0  # atno 8008 bound_to 7997
  154.4987  140.2148  155.9353 H   0  0  0  0  0  0  0  0  0  0  0  0  # atno 8009 bound_to 7997
  156.1439  140.3149  155.8544 H   0  0  0  0  0  0  0  0  0  0  0  0  # atno 8010 bound_to 7997
  140.4038  143.2651  151.9107 H   0  0  0  0  0  0  0  0  0  0  0  0  # atno 10167 bound_to 10162
  156.9625  130.5938  149.5663 H   0  0  0  0  0  0  0  0  0  0  0  0  # atno 10718 bound_to 10713
  153.6016  135.6999  153.5382 H   0  0  0  0  0  0  0  0  0  0  0  0  # atno 10763 bound_to 10752
  153.3092  135.4106  155.1321 H   0  0  0  0  0  0  0  0  0  0  0  0  # atno 10764 bound_to 10752
  154.8581  135.3668  154.5551 H   0  0  0  0  0  0  0  0  0  0  0  0  # atno 10765 bound_to 10752
  141.0826  133.9193  157.2255 H   0  0  0  0  0  0  0  0  0  0  0  0  # atno 11005 bound_to 11000
  146.1444  139.4509  143.0088 LP  0  0  0  0  0  0  0  0  0  0  0  0  # atno 17320 bound_to 7965
  145.6968  141.0148  143.1526 LP  0  0  0  0  0  0  0  0  0  0  0  0  # atno 17321 bound_to 7965
  139.4784  144.5606  151.8244 LP  0  0  0  0  0  0  0  0  0  0  0  0  # atno 17342 bound_to 10162
  140.4711  144.1585  150.5918 LP  0  0  0  0  0  0  0  0  0  0  0  0  # atno 17343 bound_to 10162
  156.0316  130.5407  150.8549 LP  0  0  0  0  0  0  0  0  0  0  0  0  # atno 17370 bound_to 10713
  157.5648  131.0946  150.9506 LP  0  0  0  0  0  0  0  0  0  0  0  0  # atno 17371 bound_to 10713
  139.9641  135.0146  156.9340 LP  0  0  0  0  0  0  0  0  0  0  0  0  # atno 17394 bound_to 11000
  140.5434  134.0697  155.7348 LP  0  0  0  0  0  0  0  0  0  0  0  0  # atno 17395 bound_to 11000

$$$$
