AV-unprocessed.smi:1087|AV-procd|sdf|4725|dock5
  -GOLD-   22720 3253D 1   1.00000     0.00000
 Structure written by MMmdl.
 47 48  0  0  0  0  0  0  0  0  2 V2000
  146.3649  130.6711  152.0757 C   0  0  0  0  0  0  0  0  0  0  0  0
  146.4734  132.0666  151.8552 O   0  0  0  0  0  0  0  0  0  0  0  0
  147.5526  132.6467  152.5686 C   0  0  0  0  0  0  0  0  0  0  0  0
  146.9990  133.7007  153.5402 C   0  0  0  0  0  0  0  0  0  0  0  0
  148.0117  134.7207  153.9152 N   0  3  2  0  0  0  0  0  0  0  0  0
  149.1730  134.1225  154.6229 C   0  0  0  0  0  0  0  0  0  0  0  0
  150.2701  135.1689  154.8794 C   0  0  0  0  0  0  0  0  0  0  0  0
  149.7262  136.3669  155.6749 C   0  0  1  0  0  0  0  0  0  0  0  0
  150.8286  137.4177  155.9332 C   0  0  0  0  0  0  0  0  0  0  0  0
  150.2952  138.6599  156.4814 N   0  0  0  0  0  0  0  0  0  0  0  0
  150.8142  139.8792  156.2746 C   0  0  0  0  0  0  0  0  0  0  0  0
  151.7767  140.0872  155.5348 O   0  0  0  0  0  0  0  0  0  0  0  0
  150.1369  141.0382  157.0174 C   0  0  0  0  0  0  0  0  0  0  0  0
  151.0316  141.6869  157.9896 N   0  0  0  0  0  0  0  0  0  0  0  0
  151.2295  143.0726  157.8692 C   0  0  0  0  0  0  0  0  0  0  0  0
  152.0363  143.7286  158.7157 C   0  0  0  0  0  0  0  0  0  0  0  0
  152.6870  142.9213  159.7555 C   0  0  0  0  0  0  0  0  0  0  0  0
  152.5112  141.6575  159.8663 N   0  0  0  0  0  0  0  0  0  0  0  0
  151.6650  140.9707  158.9754 C   0  0  0  0  0  0  0  0  0  0  0  0
  151.4956  139.7546  159.0730 O   0  0  0  0  0  0  0  0  0  0  0  0
  148.5057  136.9460  154.9324 C   0  0  0  0  0  0  0  0  0  0  0  0
  147.4428  135.8653  154.6753 C   0  0  0  0  0  0  0  0  0  0  0  0
  145.5235  130.2746  151.5074 H   0  0  0  0  0  0  0  0  0  0  0  0
  146.1920  130.4506  153.1299 H   0  0  0  0  0  0  0  0  0  0  0  0
  147.2658  130.1486  151.7518 H   0  0  0  0  0  0  0  0  0  0  0  0
  148.1270  131.8809  153.0899 H   0  0  0  0  0  0  0  0  0  0  0  0
  148.2331  133.1292  151.8656 H   0  0  0  0  0  0  0  0  0  0  0  0
  146.1259  134.1936  153.1103 H   0  0  0  0  0  0  0  0  0  0  0  0
  146.6486  133.1823  154.4339 H   0  0  0  0  0  0  0  0  0  0  0  0
  148.8406  133.6853  155.5661 H   0  0  0  0  0  0  0  0  0  0  0  0
  149.5900  133.3103  154.0262 H   0  0  0  0  0  0  0  0  0  0  0  0
  151.0960  134.7058  155.4209 H   0  0  0  0  0  0  0  0  0  0  0  0
  150.6784  135.5102  153.9270 H   0  0  0  0  0  0  0  0  0  0  0  0
  149.3839  135.9911  156.6404 H   0  0  0  0  0  0  0  0  0  0  0  0
  151.5853  137.0171  156.6098 H   0  0  0  0  0  0  0  0  0  0  0  0
  151.3438  137.6553  155.0019 H   0  0  0  0  0  0  0  0  0  0  0  0
  149.4945  138.5831  157.0918 H   0  0  0  0  0  0  0  0  0  0  0  0
  149.7835  141.7558  156.2759 H   0  0  0  0  0  0  0  0  0  0  0  0
  149.2386  140.6820  157.5254 H   0  0  0  0  0  0  0  0  0  0  0  0
  150.6997  143.5525  157.0594 H   0  0  0  0  0  0  0  0  0  0  0  0
  152.2341  144.7895  158.6771 H   0  0  0  0  0  0  0  0  0  0  0  0
  153.3391  143.4740  160.4366 H   0  0  0  0  0  0  0  0  0  0  0  0
  148.0560  137.7546  155.5095 H   0  0  0  0  0  0  0  0  0  0  0  0
  148.8215  137.3824  153.9838 H   0  0  0  0  0  0  0  0  0  0  0  0
  146.6151  136.3135  154.1272 H   0  0  0  0  0  0  0  0  0  0  0  0
  147.0365  135.5092  155.6237 H   0  0  0  0  0  0  0  0  0  0  0  0
  148.3732  135.0921  153.0481 H   0  0  0  0  0  0  0  0  0  0  0  0
  1  2  1  0  0  0  0
  1 23  1  0  0  0  0
  1 24  1  0  0  0  0
  1 25  1  0  0  0  0
  2  3  1  0  0  0  0
  3  4  1  0  0  0  0
  3 26  1  0  0  0  0
  3 27  1  0  0  0  0
  4  5  1  0  0  0  0
  4 28  1  0  0  0  0
  4 29  1  0  0  0  0
  5 22  1  0  0  0  0
  5  6  1  0  0  0  0
  5 47  1  0  0  0  0
  6  7  1  0  0  0  0
  6 30  1  0  0  0  0
  6 31  1  0  0  0  0
  7  8  1  0  0  0  0
  7 32  1  0  0  0  0
  7 33  1  0  0  0  0
  8  9  1  0  0  0  0
  8 21  1  0  0  0  0
  8 34  1  0  0  0  0
  9 10  1  0  0  0  0
  9 35  1  0  0  0  0
  9 36  1  0  0  0  0
 10 11  1  0  0  0  0
 10 37  1  0  0  0  0
 11 12  2  0  0  0  0
 11 13  1  0  0  0  0
 13 14  1  0  0  0  0
 13 38  1  0  0  0  0
 13 39  1  0  0  0  0
 14 19  1  0  0  0  0
 14 15  1  0  0  0  0
 15 16  2  0  0  0  0
 15 40  1  0  0  0  0
 16 17  1  0  0  0  0
 16 41  1  0  0  0  0
 17 18  2  0  0  0  0
 17 42  1  0  0  0  0
 18 19  1  0  0  0  0
 19 20  2  0  0  0  0
 21 22  1  0  0  0  0
 21 43  1  0  0  0  0
 21 44  1  0  0  0  0
 22 45  1  0  0  0  0
 22 46  1  0  0  0  0
M  CHG  1   5   1
M  END
> <s_m_source_file>
AV-unprocessed.smi

> <i_m_source_file_index>
1087

> <i_lp_mmshare_version>
43012

> <i_f3d_flags>
0

> <s_epik_input>
W0NIM11PW0NIMl1bQ0gyXU4xW0NIMl1bQ0gyXVtDSF0oW0NIMl1bQ0gyXTEpW0NIMl1bTkhdQyg9TylbQ0gyXW4yW2NIXVtjSF1bY0hdbmMyPU8=

> <s_epik_cmdline>
J2VwaWtfcHl0aG9uJywgJy1waCcsICc3LjAnLCAnLXRuJywgJzgnLCAnLW1hJywgJzIwMCcsICctbWV0YWxfYmluZGluZycsICctaW1hZScsICc8aW5maWxlLm1hZT4nLCAnLW9tYWUnLCAnPG91dGZpbGUubWFlPic=

> <r_lp_tautomer_probability>
1

> <r_epik_Ionization_Penalty>
0.00982698

> <r_epik_Ionization_Penalty_Charging>
0.00982062

> <r_epik_Ionization_Penalty_Neutral>
6.35787e-06

> <r_epik_State_Penalty>
0.00747828

> <r_epik_Charging_Adjusted_Penalty>
0.0172989

> <i_epik_Tot_Q>
1

> <i_epik_Tot_abs_Q>
1

> <r_epik_Metal_State_Penalty>
0.00747829

> <b_epik_Metal_Only>
0

> <s_lp_Force_Field>
OPLS_2005

> <r_lp_Energy>
21.8948

> <b_lp_Chiralities_Consistent>
1

> <s_lp_Variant>
AV-unprocessed.smi:1087-1

> <Gold.Version>
5.8.1

> <Gold.Id.Protein>
6NUR|6NUR_protein|mol2

> <Gold.PLP.Fitness>
45.7630

> <Gold.PLP.PLP>
-35.6998

> <Gold.PLP.part.hbond>
-2.0000

> <Gold.PLP.part.metal>
0.0000

> <Gold.PLP.part.buried>
-5.3528

> <Gold.PLP.part.nonpolar>
-29.7524

> <Gold.PLP.part.repulsive>
0.1665

> <Gold.PLP.ligand.clash>
0.0000

> <Gold.PLP.ligand.torsion>
0.8114

> <Gold.PLP.Chemscore.Hbond>
2.8640

> <Gold.PLP.Chemscore.CHOScore>
1.0000

> <Gold.PLP.Chemscore.Metal>
0.0000

> <Gold.Chemscore.Hbonds>
donor molecule, donor type, donor heavy atom, donor atom, acceptor molecule, acceptor atom, score
      L1  H     5    47       P1  7948  2.00
      P1  H  7989  7998       L1    12  0.56
      L1  C    15    40       P1  8028  0.93

> <Gold.PLP.Chemscore.Internal.Correction>
0.0940

> <Gold.Rescore>
     Score         DG    S(hbond)    S(metal)    S(lipo)     H(rot)  DE(clash)    DE(int)     intcor
     13.57     -14.92       1.80        0.00      82.81       2.45       0.02       1.34       ----

> <Gold.Chemscore.Fitness>
13.5663

> <Gold.Chemscore.DG>
-14.9191

> <Gold.Chemscore.ZeroCoef>
-5.4800

> <Gold.Chemscore.Hbond>
1.7997

> <Gold.Chemscore.Metal>
0.0000

> <Gold.Chemscore.Lipo>
82.8067

> <Gold.Chemscore.Internal_Hbond>
0.0000

> <Gold.Chemscore.DEClash>
0.0174

> <Gold.Chemscore.DEInternal>
1.3355

> <Gold.Chemscore.Rot>
2.4454

> <Gold.Chemscore.Internal.Correction>
   9.000000E+99

> <Gold.Chemscore.Hbonds>
donor molecule, donor type, donor heavy atom, donor atom, acceptor molecule, acceptor atom, score
      L1  H     5    47       P1  7948  0.88
      P1  H  7989  7998       L1    12  0.56

> <Gold.Chemscore.Hbond.Weighted>
-6.0111

> <Gold.Chemscore.Metal.Weighted>
-0.0000

> <Gold.Chemscore.Lipo.Weighted>
-9.6884

> <Gold.Chemscore.Internal_Hbond.Weighted>
0.0000

> <Gold.Chemscore.DEClash.Weighted>
0.0174

> <Gold.Chemscore.DEInternal.Weighted>
1.3355

> <Gold.Chemscore.Rot.Weighted>
6.2603

> <Gold.Chemscore.Internal.Correction.Weighted>
   9.000000E+99

> <Gold.Protein.RotatedTorsions>
[ 6907 6896 6895 6894 ] final   75.12 input  -60.11 | X-H torsion
[ 7974 7965 7964 7962 ] final  144.04 input  175.53 | X-H torsion
[ 8008 7997 7996 7995 ] final  -21.55 input   59.86 | X-H torsion
[ 10167 10162 10161 10158 ] final  116.13 input  -65.29 | X-H torsion
[ 10718 10713 10712 10709 ] final   76.47 input   66.30 | X-H torsion
[ 10763 10752 10751 10750 ] final -133.47 input  -60.55 | X-H torsion
[ 11005 11000 10999 10996 ] final  -63.06 input  -57.11 | X-H torsion

> <Gold.Protein.ActiveResidues>
 VAL166  LYS551  ARG553  GLY616  TRP617  ASP618  TYR619  PRO620  LYS621  CYS622 
 ASP623  PHE694  ASN695  SER759  ASP760  ASP761  ALA762  ILE779  LEU786  VAL792 
 PHE793  MET794  SER795  GLU796  ALA797  LYS798  CYS799  TRP800  GLU811  SER814 

> <Gold.Protein.RotatedAtoms>
  152.5010  134.4168  159.9466 H   0  0  0  0  0  0  0  0  0  0  0  0  # atno 6907 bound_to 6896
  151.4139  133.3712  159.2755 H   0  0  0  0  0  0  0  0  0  0  0  0  # atno 6908 bound_to 6896
  150.9271  134.8710  159.7587 H   0  0  0  0  0  0  0  0  0  0  0  0  # atno 6909 bound_to 6896
  144.8869  139.5615  143.5816 H   0  0  0  0  0  0  0  0  0  0  0  0  # atno 7974 bound_to 7965
  154.4699  140.2032  156.0022 H   0  0  0  0  0  0  0  0  0  0  0  0  # atno 8008 bound_to 7997
  156.0992  140.3246  155.7890 H   0  0  0  0  0  0  0  0  0  0  0  0  # atno 8009 bound_to 7997
  155.4826  140.0540  157.2956 H   0  0  0  0  0  0  0  0  0  0  0  0  # atno 8010 bound_to 7997
  139.6269  144.7109  151.2515 H   0  0  0  0  0  0  0  0  0  0  0  0  # atno 10167 bound_to 10162
  157.6675  130.9776  150.1502 H   0  0  0  0  0  0  0  0  0  0  0  0  # atno 10718 bound_to 10713
  154.8732  135.3765  154.4578 H   0  0  0  0  0  0  0  0  0  0  0  0  # atno 10763 bound_to 10752
  153.5249  135.7028  153.5718 H   0  0  0  0  0  0  0  0  0  0  0  0  # atno 10764 bound_to 10752
  153.3948  135.3963  155.1913 H   0  0  0  0  0  0  0  0  0  0  0  0  # atno 10765 bound_to 10752
  141.1380  133.6647  156.5622 H   0  0  0  0  0  0  0  0  0  0  0  0  # atno 11005 bound_to 11000
  146.3030  139.7488  142.9077 LP  0  0  0  0  0  0  0  0  0  0  0  0  # atno 17320 bound_to 7965
  145.3852  141.0364  143.3155 LP  0  0  0  0  0  0  0  0  0  0  0  0  # atno 17321 bound_to 7965
  140.7416  143.6552  150.8213 LP  0  0  0  0  0  0  0  0  0  0  0  0  # atno 17342 bound_to 10162
  140.0171  143.5581  152.2815 LP  0  0  0  0  0  0  0  0  0  0  0  0  # atno 17343 bound_to 10162
  156.2303  130.3681  149.8453 LP  0  0  0  0  0  0  0  0  0  0  0  0  # atno 17370 bound_to 10713
  156.6281  130.8654  151.3489 LP  0  0  0  0  0  0  0  0  0  0  0  0  # atno 17371 bound_to 10713
  140.3979  134.7382  157.4762 LP  0  0  0  0  0  0  0  0  0  0  0  0  # atno 17394 bound_to 11000
  140.0517  134.6120  155.8853 LP  0  0  0  0  0  0  0  0  0  0  0  0  # atno 17395 bound_to 11000

$$$$
