AV-unprocessed.smi:3127|AV-procd|sdf|11916|dock2
  -GOLD-   2272017293D 1   1.00000     0.00000
 Structure written by MMmdl.
 33 34  0  0  0  0  0  0  0  0  1 V2000
  150.0329  144.3045  159.5570 C   0  0  0  0  0  0  0  0  0  0  0  0
  151.5379  144.0184  159.7466 C   0  0  0  0  0  0  0  0  0  0  0  0
  152.3274  145.1014  158.9853 C   0  0  0  0  0  0  0  0  0  0  0  0
  151.8518  144.1031  161.2535 C   0  0  0  0  0  0  0  0  0  0  0  0
  151.9046  142.6457  159.2185 C   0  0  0  0  0  0  0  0  0  0  0  0
  152.4497  141.5872  159.9090 C   0  0  0  0  0  0  0  0  0  0  0  0
  152.7132  140.1981  158.8917 S   0  0  0  0  0  0  0  0  0  0  0  0
  152.0474  141.0997  157.5385 C   0  0  0  0  0  0  0  0  0  0  0  0
  151.9566  140.5397  156.1552 C   0  0  2  0  0  0  0  0  0  0  0  0
  150.4979  140.3370  155.7014 C   0  0  0  0  0  0  0  0  0  0  0  0
  150.4607  139.7143  154.3792 N   0  0  0  0  0  0  0  0  0  0  0  0
  151.2228  138.4664  154.3615 C   0  0  0  0  0  0  0  0  0  0  0  0
  152.6616  138.7102  154.8519 C   0  0  0  0  0  0  0  0  0  0  0  0
  152.6318  139.2840  156.1543 O   0  0  0  0  0  0  0  0  0  0  0  0
  151.6929  142.3456  157.8664 N   0  0  0  0  0  0  0  0  0  0  0  0
  149.7667  145.2935  159.9319 H   0  0  0  0  0  0  0  0  0  0  0  0
  149.4171  143.5800  160.0913 H   0  0  0  0  0  0  0  0  0  0  0  0
  149.7479  144.2706  158.5047 H   0  0  0  0  0  0  0  0  0  0  0  0
  152.1185  145.0650  157.9154 H   0  0  0  0  0  0  0  0  0  0  0  0
  153.4036  144.9797  159.1139 H   0  0  0  0  0  0  0  0  0  0  0  0
  152.0711  146.1013  159.3369 H   0  0  0  0  0  0  0  0  0  0  0  0
  151.5793  145.0767  161.6624 H   0  0  0  0  0  0  0  0  0  0  0  0
  152.9137  143.9552  161.4523 H   0  0  0  0  0  0  0  0  0  0  0  0
  151.3043  143.3455  161.8153 H   0  0  0  0  0  0  0  0  0  0  0  0
  152.7176  141.5360  160.9536 H   0  0  0  0  0  0  0  0  0  0  0  0
  152.4687  141.2270  155.4791 H   0  0  0  0  0  0  0  0  0  0  0  0
  149.9722  139.7073  156.4203 H   0  0  0  0  0  0  0  0  0  0  0  0
  149.9744  141.2931  155.6797 H   0  0  0  0  0  0  0  0  0  0  0  0
  149.4974  139.5282  154.1185 H   0  0  0  0  0  0  0  0  0  0  0  0
  150.7393  137.7267  155.0008 H   0  0  0  0  0  0  0  0  0  0  0  0
  151.2357  138.0496  153.3542 H   0  0  0  0  0  0  0  0  0  0  0  0
  153.2077  137.7677  154.8946 H   0  0  0  0  0  0  0  0  0  0  0  0
  153.2039  139.3616  154.1646 H   0  0  0  0  0  0  0  0  0  0  0  0
  1  2  1  0  0  0  0
  1 16  1  0  0  0  0
  1 17  1  0  0  0  0
  1 18  1  0  0  0  0
  2  3  1  0  0  0  0
  2  4  1  0  0  0  0
  2  5  1  0  0  0  0
  3 19  1  0  0  0  0
  3 20  1  0  0  0  0
  3 21  1  0  0  0  0
  4 22  1  0  0  0  0
  4 23  1  0  0  0  0
  4 24  1  0  0  0  0
  5 15  1  0  0  0  0
  5  6  2  0  0  0  0
  6  7  1  0  0  0  0
  6 25  1  0  0  0  0
  7  8  1  0  0  0  0
  8  9  1  0  0  0  0
  8 15  2  0  0  0  0
  9 14  1  0  0  0  0
  9 10  1  0  0  0  0
  9 26  1  0  0  0  0
 10 11  1  0  0  0  0
 10 27  1  0  0  0  0
 10 28  1  0  0  0  0
 11 12  1  0  0  0  0
 11 29  1  0  0  0  0
 12 13  1  0  0  0  0
 12 30  1  0  0  0  0
 12 31  1  0  0  0  0
 13 14  1  0  0  0  0
 13 32  1  0  0  0  0
 13 33  1  0  0  0  0
M  END
> <s_m_source_file>
AV-unprocessed.smi

> <i_m_source_file_index>
3127

> <i_lp_mmshare_version>
43012

> <i_f3d_flags>
0

> <s_epik_input>
W0NIM11DKFtDSDNdKShbQ0gzXSljMVtjSF1zYyhuMSlbQ0BASF0yW0NIMl1bTkhdW0NIMl1bQ0gyXU8y

> <s_epik_cmdline>
J2VwaWtfcHl0aG9uJywgJy1waCcsICc3LjAnLCAnLXRuJywgJzgnLCAnLW1hJywgJzIwMCcsICctbWV0YWxfYmluZGluZycsICctaW1hZScsICc8aW5maWxlLm1hZT4nLCAnLW9tYWUnLCAnPG91dGZpbGUubWFlPic=

> <r_epik_Ionization_Penalty>
0.982256

> <r_epik_Ionization_Penalty_Charging>
0

> <r_epik_Ionization_Penalty_Neutral>
0.982256

> <r_epik_State_Penalty>
2.16535

> <r_epik_Charging_Adjusted_Penalty>
2.16535

> <i_epik_Tot_Q>
0

> <i_epik_Tot_abs_Q>
0

> <r_epik_Metal_State_Penalty>
2.16345

> <b_epik_Metal_Only>
0

> <s_lp_Force_Field>
OPLS_2005

> <r_lp_Energy>
6.45537

> <b_lp_Chiralities_Consistent>
1

> <s_lp_Variant>
AV-unprocessed.smi:3127-3

> <Gold.Version>
5.8.1

> <Gold.Id.Protein>
6NUR|6NUR_protein|mol2

> <Gold.PLP.Fitness>
40.1480

> <Gold.PLP.PLP>
-35.5939

> <Gold.PLP.part.hbond>
-2.0000

> <Gold.PLP.part.metal>
0.0000

> <Gold.PLP.part.buried>
-6.0196

> <Gold.PLP.part.nonpolar>
-27.7369

> <Gold.PLP.part.repulsive>
0.0374

> <Gold.PLP.ligand.clash>
0.0000

> <Gold.PLP.ligand.torsion>
0.1325

> <Gold.PLP.Chemscore.Hbond>
1.6025

> <Gold.PLP.Chemscore.CHOScore>
0.0000

> <Gold.PLP.Chemscore.Metal>
0.0000

> <Gold.Chemscore.Hbonds>
donor molecule, donor type, donor heavy atom, donor atom, acceptor molecule, acceptor atom, score
      P1  H  7989  7998       L1    11  0.95
      P1  H  7997  8008       L1    14  0.60

> <Gold.PLP.Chemscore.Internal.Correction>
0.0116

> <Gold.Rescore>
     Score         DG    S(hbond)    S(metal)    S(lipo)     H(rot)  DE(clash)    DE(int)     intcor
     16.64     -17.58       0.71        0.00     107.50       1.12       0.26       0.68       ----

> <Gold.Chemscore.Fitness>
16.6445

> <Gold.Chemscore.DG>
-17.5790

> <Gold.Chemscore.ZeroCoef>
-5.4800

> <Gold.Chemscore.Hbond>
0.7127

> <Gold.Chemscore.Metal>
0.0000

> <Gold.Chemscore.Lipo>
107.5001

> <Gold.Chemscore.Internal_Hbond>
0.0000

> <Gold.Chemscore.DEClash>
0.2577

> <Gold.Chemscore.DEInternal>
0.6768

> <Gold.Chemscore.Rot>
1.1167

> <Gold.Chemscore.Internal.Correction>
   9.000000E+99

> <Gold.Chemscore.Hbonds>
donor molecule, donor type, donor heavy atom, donor atom, acceptor molecule, acceptor atom, score
      P1  H  7989  7998       L1    11  0.06
      P1  H  7997  8008       L1    14  0.02

> <Gold.Chemscore.Hbond.Weighted>
-2.3803

> <Gold.Chemscore.Metal.Weighted>
-0.0000

> <Gold.Chemscore.Lipo.Weighted>
-12.5775

> <Gold.Chemscore.Internal_Hbond.Weighted>
0.0000

> <Gold.Chemscore.DEClash.Weighted>
0.2577

> <Gold.Chemscore.DEInternal.Weighted>
0.6768

> <Gold.Chemscore.Rot.Weighted>
2.8588

> <Gold.Chemscore.Internal.Correction.Weighted>
   9.000000E+99

> <Gold.Protein.RotatedTorsions>
[ 6907 6896 6895 6894 ] final   -1.73 input  -60.11 | X-H torsion
[ 7974 7965 7964 7962 ] final -116.76 input  175.53 | X-H torsion
[ 8008 7997 7996 7995 ] final  -39.41 input   59.86 | X-H torsion
[ 10167 10162 10161 10158 ] final   11.06 input  -65.29 | X-H torsion
[ 10718 10713 10712 10709 ] final   53.94 input   66.30 | X-H torsion
[ 10763 10752 10751 10750 ] final   56.02 input  -60.55 | X-H torsion
[ 11005 11000 10999 10996 ] final   22.48 input  -57.11 | X-H torsion

> <Gold.Protein.ActiveResidues>
 VAL166  LYS551  ARG553  GLY616  TRP617  ASP618  TYR619  PRO620  LYS621  CYS622 
 ASP623  PHE694  ASN695  SER759  ASP760  ASP761  ALA762  ILE779  LEU786  VAL792 
 PHE793  MET794  SER795  GLU796  ALA797  LYS798  CYS799  TRP800  GLU811  SER814 

> <Gold.Protein.RotatedAtoms>
  151.5414  135.1068  159.9927 H   0  0  0  0  0  0  0  0  0  0  0  0  # atno 6907 bound_to 6896
  152.4534  133.7669  159.6788 H   0  0  0  0  0  0  0  0  0  0  0  0  # atno 6908 bound_to 6896
  150.8469  133.7781  159.3064 H   0  0  0  0  0  0  0  0  0  0  0  0  # atno 6909 bound_to 6896
  145.0930  140.8502  143.3971 H   0  0  0  0  0  0  0  0  0  0  0  0  # atno 7974 bound_to 7965
  154.4023  140.1552  156.2858 H   0  0  0  0  0  0  0  0  0  0  0  0  # atno 8008 bound_to 7997
  155.8829  140.3443  155.5879 H   0  0  0  0  0  0  0  0  0  0  0  0  # atno 8009 bound_to 7997
  155.7646  140.0822  157.2129 H   0  0  0  0  0  0  0  0  0  0  0  0  # atno 8010 bound_to 7997
  140.6155  143.8316  150.7114 H   0  0  0  0  0  0  0  0  0  0  0  0  # atno 10167 bound_to 10162
  157.5212  130.8566  149.8561 H   0  0  0  0  0  0  0  0  0  0  0  0  # atno 10718 bound_to 10713
  152.9825  135.5691  154.5161 H   0  0  0  0  0  0  0  0  0  0  0  0  # atno 10763 bound_to 10752
  154.4657  135.2783  155.1682 H   0  0  0  0  0  0  0  0  0  0  0  0  # atno 10764 bound_to 10752
  154.3251  135.6261  153.5579 H   0  0  0  0  0  0  0  0  0  0  0  0  # atno 10765 bound_to 10752
  140.3801  134.1930  155.7664 H   0  0  0  0  0  0  0  0  0  0  0  0  # atno 11005 bound_to 11000
  145.1044  139.2800  143.5670 LP  0  0  0  0  0  0  0  0  0  0  0  0  # atno 17320 bound_to 7965
  146.3531  140.0620  142.8628 LP  0  0  0  0  0  0  0  0  0  0  0  0  # atno 17321 bound_to 7965
  140.1894  143.4048  152.1874 LP  0  0  0  0  0  0  0  0  0  0  0  0  # atno 17342 bound_to 10162
  139.5395  144.7243  151.4780 LP  0  0  0  0  0  0  0  0  0  0  0  0  # atno 17343 bound_to 10162
  156.0355  130.3752  150.1572 LP  0  0  0  0  0  0  0  0  0  0  0  0  # atno 17370 bound_to 10713
  156.9760  130.9849  151.3448 LP  0  0  0  0  0  0  0  0  0  0  0  0  # atno 17371 bound_to 10713
  141.1926  133.8169  157.0832 LP  0  0  0  0  0  0  0  0  0  0  0  0  # atno 17394 bound_to 11000
  140.0485  134.9818  157.1093 LP  0  0  0  0  0  0  0  0  0  0  0  0  # atno 17395 bound_to 11000

$$$$
