AV-unprocessed.smi:433|AV-procd|sdf|2550|dock2
  -GOLD-   2262022513D 1   1.00000     0.00000
 Structure written by MMmdl.
 36 37  0  0  0  0  0  0  0  0  1 V2000
  151.8342  142.7998  158.3335 C   0  0  0  0  0  0  0  0  0  0  0  0
  151.2359  141.7506  157.5600 N   0  0  0  0  0  0  0  0  0  0  0  0
  150.4273  142.0026  156.4689 C   0  0  0  0  0  0  0  0  0  0  0  0
  149.8500  141.0208  155.7426 C   0  0  0  0  0  0  0  0  0  0  0  0
  150.0590  139.6171  156.0800 C   0  0  0  0  0  0  0  0  0  0  0  0
  149.5298  138.6923  155.4621 O   0  0  0  0  0  0  0  0  0  0  0  0
  150.9096  139.3945  157.1924 N   0  0  0  0  0  0  0  0  0  0  0  0
  151.1449  138.0210  157.6024 C   0  0  0  0  0  0  0  0  0  0  0  0
  150.8604  137.7837  159.1031 C   0  0  2  0  0  0  0  0  0  0  0  0
  152.0052  137.2075  159.6983 O   0  0  0  0  0  0  0  0  0  0  0  0
  149.6918  136.8128  159.3268 C   0  0  0  0  0  0  0  0  0  0  0  0
  149.2555  136.9386  160.6736 O   0  0  0  0  0  0  0  0  0  0  0  0
  148.6924  135.8405  161.2858 C   0  0  0  0  0  0  0  0  0  0  0  0
  148.2547  136.0061  162.6162 C   0  0  0  0  0  0  0  0  0  0  0  0
  147.6663  134.9376  163.3197 C   0  0  0  0  0  0  0  0  0  0  0  0
  147.5102  133.6862  162.6958 C   0  0  0  0  0  0  0  0  0  0  0  0
  147.9438  133.5064  161.3691 C   0  0  0  0  0  0  0  0  0  0  0  0
  148.5323  134.5755  160.6653 C   0  0  0  0  0  0  0  0  0  0  0  0
  151.4985  140.4234  157.9639 C   0  0  0  0  0  0  0  0  0  0  0  0
  152.2016  140.1818  158.9492 O   0  0  0  0  0  0  0  0  0  0  0  0
  151.5432  143.7528  157.8903 H   0  0  0  0  0  0  0  0  0  0  0  0
  152.9164  142.6680  158.2865 H   0  0  0  0  0  0  0  0  0  0  0  0
  151.4518  142.7161  159.3524 H   0  0  0  0  0  0  0  0  0  0  0  0
  150.2426  143.0279  156.1825 H   0  0  0  0  0  0  0  0  0  0  0  0
  149.2218  141.2768  154.9022 H   0  0  0  0  0  0  0  0  0  0  0  0
  150.5134  137.3943  156.9703 H   0  0  0  0  0  0  0  0  0  0  0  0
  152.1594  137.7411  157.3121 H   0  0  0  0  0  0  0  0  0  0  0  0
  150.6427  138.7224  159.6147 H   0  0  0  0  0  0  0  0  0  0  0  0
  152.5627  137.9040  160.0108 H   0  0  0  0  0  0  0  0  0  0  0  0
  148.8804  137.0348  158.6311 H   0  0  0  0  0  0  0  0  0  0  0  0
  150.0224  135.7879  159.1487 H   0  0  0  0  0  0  0  0  0  0  0  0
  148.3705  136.9639  163.1020 H   0  0  0  0  0  0  0  0  0  0  0  0
  147.3349  135.0790  164.3378 H   0  0  0  0  0  0  0  0  0  0  0  0
  147.0591  132.8656  163.2341 H   0  0  0  0  0  0  0  0  0  0  0  0
  147.8257  132.5459  160.8895 H   0  0  0  0  0  0  0  0  0  0  0  0
  148.8543  134.3991  159.6505 H   0  0  0  0  0  0  0  0  0  0  0  0
  1  2  1  0  0  0  0
  1 21  1  0  0  0  0
  1 22  1  0  0  0  0
  1 23  1  0  0  0  0
  2 19  1  0  0  0  0
  2  3  1  0  0  0  0
  3  4  2  0  0  0  0
  3 24  1  0  0  0  0
  4  5  1  0  0  0  0
  4 25  1  0  0  0  0
  5  6  2  0  0  0  0
  5  7  1  0  0  0  0
  7  8  1  0  0  0  0
  7 19  1  0  0  0  0
  8  9  1  0  0  0  0
  8 26  1  0  0  0  0
  8 27  1  0  0  0  0
  9 10  1  0  0  0  0
  9 11  1  0  0  0  0
  9 28  1  0  0  0  0
 10 29  1  0  0  0  0
 11 12  1  0  0  0  0
 11 30  1  0  0  0  0
 11 31  1  0  0  0  0
 12 13  1  0  0  0  0
 13 18  1  0  0  0  0
 13 14  2  0  0  0  0
 14 15  1  0  0  0  0
 14 32  1  0  0  0  0
 15 16  2  0  0  0  0
 15 33  1  0  0  0  0
 16 17  1  0  0  0  0
 16 34  1  0  0  0  0
 17 18  2  0  0  0  0
 17 35  1  0  0  0  0
 18 36  1  0  0  0  0
 19 20  2  0  0  0  0
M  END
> <s_m_source_file>
AV-unprocessed.smi

> <i_m_source_file_index>
433

> <i_lp_mmshare_version>
43012

> <i_f3d_flags>
0

> <s_epik_input>
W0NIM11uMVtjSF1bY0hdYyg9TyluKGMxPU8pW0NIMl1bQ0BIXShbT0hdKVtDSDJdT2MyW2NIXVtjSF1bY0hdW2NIXVtjSF0y

> <s_epik_cmdline>
J2VwaWtfcHl0aG9uJywgJy1waCcsICc3LjAnLCAnLXRuJywgJzgnLCAnLW1hJywgJzIwMCcsICctbWV0YWxfYmluZGluZycsICctaW1hZScsICc8aW5maWxlLm1hZT4nLCAnLW9tYWUnLCAnPG91dGZpbGUubWFlPic=

> <r_lp_tautomer_probability>
1

> <r_epik_Ionization_Penalty>
2.21742e-07

> <r_epik_Ionization_Penalty_Charging>
1.04568e-07

> <r_epik_Ionization_Penalty_Neutral>
1.17174e-07

> <r_epik_State_Penalty>
-0

> <r_epik_Charging_Adjusted_Penalty>
1.04568e-07

> <i_epik_Tot_Q>
0

> <i_epik_Tot_abs_Q>
0

> <r_epik_Metal_State_Penalty>
-0

> <b_epik_Metal_Only>
0

> <s_lp_Force_Field>
OPLS_2005

> <r_lp_Energy>
22.5639

> <b_lp_Chiralities_Consistent>
1

> <s_lp_Variant>
AV-unprocessed.smi:433-1

> <Gold.Version>
5.8.1

> <Gold.Id.Protein>
6NUR|6NUR_protein|mol2

> <Gold.PLP.Fitness>
44.6734

> <Gold.PLP.PLP>
-38.8845

> <Gold.PLP.part.hbond>
-2.1720

> <Gold.PLP.part.metal>
0.0000

> <Gold.PLP.part.buried>
-6.2427

> <Gold.PLP.part.nonpolar>
-31.8968

> <Gold.PLP.part.repulsive>
0.0555

> <Gold.PLP.ligand.clash>
0.0000

> <Gold.PLP.ligand.torsion>
1.1167

> <Gold.PLP.Chemscore.Hbond>
1.6720

> <Gold.PLP.Chemscore.CHOScore>
0.9932

> <Gold.PLP.Chemscore.Metal>
0.0000

> <Gold.Chemscore.Hbonds>
donor molecule, donor type, donor heavy atom, donor atom, acceptor molecule, acceptor atom, score
      P1  H  6896  6908       L1    10  0.80
      P1  H  6931  6943       L1    12  0.69
      L1  C     3    24       P1  8028  1.00

> <Gold.PLP.Chemscore.Internal.Correction>
0.0268

> <Gold.Rescore>
     Score         DG    S(hbond)    S(metal)    S(lipo)     H(rot)  DE(clash)    DE(int)     intcor
     12.87     -15.05       1.82        0.00      83.77       2.46       0.02       2.17       ----

> <Gold.Chemscore.Fitness>
12.8714

> <Gold.Chemscore.DG>
-15.0550

> <Gold.Chemscore.ZeroCoef>
-5.4800

> <Gold.Chemscore.Hbond>
1.8183

> <Gold.Chemscore.Metal>
0.0000

> <Gold.Chemscore.Lipo>
83.7734

> <Gold.Chemscore.Internal_Hbond>
0.0000

> <Gold.Chemscore.DEClash>
0.0178

> <Gold.Chemscore.DEInternal>
2.1658

> <Gold.Chemscore.Rot>
2.4608

> <Gold.Chemscore.Internal.Correction>
   9.000000E+99

> <Gold.Chemscore.Hbonds>
donor molecule, donor type, donor heavy atom, donor atom, acceptor molecule, acceptor atom, score
      P1  H  6896  6908       L1    10  0.69
      P1  H  6931  6943       L1    12  0.31

> <Gold.Chemscore.Hbond.Weighted>
-6.0731

> <Gold.Chemscore.Metal.Weighted>
-0.0000

> <Gold.Chemscore.Lipo.Weighted>
-9.8015

> <Gold.Chemscore.Internal_Hbond.Weighted>
0.0000

> <Gold.Chemscore.DEClash.Weighted>
0.0178

> <Gold.Chemscore.DEInternal.Weighted>
2.1658

> <Gold.Chemscore.Rot.Weighted>
6.2997

> <Gold.Chemscore.Internal.Correction.Weighted>
   9.000000E+99

> <Gold.Protein.RotatedTorsions>
[ 6907 6896 6895 6894 ] final -103.50 input  -60.11 | X-H torsion
[ 7974 7965 7964 7962 ] final   95.23 input  175.53 | X-H torsion
[ 8008 7997 7996 7995 ] final  147.48 input   59.86 | X-H torsion
[ 10167 10162 10161 10158 ] final  -57.44 input  -65.29 | X-H torsion
[ 10718 10713 10712 10709 ] final  133.69 input   66.30 | X-H torsion
[ 10763 10752 10751 10750 ] final -174.51 input  -60.55 | X-H torsion
[ 11005 11000 10999 10996 ] final -141.41 input  -57.11 | X-H torsion

> <Gold.Protein.ActiveResidues>
 VAL166  LYS551  ARG553  GLY616  TRP617  ASP618  TYR619  PRO620  LYS621  CYS622 
 ASP623  PHE694  ASN695  SER759  ASP760  ASP761  ALA762  ILE779  LEU786  VAL792 
 PHE793  MET794  SER795  GLU796  ALA797  LYS798  CYS799  TRP800  GLU811  SER814 

> <Gold.Protein.RotatedAtoms>
  150.7243  134.0419  159.3768 H   0  0  0  0  0  0  0  0  0  0  0  0  # atno 6907 bound_to 6896
  151.8393  135.0593  160.0455 H   0  0  0  0  0  0  0  0  0  0  0  0  # atno 6908 bound_to 6896
  152.2874  133.5493  159.5572 H   0  0  0  0  0  0  0  0  0  0  0  0  # atno 6909 bound_to 6896
  145.4549  139.2290  143.3019 H   0  0  0  0  0  0  0  0  0  0  0  0  # atno 7974 bound_to 7965
  156.2823  140.2154  156.5544 H   0  0  0  0  0  0  0  0  0  0  0  0  # atno 8008 bound_to 7997
  154.7264  140.0499  157.0709 H   0  0  0  0  0  0  0  0  0  0  0  0  # atno 8009 bound_to 7997
  155.0411  140.3146  155.4727 H   0  0  0  0  0  0  0  0  0  0  0  0  # atno 8010 bound_to 7997
  140.6257  143.2437  151.5368 H   0  0  0  0  0  0  0  0  0  0  0  0  # atno 10167 bound_to 10162
  157.4748  131.1082  150.9757 H   0  0  0  0  0  0  0  0  0  0  0  0  # atno 10718 bound_to 10713
  154.5954  135.2849  155.0591 H   0  0  0  0  0  0  0  0  0  0  0  0  # atno 10763 bound_to 10752
  154.1876  135.6446  153.5055 H   0  0  0  0  0  0  0  0  0  0  0  0  # atno 10764 bound_to 10752
  153.0137  135.5438  154.6654 H   0  0  0  0  0  0  0  0  0  0  0  0  # atno 10765 bound_to 10752
  140.8327  134.2498  157.4849 H   0  0  0  0  0  0  0  0  0  0  0  0  # atno 11005 bound_to 11000
  146.2484  140.5312  142.8904 LP  0  0  0  0  0  0  0  0  0  0  0  0  # atno 17320 bound_to 7965
  144.8038  140.6263  143.6460 LP  0  0  0  0  0  0  0  0  0  0  0  0  # atno 17321 bound_to 7965
  139.5478  144.2474  152.1475 LP  0  0  0  0  0  0  0  0  0  0  0  0  # atno 17342 bound_to 10162
  140.1705  144.4940  150.6582 LP  0  0  0  0  0  0  0  0  0  0  0  0  # atno 17343 bound_to 10162
  157.0510  130.5787  149.5370 LP  0  0  0  0  0  0  0  0  0  0  0  0  # atno 17370 bound_to 10713
  156.0091  130.5181  150.7930 LP  0  0  0  0  0  0  0  0  0  0  0  0  # atno 17371 bound_to 10713
  139.8704  134.9594  156.4332 LP  0  0  0  0  0  0  0  0  0  0  0  0  # atno 17394 bound_to 11000
  140.8981  133.7799  155.9648 LP  0  0  0  0  0  0  0  0  0  0  0  0  # atno 17395 bound_to 11000

$$$$
