#       Name:                AV-unprocessed.smi:2999
#       Creating user name   scv26
#       Creation time:       Fri Mar 27 16:34:59 2020


#       File generated by GOLD software.
#

@<TRIPOS>MOLECULE
AV-unprocessed.smi:2999
    43    45     1
SMALL
NO_CHARGES


@<TRIPOS>ATOM
      1 ****        -0.8038   2.8881  -2.2894 O.2            1 S1                 0.0000
      2 ****        -1.3848   1.9089  -1.8163 C.2            1 S1                 0.0000
      3 ****        -0.6915   0.8068  -1.5067 N.am           1 S1                 0.0000
      4 ****         0.7481   0.6433  -1.6629 C.3            1 S1                 0.0000
      5 ****         1.2419  -0.6096  -0.9246 C.3            1 S1                 0.0000
      6 ****         1.0278  -0.5297   0.6024 C.3            1 S1                 0.0000
      7 ****         1.5879  -1.7285   1.2656 N.4            1 S1                 1.0000
      8 ****         1.3691  -1.7184   2.7279 C.3            1 S1                 0.0000
      9 ****         1.2442  -3.0973   3.3328 C.3            1 S1                 0.0000
     10 ****         0.0128  -2.2396   3.1416 C.3            1 S1                 0.0000
     11 ****         3.0132  -1.9039   0.9074 C.3            1 S1                 0.0000
     12 ****         3.1757  -1.9409  -0.6207 C.3            1 S1                 0.0000
     13 ****         2.6349  -0.7527  -1.1861 O.3            1 S1                 0.0000
     14 ****        -2.7073   1.8047  -1.5561 N.pl3          1 S1                -1.0000
     15 ****        -3.5268   2.8372  -1.8137 C.2            1 S1                 0.0000
     16 ****        -3.9521   3.6833  -0.8685 N.2            1 S1                 0.0000
     17 ****        -4.8039   4.6766  -1.3555 C.2            1 S1                 0.0000
     18 ****        -5.0394   4.5793  -2.7013 C.2            1 S1                 0.0000
     19 ****        -4.1919   3.2303  -3.4019 S.3            1 S1                 0.0000
     20 ****        -1.2076   0.0263  -1.1282 H              1 S1                 0.0000
     21 ****         0.9776   0.5656  -2.7264 H              1 S1                 0.0000
     22 ****         1.2690   1.5252  -1.2862 H              1 S1                 0.0000
     23 ****         0.7171  -1.4799  -1.3242 H              1 S1                 0.0000
     24 ****         1.5045   0.3662   1.0040 H              1 S1                 0.0000
     25 ****        -0.0356  -0.4560   0.8333 H              1 S1                 0.0000
     26 ****         1.8426  -0.9106   3.2834 H              1 S1                 0.0000
     27 ****         1.3607  -3.9603   2.6795 H              1 S1                 0.0000
     28 ****         1.6034  -3.2332   4.3508 H              1 S1                 0.0000
     29 ****        -0.4389  -1.8095   4.0332 H              1 S1                 0.0000
     30 ****        -0.6875  -2.5313   2.3608 H              1 S1                 0.0000
     31 ****         3.5999  -1.0846   1.3259 H              1 S1                 0.0000
     32 ****         3.3938  -2.8276   1.3444 H              1 S1                 0.0000
     33 ****         4.2309  -2.0094  -0.8852 H              1 S1                 0.0000
     34 ****         2.6835  -2.8176  -1.0447 H              1 S1                 0.0000
     35 ****        -5.1991   5.4124  -0.6712 H              1 S1                 0.0000
     36 ****        -5.6568   5.2133  -3.3197 H              1 S1                 0.0000
     37 ****         1.0899  -2.5267   0.8981 H              1 S1                 0.0000
     38 ****         0.1841   2.8581  -2.4413 LP             1 S1                 0.0000
     39 ****        -1.3206   3.7123  -2.5213 LP             1 S1                 0.0000
     40 ****         3.1162   0.0342  -0.8000 LP             1 S1                 0.0000
     41 ****         2.7747  -0.7761  -2.1760 LP             1 S1                 0.0000
     42 ****        -3.0757   0.9583  -1.1716 LP             1 S1                 0.0000
     43 ****        -3.6860   3.6113   0.0927 LP             1 S1                 0.0000
@<TRIPOS>BOND
    1    1    2 2     
    2    2    3 am    
    3    2   14 1     
    4    3    4 1     
    5    3   20 1     
    6    4    5 1     
    7    4   21 1     
    8    4   22 1     
    9    5   13 1     
   10    5    6 1     
   11    5   23 1     
   12    6    7 1     
   13    6   24 1     
   14    6   25 1     
   15    7    8 1     
   16    7   11 1     
   17    7   37 1     
   18    8   10 1     
   19    8    9 1     
   20    8   26 1     
   21    9   10 1     
   22    9   27 1     
   23    9   28 1     
   24   10   29 1     
   25   10   30 1     
   26   11   12 1     
   27   11   31 1     
   28   11   32 1     
   29   12   13 1     
   30   12   33 1     
   31   12   34 1     
   32   14   15 1     
   33   15   19 1     
   34   15   16 2     
   35   16   17 1     
   36   17   18 2     
   37   17   35 1     
   38   18   19 1     
   39   18   36 1     
   40    1   38 1     
   41    1   39 1     
   42   13   40 1     
   43   13   41 1     
   44   14   42 1     
   45   16   43 1     
@<TRIPOS>SUBSTRUCTURE
      1 S1             1
@<TRIPOS>SET
LONE_PAIRS      STATIC     ATOMS    <user>   **** ""
6 38 39 40 41 42 43
DONOR_HYDROGENS      STATIC     ATOMS    <user>   **** ""
2 20 37
ATOM$BLUE        STATIC     ATOMS    COLORGROUP SYSTEM
6 38 39 40 41 42 43
ATOM$RED        STATIC     ATOMS    COLORGROUP SYSTEM
2 20 37
