AV-unprocessed.smi:2083|AV-procd|sdf|8502|dock3
  -GOLD-   2272011213D 1   1.00000     0.00000
 Structure written by MMmdl.
 44 45  0  0  0  0  0  0  0  0  3 V2000
  148.8117  140.4654  154.7867 C   0  0  0  0  0  0  0  0  0  0  0  0
  149.7971  139.3534  154.9088 C   0  0  0  0  0  0  0  0  0  0  0  0
  149.6577  138.0080  155.1009 C   0  0  0  0  0  0  0  0  0  0  0  0
  151.0005  137.5412  155.1161 C   0  0  0  0  0  0  0  0  0  0  0  0
  151.3932  136.2707  155.2958 N   0  5  0  0  0  0  0  0  0  0  0  0
  150.4959  135.2613  155.2225 C   0  0  0  0  0  0  0  0  0  0  0  0
  149.8127  134.8162  156.1474 O   0  0  0  0  0  0  0  0  0  0  0  0
  150.3839  134.7329  153.9973 N   0  0  0  0  0  0  0  0  0  0  0  0
  149.4937  133.6390  153.6279 C   0  0  0  0  0  0  0  0  0  0  0  0
  148.0184  133.9566  153.9686 C   0  0  2  0  0  0  0  0  0  0  0  0
  147.4457  132.8799  154.9233 C   0  0  0  0  0  0  0  0  0  0  0  0
  147.2339  134.1321  152.7021 N   0  3  1  0  0  0  0  0  0  0  0  0
  147.3025  133.0058  151.7256 C   0  0  0  0  0  0  0  0  0  0  0  0
  146.5845  133.3508  150.4102 C   0  0  0  0  0  0  0  0  0  0  0  0
  145.1309  133.7693  150.6579 C   0  0  0  0  0  0  0  0  0  0  0  0
  145.0549  134.9027  151.6938 C   0  0  2  0  0  0  0  0  0  0  0  0
  145.5165  136.2605  151.1362 C   0  0  0  0  0  0  0  0  0  0  0  0
  145.8157  134.5076  152.9751 C   0  0  0  0  0  0  0  0  0  0  0  0
  151.8775  138.5190  154.9627 N   0  0  0  0  0  0  0  0  0  0  0  0
  151.1136  139.6839  154.8229 O   0  0  0  0  0  0  0  0  0  0  0  0
  148.1925  140.5311  155.6814 H   0  0  0  0  0  0  0  0  0  0  0  0
  148.1552  140.3054  153.9314 H   0  0  0  0  0  0  0  0  0  0  0  0
  149.3138  141.4239  154.6524 H   0  0  0  0  0  0  0  0  0  0  0  0
  148.7421  137.4463  155.2106 H   0  0  0  0  0  0  0  0  0  0  0  0
  150.9600  135.1267  153.2679 H   0  0  0  0  0  0  0  0  0  0  0  0
  149.6298  133.4511  152.5636 H   0  0  0  0  0  0  0  0  0  0  0  0
  149.8014  132.7299  154.1477 H   0  0  0  0  0  0  0  0  0  0  0  0
  147.9840  134.9015  154.5138 H   0  0  0  0  0  0  0  0  0  0  0  0
  148.0495  132.7779  155.8250 H   0  0  0  0  0  0  0  0  0  0  0  0
  147.4113  131.9000  154.4459 H   0  0  0  0  0  0  0  0  0  0  0  0
  146.4428  133.1307  155.2686 H   0  0  0  0  0  0  0  0  0  0  0  0
  148.3350  132.7749  151.4669 H   0  0  0  0  0  0  0  0  0  0  0  0
  146.8693  132.1082  152.1702 H   0  0  0  0  0  0  0  0  0  0  0  0
  147.1201  134.1512  149.8986 H   0  0  0  0  0  0  0  0  0  0  0  0
  146.6111  132.4919  149.7389 H   0  0  0  0  0  0  0  0  0  0  0  0
  144.6559  134.0687  149.7230 H   0  0  0  0  0  0  0  0  0  0  0  0
  144.5703  132.9082  151.0243 H   0  0  0  0  0  0  0  0  0  0  0  0
  144.0047  135.0235  151.9626 H   0  0  0  0  0  0  0  0  0  0  0  0
  146.5742  136.2563  150.8724 H   0  0  0  0  0  0  0  0  0  0  0  0
  145.3650  137.0537  151.8688 H   0  0  0  0  0  0  0  0  0  0  0  0
  144.9524  136.5292  150.2425 H   0  0  0  0  0  0  0  0  0  0  0  0
  145.3143  133.6618  153.4488 H   0  0  0  0  0  0  0  0  0  0  0  0
  145.7556  135.3293  153.6870 H   0  0  0  0  0  0  0  0  0  0  0  0
  147.6561  134.9196  152.2313 H   0  0  0  0  0  0  0  0  0  0  0  0
  1  2  1  0  0  0  0
  1 21  1  0  0  0  0
  1 22  1  0  0  0  0
  1 23  1  0  0  0  0
  2 20  1  0  0  0  0
  2  3  2  0  0  0  0
  3  4  1  0  0  0  0
  3 24  1  0  0  0  0
  4  5  1  0  0  0  0
  4 19  2  0  0  0  0
  5  6  1  0  0  0  0
  6  7  2  0  0  0  0
  6  8  1  0  0  0  0
  8  9  1  0  0  0  0
  8 25  1  0  0  0  0
  9 10  1  0  0  0  0
  9 26  1  0  0  0  0
  9 27  1  0  0  0  0
 10 11  1  0  0  0  0
 10 12  1  0  0  0  0
 10 28  1  0  0  0  0
 11 29  1  0  0  0  0
 11 30  1  0  0  0  0
 11 31  1  0  0  0  0
 12 18  1  0  0  0  0
 12 13  1  0  0  0  0
 12 44  1  0  0  0  0
 13 14  1  0  0  0  0
 13 32  1  0  0  0  0
 13 33  1  0  0  0  0
 14 15  1  0  0  0  0
 14 34  1  0  0  0  0
 14 35  1  0  0  0  0
 15 16  1  0  0  0  0
 15 36  1  0  0  0  0
 15 37  1  0  0  0  0
 16 17  1  0  0  0  0
 16 18  1  0  0  0  0
 16 38  1  0  0  0  0
 17 39  1  0  0  0  0
 17 40  1  0  0  0  0
 17 41  1  0  0  0  0
 18 42  1  0  0  0  0
 18 43  1  0  0  0  0
 19 20  1  0  0  0  0
M  CHG  1   5  -1
M  CHG  1  12   1
M  END
> <s_m_source_file>
AV-unprocessed.smi

> <i_m_source_file_index>
2083

> <i_lp_mmshare_version>
43012

> <i_f3d_flags>
0

> <s_epik_input>
W0NIM11jMVtjSF1jKG5vMSlbTkhdQyg9TylbTkhdW0NIMl1bQ0BIXShbQ0gzXSlOMltDSDJdW0NIMl1bQ0gyXVtDQEBIXShbQ0gzXSlbQ0gyXTI=

> <s_epik_cmdline>
J2VwaWtfcHl0aG9uJywgJy1waCcsICc3LjAnLCAnLXRuJywgJzgnLCAnLW1hJywgJzIwMCcsICctbWV0YWxfYmluZGluZycsICctaW1hZScsICc8aW5maWxlLm1hZT4nLCAnLW9tYWUnLCAnPG91dGZpbGUubWFlPic=

> <r_epik_Ionization_Penalty>
6.22434

> <r_epik_Ionization_Penalty_Charging>
6.22425

> <r_epik_Ionization_Penalty_Neutral>
9.62407e-05

> <r_epik_State_Penalty>
6.22423

> <r_epik_Charging_Adjusted_Penalty>
12.4485

> <i_epik_Tot_Q>
0

> <i_epik_Tot_abs_Q>
2

> <r_epik_Metal_State_Penalty>
2.16764

> <b_epik_Metal_Only>
1

> <s_lp_Force_Field>
OPLS_2005

> <r_lp_Energy>
14.8953

> <b_lp_Chiralities_Consistent>
1

> <s_lp_Variant>
AV-unprocessed.smi:2083-13

> <Gold.Version>
5.8.1

> <Gold.Id.Protein>
6NUR|6NUR_protein|mol2

> <Gold.PLP.Fitness>
44.8544

> <Gold.PLP.PLP>
-31.3932

> <Gold.PLP.part.hbond>
-5.0000

> <Gold.PLP.part.metal>
0.0000

> <Gold.PLP.part.buried>
0.2581

> <Gold.PLP.part.nonpolar>
-25.8713

> <Gold.PLP.part.repulsive>
0.3593

> <Gold.PLP.ligand.clash>
0.0000

> <Gold.PLP.ligand.torsion>
1.5549

> <Gold.PLP.Chemscore.Hbond>
5.4961

> <Gold.PLP.Chemscore.CHOScore>
0.0000

> <Gold.PLP.Chemscore.Metal>
0.0000

> <Gold.Chemscore.Hbonds>
donor molecule, donor type, donor heavy atom, donor atom, acceptor molecule, acceptor atom, score
      L1  H     8    25       P1  7949  0.60
      L1  H    12    44       P1  7948  2.00
      P1  H  7989  7998       L1    20  1.00
      P1  H 10752 10765       L1     5  2.00

> <Gold.PLP.Chemscore.Internal.Correction>
0.0828

> <Gold.Rescore>
     Score         DG    S(hbond)    S(metal)    S(lipo)     H(rot)  DE(clash)    DE(int)     intcor
     16.03     -18.25       2.70        0.00      65.41       1.52       0.59       1.63       ----

> <Gold.Chemscore.Fitness>
16.0256

> <Gold.Chemscore.DG>
-18.2512

> <Gold.Chemscore.ZeroCoef>
-5.4800

> <Gold.Chemscore.Hbond>
2.6966

> <Gold.Chemscore.Metal>
0.0000

> <Gold.Chemscore.Lipo>
65.4133

> <Gold.Chemscore.Internal_Hbond>
0.0000

> <Gold.Chemscore.DEClash>
0.5935

> <Gold.Chemscore.DEInternal>
1.6321

> <Gold.Chemscore.Rot>
1.5190

> <Gold.Chemscore.Internal.Correction>
   9.000000E+99

> <Gold.Chemscore.Hbonds>
donor molecule, donor type, donor heavy atom, donor atom, acceptor molecule, acceptor atom, score
      L1  H     8    25       P1  7949  0.04
      L1  H    12    44       P1  7948  0.87
      P1  H  7989  7998       L1    20  0.90
      P1  H 10752 10765       L1     5  0.50

> <Gold.Chemscore.Hbond.Weighted>
-9.0065

> <Gold.Chemscore.Metal.Weighted>
-0.0000

> <Gold.Chemscore.Lipo.Weighted>
-7.6534

> <Gold.Chemscore.Internal_Hbond.Weighted>
0.0000

> <Gold.Chemscore.DEClash.Weighted>
0.5935

> <Gold.Chemscore.DEInternal.Weighted>
1.6321

> <Gold.Chemscore.Rot.Weighted>
3.8886

> <Gold.Chemscore.Internal.Correction.Weighted>
   9.000000E+99

> <Gold.Protein.RotatedTorsions>
[ 6907 6896 6895 6894 ] final -143.50 input  -60.11 | X-H torsion
[ 7974 7965 7964 7962 ] final  -19.54 input  175.53 | X-H torsion
[ 8008 7997 7996 7995 ] final  174.66 input   59.86 | X-H torsion
[ 10167 10162 10161 10158 ] final -135.25 input  -65.29 | X-H torsion
[ 10718 10713 10712 10709 ] final  124.79 input   66.30 | X-H torsion
[ 10763 10752 10751 10750 ] final -175.00 input  -60.55 | X-H torsion
[ 11005 11000 10999 10996 ] final -174.15 input  -57.11 | X-H torsion

> <Gold.Protein.ActiveResidues>
 VAL166  LYS551  ARG553  GLY616  TRP617  ASP618  TYR619  PRO620  LYS621  CYS622 
 ASP623  PHE694  ASN695  SER759  ASP760  ASP761  ALA762  ILE779  LEU786  VAL792 
 PHE793  MET794  SER795  GLU796  ALA797  LYS798  CYS799  TRP800  GLU811  SER814 

> <Gold.Protein.RotatedAtoms>
  151.1013  133.5241  159.2609 H   0  0  0  0  0  0  0  0  0  0  0  0  # atno 6907 bound_to 6896
  151.2071  135.0465  159.8906 H   0  0  0  0  0  0  0  0  0  0  0  0  # atno 6908 bound_to 6896
  152.5443  134.0834  159.8299 H   0  0  0  0  0  0  0  0  0  0  0  0  # atno 6909 bound_to 6896
  146.1836  140.4076  142.8485 H   0  0  0  0  0  0  0  0  0  0  0  0  # atno 7974 bound_to 7965
  156.0951  140.1429  156.9541 H   0  0  0  0  0  0  0  0  0  0  0  0  # atno 8008 bound_to 7997
  154.4666  140.0924  156.7083 H   0  0  0  0  0  0  0  0  0  0  0  0  # atno 8009 bound_to 7997
  155.4855  140.3446  155.4348 H   0  0  0  0  0  0  0  0  0  0  0  0  # atno 8010 bound_to 7997
  139.8798  143.6853  152.2629 H   0  0  0  0  0  0  0  0  0  0  0  0  # atno 10167 bound_to 10162
  157.5556  131.1092  150.8628 H   0  0  0  0  0  0  0  0  0  0  0  0  # atno 10718 bound_to 10713
  154.5896  135.2844  155.0649 H   0  0  0  0  0  0  0  0  0  0  0  0  # atno 10763 bound_to 10752
  154.1954  135.6433  153.5075 H   0  0  0  0  0  0  0  0  0  0  0  0  # atno 10764 bound_to 10752
  153.0116  135.5456  154.6578 H   0  0  0  0  0  0  0  0  0  0  0  0  # atno 10765 bound_to 10752
  140.4777  134.6105  157.4907 H   0  0  0  0  0  0  0  0  0  0  0  0  # atno 11005 bound_to 11000
  144.8357  140.6779  143.6262 LP  0  0  0  0  0  0  0  0  0  0  0  0  # atno 17320 bound_to 7965
  145.4005  139.1598  143.4180 LP  0  0  0  0  0  0  0  0  0  0  0  0  # atno 17321 bound_to 7965
  139.7206  144.7603  151.0961 LP  0  0  0  0  0  0  0  0  0  0  0  0  # atno 17342 bound_to 10162
  140.7746  143.5212  150.9534 LP  0  0  0  0  0  0  0  0  0  0  0  0  # atno 17343 bound_to 10162
  156.9140  130.5291  149.5280 LP  0  0  0  0  0  0  0  0  0  0  0  0  # atno 17370 bound_to 10713
  156.0615  130.5667  150.9203 LP  0  0  0  0  0  0  0  0  0  0  0  0  # atno 17371 bound_to 10713
  139.9846  134.7083  155.9798 LP  0  0  0  0  0  0  0  0  0  0  0  0  # atno 17394 bound_to 11000
  141.1546  133.6544  156.4121 LP  0  0  0  0  0  0  0  0  0  0  0  0  # atno 17395 bound_to 11000

$$$$
