#       Name:                AV-unprocessed.smi:1008
#       Creating user name   scv26
#       Creation time:       Fri Mar 27 02:35:47 2020


#       File generated by GOLD software.
#

@<TRIPOS>MOLECULE
AV-unprocessed.smi:1008
    29    29     1
SMALL
NO_CHARGES


@<TRIPOS>ATOM
      1 ****         0.0626   2.3492  -0.3361 C.3            1 S1                 0.0000
      2 ****        -0.5820   0.9751  -0.3362 C.ar           1 S1                 0.0000
      3 ****        -1.9334   0.9589  -0.3217 N.ar           1 S1                 0.0000
      4 ****        -2.5224  -0.2368  -0.3153 C.ar           1 S1                 0.0000
      5 ****        -3.8956  -0.2451  -0.3033 N.pl3          1 S1                 0.0000
      6 ****        -1.9177  -1.4253  -0.3188 N.ar           1 S1                 0.0000
      7 ****        -0.5672  -1.4297  -0.3343 C.ar           1 S1                 0.0000
      8 ****         0.0678  -2.6379  -0.3302 O.3            1 S1                 0.0000
      9 ****         0.1759  -0.2234  -0.3482 C.ar           1 S1                 0.0000
     10 ****         1.6991  -0.2255  -0.3635 C.3            1 S1                 0.0000
     11 ****         2.2903  -0.3175   1.0498 C.3            1 S1                 0.0000
     12 ****         3.6993  -0.3043   0.9799 O.3            1 S1                 0.0000
     13 ****        -0.5359  -3.3647  -0.3246 H              1 S1                 0.0000
     14 ****         0.7947   2.4302   0.4673 H              1 S1                 0.0000
     15 ****        -0.6784   3.1366  -0.1927 H              1 S1                 0.0000
     16 ****         0.5669   2.5308  -1.2852 H              1 S1                 0.0000
     17 ****        -4.4119   0.6224  -0.2997 H              1 S1                 0.0000
     18 ****        -4.4006  -1.1190  -0.2782 H              1 S1                 0.0000
     19 ****         2.0676   0.6687  -0.8660 H              1 S1                 0.0000
     20 ****         2.0510  -1.0618  -0.9684 H              1 S1                 0.0000
     21 ****         1.9586   0.5200   1.6640 H              1 S1                 0.0000
     22 ****         1.9673  -1.2340   1.5445 H              1 S1                 0.0000
     23 ****         4.0442  -0.3677   1.8575 H              1 S1                 0.0000
     24 ****        -2.4667   1.8048  -0.3161 LP             1 S1                 0.0000
     25 ****        -2.4418  -2.2769  -0.3104 LP             1 S1                 0.0000
     26 ****         0.6446  -2.6941   0.4847 LP             1 S1                 0.0000
     27 ****         0.6394  -2.7023  -1.1482 LP             1 S1                 0.0000
     28 ****         4.0080   0.5477   0.5570 LP             1 S1                 0.0000
     29 ****         4.0172  -1.0807   0.4357 LP             1 S1                 0.0000
@<TRIPOS>BOND
    1    1   14 1     
    2    1   15 1     
    3    1   16 1     
    4    1    2 1     
    5    2    9 ar    
    6    2    3 ar    
    7    3    4 ar    
    8    4    5 1     
    9    4    6 ar    
   10    5   17 1     
   11    5   18 1     
   12    6    7 ar    
   13    7    8 1     
   14    7    9 ar    
   15    8   13 1     
   16    9   10 1     
   17   10   11 1     
   18   10   19 1     
   19   10   20 1     
   20   11   12 1     
   21   11   21 1     
   22   11   22 1     
   23   12   23 1     
   24    3   24 1     
   25    6   25 1     
   26    8   26 1     
   27    8   27 1     
   28   12   28 1     
   29   12   29 1     
@<TRIPOS>SUBSTRUCTURE
      1 S1             1
@<TRIPOS>SET
LONE_PAIRS      STATIC     ATOMS    <user>   **** ""
6 24 25 26 27 28 29
DONOR_HYDROGENS      STATIC     ATOMS    <user>   **** ""
4 17 18 13 23
ATOM$BLUE        STATIC     ATOMS    COLORGROUP SYSTEM
6 24 25 26 27 28 29
ATOM$RED        STATIC     ATOMS    COLORGROUP SYSTEM
4 17 18 13 23
