AV-unprocessed.smi:2104|AV-procd|sdf|8587|dock6
  -GOLD-   2272011323D 1   1.00000     0.00000
 Structure written by MMmdl.
 42 43  0  0  0  0  0  0  0  0  2 V2000
  146.3636  135.8852  162.0906 C   0  0  0  0  0  0  0  0  0  0  0  0
  147.4415  136.2343  161.1225 C   0  0  0  0  0  0  0  0  0  0  0  0
  148.5326  135.5525  160.6643 C   0  0  0  0  0  0  0  0  0  0  0  0
  149.1273  136.4659  159.7519 C   0  0  0  0  0  0  0  0  0  0  0  0
  150.2481  136.2527  159.0458 N   0  5  0  0  0  0  0  0  0  0  0  0
  150.8057  137.2582  158.3320 C   0  0  0  0  0  0  0  0  0  0  0  0
  150.5624  137.5439  157.1574 O   0  0  0  0  0  0  0  0  0  0  0  0
  151.7049  137.9733  159.0202 N   0  0  0  0  0  0  0  0  0  0  0  0
  152.4835  139.0880  158.4943 C   0  0  0  0  0  0  0  0  0  0  0  0
  151.6400  140.3670  158.4783 C   0  0  0  0  0  0  0  0  0  0  0  0
  152.4932  141.4712  158.7408 O   0  0  0  0  0  0  0  0  0  0  0  0
  151.8364  142.6290  159.2383 C   0  0  2  0  0  0  0  0  0  0  0  0
  151.5839  143.6181  158.0813 C   0  0  0  0  0  0  0  0  0  0  0  0
  151.0141  144.9502  158.5905 C   0  0  0  0  0  0  0  0  0  0  0  0
  151.9315  145.5715  159.6530 C   0  0  0  0  0  0  0  0  0  0  0  0
  152.1723  144.5934  160.8128 C   0  0  0  0  0  0  0  0  0  0  0  0
  152.7495  143.2520  160.3183 C   0  0  1  0  0  0  0  0  0  0  0  0
  152.9741  142.2886  161.4958 C   0  0  0  0  0  0  0  0  0  0  0  0
  148.4660  137.6090  159.6773 N   0  0  0  0  0  0  0  0  0  0  0  0
  147.3786  137.4654  160.5476 O   0  0  0  0  0  0  0  0  0  0  0  0
  146.7662  135.3146  162.9277 H   0  0  0  0  0  0  0  0  0  0  0  0
  145.5947  135.2820  161.6082 H   0  0  0  0  0  0  0  0  0  0  0  0
  145.8900  136.7819  162.4907 H   0  0  0  0  0  0  0  0  0  0  0  0
  148.8531  134.5574  160.9333 H   0  0  0  0  0  0  0  0  0  0  0  0
  151.8792  137.7047  159.9773 H   0  0  0  0  0  0  0  0  0  0  0  0
  153.3814  139.2457  159.0941 H   0  0  0  0  0  0  0  0  0  0  0  0
  152.8090  138.8420  157.4830 H   0  0  0  0  0  0  0  0  0  0  0  0
  151.1614  140.4822  157.5056 H   0  0  0  0  0  0  0  0  0  0  0  0
  150.8497  140.3021  159.2280 H   0  0  0  0  0  0  0  0  0  0  0  0
  150.8869  142.3577  159.7043 H   0  0  0  0  0  0  0  0  0  0  0  0
  152.5182  143.8036  157.5498 H   0  0  0  0  0  0  0  0  0  0  0  0
  150.8962  143.1872  157.3538 H   0  0  0  0  0  0  0  0  0  0  0  0
  150.8865  145.6430  157.7582 H   0  0  0  0  0  0  0  0  0  0  0  0
  150.0220  144.7867  159.0129 H   0  0  0  0  0  0  0  0  0  0  0  0
  152.8854  145.8450  159.2001 H   0  0  0  0  0  0  0  0  0  0  0  0
  151.4917  146.4950  160.0305 H   0  0  0  0  0  0  0  0  0  0  0  0
  152.8510  145.0469  161.5361 H   0  0  0  0  0  0  0  0  0  0  0  0
  151.2330  144.4188  161.3395 H   0  0  0  0  0  0  0  0  0  0  0  0
  153.7216  143.4530  159.8654 H   0  0  0  0  0  0  0  0  0  0  0  0
  152.0330  142.0304  161.9819 H   0  0  0  0  0  0  0  0  0  0  0  0
  153.6270  142.7324  162.2475 H   0  0  0  0  0  0  0  0  0  0  0  0
  153.4422  141.3602  161.1667 H   0  0  0  0  0  0  0  0  0  0  0  0
  1  2  1  0  0  0  0
  1 21  1  0  0  0  0
  1 22  1  0  0  0  0
  1 23  1  0  0  0  0
  2 20  1  0  0  0  0
  2  3  2  0  0  0  0
  3  4  1  0  0  0  0
  3 24  1  0  0  0  0
  4  5  1  0  0  0  0
  4 19  2  0  0  0  0
  5  6  1  0  0  0  0
  6  7  2  0  0  0  0
  6  8  1  0  0  0  0
  8  9  1  0  0  0  0
  8 25  1  0  0  0  0
  9 10  1  0  0  0  0
  9 26  1  0  0  0  0
  9 27  1  0  0  0  0
 10 11  1  0  0  0  0
 10 28  1  0  0  0  0
 10 29  1  0  0  0  0
 11 12  1  0  0  0  0
 12 17  1  0  0  0  0
 12 13  1  0  0  0  0
 12 30  1  0  0  0  0
 13 14  1  0  0  0  0
 13 31  1  0  0  0  0
 13 32  1  0  0  0  0
 14 15  1  0  0  0  0
 14 33  1  0  0  0  0
 14 34  1  0  0  0  0
 15 16  1  0  0  0  0
 15 35  1  0  0  0  0
 15 36  1  0  0  0  0
 16 17  1  0  0  0  0
 16 37  1  0  0  0  0
 16 38  1  0  0  0  0
 17 18  1  0  0  0  0
 17 39  1  0  0  0  0
 18 40  1  0  0  0  0
 18 41  1  0  0  0  0
 18 42  1  0  0  0  0
 19 20  1  0  0  0  0
M  CHG  1   5  -1
M  END
> <s_m_source_file>
AV-unprocessed.smi

> <i_m_source_file_index>
2104

> <i_lp_mmshare_version>
43012

> <i_f3d_flags>
0

> <s_epik_input>
W0NIM11jMVtjSF1jKG5vMSlbTkhdQyg9TylbTkhdW0NIMl1bQ0gyXU9bQ0BASF0yW0NIMl1bQ0gyXVtDSDJdW0NIMl1bQ0BIXTJbQ0gzXQ==

> <s_epik_cmdline>
J2VwaWtfcHl0aG9uJywgJy1waCcsICc3LjAnLCAnLXRuJywgJzgnLCAnLW1hJywgJzIwMCcsICctbWV0YWxfYmluZGluZycsICctaW1hZScsICc8aW5maWxlLm1hZT4nLCAnLW9tYWUnLCAnPG91dGZpbGUubWFlPic=

> <r_lp_tautomer_probability>
1

> <r_epik_Ionization_Penalty>
6.47137

> <r_epik_Ionization_Penalty_Charging>
6.47125

> <r_epik_Ionization_Penalty_Neutral>
0.000118933

> <r_epik_State_Penalty>
6.47124

> <r_epik_Charging_Adjusted_Penalty>
12.9425

> <i_epik_Tot_Q>
-1

> <i_epik_Tot_abs_Q>
1

> <r_epik_Metal_State_Penalty>
2.3995

> <b_epik_Metal_Only>
1

> <s_lp_Force_Field>
OPLS_2005

> <r_lp_Energy>
5.464

> <b_lp_Chiralities_Consistent>
1

> <s_lp_Variant>
AV-unprocessed.smi:2104-5

> <Gold.Version>
5.8.1

> <Gold.Id.Protein>
6NUR|6NUR_protein|mol2

> <Gold.PLP.Fitness>
47.3654

> <Gold.PLP.PLP>
-41.9431

> <Gold.PLP.part.hbond>
-4.2068

> <Gold.PLP.part.metal>
0.0000

> <Gold.PLP.part.buried>
-5.1642

> <Gold.PLP.part.nonpolar>
-32.8404

> <Gold.PLP.part.repulsive>
0.1185

> <Gold.PLP.ligand.clash>
0.0000

> <Gold.PLP.ligand.torsion>
1.7783

> <Gold.PLP.Chemscore.Hbond>
2.9500

> <Gold.PLP.Chemscore.CHOScore>
0.0000

> <Gold.PLP.Chemscore.Metal>
0.0000

> <Gold.Chemscore.Hbonds>
donor molecule, donor type, donor heavy atom, donor atom, acceptor molecule, acceptor atom, score
      P1  H  6896  6908       L1     5  2.00
      P1  H  6934  6947       L1    20  0.90

> <Gold.PLP.Chemscore.Internal.Correction>
0.1288

> <Gold.Rescore>
     Score         DG    S(hbond)    S(metal)    S(lipo)     H(rot)  DE(clash)    DE(int)     intcor
     16.37     -18.22       1.16        0.00     113.09       1.71       0.11       1.73       ----

> <Gold.Chemscore.Fitness>
16.3746

> <Gold.Chemscore.DG>
-18.2181

> <Gold.Chemscore.ZeroCoef>
-5.4800

> <Gold.Chemscore.Hbond>
1.1632

> <Gold.Chemscore.Metal>
0.0000

> <Gold.Chemscore.Lipo>
113.0879

> <Gold.Chemscore.Internal_Hbond>
0.0000

> <Gold.Chemscore.DEClash>
0.1102

> <Gold.Chemscore.DEInternal>
1.7333

> <Gold.Chemscore.Rot>
1.7103

> <Gold.Chemscore.Internal.Correction>
   9.000000E+99

> <Gold.Chemscore.Hbonds>
donor molecule, donor type, donor heavy atom, donor atom, acceptor molecule, acceptor atom, score
      P1  H  6896  6908       L1     5  0.50
      P1  H  6934  6947       L1    20  0.17

> <Gold.Chemscore.Hbond.Weighted>
-3.8852

> <Gold.Chemscore.Metal.Weighted>
-0.0000

> <Gold.Chemscore.Lipo.Weighted>
-13.2313

> <Gold.Chemscore.Internal_Hbond.Weighted>
0.0000

> <Gold.Chemscore.DEClash.Weighted>
0.1102

> <Gold.Chemscore.DEInternal.Weighted>
1.7333

> <Gold.Chemscore.Rot.Weighted>
4.3784

> <Gold.Chemscore.Internal.Correction.Weighted>
   9.000000E+99

> <Gold.Protein.RotatedTorsions>
[ 6907 6896 6895 6894 ] final -159.28 input  -60.11 | X-H torsion
[ 7974 7965 7964 7962 ] final   29.60 input  175.53 | X-H torsion
[ 8008 7997 7996 7995 ] final -107.17 input   59.86 | X-H torsion
[ 10167 10162 10161 10158 ] final -132.03 input  -65.29 | X-H torsion
[ 10718 10713 10712 10709 ] final   25.18 input   66.30 | X-H torsion
[ 10763 10752 10751 10750 ] final  131.03 input  -60.55 | X-H torsion
[ 11005 11000 10999 10996 ] final  -66.23 input  -57.11 | X-H torsion

> <Gold.Protein.ActiveResidues>
 VAL166  LYS551  ARG553  GLY616  TRP617  ASP618  TYR619  PRO620  LYS621  CYS622 
 ASP623  PHE694  ASN695  SER759  ASP760  ASP761  ALA762  ILE779  LEU786  VAL792 
 PHE793  MET794  SER795  GLU796  ALA797  LYS798  CYS799  TRP800  GLU811  SER814 

> <Gold.Protein.RotatedAtoms>
  151.3311  133.4000  159.2662 H   0  0  0  0  0  0  0  0  0  0  0  0  # atno 6907 bound_to 6896
  150.9955  134.9280  159.7934 H   0  0  0  0  0  0  0  0  0  0  0  0  # atno 6908 bound_to 6896
  152.5260  134.3276  159.9223 H   0  0  0  0  0  0  0  0  0  0  0  0  # atno 6909 bound_to 6896
  146.1662  139.6900  142.9000 H   0  0  0  0  0  0  0  0  0  0  0  0  # atno 7974 bound_to 7965
  154.9254  140.0406  157.2020 H   0  0  0  0  0  0  0  0  0  0  0  0  # atno 8008 bound_to 7997
  154.8212  140.2884  155.5764 H   0  0  0  0  0  0  0  0  0  0  0  0  # atno 8009 bound_to 7997
  156.2980  140.2518  156.3120 H   0  0  0  0  0  0  0  0  0  0  0  0  # atno 8010 bound_to 7997
  139.9128  143.6474  152.2571 H   0  0  0  0  0  0  0  0  0  0  0  0  # atno 10167 bound_to 10162
  157.1899  130.6841  149.6146 H   0  0  0  0  0  0  0  0  0  0  0  0  # atno 10718 bound_to 10713
  153.7677  135.3186  155.3347 H   0  0  0  0  0  0  0  0  0  0  0  0  # atno 10763 bound_to 10752
  154.8207  135.4605  154.0775 H   0  0  0  0  0  0  0  0  0  0  0  0  # atno 10764 bound_to 10752
  153.2025  135.6924  153.8298 H   0  0  0  0  0  0  0  0  0  0  0  0  # atno 10765 bound_to 10752
  141.1476  133.6695  156.6107 H   0  0  0  0  0  0  0  0  0  0  0  0  # atno 11005 bound_to 11000
  145.4462  141.0425  143.2830 LP  0  0  0  0  0  0  0  0  0  0  0  0  # atno 17320 bound_to 7965
  144.8095  139.5988  143.7035 LP  0  0  0  0  0  0  0  0  0  0  0  0  # atno 17321 bound_to 7965
  139.6928  144.7645  151.1408 LP  0  0  0  0  0  0  0  0  0  0  0  0  # atno 17342 bound_to 10162
  140.7681  143.5565  150.9146 LP  0  0  0  0  0  0  0  0  0  0  0  0  # atno 17343 bound_to 10162
  155.9713  130.4618  150.6123 LP  0  0  0  0  0  0  0  0  0  0  0  0  # atno 17370 bound_to 10713
  157.3871  131.0790  151.1426 LP  0  0  0  0  0  0  0  0  0  0  0  0  # atno 17371 bound_to 10713
  140.3616  134.7682  157.4538 LP  0  0  0  0  0  0  0  0  0  0  0  0  # atno 17394 bound_to 11000
  140.0780  134.5770  155.8570 LP  0  0  0  0  0  0  0  0  0  0  0  0  # atno 17395 bound_to 11000

$$$$
