AV-unprocessed.smi:1250|AV-procd|sdf|5255|dock3
  -GOLD-   22720 4363D 1   1.00000     0.00000
 Structure written by MMmdl.
 41 42  0  0  0  0  0  0  0  0  1 V2000
  146.0475  132.2731  149.8124 C   0  0  0  0  0  0  0  0  0  0  0  0
  145.6025  132.2494  151.2880 C   0  0  0  0  0  0  0  0  0  0  0  0
  144.0646  132.2731  151.3588 C   0  0  0  0  0  0  0  0  0  0  0  0
  146.2481  133.3918  152.1166 C   0  0  1  0  0  0  0  0  0  0  0  0
  145.6969  134.7864  151.7641 C   0  0  0  0  0  0  0  0  0  0  0  0
  146.0486  133.1571  153.5464 N   0  0  0  0  0  0  0  0  0  0  0  0
  147.0178  133.1211  154.4750 C   0  0  0  0  0  0  0  0  0  0  0  0
  148.2112  133.2816  154.2198 O   0  0  0  0  0  0  0  0  0  0  0  0
  146.5732  132.8690  155.9162 C   0  0  0  0  0  0  0  0  0  0  0  0
  147.0228  133.9933  156.8045 C   0  0  0  0  0  0  0  0  0  0  0  0
  147.5982  135.1769  156.4093 C   0  0  0  0  0  0  0  0  0  0  0  0
  147.9718  136.2071  157.7629 S   0  0  0  0  0  0  0  0  0  0  0  0
  147.3282  134.9655  158.8419 C   0  0  0  0  0  0  0  0  0  0  0  0
  147.2739  135.0303  160.2663 N   0  0  0  0  0  0  0  0  0  0  0  0
  146.8758  133.8814  161.0742 C   0  0  0  0  0  0  0  0  0  0  0  0
  147.1715  134.2664  162.5276 C   0  0  0  0  0  0  0  0  0  0  0  0
  147.3749  135.7800  162.5113 C   0  0  0  0  0  0  0  0  0  0  0  0
  147.5416  136.1009  161.0352 C   0  0  0  0  0  0  0  0  0  0  0  0
  147.8740  137.2229  160.6558 O   0  0  0  0  0  0  0  0  0  0  0  0
  146.8787  133.8861  158.1922 N   0  0  0  0  0  0  0  0  0  0  0  0
  145.7950  133.2227  149.3397 H   0  0  0  0  0  0  0  0  0  0  0  0
  145.5615  131.4807  149.2427 H   0  0  0  0  0  0  0  0  0  0  0  0
  147.1222  132.1241  149.7076 H   0  0  0  0  0  0  0  0  0  0  0  0
  145.9323  131.2980  151.7080 H   0  0  0  0  0  0  0  0  0  0  0  0
  143.6674  133.2298  151.0188 H   0  0  0  0  0  0  0  0  0  0  0  0
  143.7015  132.0987  152.3711 H   0  0  0  0  0  0  0  0  0  0  0  0
  143.6304  131.4939  150.7315 H   0  0  0  0  0  0  0  0  0  0  0  0
  147.3197  133.3876  151.9073 H   0  0  0  0  0  0  0  0  0  0  0  0
  145.9251  135.0644  150.7357 H   0  0  0  0  0  0  0  0  0  0  0  0
  146.1353  135.5553  152.4011 H   0  0  0  0  0  0  0  0  0  0  0  0
  144.6149  134.8295  151.8922 H   0  0  0  0  0  0  0  0  0  0  0  0
  145.0970  133.0156  153.8534 H   0  0  0  0  0  0  0  0  0  0  0  0
  145.4887  132.7527  155.9437 H   0  0  0  0  0  0  0  0  0  0  0  0
  146.9916  131.9225  156.2604 H   0  0  0  0  0  0  0  0  0  0  0  0
  147.8195  135.5050  155.4043 H   0  0  0  0  0  0  0  0  0  0  0  0
  145.8100  133.6954  160.9325 H   0  0  0  0  0  0  0  0  0  0  0  0
  147.4194  132.9802  160.7870 H   0  0  0  0  0  0  0  0  0  0  0  0
  146.3660  133.9667  163.1987 H   0  0  0  0  0  0  0  0  0  0  0  0
  148.0836  133.7744  162.8681 H   0  0  0  0  0  0  0  0  0  0  0  0
  146.5002  136.3033  162.8984 H   0  0  0  0  0  0  0  0  0  0  0  0
  148.2492  136.0844  163.0877 H   0  0  0  0  0  0  0  0  0  0  0  0
  1  2  1  0  0  0  0
  1 21  1  0  0  0  0
  1 22  1  0  0  0  0
  1 23  1  0  0  0  0
  2  3  1  0  0  0  0
  2  4  1  0  0  0  0
  2 24  1  0  0  0  0
  3 25  1  0  0  0  0
  3 26  1  0  0  0  0
  3 27  1  0  0  0  0
  4  5  1  0  0  0  0
  4  6  1  0  0  0  0
  4 28  1  0  0  0  0
  5 29  1  0  0  0  0
  5 30  1  0  0  0  0
  5 31  1  0  0  0  0
  6  7  1  0  0  0  0
  6 32  1  0  0  0  0
  7  8  2  0  0  0  0
  7  9  1  0  0  0  0
  9 10  1  0  0  0  0
  9 33  1  0  0  0  0
  9 34  1  0  0  0  0
 10 20  1  0  0  0  0
 10 11  2  0  0  0  0
 11 12  1  0  0  0  0
 11 35  1  0  0  0  0
 12 13  1  0  0  0  0
 13 14  1  0  0  0  0
 13 20  2  0  0  0  0
 14 18  1  0  0  0  0
 14 15  1  0  0  0  0
 15 16  1  0  0  0  0
 15 36  1  0  0  0  0
 15 37  1  0  0  0  0
 16 17  1  0  0  0  0
 16 38  1  0  0  0  0
 16 39  1  0  0  0  0
 17 18  1  0  0  0  0
 17 40  1  0  0  0  0
 17 41  1  0  0  0  0
 18 19  2  0  0  0  0
M  END
> <s_m_source_file>
AV-unprocessed.smi

> <i_m_source_file_index>
1250

> <i_lp_mmshare_version>
43012

> <i_f3d_flags>
0

> <s_epik_input>
W0NIM11bQ0hdKFtDSDNdKVtDQEhdKFtDSDNdKVtOSF1DKD1PKVtDSDJdYzFbY0hdc2MobjEpTjJbQ0gyXVtDSDJdW0NIMl1DMj1P

> <s_epik_cmdline>
J2VwaWtfcHl0aG9uJywgJy1waCcsICc3LjAnLCAnLXRuJywgJzgnLCAnLW1hJywgJzIwMCcsICctbWV0YWxfYmluZGluZycsICctaW1hZScsICc8aW5maWxlLm1hZT4nLCAnLW9tYWUnLCAnPG91dGZpbGUubWFlPic=

> <r_lp_tautomer_probability>
1

> <r_epik_Ionization_Penalty>
3.03552e-05

> <r_epik_Ionization_Penalty_Charging>
0

> <r_epik_Ionization_Penalty_Neutral>
3.03552e-05

> <r_epik_State_Penalty>
-0

> <r_epik_Charging_Adjusted_Penalty>
0

> <i_epik_Tot_Q>
0

> <i_epik_Tot_abs_Q>
0

> <r_epik_Metal_State_Penalty>
-0

> <b_epik_Metal_Only>
0

> <s_lp_Force_Field>
OPLS_2005

> <r_lp_Energy>
19.4329

> <b_lp_Chiralities_Consistent>
1

> <s_lp_Variant>
AV-unprocessed.smi:1250-2

> <Gold.Version>
5.8.1

> <Gold.Id.Protein>
6NUR|6NUR_protein|mol2

> <Gold.PLP.Fitness>
35.3080

> <Gold.PLP.PLP>
-30.9742

> <Gold.PLP.part.hbond>
-2.0000

> <Gold.PLP.part.metal>
0.0000

> <Gold.PLP.part.buried>
-4.6123

> <Gold.PLP.part.nonpolar>
-24.3502

> <Gold.PLP.part.repulsive>
0.0917

> <Gold.PLP.ligand.clash>
0.0000

> <Gold.PLP.ligand.torsion>
0.2744

> <Gold.PLP.Chemscore.Hbond>
1.6160

> <Gold.PLP.Chemscore.CHOScore>
0.0000

> <Gold.PLP.Chemscore.Metal>
0.0000

> <Gold.Chemscore.Hbonds>
donor molecule, donor type, donor heavy atom, donor atom, acceptor molecule, acceptor atom, score
      P1  H  6931  6943       L1    19  0.80
      P1  H  6934  6947       L1    19  0.82

> <Gold.PLP.Chemscore.Internal.Correction>
0.0346

> <Gold.Rescore>
     Score         DG    S(hbond)    S(metal)    S(lipo)     H(rot)  DE(clash)    DE(int)     intcor
     12.67     -14.72       1.73        0.00      64.20       1.58       0.01       2.04       ----

> <Gold.Chemscore.Fitness>
12.6677

> <Gold.Chemscore.DG>
-14.7246

> <Gold.Chemscore.ZeroCoef>
-5.4800

> <Gold.Chemscore.Hbond>
1.7281

> <Gold.Chemscore.Metal>
0.0000

> <Gold.Chemscore.Lipo>
64.1986

> <Gold.Chemscore.Internal_Hbond>
0.0000

> <Gold.Chemscore.DEClash>
0.0142

> <Gold.Chemscore.DEInternal>
2.0427

> <Gold.Chemscore.Rot>
1.5775

> <Gold.Chemscore.Internal.Correction>
   9.000000E+99

> <Gold.Chemscore.Hbonds>
donor molecule, donor type, donor heavy atom, donor atom, acceptor molecule, acceptor atom, score
      P1  H  6931  6943       L1    19  0.72
      P1  H  6934  6947       L1    19  0.81

> <Gold.Chemscore.Hbond.Weighted>
-5.7718

> <Gold.Chemscore.Metal.Weighted>
-0.0000

> <Gold.Chemscore.Lipo.Weighted>
-7.5112

> <Gold.Chemscore.Internal_Hbond.Weighted>
0.0000

> <Gold.Chemscore.DEClash.Weighted>
0.0142

> <Gold.Chemscore.DEInternal.Weighted>
2.0427

> <Gold.Chemscore.Rot.Weighted>
4.0385

> <Gold.Chemscore.Internal.Correction.Weighted>
   9.000000E+99

> <Gold.Protein.RotatedTorsions>
[ 6907 6896 6895 6894 ] final  116.08 input  -60.11 | X-H torsion
[ 7974 7965 7964 7962 ] final   -4.33 input  175.53 | X-H torsion
[ 8008 7997 7996 7995 ] final  -49.71 input   59.86 | X-H torsion
[ 10167 10162 10161 10158 ] final -174.76 input  -65.29 | X-H torsion
[ 10718 10713 10712 10709 ] final  -19.24 input   66.30 | X-H torsion
[ 10763 10752 10751 10750 ] final   61.59 input  -60.55 | X-H torsion
[ 11005 11000 10999 10996 ] final   21.52 input  -57.11 | X-H torsion

> <Gold.Protein.ActiveResidues>
 VAL166  LYS551  ARG553  GLY616  TRP617  ASP618  TYR619  PRO620  LYS621  CYS622 
 ASP623  PHE694  ASN695  SER759  ASP760  ASP761  ALA762  ILE779  LEU786  VAL792 
 PHE793  MET794  SER795  GLU796  ALA797  LYS798  CYS799  TRP800  GLU811  SER814 

> <Gold.Protein.RotatedAtoms>
  152.4701  133.8010  159.6952 H   0  0  0  0  0  0  0  0  0  0  0  0  # atno 6907 bound_to 6896
  150.8685  133.7529  159.2975 H   0  0  0  0  0  0  0  0  0  0  0  0  # atno 6908 bound_to 6896
  151.5072  135.1067  159.9896 H   0  0  0  0  0  0  0  0  0  0  0  0  # atno 6909 bound_to 6896
  146.2374  140.1856  142.8332 H   0  0  0  0  0  0  0  0  0  0  0  0  # atno 7974 bound_to 7965
  154.4049  140.1290  156.4547 H   0  0  0  0  0  0  0  0  0  0  0  0  # atno 8008 bound_to 7997
  155.7332  140.3491  155.5049 H   0  0  0  0  0  0  0  0  0  0  0  0  # atno 8009 bound_to 7997
  155.9108  140.1035  157.1271 H   0  0  0  0  0  0  0  0  0  0  0  0  # atno 8010 bound_to 7997
  139.5616  144.1855  152.1248 H   0  0  0  0  0  0  0  0  0  0  0  0  # atno 10167 bound_to 10162
  156.5485  130.4695  149.6464 H   0  0  0  0  0  0  0  0  0  0  0  0  # atno 10718 bound_to 10713
  152.9955  135.5495  154.6059 H   0  0  0  0  0  0  0  0  0  0  0  0  # atno 10763 bound_to 10752
  154.5390  135.2818  155.1115 H   0  0  0  0  0  0  0  0  0  0  0  0  # atno 10764 bound_to 10752
  154.2399  135.6418  153.5256 H   0  0  0  0  0  0  0  0  0  0  0  0  # atno 10765 bound_to 10752
  140.3907  134.1822  155.7662 H   0  0  0  0  0  0  0  0  0  0  0  0  # atno 11005 bound_to 11000
  144.9899  140.8537  143.5345 LP  0  0  0  0  0  0  0  0  0  0  0  0  # atno 17320 bound_to 7965
  145.1860  139.2326  143.5267 LP  0  0  0  0  0  0  0  0  0  0  0  0  # atno 17321 bound_to 7965
  140.1370  144.5237  150.6767 LP  0  0  0  0  0  0  0  0  0  0  0  0  # atno 17342 bound_to 10162
  140.6897  143.2369  151.5166 LP  0  0  0  0  0  0  0  0  0  0  0  0  # atno 17343 bound_to 10162
  156.2906  130.7122  151.1970 LP  0  0  0  0  0  0  0  0  0  0  0  0  # atno 17370 bound_to 10713
  157.7392  131.0532  150.5246 LP  0  0  0  0  0  0  0  0  0  0  0  0  # atno 17371 bound_to 10713
  141.1892  133.8244  157.0967 LP  0  0  0  0  0  0  0  0  0  0  0  0  # atno 17394 bound_to 11000
  140.0409  134.9855  157.0959 LP  0  0  0  0  0  0  0  0  0  0  0  0  # atno 17395 bound_to 11000

$$$$
