AV-unprocessed.smi:363|AV-procd|sdf|2424|dock1
  -GOLD-   2262022363D 1   1.00000     0.00000
 Structure written by MMmdl.
 39 40  0  0  0  0  0  0  0  0  1 V2000
  153.9960  141.0658  160.9534 C   0  0  0  0  0  0  0  0  0  0  0  0
  153.0503  141.3044  159.7828 C   0  0  0  0  0  0  0  0  0  0  0  0
  152.8591  142.6642  159.3348 C   0  0  0  0  0  0  0  0  0  0  0  0
  152.0076  142.9541  158.3383 C   0  0  0  0  0  0  0  0  0  0  0  0
  151.8083  144.3952  157.8803 C   0  0  0  0  0  0  0  0  0  0  0  0
  151.2828  141.9195  157.6848 N   0  0  0  0  0  0  0  0  0  0  0  0
  150.3433  142.2630  156.5920 C   0  0  0  0  0  0  0  0  0  0  0  0
  148.9069  141.7504  156.8578 C   0  0  1  0  0  0  0  0  0  0  0  0
  148.0923  142.8347  157.2560 O   0  0  0  0  0  0  0  0  0  0  0  0
  148.3338  141.0739  155.6212 C   0  0  0  0  0  0  0  0  0  0  0  0
  148.7930  139.7980  155.2259 C   0  0  0  0  0  0  0  0  0  0  0  0
  148.2529  139.1697  154.0870 C   0  0  0  0  0  0  0  0  0  0  0  0
  147.2488  139.8124  153.3374 C   0  0  0  0  0  0  0  0  0  0  0  0
  146.5867  139.0422  151.9426 Cl  0  0  0  0  0  0  0  0  0  0  0  0
  146.7855  141.0838  153.7281 C   0  0  0  0  0  0  0  0  0  0  0  0
  147.3264  141.7129  154.8665 C   0  0  0  0  0  0  0  0  0  0  0  0
  151.4311  140.5988  158.0247 C   0  0  0  0  0  0  0  0  0  0  0  0
  150.8333  139.7223  157.3921 O   0  0  0  0  0  0  0  0  0  0  0  0
  152.3515  140.3168  159.1609 C   0  0  0  0  0  0  0  0  0  0  0  0
  152.4912  138.9033  159.5636 C   0  0  0  0  0  0  0  0  0  0  0  0
  151.4803  138.1033  159.1975 N   0  0  0  0  0  0  0  0  0  0  0  0
  153.4059  138.4568  160.2544 O   0  0  0  0  0  0  0  0  0  0  0  0
  154.3031  142.0072  161.4096 H   0  0  0  0  0  0  0  0  0  0  0  0
  154.8970  140.5511  160.6189 H   0  0  0  0  0  0  0  0  0  0  0  0
  153.5173  140.4682  161.7298 H   0  0  0  0  0  0  0  0  0  0  0  0
  153.4052  143.4624  159.8166 H   0  0  0  0  0  0  0  0  0  0  0  0
  152.5738  145.0440  158.3069 H   0  0  0  0  0  0  0  0  0  0  0  0
  150.8411  144.7721  158.2136 H   0  0  0  0  0  0  0  0  0  0  0  0
  151.8766  144.5018  156.7994 H   0  0  0  0  0  0  0  0  0  0  0  0
  150.3306  143.3317  156.3685 H   0  0  0  0  0  0  0  0  0  0  0  0
  150.7161  141.8396  155.6604 H   0  0  0  0  0  0  0  0  0  0  0  0
  148.9091  141.0314  157.6777 H   0  0  0  0  0  0  0  0  0  0  0  0
  148.3878  143.6124  156.8079 H   0  0  0  0  0  0  0  0  0  0  0  0
  149.5599  139.2966  155.7979 H   0  0  0  0  0  0  0  0  0  0  0  0
  148.6091  138.1938  153.7912 H   0  0  0  0  0  0  0  0  0  0  0  0
  146.0138  141.5780  153.1563 H   0  0  0  0  0  0  0  0  0  0  0  0
  146.9619  142.6872  155.1578 H   0  0  0  0  0  0  0  0  0  0  0  0
  151.4930  137.1257  159.4504 H   0  0  0  0  0  0  0  0  0  0  0  0
  150.6997  138.4856  158.6837 H   0  0  0  0  0  0  0  0  0  0  0  0
  1  2  1  0  0  0  0
  1 23  1  0  0  0  0
  1 24  1  0  0  0  0
  1 25  1  0  0  0  0
  2 19  2  0  0  0  0
  2  3  1  0  0  0  0
  3  4  2  0  0  0  0
  3 26  1  0  0  0  0
  4  5  1  0  0  0  0
  4  6  1  0  0  0  0
  5 27  1  0  0  0  0
  5 28  1  0  0  0  0
  5 29  1  0  0  0  0
  6  7  1  0  0  0  0
  6 17  1  0  0  0  0
  7  8  1  0  0  0  0
  7 30  1  0  0  0  0
  7 31  1  0  0  0  0
  8  9  1  0  0  0  0
  8 10  1  0  0  0  0
  8 32  1  0  0  0  0
  9 33  1  0  0  0  0
 10 16  1  0  0  0  0
 10 11  2  0  0  0  0
 11 12  1  0  0  0  0
 11 34  1  0  0  0  0
 12 13  2  0  0  0  0
 12 35  1  0  0  0  0
 13 14  1  0  0  0  0
 13 15  1  0  0  0  0
 15 16  2  0  0  0  0
 15 36  1  0  0  0  0
 16 37  1  0  0  0  0
 17 18  2  0  0  0  0
 17 19  1  0  0  0  0
 19 20  1  0  0  0  0
 20 21  1  0  0  0  0
 20 22  2  0  0  0  0
 21 38  1  0  0  0  0
 21 39  1  0  0  0  0
M  END
> <s_m_source_file>
AV-unprocessed.smi

> <i_m_source_file_index>
363

> <i_lp_mmshare_version>
43012

> <i_f3d_flags>
0

> <s_epik_input>
W0NIM11jMVtjSF1jKFtDSDNdKW4oYyg9TyljMUMoPU8pW05IMl0pW0NIMl1bQ0BIXShbT0hdKWMyW2NIXVtjSF1jKENsKVtjSF1bY0hdMg==

> <s_epik_cmdline>
J2VwaWtfcHl0aG9uJywgJy1waCcsICc3LjAnLCAnLXRuJywgJzgnLCAnLW1hJywgJzIwMCcsICctbWV0YWxfYmluZGluZycsICctaW1hZScsICc8aW5maWxlLm1hZT4nLCAnLW9tYWUnLCAnPG91dGZpbGUubWFlPic=

> <r_lp_tautomer_probability>
1

> <r_epik_Ionization_Penalty>
3.91973e-07

> <r_epik_Ionization_Penalty_Charging>
1.35363e-07

> <r_epik_Ionization_Penalty_Neutral>
2.5661e-07

> <r_epik_State_Penalty>
-0

> <r_epik_Charging_Adjusted_Penalty>
1.35363e-07

> <i_epik_Tot_Q>
0

> <i_epik_Tot_abs_Q>
0

> <r_epik_Metal_State_Penalty>
-0

> <b_epik_Metal_Only>
0

> <s_lp_Force_Field>
OPLS_2005

> <r_lp_Energy>
39.726

> <b_lp_Chiralities_Consistent>
1

> <s_lp_Variant>
AV-unprocessed.smi:363-2

> <Gold.Version>
5.8.1

> <Gold.Id.Protein>
6NUR|6NUR_protein|mol2

> <Gold.PLP.Fitness>
43.7924

> <Gold.PLP.PLP>
-42.8122

> <Gold.PLP.part.hbond>
-1.4512

> <Gold.PLP.part.metal>
0.0000

> <Gold.PLP.part.buried>
-2.5980

> <Gold.PLP.part.nonpolar>
-39.2785

> <Gold.PLP.part.repulsive>
0.1202

> <Gold.PLP.ligand.clash>
0.0501

> <Gold.PLP.ligand.torsion>
1.1291

> <Gold.PLP.Chemscore.Hbond>
1.0000

> <Gold.PLP.Chemscore.CHOScore>
0.0000

> <Gold.PLP.Chemscore.Metal>
0.0000

> <Gold.Chemscore.Hbonds>
donor molecule, donor type, donor heavy atom, donor atom, acceptor molecule, acceptor atom, score
      L1  H     9    33       P1  8028  0.75

> <Gold.PLP.Chemscore.Internal.Correction>
0.2885

> <Gold.Rescore>
     Score         DG    S(hbond)    S(metal)    S(lipo)     H(rot)  DE(clash)    DE(int)     intcor
     11.74     -16.04       0.50        0.00     118.69       1.95       0.23       4.08       ----

> <Gold.Chemscore.Fitness>
11.7391

> <Gold.Chemscore.DG>
-16.0440

> <Gold.Chemscore.ZeroCoef>
-5.4800

> <Gold.Chemscore.Hbond>
0.4994

> <Gold.Chemscore.Metal>
0.0000

> <Gold.Chemscore.Lipo>
118.6903

> <Gold.Chemscore.Internal_Hbond>
0.0000

> <Gold.Chemscore.DEClash>
0.2281

> <Gold.Chemscore.DEInternal>
4.0767

> <Gold.Chemscore.Rot>
1.9495

> <Gold.Chemscore.Internal.Correction>
   9.000000E+99

> <Gold.Chemscore.Hbonds>
donor molecule, donor type, donor heavy atom, donor atom, acceptor molecule, acceptor atom, score
      L1  H     9    33       P1  8028  0.09

> <Gold.Chemscore.Hbond.Weighted>
-1.6680

> <Gold.Chemscore.Metal.Weighted>
-0.0000

> <Gold.Chemscore.Lipo.Weighted>
-13.8868

> <Gold.Chemscore.Internal_Hbond.Weighted>
0.0000

> <Gold.Chemscore.DEClash.Weighted>
0.2281

> <Gold.Chemscore.DEInternal.Weighted>
4.0767

> <Gold.Chemscore.Rot.Weighted>
4.9908

> <Gold.Chemscore.Internal.Correction.Weighted>
   9.000000E+99

> <Gold.Protein.RotatedTorsions>
[ 6907 6896 6895 6894 ] final  147.61 input  -60.11 | X-H torsion
[ 7974 7965 7964 7962 ] final  -25.12 input  175.53 | X-H torsion
[ 8008 7997 7996 7995 ] final   96.82 input   59.86 | X-H torsion
[ 10167 10162 10161 10158 ] final   32.42 input  -65.29 | X-H torsion
[ 10718 10713 10712 10709 ] final  -36.99 input   66.30 | X-H torsion
[ 10763 10752 10751 10750 ] final  -49.05 input  -60.55 | X-H torsion
[ 11005 11000 10999 10996 ] final  -33.60 input  -57.11 | X-H torsion

> <Gold.Protein.ActiveResidues>
 VAL166  LYS551  ARG553  GLY616  TRP617  ASP618  TYR619  PRO620  LYS621  CYS622 
 ASP623  PHE694  ASN695  SER759  ASP760  ASP761  ALA762  ILE779  LEU786  VAL792 
 PHE793  MET794  SER795  GLU796  ALA797  LYS798  CYS799  TRP800  GLU811  SER814 

> <Gold.Protein.RotatedAtoms>
  152.1525  133.4531  159.4820 H   0  0  0  0  0  0  0  0  0  0  0  0  # atno 6907 bound_to 6896
  150.6897  134.2171  159.4391 H   0  0  0  0  0  0  0  0  0  0  0  0  # atno 6908 bound_to 6896
  152.0069  134.9897  160.0617 H   0  0  0  0  0  0  0  0  0  0  0  0  # atno 6909 bound_to 6896
  146.1511  140.4844  142.8611 H   0  0  0  0  0  0  0  0  0  0  0  0  # atno 7974 bound_to 7965
  156.0836  140.3267  155.7725 H   0  0  0  0  0  0  0  0  0  0  0  0  # atno 8008 bound_to 7997
  155.5112  140.0577  157.2940 H   0  0  0  0  0  0  0  0  0  0  0  0  # atno 8009 bound_to 7997
  154.4596  140.1960  156.0297 H   0  0  0  0  0  0  0  0  0  0  0  0  # atno 8010 bound_to 7997
  140.4500  144.1062  150.6190 H   0  0  0  0  0  0  0  0  0  0  0  0  # atno 10167 bound_to 10162
  156.3204  130.4265  149.7965 H   0  0  0  0  0  0  0  0  0  0  0  0  # atno 10718 bound_to 10713
  154.0878  135.6582  153.4847 H   0  0  0  0  0  0  0  0  0  0  0  0  # atno 10763 bound_to 10752
  153.0333  135.5195  154.7411 H   0  0  0  0  0  0  0  0  0  0  0  0  # atno 10764 bound_to 10752
  154.6525  135.3003  154.9937 H   0  0  0  0  0  0  0  0  0  0  0  0  # atno 10765 bound_to 10752
  140.9648  133.7143  156.1428 H   0  0  0  0  0  0  0  0  0  0  0  0  # atno 11005 bound_to 11000
  144.7905  140.6023  143.6544 LP  0  0  0  0  0  0  0  0  0  0  0  0  # atno 17320 bound_to 7965
  145.4820  139.1494  143.3756 LP  0  0  0  0  0  0  0  0  0  0  0  0  # atno 17321 bound_to 7965
  140.4218  143.2608  151.9705 LP  0  0  0  0  0  0  0  0  0  0  0  0  # atno 17342 bound_to 10162
  139.4796  144.5824  151.7911 LP  0  0  0  0  0  0  0  0  0  0  0  0  # atno 17343 bound_to 10162
  156.5275  130.8243  151.3225 LP  0  0  0  0  0  0  0  0  0  0  0  0  # atno 17370 bound_to 10713
  157.7410  130.9862  150.2419 LP  0  0  0  0  0  0  0  0  0  0  0  0  # atno 17371 bound_to 10713
  140.7415  134.4145  157.5554 LP  0  0  0  0  0  0  0  0  0  0  0  0  # atno 17394 bound_to 11000
  139.8891  134.8840  156.2440 LP  0  0  0  0  0  0  0  0  0  0  0  0  # atno 17395 bound_to 11000

$$$$
