#       Name:                AV-unprocessed.smi:2199
#       Creating user name   scv26
#       Creation time:       Fri Mar 27 12:14:06 2020


#       File generated by GOLD software.
#

@<TRIPOS>MOLECULE
AV-unprocessed.smi:2199
    32    33     1
SMALL
NO_CHARGES


@<TRIPOS>ATOM
      1 ****        -1.0535   0.5891   0.9337 O.2            1 S1                 0.0000
      2 ****        -0.3989  -0.3135   0.4096 C.2            1 S1                 0.0000
      3 ****         1.1305  -0.2185   0.3213 C.3            1 S1                 0.0000
      4 ****         1.6061   1.1603   0.1238 N.am           1 S1                 0.0000
      5 ****         2.0259   1.8768   1.2585 C.2            1 S1                 0.0000
      6 ****         2.4684   3.1459   1.1736 C.2            1 S1                 0.0000
      7 ****         2.5066   3.7772  -0.1398 C.2            1 S1                 0.0000
      8 ****         2.9115   4.9341  -0.2365 O.2            1 S1                 0.0000
      9 ****         2.0855   3.0416  -1.2101 N.pl3          1 S1                -1.0000
     10 ****         1.6344   1.7528  -1.1081 C.2            1 S1                 0.0000
     11 ****         1.2543   1.1083  -2.0864 O.2            1 S1                 0.0000
     12 ****        -0.9488  -1.4317  -0.0858 N.am           1 S1                 0.0000
     13 ****        -2.3436  -1.7322  -0.1035 C.3            1 S1                 0.0000
     14 ****        -2.7542  -3.1785   0.0695 C.3            1 S1                 0.0000
     15 ****        -2.8760  -2.5235  -1.2787 C.3            1 S1                 0.0000
     16 ****         1.5492  -0.6380   1.2369 H              1 S1                 0.0000
     17 ****         1.4980  -0.8609  -0.4813 H              1 S1                 0.0000
     18 ****         1.9595   1.3390   2.1927 H              1 S1                 0.0000
     19 ****         2.7839   3.6843   2.0551 H              1 S1                 0.0000
     20 ****        -0.3306  -2.1176  -0.4944 H              1 S1                 0.0000
     21 ****        -3.0207  -0.9898   0.3169 H              1 S1                 0.0000
     22 ****        -1.9677  -3.9197   0.1985 H              1 S1                 0.0000
     23 ****        -3.6737  -3.3760   0.6168 H              1 S1                 0.0000
     24 ****        -3.8769  -2.2843  -1.6322 H              1 S1                 0.0000
     25 ****        -2.1701  -2.8260  -2.0499 H              1 S1                 0.0000
     26 ****        -0.5887   1.3924   1.3061 LP             1 S1                 0.0000
     27 ****        -2.0496   0.5185   0.9867 LP             1 S1                 0.0000
     28 ****         3.2092   5.4295   0.5796 LP             1 S1                 0.0000
     29 ****         2.9432   5.3797  -1.1312 LP             1 S1                 0.0000
     30 ****         2.1077   3.4660  -2.1153 LP             1 S1                 0.0000
     31 ****         0.9323   0.1686  -1.9717 LP             1 S1                 0.0000
     32 ****         1.2677   1.5248  -2.9955 LP             1 S1                 0.0000
@<TRIPOS>BOND
    1    1    2 2     
    2    2    3 1     
    3    2   12 am    
    4    3    4 1     
    5    3   16 1     
    6    3   17 1     
    7    4   10 am    
    8    4    5 1     
    9    5    6 2     
   10    5   18 1     
   11    6    7 1     
   12    6   19 1     
   13    7    8 2     
   14    7    9 1     
   15    9   10 1     
   16   10   11 2     
   17   12   13 1     
   18   12   20 1     
   19   13   15 1     
   20   13   14 1     
   21   13   21 1     
   22   14   15 1     
   23   14   22 1     
   24   14   23 1     
   25   15   24 1     
   26   15   25 1     
   27    1   26 1     
   28    1   27 1     
   29    8   28 1     
   30    8   29 1     
   31    9   30 1     
   32   11   31 1     
   33   11   32 1     
@<TRIPOS>SUBSTRUCTURE
      1 S1             1
@<TRIPOS>SET
LONE_PAIRS      STATIC     ATOMS    <user>   **** ""
7 26 27 28 29 30 31 32
DONOR_HYDROGENS      STATIC     ATOMS    <user>   **** ""
1 20
ATOM$BLUE        STATIC     ATOMS    COLORGROUP SYSTEM
7 26 27 28 29 30 31 32
ATOM$RED        STATIC     ATOMS    COLORGROUP SYSTEM
1 20
