#       Name:                AV-unprocessed.smi:1056
#       Creating user name   scv26
#       Creation time:       Fri Mar 27 03:13:57 2020


#       File generated by GOLD software.
#

@<TRIPOS>MOLECULE
AV-unprocessed.smi:1056
    50    52     1
SMALL
NO_CHARGES


@<TRIPOS>ATOM
      1 ****        -3.6525   4.0126  -3.3582 C.3            1 S1                 0.0000
      2 ****        -2.8395   3.1729  -2.3875 C.ar           1 S1                 0.0000
      3 ****        -2.5377   3.7136  -1.1175 C.ar           1 S1                 0.0000
      4 ****        -1.7986   2.9194  -0.2489 C.ar           1 S1                 0.0000
      5 ****        -1.3498   3.1611   1.0508 N.pl3          1 S1                 1.0000
      6 ****        -0.6618   2.0771   1.5037 C.2            1 S1                 0.0000
      7 ****        -0.6618   1.1456   0.5112 N.pl3          1 S1                 0.0000
      8 ****        -0.0723  -0.2017   0.4886 C.3            1 S1                 0.0000
      9 ****         1.4318  -0.1972   0.1424 C.3            1 S1                 0.0000
     10 ****         1.6307   0.4365  -1.1051 O.3            1 S1                 0.0000
     11 ****         2.0237  -1.6181   0.0416 C.3            1 S1                 0.0000
     12 ****         1.9642  -2.3625   1.3249 N.4            1 S1                 1.0000
     13 ****         3.0033  -1.9543   2.3000 C.3            1 S1                 0.0000
     14 ****         2.7419  -2.6169   3.6646 C.3            1 S1                 0.0000
     15 ****         2.3654  -4.0244   3.5553 N.am           1 S1                 0.0000
     16 ****         1.9839  -4.6428   2.4259 C.2            1 S1                 0.0000
     17 ****         1.6696  -5.8298   2.4128 O.2            1 S1                 0.0000
     18 ****         1.9470  -3.8334   1.1207 C.3            1 S1                 0.0000
     19 ****        -1.3599   1.6285  -0.6038 C.ar           1 S1                 0.0000
     20 ****        -1.6435   1.0838  -1.8548 C.ar           1 S1                 0.0000
     21 ****        -2.3965   1.8751  -2.7518 C.ar           1 S1                 0.0000
     22 ****        -2.7251   1.3044  -4.1210 C.3            1 S1                 0.0000
     23 ****        -3.9203   4.9766  -2.9247 H              1 S1                 0.0000
     24 ****        -4.5773   3.5009  -3.6259 H              1 S1                 0.0000
     25 ****        -3.0849   4.2036  -4.2691 H              1 S1                 0.0000
     26 ****        -2.8703   4.7016  -0.8339 H              1 S1                 0.0000
     27 ****        -0.2031   1.9754   2.4767 H              1 S1                 0.0000
     28 ****        -0.2261  -0.6299   1.4798 H              1 S1                 0.0000
     29 ****        -0.6348  -0.8305  -0.2017 H              1 S1                 0.0000
     30 ****         1.9737   0.3884   0.8847 H              1 S1                 0.0000
     31 ****         1.3116   1.3246  -1.0478 H              1 S1                 0.0000
     32 ****         1.4680  -2.1668  -0.7207 H              1 S1                 0.0000
     33 ****         3.0584  -1.5833  -0.3041 H              1 S1                 0.0000
     34 ****         3.9834  -2.2495   1.9218 H              1 S1                 0.0000
     35 ****         3.0262  -0.8722   2.4240 H              1 S1                 0.0000
     36 ****         3.6194  -2.5261   4.3052 H              1 S1                 0.0000
     37 ****         1.9281  -2.0985   4.1727 H              1 S1                 0.0000
     38 ****         2.3909  -4.5711   4.4049 H              1 S1                 0.0000
     39 ****         1.0528  -4.1097   0.5604 H              1 S1                 0.0000
     40 ****         2.8077  -4.1260   0.5173 H              1 S1                 0.0000
     41 ****        -1.3055   0.0982  -2.1385 H              1 S1                 0.0000
     42 ****        -2.3005   0.3086  -4.2519 H              1 S1                 0.0000
     43 ****        -2.3248   1.9427  -4.9091 H              1 S1                 0.0000
     44 ****        -3.8044   1.2260  -4.2532 H              1 S1                 0.0000
     45 ****         1.0739  -2.1368   1.7448 H              1 S1                 0.0000
     46 ****        -1.5047   4.0023   1.5922 H              1 S1                 0.0000
     47 ****         1.1295  -0.0560  -1.8165 LP             1 S1                 0.0000
     48 ****         2.6056   0.4429  -1.3278 LP             1 S1                 0.0000
     49 ****         1.6937  -6.3627   3.2586 LP             1 S1                 0.0000
     50 ****         1.3896  -6.2634   1.5564 LP             1 S1                 0.0000
@<TRIPOS>BOND
    1    1    2 1     
    2    1   23 1     
    3    1   24 1     
    4    1   25 1     
    5    2   21 ar    
    6    2    3 ar    
    7    3    4 ar    
    8    3   26 1     
    9    4   19 ar    
   10    4    5 1     
   11    5    6 2     
   12    5   46 1     
   13    6    7 1     
   14    6   27 1     
   15    7    8 1     
   16    7   19 1     
   17    8    9 1     
   18    8   28 1     
   19    8   29 1     
   20    9   10 1     
   21    9   11 1     
   22    9   30 1     
   23   10   31 1     
   24   11   12 1     
   25   11   32 1     
   26   11   33 1     
   27   12   18 1     
   28   12   13 1     
   29   12   45 1     
   30   13   14 1     
   31   13   34 1     
   32   13   35 1     
   33   14   15 1     
   34   14   36 1     
   35   14   37 1     
   36   15   16 am    
   37   15   38 1     
   38   16   17 2     
   39   16   18 1     
   40   18   39 1     
   41   18   40 1     
   42   19   20 ar    
   43   20   21 ar    
   44   20   41 1     
   45   21   22 1     
   46   22   42 1     
   47   22   43 1     
   48   22   44 1     
   49   10   47 1     
   50   10   48 1     
   51   17   49 1     
   52   17   50 1     
@<TRIPOS>SUBSTRUCTURE
      1 S1             1
@<TRIPOS>SET
LONE_PAIRS      STATIC     ATOMS    <user>   **** ""
4 47 48 49 50
DONOR_HYDROGENS      STATIC     ATOMS    <user>   **** ""
4 46 31 45 38
ATOM$BLUE        STATIC     ATOMS    COLORGROUP SYSTEM
4 47 48 49 50
ATOM$RED        STATIC     ATOMS    COLORGROUP SYSTEM
4 46 31 45 38
