AV-unprocessed.smi:2453|AV-procd|sdf|9692|dock2
  -GOLD-   2272013333D 1   1.00000     0.00000
 Structure written by MMmdl.
 41 42  0  0  0  0  0  0  0  0  2 V2000
  150.3656  138.9141  154.4772 C   0  0  0  0  0  0  0  0  0  0  0  0
  149.2531  139.9401  154.3488 C   0  0  0  0  0  0  0  0  0  0  0  0
  149.5009  141.2826  154.7097 C   0  0  0  0  0  0  0  0  0  0  0  0
  148.5216  142.2050  154.6045 N   0  3  0  0  0  0  0  0  0  0  0  0
  147.2815  141.9057  154.1653 C   0  0  0  0  0  0  0  0  0  0  0  0
  146.9691  140.5842  153.7896 C   0  0  0  0  0  0  0  0  0  0  0  0
  147.9684  139.5802  153.8666 C   0  0  0  0  0  0  0  0  0  0  0  0
  147.7229  138.2194  153.5281 N   0  0  0  0  0  0  0  0  0  0  0  0
  146.6122  137.4918  153.7361 C   0  0  0  0  0  0  0  0  0  0  0  0
  145.5690  137.9177  154.2309 O   0  0  0  0  0  0  0  0  0  0  0  0
  146.7794  136.2293  153.3165 N   0  0  0  0  0  0  0  0  0  0  0  0
  145.7914  135.1513  153.4015 C   0  0  1  0  0  0  0  0  0  0  0  0
  144.4797  135.5806  152.7137 C   0  0  0  0  0  0  0  0  0  0  0  0
  144.6282  135.6804  151.1859 C   0  0  0  0  0  0  0  0  0  0  0  0
  145.1658  134.3695  150.5933 C   0  0  0  0  0  0  0  0  0  0  0  0
  146.4860  133.9524  151.2613 C   0  0  0  0  0  0  0  0  0  0  0  0
  146.3381  133.8316  152.7933 C   0  0  1  0  0  0  0  0  0  0  0  0
  147.6526  133.3491  153.4429 C   0  0  0  0  0  0  0  0  0  0  0  0
  148.4893  134.4428  153.7554 O   0  0  0  0  0  0  0  0  0  0  0  0
  151.2799  139.3668  154.8621 H   0  0  0  0  0  0  0  0  0  0  0  0
  150.5911  138.4740  153.5053 H   0  0  0  0  0  0  0  0  0  0  0  0
  150.0722  138.1159  155.1596 H   0  0  0  0  0  0  0  0  0  0  0  0
  150.4486  141.6457  155.0803 H   0  0  0  0  0  0  0  0  0  0  0  0
  146.5781  142.7249  154.1343 H   0  0  0  0  0  0  0  0  0  0  0  0
  145.9645  140.3632  153.4626 H   0  0  0  0  0  0  0  0  0  0  0  0
  148.4642  137.7595  153.0203 H   0  0  0  0  0  0  0  0  0  0  0  0
  147.6712  135.9822  152.9136 H   0  0  0  0  0  0  0  0  0  0  0  0
  145.5533  134.9604  154.4490 H   0  0  0  0  0  0  0  0  0  0  0  0
  143.7010  134.8533  152.9472 H   0  0  0  0  0  0  0  0  0  0  0  0
  144.1348  136.5326  153.1193 H   0  0  0  0  0  0  0  0  0  0  0  0
  143.6652  135.9228  150.7358 H   0  0  0  0  0  0  0  0  0  0  0  0
  145.3008  136.5005  150.9317 H   0  0  0  0  0  0  0  0  0  0  0  0
  144.4253  133.5793  150.7239 H   0  0  0  0  0  0  0  0  0  0  0  0
  145.3118  134.4803  149.5186 H   0  0  0  0  0  0  0  0  0  0  0  0
  146.8144  133.0003  150.8433 H   0  0  0  0  0  0  0  0  0  0  0  0
  147.2641  134.6768  151.0170 H   0  0  0  0  0  0  0  0  0  0  0  0
  145.5907  133.0572  152.9759 H   0  0  0  0  0  0  0  0  0  0  0  0
  147.4409  132.8132  154.3685 H   0  0  0  0  0  0  0  0  0  0  0  0
  148.1896  132.6572  152.7937 H   0  0  0  0  0  0  0  0  0  0  0  0
  148.3475  135.1237  153.1157 H   0  0  0  0  0  0  0  0  0  0  0  0
  148.7257  143.1681  154.8734 H   0  0  0  0  0  0  0  0  0  0  0  0
  1  2  1  0  0  0  0
  1 20  1  0  0  0  0
  1 21  1  0  0  0  0
  1 22  1  0  0  0  0
  2  7  1  0  0  0  0
  2  3  2  0  0  0  0
  3  4  1  0  0  0  0
  3 23  1  0  0  0  0
  4  5  2  0  0  0  0
  4 41  1  0  0  0  0
  5  6  1  0  0  0  0
  5 24  1  0  0  0  0
  6  7  2  0  0  0  0
  6 25  1  0  0  0  0
  7  8  1  0  0  0  0
  8  9  1  0  0  0  0
  8 26  1  0  0  0  0
  9 10  2  0  0  0  0
  9 11  1  0  0  0  0
 11 12  1  0  0  0  0
 11 27  1  0  0  0  0
 12 17  1  0  0  0  0
 12 13  1  0  0  0  0
 12 28  1  0  0  0  0
 13 14  1  0  0  0  0
 13 29  1  0  0  0  0
 13 30  1  0  0  0  0
 14 15  1  0  0  0  0
 14 31  1  0  0  0  0
 14 32  1  0  0  0  0
 15 16  1  0  0  0  0
 15 33  1  0  0  0  0
 15 34  1  0  0  0  0
 16 17  1  0  0  0  0
 16 35  1  0  0  0  0
 16 36  1  0  0  0  0
 17 18  1  0  0  0  0
 17 37  1  0  0  0  0
 18 19  1  0  0  0  0
 18 38  1  0  0  0  0
 18 39  1  0  0  0  0
 19 40  1  0  0  0  0
M  CHG  1   4   1
M  END
> <s_m_source_file>
AV-unprocessed.smi

> <i_m_source_file_index>
2453

> <i_lp_mmshare_version>
43012

> <i_f3d_flags>
0

> <s_epik_input>
W0NIM11jMVtjSF1uW2NIXVtjSF1jMVtOSF1DKD1PKVtOSF1bQ0BASF0yW0NIMl1bQ0gyXVtDSDJdW0NIMl1bQ0BIXTJbQ0gyXVtPSF0=

> <s_epik_cmdline>
J2VwaWtfcHl0aG9uJywgJy1waCcsICc3LjAnLCAnLXRuJywgJzgnLCAnLW1hJywgJzIwMCcsICctbWV0YWxfYmluZGluZycsICctaW1hZScsICc8aW5maWxlLm1hZT4nLCAnLW9tYWUnLCAnPG91dGZpbGUubWFlPic=

> <r_epik_Ionization_Penalty>
0.71493

> <r_epik_Ionization_Penalty_Charging>
0.714909

> <r_epik_Ionization_Penalty_Neutral>
2.10174e-05

> <r_epik_State_Penalty>
0.738815

> <r_epik_Charging_Adjusted_Penalty>
1.45372

> <i_epik_Tot_Q>
1

> <i_epik_Tot_abs_Q>
1

> <r_epik_Metal_State_Penalty>
0.896004

> <b_epik_Metal_Only>
0

> <s_lp_Force_Field>
OPLS_2005

> <r_lp_Energy>
23.1527

> <b_lp_Chiralities_Consistent>
1

> <s_lp_Variant>
AV-unprocessed.smi:2453-6

> <Gold.Version>
5.8.1

> <Gold.Id.Protein>
6NUR|6NUR_protein|mol2

> <Gold.PLP.Fitness>
46.3119

> <Gold.PLP.PLP>
-32.6117

> <Gold.PLP.part.hbond>
-4.0000

> <Gold.PLP.part.metal>
0.0000

> <Gold.PLP.part.buried>
-2.3374

> <Gold.PLP.part.nonpolar>
-25.9173

> <Gold.PLP.part.repulsive>
0.4854

> <Gold.PLP.ligand.clash>
0.0000

> <Gold.PLP.ligand.torsion>
0.5757

> <Gold.PLP.Chemscore.Hbond>
4.9440

> <Gold.PLP.Chemscore.CHOScore>
0.0000

> <Gold.PLP.Chemscore.Metal>
0.0000

> <Gold.Chemscore.Hbonds>
donor molecule, donor type, donor heavy atom, donor atom, acceptor molecule, acceptor atom, score
      L1  H     4    41       P1  8028  2.00
      L1  H     8    26       P1  7948  0.94
      L1  H    11    27       P1  7948  1.00
      L1  H    19    40       P1  7948  0.99

> <Gold.PLP.Chemscore.Internal.Correction>
0.0196

> <Gold.Rescore>
     Score         DG    S(hbond)    S(metal)    S(lipo)     H(rot)  DE(clash)    DE(int)     intcor
     18.68     -22.03       3.80        0.00      71.87       1.77       0.10       3.25       ----

> <Gold.Chemscore.Fitness>
18.6832

> <Gold.Chemscore.DG>
-22.0293

> <Gold.Chemscore.ZeroCoef>
-5.4800

> <Gold.Chemscore.Hbond>
3.7970

> <Gold.Chemscore.Metal>
0.0000

> <Gold.Chemscore.Lipo>
71.8740

> <Gold.Chemscore.Internal_Hbond>
0.0000

> <Gold.Chemscore.DEClash>
0.0962

> <Gold.Chemscore.DEInternal>
3.2499

> <Gold.Chemscore.Rot>
1.7742

> <Gold.Chemscore.Internal.Correction>
   9.000000E+99

> <Gold.Chemscore.Hbonds>
donor molecule, donor type, donor heavy atom, donor atom, acceptor molecule, acceptor atom, score
      L1  H     4    41       P1  8028  1.00
      L1  H     8    26       P1  7948  0.89
      L1  H    11    27       P1  7948  0.97
      L1  H    19    40       P1  7948  0.86

> <Gold.Chemscore.Hbond.Weighted>
-12.6819

> <Gold.Chemscore.Metal.Weighted>
-0.0000

> <Gold.Chemscore.Lipo.Weighted>
-8.4093

> <Gold.Chemscore.Internal_Hbond.Weighted>
0.0000

> <Gold.Chemscore.DEClash.Weighted>
0.0962

> <Gold.Chemscore.DEInternal.Weighted>
3.2499

> <Gold.Chemscore.Rot.Weighted>
4.5419

> <Gold.Chemscore.Internal.Correction.Weighted>
   9.000000E+99

> <Gold.Protein.RotatedTorsions>
[ 6907 6896 6895 6894 ] final  115.38 input  -60.11 | X-H torsion
[ 7974 7965 7964 7962 ] final   89.81 input  175.53 | X-H torsion
[ 8008 7997 7996 7995 ] final  136.70 input   59.86 | X-H torsion
[ 10167 10162 10161 10158 ] final   39.42 input  -65.29 | X-H torsion
[ 10718 10713 10712 10709 ] final -148.38 input   66.30 | X-H torsion
[ 10763 10752 10751 10750 ] final   84.81 input  -60.55 | X-H torsion
[ 11005 11000 10999 10996 ] final -135.00 input  -57.11 | X-H torsion

> <Gold.Protein.ActiveResidues>
 VAL166  LYS551  ARG553  GLY616  TRP617  ASP618  TYR619  PRO620  LYS621  CYS622 
 ASP623  PHE694  ASN695  SER759  ASP760  ASP761  ALA762  ILE779  LEU786  VAL792 
 PHE793  MET794  SER795  GLU796  ALA797  LYS798  CYS799  TRP800  GLU811  SER814 

> <Gold.Protein.RotatedAtoms>
  152.4745  133.8106  159.7000 H   0  0  0  0  0  0  0  0  0  0  0  0  # atno 6907 bound_to 6896
  150.8753  133.7438  159.2955 H   0  0  0  0  0  0  0  0  0  0  0  0  # atno 6908 bound_to 6896
  151.4959  135.1063  159.9868 H   0  0  0  0  0  0  0  0  0  0  0  0  # atno 6909 bound_to 6896
  145.5274  139.2282  143.2638 H   0  0  0  0  0  0  0  0  0  0  0  0  # atno 7974 bound_to 7965
  156.3003  140.2438  156.3788 H   0  0  0  0  0  0  0  0  0  0  0  0  # atno 8008 bound_to 7997
  154.8720  140.0416  157.1750 H   0  0  0  0  0  0  0  0  0  0  0  0  # atno 8009 bound_to 7997
  154.8785  140.2946  155.5443 H   0  0  0  0  0  0  0  0  0  0  0  0  # atno 8010 bound_to 7997
  140.3841  144.1940  150.6130 H   0  0  0  0  0  0  0  0  0  0  0  0  # atno 10167 bound_to 10162
  156.4196  130.8022  151.2244 H   0  0  0  0  0  0  0  0  0  0  0  0  # atno 10718 bound_to 10713
  153.1416  135.4640  154.9504 H   0  0  0  0  0  0  0  0  0  0  0  0  # atno 10763 bound_to 10752
  154.7752  135.3171  154.8110 H   0  0  0  0  0  0  0  0  0  0  0  0  # atno 10764 bound_to 10752
  153.8631  135.6910  153.4835 H   0  0  0  0  0  0  0  0  0  0  0  0  # atno 10765 bound_to 10752
  140.8938  134.1777  157.4509 H   0  0  0  0  0  0  0  0  0  0  0  0  # atno 11005 bound_to 11000
  146.2066  140.6089  142.9078 LP  0  0  0  0  0  0  0  0  0  0  0  0  # atno 17320 bound_to 7965
  144.7644  140.5496  143.6713 LP  0  0  0  0  0  0  0  0  0  0  0  0  # atno 17321 bound_to 7965
  140.4907  143.2348  151.8822 LP  0  0  0  0  0  0  0  0  0  0  0  0  # atno 17342 bound_to 10162
  139.4793  144.5169  151.8856 LP  0  0  0  0  0  0  0  0  0  0  0  0  # atno 17343 bound_to 10162
  157.7508  131.0232  150.3825 LP  0  0  0  0  0  0  0  0  0  0  0  0  # atno 17370 bound_to 10713
  156.4140  130.3939  149.6872 LP  0  0  0  0  0  0  0  0  0  0  0  0  # atno 17371 bound_to 10713
  139.8733  134.9870  156.5348 LP  0  0  0  0  0  0  0  0  0  0  0  0  # atno 17394 bound_to 11000
  140.8314  133.8276  155.8987 LP  0  0  0  0  0  0  0  0  0  0  0  0  # atno 17395 bound_to 11000

$$$$
