AV-unprocessed.smi:1604|AV-procd|sdf|6450|dock3
  -GOLD-   22720 7103D 1   1.00000     0.00000
 Structure written by MMmdl.
 47 49  0  0  0  0  0  0  0  0  2 V2000
  145.5757  134.9267  154.5047 O   0  0  0  0  0  0  0  0  0  0  0  0
  146.4174  135.4612  153.7834 C   0  0  0  0  0  0  0  0  0  0  0  0
  147.3222  136.3629  154.1993 N   0  0  0  0  0  0  0  0  0  0  0  0
  147.4803  136.9076  155.5054 C   0  0  0  0  0  0  0  0  0  0  0  0
  147.1919  136.1553  156.6730 C   0  0  0  0  0  0  0  0  0  0  0  0
  147.3548  136.7425  157.9426 C   0  0  0  0  0  0  0  0  0  0  0  0
  147.7938  138.0756  158.0264 C   0  0  0  0  0  0  0  0  0  0  0  0
  148.0441  138.7696  156.8967 N   0  3  0  0  0  0  0  0  0  0  0  0
  147.9070  138.2562  155.6491 C   0  0  0  0  0  0  0  0  0  0  0  0
  148.1724  139.0842  154.5378 N   0  0  0  0  0  0  0  0  0  0  0  0
  147.1343  140.0777  154.2747 C   0  0  0  0  0  0  0  0  0  0  0  0
  147.8541  141.3439  153.8048 C   0  0  0  0  0  0  0  0  0  0  0  0
  149.2255  141.2248  154.4578 C   0  0  0  0  0  0  0  0  0  0  0  0
  149.4824  139.7201  154.4076 C   0  0  0  0  0  0  0  0  0  0  0  0
  146.5561  135.2069  152.4710 N   0  0  0  0  0  0  0  0  0  0  0  0
  145.7955  134.2531  151.6514 C   0  0  1  0  0  0  0  0  0  0  0  0
  145.6317  132.8745  152.3385 C   0  0  0  0  0  0  0  0  0  0  0  0
  145.4564  131.7027  151.3598 C   0  0  0  0  0  0  0  0  0  0  0  0
  144.1832  131.7681  150.5041 C   0  0  0  0  0  0  0  0  0  0  0  0
  144.1664  132.9447  149.5140 C   0  0  0  0  0  0  0  0  0  0  0  0
  143.8109  134.2093  150.1457 N   0  0  0  0  0  0  0  0  0  0  0  0
  144.4861  134.8607  151.1051 C   0  0  0  0  0  0  0  0  0  0  0  0
  144.0643  135.9297  151.5450 O   0  0  0  0  0  0  0  0  0  0  0  0
  148.0218  136.6353  153.5247 H   0  0  0  0  0  0  0  0  0  0  0  0
  146.8351  135.1381  156.6155 H   0  0  0  0  0  0  0  0  0  0  0  0
  147.1399  136.1785  158.8386 H   0  0  0  0  0  0  0  0  0  0  0  0
  147.9428  138.6074  158.9549 H   0  0  0  0  0  0  0  0  0  0  0  0
  146.4297  139.7226  153.5223 H   0  0  0  0  0  0  0  0  0  0  0  0
  146.5724  140.2858  155.1870 H   0  0  0  0  0  0  0  0  0  0  0  0
  147.9620  141.3279  152.7192 H   0  0  0  0  0  0  0  0  0  0  0  0
  147.3273  142.2584  154.0783 H   0  0  0  0  0  0  0  0  0  0  0  0
  149.9951  141.8051  153.9481 H   0  0  0  0  0  0  0  0  0  0  0  0
  149.1748  141.5609  155.4945 H   0  0  0  0  0  0  0  0  0  0  0  0
  150.2160  139.4100  155.1516 H   0  0  0  0  0  0  0  0  0  0  0  0
  149.8873  139.4458  153.4329 H   0  0  0  0  0  0  0  0  0  0  0  0
  147.2737  135.7196  151.9802 H   0  0  0  0  0  0  0  0  0  0  0  0
  146.4416  134.1060  150.7852 H   0  0  0  0  0  0  0  0  0  0  0  0
  146.5175  132.6639  152.9393 H   0  0  0  0  0  0  0  0  0  0  0  0
  144.7938  132.8943  153.0367 H   0  0  0  0  0  0  0  0  0  0  0  0
  146.3302  131.6338  150.7106 H   0  0  0  0  0  0  0  0  0  0  0  0
  145.4404  130.7749  151.9326 H   0  0  0  0  0  0  0  0  0  0  0  0
  144.1139  130.8412  149.9338 H   0  0  0  0  0  0  0  0  0  0  0  0
  143.2975  131.7930  151.1404 H   0  0  0  0  0  0  0  0  0  0  0  0
  145.1198  133.0354  148.9920 H   0  0  0  0  0  0  0  0  0  0  0  0
  143.4163  132.7525  148.7466 H   0  0  0  0  0  0  0  0  0  0  0  0
  142.9575  134.6400  149.8195 H   0  0  0  0  0  0  0  0  0  0  0  0
  148.3500  139.7386  156.9877 H   0  0  0  0  0  0  0  0  0  0  0  0
  1  2  2  0  0  0  0
  2  3  1  0  0  0  0
  2 15  1  0  0  0  0
  3  4  1  0  0  0  0
  3 24  1  0  0  0  0
  4  9  1  0  0  0  0
  4  5  2  0  0  0  0
  5  6  1  0  0  0  0
  5 25  1  0  0  0  0
  6  7  2  0  0  0  0
  6 26  1  0  0  0  0
  7  8  1  0  0  0  0
  7 27  1  0  0  0  0
  8  9  2  0  0  0  0
  8 47  1  0  0  0  0
  9 10  1  0  0  0  0
 10 14  1  0  0  0  0
 10 11  1  0  0  0  0
 11 12  1  0  0  0  0
 11 28  1  0  0  0  0
 11 29  1  0  0  0  0
 12 13  1  0  0  0  0
 12 30  1  0  0  0  0
 12 31  1  0  0  0  0
 13 14  1  0  0  0  0
 13 32  1  0  0  0  0
 13 33  1  0  0  0  0
 14 34  1  0  0  0  0
 14 35  1  0  0  0  0
 15 16  1  0  0  0  0
 15 36  1  0  0  0  0
 16 22  1  0  0  0  0
 16 17  1  0  0  0  0
 16 37  1  0  0  0  0
 17 18  1  0  0  0  0
 17 38  1  0  0  0  0
 17 39  1  0  0  0  0
 18 19  1  0  0  0  0
 18 40  1  0  0  0  0
 18 41  1  0  0  0  0
 19 20  1  0  0  0  0
 19 42  1  0  0  0  0
 19 43  1  0  0  0  0
 20 21  1  0  0  0  0
 20 44  1  0  0  0  0
 20 45  1  0  0  0  0
 21 22  1  0  0  0  0
 21 46  1  0  0  0  0
 22 23  2  0  0  0  0
M  CHG  1   8   1
M  END
> <s_m_source_file>
AV-unprocessed.smi

> <i_m_source_file_index>
1604

> <i_lp_mmshare_version>
43012

> <i_f3d_flags>
0

> <s_epik_input>
Tz1DMVtOSF1bQ0gyXVtDSDJdW0NIMl1bQ0gyXVtDQEhdMVtOSF1DKD1PKVtOSF1jMltjSF1bY0hdW2NIXW5jMk4zW0NIMl1bQ0gyXVtDSDJdW0NIMl0z

> <s_epik_cmdline>
J2VwaWtfcHl0aG9uJywgJy1waCcsICc3LjAnLCAnLXRuJywgJzgnLCAnLW1hJywgJzIwMCcsICctbWV0YWxfYmluZGluZycsICctaW1hZScsICc8aW5maWxlLm1hZT4nLCAnLW9tYWUnLCAnPG91dGZpbGUubWFlPic=

> <r_lp_tautomer_probability>
0.999994

> <r_epik_Ionization_Penalty>
1.20452

> <r_epik_Ionization_Penalty_Charging>
1.2045

> <r_epik_Ionization_Penalty_Neutral>
1.88134e-05

> <r_epik_State_Penalty>
1.2704

> <r_epik_Charging_Adjusted_Penalty>
2.4749

> <i_epik_Tot_Q>
1

> <i_epik_Tot_abs_Q>
1

> <r_epik_Metal_State_Penalty>
1.34433

> <b_epik_Metal_Only>
0

> <s_lp_Force_Field>
OPLS_2005

> <r_lp_Energy>
47.2667

> <b_lp_Chiralities_Consistent>
1

> <s_lp_Variant>
AV-unprocessed.smi:1604-4

> <Gold.Version>
5.8.1

> <Gold.Id.Protein>
6NUR|6NUR_protein|mol2

> <Gold.PLP.Fitness>
38.3930

> <Gold.PLP.PLP>
-30.8395

> <Gold.PLP.part.hbond>
-3.0000

> <Gold.PLP.part.metal>
0.0000

> <Gold.PLP.part.buried>
-4.7345

> <Gold.PLP.part.nonpolar>
-23.6263

> <Gold.PLP.part.repulsive>
0.4313

> <Gold.PLP.ligand.clash>
0.0000

> <Gold.PLP.ligand.torsion>
0.6909

> <Gold.PLP.Chemscore.Hbond>
2.9120

> <Gold.PLP.Chemscore.CHOScore>
0.0000

> <Gold.PLP.Chemscore.Metal>
0.0000

> <Gold.Chemscore.Hbonds>
donor molecule, donor type, donor heavy atom, donor atom, acceptor molecule, acceptor atom, score
      L1  H     3    24       P1  7948  0.96
      L1  H    15    36       P1  7948  1.00
      L1  H    21    46       P1 10186  0.94

> <Gold.PLP.Chemscore.Internal.Correction>
0.1993

> <Gold.Rescore>
     Score         DG    S(hbond)    S(metal)    S(lipo)     H(rot)  DE(clash)    DE(int)     intcor
     18.33     -20.16       2.81        0.00      72.63       1.26       0.36       1.47       ----

> <Gold.Chemscore.Fitness>
18.3290

> <Gold.Chemscore.DG>
-20.1620

> <Gold.Chemscore.ZeroCoef>
-5.4800

> <Gold.Chemscore.Hbond>
2.8145

> <Gold.Chemscore.Metal>
0.0000

> <Gold.Chemscore.Lipo>
72.6347

> <Gold.Chemscore.Internal_Hbond>
0.0000

> <Gold.Chemscore.DEClash>
0.3611

> <Gold.Chemscore.DEInternal>
1.4719

> <Gold.Chemscore.Rot>
1.2566

> <Gold.Chemscore.Internal.Correction>
   9.000000E+99

> <Gold.Chemscore.Hbonds>
donor molecule, donor type, donor heavy atom, donor atom, acceptor molecule, acceptor atom, score
      L1  H     3    24       P1  7948  0.91
      L1  H    15    36       P1  7948  0.94
      L1  H    21    46       P1 10186  0.76

> <Gold.Chemscore.Hbond.Weighted>
-9.4006

> <Gold.Chemscore.Metal.Weighted>
-0.0000

> <Gold.Chemscore.Lipo.Weighted>
-8.4983

> <Gold.Chemscore.Internal_Hbond.Weighted>
0.0000

> <Gold.Chemscore.DEClash.Weighted>
0.3611

> <Gold.Chemscore.DEInternal.Weighted>
1.4719

> <Gold.Chemscore.Rot.Weighted>
3.2168

> <Gold.Chemscore.Internal.Correction.Weighted>
   9.000000E+99

> <Gold.Protein.RotatedTorsions>
[ 6907 6896 6895 6894 ] final -168.38 input  -60.11 | X-H torsion
[ 7974 7965 7964 7962 ] final   32.06 input  175.53 | X-H torsion
[ 8008 7997 7996 7995 ] final  147.01 input   59.86 | X-H torsion
[ 10167 10162 10161 10158 ] final    5.93 input  -65.29 | X-H torsion
[ 10718 10713 10712 10709 ] final  135.18 input   66.30 | X-H torsion
[ 10763 10752 10751 10750 ] final -100.79 input  -60.55 | X-H torsion
[ 11005 11000 10999 10996 ] final    4.19 input  -57.11 | X-H torsion

> <Gold.Protein.ActiveResidues>
 VAL166  LYS551  ARG553  GLY616  TRP617  ASP618  TYR619  PRO620  LYS621  CYS622 
 ASP623  PHE694  ASN695  SER759  ASP760  ASP761  ALA762  ILE779  LEU786  VAL792 
 PHE793  MET794  SER795  GLU796  ALA797  LYS798  CYS799  TRP800  GLU811  SER814 

> <Gold.Protein.RotatedAtoms>
  151.4746  133.3561  159.2828 H   0  0  0  0  0  0  0  0  0  0  0  0  # atno 6907 bound_to 6896
  150.8938  134.8346  159.7323 H   0  0  0  0  0  0  0  0  0  0  0  0  # atno 6908 bound_to 6896
  152.4839  134.4659  159.9672 H   0  0  0  0  0  0  0  0  0  0  0  0  # atno 6909 bound_to 6896
  146.1511  139.6575  142.9098 H   0  0  0  0  0  0  0  0  0  0  0  0  # atno 7974 bound_to 7965
  156.2838  140.2167  156.5469 H   0  0  0  0  0  0  0  0  0  0  0  0  # atno 8008 bound_to 7997
  154.7323  140.0494  157.0760 H   0  0  0  0  0  0  0  0  0  0  0  0  # atno 8009 bound_to 7997
  155.0338  140.3138  155.4752 H   0  0  0  0  0  0  0  0  0  0  0  0  # atno 8010 bound_to 7997
  140.6455  143.7672  150.7492 H   0  0  0  0  0  0  0  0  0  0  0  0  # atno 10167 bound_to 10162
  157.4597  131.1072  150.9935 H   0  0  0  0  0  0  0  0  0  0  0  0  # atno 10718 bound_to 10713
  154.7607  135.4922  153.9458 H   0  0  0  0  0  0  0  0  0  0  0  0  # atno 10763 bound_to 10752
  153.1247  135.6740  153.9284 H   0  0  0  0  0  0  0  0  0  0  0  0  # atno 10764 bound_to 10752
  153.9005  135.3110  155.3427 H   0  0  0  0  0  0  0  0  0  0  0  0  # atno 10765 bound_to 10752
  140.5846  133.9980  155.8062 H   0  0  0  0  0  0  0  0  0  0  0  0  # atno 11005 bound_to 11000
  145.4822  141.0438  143.2640 LP  0  0  0  0  0  0  0  0  0  0  0  0  # atno 17320 bound_to 7965
  144.7905  139.6339  143.7115 LP  0  0  0  0  0  0  0  0  0  0  0  0  # atno 17321 bound_to 7965
  140.1312  143.4524  152.2253 LP  0  0  0  0  0  0  0  0  0  0  0  0  # atno 17342 bound_to 10162
  139.5666  144.7438  151.4006 LP  0  0  0  0  0  0  0  0  0  0  0  0  # atno 17343 bound_to 10162
  157.0736  130.5874  149.5407 LP  0  0  0  0  0  0  0  0  0  0  0  0  # atno 17370 bound_to 10713
  156.0023  130.5104  150.7707 LP  0  0  0  0  0  0  0  0  0  0  0  0  # atno 17371 bound_to 10713
  141.0974  133.9822  157.3137 LP  0  0  0  0  0  0  0  0  0  0  0  0  # atno 17394 bound_to 11000
  139.9301  135.0200  156.8372 LP  0  0  0  0  0  0  0  0  0  0  0  0  # atno 17395 bound_to 11000

$$$$
