AV-unprocessed.smi:2014|AV-procd|sdf|8162|dock3
  -GOLD-   2272010413D 1   1.00000     0.00000
 Structure written by MMmdl.
 46 48  0  0  0  0  0  0  0  0  1 V2000
  151.3068  141.5365  158.1077 C   0  0  0  0  0  0  0  0  0  0  0  0
  150.9733  141.0146  156.7030 C   0  0  2  0  0  0  0  0  0  0  0  0
  149.5221  140.5026  156.6215 C   0  0  0  0  0  0  0  0  0  0  0  0
  149.1840  139.9604  155.2198 C   0  0  0  0  0  0  0  0  0  0  0  0
  150.1714  138.8685  154.7642 C   0  0  2  0  0  0  0  0  0  0  0  0
  149.9775  137.6596  155.5622 N   0  0  0  0  0  0  0  0  0  0  0  0
  150.7235  136.5469  155.4971 C   0  0  0  0  0  0  0  0  0  0  0  0
  151.6495  136.3955  154.7001 O   0  0  0  0  0  0  0  0  0  0  0  0
  150.3571  135.4315  156.4846 C   0  0  0  0  0  0  0  0  0  0  0  0
  150.1843  134.1270  155.8109 N   0  0  0  0  0  0  0  0  0  0  0  0
  151.0350  133.0588  156.1958 C   0  0  0  0  0  0  0  0  0  0  0  0
  151.8763  133.2057  157.0847 O   0  0  0  0  0  0  0  0  0  0  0  0
  150.8479  131.8094  155.4622 C   0  0  0  0  0  0  0  0  0  0  0  0
  151.7071  130.7230  155.7989 C   0  0  0  0  0  0  0  0  0  0  0  0
  152.4159  129.8438  156.0524 N   0  0  0  0  0  0  0  0  0  0  0  0
  149.9036  131.7007  154.5049 C   0  0  0  0  0  0  0  0  0  0  0  0
  149.0608  132.7392  154.1734 N   0  0  0  0  0  0  0  0  0  0  0  0
  148.1737  132.6522  153.0476 C   0  0  0  0  0  0  0  0  0  0  0  0
  146.7147  133.0403  153.1897 C   0  0  0  0  0  0  0  0  0  0  0  0
  147.0978  131.5881  153.0420 C   0  0  0  0  0  0  0  0  0  0  0  0
  149.2159  134.0026  154.7853 C   0  0  0  0  0  0  0  0  0  0  0  0
  148.5377  134.9701  154.4314 O   0  0  0  0  0  0  0  0  0  0  0  0
  151.6234  139.3869  154.8578 C   0  0  0  0  0  0  0  0  0  0  0  0
  151.9600  139.9164  156.2627 C   0  0  0  0  0  0  0  0  0  0  0  0
  151.2340  140.7438  158.8530 H   0  0  0  0  0  0  0  0  0  0  0  0
  150.6253  142.3350  158.4024 H   0  0  0  0  0  0  0  0  0  0  0  0
  152.3196  141.9384  158.1471 H   0  0  0  0  0  0  0  0  0  0  0  0
  151.0726  141.8514  156.0097 H   0  0  0  0  0  0  0  0  0  0  0  0
  149.3659  139.7199  157.3651 H   0  0  0  0  0  0  0  0  0  0  0  0
  148.8305  141.3063  156.8758 H   0  0  0  0  0  0  0  0  0  0  0  0
  148.1629  139.5770  155.2047 H   0  0  0  0  0  0  0  0  0  0  0  0
  149.2073  140.7839  154.5051 H   0  0  0  0  0  0  0  0  0  0  0  0
  149.9512  138.6216  153.7242 H   0  0  0  0  0  0  0  0  0  0  0  0
  149.2350  137.6867  156.2458 H   0  0  0  0  0  0  0  0  0  0  0  0
  151.1171  135.3584  157.2648 H   0  0  0  0  0  0  0  0  0  0  0  0
  149.4570  135.7351  157.0207 H   0  0  0  0  0  0  0  0  0  0  0  0
  149.7983  130.7625  153.9792 H   0  0  0  0  0  0  0  0  0  0  0  0
  148.6277  132.8708  152.0826 H   0  0  0  0  0  0  0  0  0  0  0  0
  146.3595  133.3634  154.1665 H   0  0  0  0  0  0  0  0  0  0  0  0
  146.2406  133.5246  152.3385 H   0  0  0  0  0  0  0  0  0  0  0  0
  146.8780  131.1037  152.0929 H   0  0  0  0  0  0  0  0  0  0  0  0
  146.9966  130.9555  153.9217 H   0  0  0  0  0  0  0  0  0  0  0  0
  152.3323  138.6083  154.5751 H   0  0  0  0  0  0  0  0  0  0  0  0
  151.7606  140.1909  154.1337 H   0  0  0  0  0  0  0  0  0  0  0  0
  152.9780  140.3068  156.2687 H   0  0  0  0  0  0  0  0  0  0  0  0
  151.9447  139.0937  156.9791 H   0  0  0  0  0  0  0  0  0  0  0  0
  1  2  1  0  0  0  0
  1 25  1  0  0  0  0
  1 26  1  0  0  0  0
  1 27  1  0  0  0  0
  2 24  1  0  0  0  0
  2  3  1  0  0  0  0
  2 28  1  0  0  0  0
  3  4  1  0  0  0  0
  3 29  1  0  0  0  0
  3 30  1  0  0  0  0
  4  5  1  0  0  0  0
  4 31  1  0  0  0  0
  4 32  1  0  0  0  0
  5  6  1  0  0  0  0
  5 23  1  0  0  0  0
  5 33  1  0  0  0  0
  6  7  1  0  0  0  0
  6 34  1  0  0  0  0
  7  8  2  0  0  0  0
  7  9  1  0  0  0  0
  9 10  1  0  0  0  0
  9 35  1  0  0  0  0
  9 36  1  0  0  0  0
 10 21  1  0  0  0  0
 10 11  1  0  0  0  0
 11 12  2  0  0  0  0
 11 13  1  0  0  0  0
 13 14  1  0  0  0  0
 13 16  2  0  0  0  0
 14 15  3  0  0  0  0
 16 17  1  0  0  0  0
 16 37  1  0  0  0  0
 17 18  1  0  0  0  0
 17 21  1  0  0  0  0
 18 20  1  0  0  0  0
 18 19  1  0  0  0  0
 18 38  1  0  0  0  0
 19 20  1  0  0  0  0
 19 39  1  0  0  0  0
 19 40  1  0  0  0  0
 20 41  1  0  0  0  0
 20 42  1  0  0  0  0
 21 22  2  0  0  0  0
 23 24  1  0  0  0  0
 23 43  1  0  0  0  0
 23 44  1  0  0  0  0
 24 45  1  0  0  0  0
 24 46  1  0  0  0  0
M  END
> <s_m_source_file>
AV-unprocessed.smi

> <i_m_source_file_index>
2014

> <i_lp_mmshare_version>
43012

> <i_f3d_flags>
0

> <s_epik_input>
W0NIM11bQ0BASF0xW0NIMl1bQ0gyXVtDQEhdKFtDSDJdW0NIMl0xKVtOSF1DKD1PKVtDSDJdbjJjKD1PKWMoQyNOKVtjSF1uKGMyPU8pW0NIXTNbQ0gyXVtDSDJdMw==

> <s_epik_cmdline>
J2VwaWtfcHl0aG9uJywgJy1waCcsICc3LjAnLCAnLXRuJywgJzgnLCAnLW1hJywgJzIwMCcsICctbWV0YWxfYmluZGluZycsICctaW1hZScsICc8aW5maWxlLm1hZT4nLCAnLW9tYWUnLCAnPG91dGZpbGUubWFlPic=

> <r_lp_tautomer_probability>
1

> <r_epik_Ionization_Penalty>
1.91358e-08

> <r_epik_Ionization_Penalty_Charging>
8.89021e-11

> <r_epik_Ionization_Penalty_Neutral>
1.90469e-08

> <r_epik_State_Penalty>
-0

> <r_epik_Charging_Adjusted_Penalty>
8.89021e-11

> <i_epik_Tot_Q>
0

> <i_epik_Tot_abs_Q>
0

> <r_epik_Metal_State_Penalty>
-0

> <b_epik_Metal_Only>
0

> <s_lp_Force_Field>
OPLS_2005

> <r_lp_Energy>
34.0364

> <b_lp_Chiralities_Consistent>
1

> <s_lp_Variant>
AV-unprocessed.smi:2014-2

> <Gold.Version>
5.8.1

> <Gold.Id.Protein>
6NUR|6NUR_protein|mol2

> <Gold.PLP.Fitness>
40.7568

> <Gold.PLP.PLP>
-37.9971

> <Gold.PLP.part.hbond>
-1.9612

> <Gold.PLP.part.metal>
0.0000

> <Gold.PLP.part.buried>
-5.0295

> <Gold.PLP.part.nonpolar>
-34.0978

> <Gold.PLP.part.repulsive>
2.1220

> <Gold.PLP.ligand.clash>
0.0000

> <Gold.PLP.ligand.torsion>
0.2277

> <Gold.PLP.Chemscore.Hbond>
1.0000

> <Gold.PLP.Chemscore.CHOScore>
0.0000

> <Gold.PLP.Chemscore.Metal>
0.0000

> <Gold.Chemscore.Hbonds>
donor molecule, donor type, donor heavy atom, donor atom, acceptor molecule, acceptor atom, score
      P1  H 10752 10764       L1     8  1.00

> <Gold.PLP.Chemscore.Internal.Correction>
0.2150

> <Gold.Rescore>
     Score         DG    S(hbond)    S(metal)    S(lipo)     H(rot)  DE(clash)    DE(int)     intcor
     10.35     -13.09       1.17        0.00      69.00       1.70       0.17       2.56       ----

> <Gold.Chemscore.Fitness>
10.3550

> <Gold.Chemscore.DG>
-13.0894

> <Gold.Chemscore.ZeroCoef>
-5.4800

> <Gold.Chemscore.Hbond>
1.1672

> <Gold.Chemscore.Metal>
0.0000

> <Gold.Chemscore.Lipo>
68.9989

> <Gold.Chemscore.Internal_Hbond>
0.0000

> <Gold.Chemscore.DEClash>
0.1739

> <Gold.Chemscore.DEInternal>
2.5606

> <Gold.Chemscore.Rot>
1.7038

> <Gold.Chemscore.Internal.Correction>
   9.000000E+99

> <Gold.Chemscore.Hbonds>
donor molecule, donor type, donor heavy atom, donor atom, acceptor molecule, acceptor atom, score
      P1  H 10752 10764       L1     8  0.93

> <Gold.Chemscore.Hbond.Weighted>
-3.8983

> <Gold.Chemscore.Metal.Weighted>
-0.0000

> <Gold.Chemscore.Lipo.Weighted>
-8.0729

> <Gold.Chemscore.Internal_Hbond.Weighted>
0.0000

> <Gold.Chemscore.DEClash.Weighted>
0.1739

> <Gold.Chemscore.DEInternal.Weighted>
2.5606

> <Gold.Chemscore.Rot.Weighted>
4.3618

> <Gold.Chemscore.Internal.Correction.Weighted>
   9.000000E+99

> <Gold.Protein.RotatedTorsions>
[ 6907 6896 6895 6894 ] final -112.45 input  -60.11 | X-H torsion
[ 7974 7965 7964 7962 ] final  -11.03 input  175.53 | X-H torsion
[ 8008 7997 7996 7995 ] final  172.57 input   59.86 | X-H torsion
[ 10167 10162 10161 10158 ] final  -81.81 input  -65.29 | X-H torsion
[ 10718 10713 10712 10709 ] final   71.27 input   66.30 | X-H torsion
[ 10763 10752 10751 10750 ] final  -54.70 input  -60.55 | X-H torsion
[ 11005 11000 10999 10996 ] final   32.65 input  -57.11 | X-H torsion

> <Gold.Protein.ActiveResidues>
 VAL166  LYS551  ARG553  GLY616  TRP617  ASP618  TYR619  PRO620  LYS621  CYS622 
 ASP623  PHE694  ASN695  SER759  ASP760  ASP761  ALA762  ILE779  LEU786  VAL792 
 PHE793  MET794  SER795  GLU796  ALA797  LYS798  CYS799  TRP800  GLU811  SER814 

> <Gold.Protein.RotatedAtoms>
  150.7759  133.9087  159.3362 H   0  0  0  0  0  0  0  0  0  0  0  0  # atno 6907 bound_to 6896
  151.6962  135.0936  160.0252 H   0  0  0  0  0  0  0  0  0  0  0  0  # atno 6908 bound_to 6896
  152.3795  133.6488  159.6185 H   0  0  0  0  0  0  0  0  0  0  0  0  # atno 6909 bound_to 6896
  146.2201  140.2852  142.8365 H   0  0  0  0  0  0  0  0  0  0  0  0  # atno 7974 bound_to 7965
  156.1161  140.1482  156.9270 H   0  0  0  0  0  0  0  0  0  0  0  0  # atno 8008 bound_to 7997
  154.4802  140.0882  156.7401 H   0  0  0  0  0  0  0  0  0  0  0  0  # atno 8009 bound_to 7997
  155.4510  140.3435  155.4303 H   0  0  0  0  0  0  0  0  0  0  0  0  # atno 8010 bound_to 7997
  140.4378  143.2525  151.8669 H   0  0  0  0  0  0  0  0  0  0  0  0  # atno 10167 bound_to 10162
  157.6443  130.9519  150.0765 H   0  0  0  0  0  0  0  0  0  0  0  0  # atno 10718 bound_to 10713
  154.1790  135.6446  153.5029 H   0  0  0  0  0  0  0  0  0  0  0  0  # atno 10763 bound_to 10752
  153.0064  135.5401  154.6534 H   0  0  0  0  0  0  0  0  0  0  0  0  # atno 10764 bound_to 10752
  154.5893  135.2932  155.0624 H   0  0  0  0  0  0  0  0  0  0  0  0  # atno 10765 bound_to 10752
  140.2713  134.3079  155.7827 H   0  0  0  0  0  0  0  0  0  0  0  0  # atno 11005 bound_to 11000
  144.9168  140.7821  143.5773 LP  0  0  0  0  0  0  0  0  0  0  0  0  # atno 17320 bound_to 7965
  145.2786  139.1927  143.4803 LP  0  0  0  0  0  0  0  0  0  0  0  0  # atno 17321 bound_to 7965
  139.4788  144.5263  151.8730 LP  0  0  0  0  0  0  0  0  0  0  0  0  # atno 17342 bound_to 10162
  140.4354  144.2059  150.5889 LP  0  0  0  0  0  0  0  0  0  0  0  0  # atno 17343 bound_to 10162
  156.1754  130.3648  149.9108 LP  0  0  0  0  0  0  0  0  0  0  0  0  # atno 17370 bound_to 10713
  156.7073  130.8956  151.3606 LP  0  0  0  0  0  0  0  0  0  0  0  0  # atno 17371 bound_to 10713
  141.2177  133.7468  156.9339 LP  0  0  0  0  0  0  0  0  0  0  0  0  # atno 17394 bound_to 11000
  140.1371  134.9318  157.2416 LP  0  0  0  0  0  0  0  0  0  0  0  0  # atno 17395 bound_to 11000

$$$$
