AV-unprocessed.smi:1438|AV-procd|sdf|5867|dock7
  -GOLD-   22720 5543D 1   1.00000     0.00000
 Structure written by MMmdl.
 43 44  0  0  0  0  0  0  0  0  1 V2000
  149.7578  133.8917  154.3480 C   0  0  0  0  0  0  0  0  0  0  0  0
  149.4908  134.9350  155.4453 C   0  0  2  0  0  0  0  0  0  0  0  0
  150.5903  136.0046  155.4974 C   0  0  0  0  0  0  0  0  0  0  0  0
  151.2846  136.1421  156.5049 O   0  0  0  0  0  0  0  0  0  0  0  0
  150.7351  136.7634  154.4016 N   0  0  0  0  0  0  0  0  0  0  0  0
  151.6733  137.8699  154.2809 C   0  0  0  0  0  0  0  0  0  0  0  0
  151.0974  139.1591  154.8335 C   0  0  0  0  0  0  0  0  0  0  0  0
  149.8935  139.6881  154.3241 C   0  0  0  0  0  0  0  0  0  0  0  0
  149.4001  140.8858  154.8768 C   0  0  0  0  0  0  0  0  0  0  0  0
  150.0209  141.5529  155.8727 N   0  0  0  0  0  0  0  0  0  0  0  0
  151.1773  141.0445  156.3621 C   0  0  0  0  0  0  0  0  0  0  0  0
  151.8184  141.7273  157.4053 N   0  0  0  0  0  0  0  0  0  0  0  0
  151.2541  143.0415  157.6878 C   0  0  0  0  0  0  0  0  0  0  0  0
  152.1007  143.7573  158.7544 C   0  0  0  0  0  0  0  0  0  0  0  0
  152.1843  142.9439  159.9214 O   0  0  0  0  0  0  0  0  0  0  0  0
  152.8002  141.6868  159.6548 C   0  0  0  0  0  0  0  0  0  0  0  0
  151.9755  140.9187  158.6075 C   0  0  0  0  0  0  0  0  0  0  0  0
  151.7513  139.8525  155.8727 C   0  0  0  0  0  0  0  0  0  0  0  0
  149.3460  134.0965  157.0932 S   0  0  0  0  0  0  0  0  0  0  0  0
  149.0239  135.4955  158.2490 C   0  0  0  0  0  0  0  0  0  0  0  0
  148.1502  133.2402  157.0650 O   0  0  0  0  0  0  0  0  0  0  0  0
  150.6466  133.5055  157.4448 O   0  0  0  0  0  0  0  0  0  0  0  0
  149.8718  134.3634  153.3713 H   0  0  0  0  0  0  0  0  0  0  0  0
  148.9310  133.1850  154.2756 H   0  0  0  0  0  0  0  0  0  0  0  0
  150.6624  133.3175  154.5517 H   0  0  0  0  0  0  0  0  0  0  0  0
  148.5320  135.4141  155.2434 H   0  0  0  0  0  0  0  0  0  0  0  0
  150.1349  136.5861  153.6093 H   0  0  0  0  0  0  0  0  0  0  0  0
  152.6005  137.6258  154.8025 H   0  0  0  0  0  0  0  0  0  0  0  0
  151.9254  138.0179  153.2298 H   0  0  0  0  0  0  0  0  0  0  0  0
  149.3606  139.1917  153.5263 H   0  0  0  0  0  0  0  0  0  0  0  0
  148.4813  141.3192  154.5102 H   0  0  0  0  0  0  0  0  0  0  0  0
  151.2230  143.6340  156.7727 H   0  0  0  0  0  0  0  0  0  0  0  0
  150.2275  142.9367  158.0416 H   0  0  0  0  0  0  0  0  0  0  0  0
  153.1014  143.9740  158.3771 H   0  0  0  0  0  0  0  0  0  0  0  0
  151.6456  144.7121  159.0178 H   0  0  0  0  0  0  0  0  0  0  0  0
  153.8240  141.8381  159.3085 H   0  0  0  0  0  0  0  0  0  0  0  0
  152.8583  141.1151  160.5811 H   0  0  0  0  0  0  0  0  0  0  0  0
  150.9941  140.6730  159.0163 H   0  0  0  0  0  0  0  0  0  0  0  0
  152.4669  139.9773  158.3593 H   0  0  0  0  0  0  0  0  0  0  0  0
  152.6743  139.4774  156.2910 H   0  0  0  0  0  0  0  0  0  0  0  0
  148.8337  135.0998  159.2464 H   0  0  0  0  0  0  0  0  0  0  0  0
  148.1530  136.0573  157.9124 H   0  0  0  0  0  0  0  0  0  0  0  0
  149.8918  136.1531  158.2891 H   0  0  0  0  0  0  0  0  0  0  0  0
  1  2  1  0  0  0  0
  1 23  1  0  0  0  0
  1 24  1  0  0  0  0
  1 25  1  0  0  0  0
  2  3  1  0  0  0  0
  2 19  1  0  0  0  0
  2 26  1  0  0  0  0
  3  4  2  0  0  0  0
  3  5  1  0  0  0  0
  5  6  1  0  0  0  0
  5 27  1  0  0  0  0
  6  7  1  0  0  0  0
  6 28  1  0  0  0  0
  6 29  1  0  0  0  0
  7 18  1  0  0  0  0
  7  8  2  0  0  0  0
  8  9  1  0  0  0  0
  8 30  1  0  0  0  0
  9 10  2  0  0  0  0
  9 31  1  0  0  0  0
 10 11  1  0  0  0  0
 11 12  1  0  0  0  0
 11 18  2  0  0  0  0
 12 17  1  0  0  0  0
 12 13  1  0  0  0  0
 13 14  1  0  0  0  0
 13 32  1  0  0  0  0
 13 33  1  0  0  0  0
 14 15  1  0  0  0  0
 14 34  1  0  0  0  0
 14 35  1  0  0  0  0
 15 16  1  0  0  0  0
 16 17  1  0  0  0  0
 16 36  1  0  0  0  0
 16 37  1  0  0  0  0
 17 38  1  0  0  0  0
 17 39  1  0  0  0  0
 18 40  1  0  0  0  0
 19 20  1  0  0  0  0
 19 21  2  0  0  0  0
 19 22  2  0  0  0  0
 20 41  1  0  0  0  0
 20 42  1  0  0  0  0
 20 43  1  0  0  0  0
M  END
> <s_m_source_file>
AV-unprocessed.smi

> <i_m_source_file_index>
1438

> <i_lp_mmshare_version>
43012

> <i_f3d_flags>
0

> <s_epik_input>
W0NIM11TKD1PKSg9TylbQ0BIXShbQ0gzXSlDKD1PKVtOSF1bQ0gyXWMxW2NIXVtjSF1uYyhbY0hdMSlOMltDSDJdW0NIMl1PW0NIMl1bQ0gyXTI=

> <s_epik_cmdline>
J2VwaWtfcHl0aG9uJywgJy1waCcsICc3LjAnLCAnLXRuJywgJzgnLCAnLW1hJywgJzIwMCcsICctbWV0YWxfYmluZGluZycsICctaW1hZScsICc8aW5maWxlLm1hZT4nLCAnLW9tYWUnLCAnPG91dGZpbGUubWFlPic=

> <r_lp_tautomer_probability>
1

> <r_epik_Ionization_Penalty>
0.00387635

> <r_epik_Ionization_Penalty_Charging>
0

> <r_epik_Ionization_Penalty_Neutral>
0.00387635

> <r_epik_State_Penalty>
0.0027681

> <r_epik_Charging_Adjusted_Penalty>
0.0027681

> <i_epik_Tot_Q>
0

> <i_epik_Tot_abs_Q>
0

> <r_epik_Metal_State_Penalty>
-0

> <b_epik_Metal_Only>
0

> <s_lp_Force_Field>
OPLS_2005

> <r_lp_Energy>
15.2281

> <b_lp_Chiralities_Consistent>
1

> <s_lp_Variant>
AV-unprocessed.smi:1438-1

> <Gold.Version>
5.8.1

> <Gold.Id.Protein>
6NUR|6NUR_protein|mol2

> <Gold.PLP.Fitness>
44.1158

> <Gold.PLP.PLP>
-38.7049

> <Gold.PLP.part.hbond>
-2.7594

> <Gold.PLP.part.metal>
0.0000

> <Gold.PLP.part.buried>
-3.2944

> <Gold.PLP.part.nonpolar>
-33.4576

> <Gold.PLP.part.repulsive>
0.1837

> <Gold.PLP.ligand.clash>
0.0000

> <Gold.PLP.ligand.torsion>
0.3675

> <Gold.PLP.Chemscore.Hbond>
1.9600

> <Gold.PLP.Chemscore.CHOScore>
0.0000

> <Gold.PLP.Chemscore.Metal>
0.0000

> <Gold.Chemscore.Hbonds>
donor molecule, donor type, donor heavy atom, donor atom, acceptor molecule, acceptor atom, score
      L1  H     5    27       P1  7948  0.63
      P1  H  6896  6907       L1    22  0.86

> <Gold.PLP.Chemscore.Internal.Correction>
0.2658

> <Gold.Rescore>
     Score         DG    S(hbond)    S(metal)    S(lipo)     H(rot)  DE(clash)    DE(int)     intcor
     13.33     -15.66       1.76        0.00      82.27       2.08       0.00       2.33       ----

> <Gold.Chemscore.Fitness>
13.3321

> <Gold.Chemscore.DG>
-15.6626

> <Gold.Chemscore.ZeroCoef>
-5.4800

> <Gold.Chemscore.Hbond>
1.7584

> <Gold.Chemscore.Metal>
0.0000

> <Gold.Chemscore.Lipo>
82.2651

> <Gold.Chemscore.Internal_Hbond>
0.0000

> <Gold.Chemscore.DEClash>
0.0048

> <Gold.Chemscore.DEInternal>
2.3257

> <Gold.Chemscore.Rot>
2.0764

> <Gold.Chemscore.Internal.Correction>
   9.000000E+99

> <Gold.Chemscore.Hbonds>
donor molecule, donor type, donor heavy atom, donor atom, acceptor molecule, acceptor atom, score
      L1  H     5    27       P1  7948  0.08
      P1  H  6896  6907       L1    22  0.67

> <Gold.Chemscore.Hbond.Weighted>
-5.8731

> <Gold.Chemscore.Metal.Weighted>
-0.0000

> <Gold.Chemscore.Lipo.Weighted>
-9.6250

> <Gold.Chemscore.Internal_Hbond.Weighted>
0.0000

> <Gold.Chemscore.DEClash.Weighted>
0.0048

> <Gold.Chemscore.DEInternal.Weighted>
2.3257

> <Gold.Chemscore.Rot.Weighted>
5.3155

> <Gold.Chemscore.Internal.Correction.Weighted>
   9.000000E+99

> <Gold.Protein.RotatedTorsions>
[ 6907 6896 6895 6894 ] final -132.69 input  -60.11 | X-H torsion
[ 7974 7965 7964 7962 ] final -176.00 input  175.53 | X-H torsion
[ 8008 7997 7996 7995 ] final   34.79 input   59.86 | X-H torsion
[ 10167 10162 10161 10158 ] final  127.32 input  -65.29 | X-H torsion
[ 10718 10713 10712 10709 ] final  -96.28 input   66.30 | X-H torsion
[ 10763 10752 10751 10750 ] final   85.31 input  -60.55 | X-H torsion
[ 11005 11000 10999 10996 ] final -169.51 input  -57.11 | X-H torsion

> <Gold.Protein.ActiveResidues>
 VAL166  LYS551  ARG553  GLY616  TRP617  ASP618  TYR619  PRO620  LYS621  CYS622 
 ASP623  PHE694  ASN695  SER759  ASP760  ASP761  ALA762  ILE779  LEU786  VAL792 
 PHE793  MET794  SER795  GLU796  ALA797  LYS798  CYS799  TRP800  GLU811  SER814 

> <Gold.Protein.RotatedAtoms>
  150.9653  133.6401  159.2747 H   0  0  0  0  0  0  0  0  0  0  0  0  # atno 6907 bound_to 6896
  151.3709  135.0921  159.9475 H   0  0  0  0  0  0  0  0  0  0  0  0  # atno 6908 bound_to 6896
  152.5163  133.9207  159.7588 H   0  0  0  0  0  0  0  0  0  0  0  0  # atno 6909 bound_to 6896
  144.7127  140.1236  143.6403 H   0  0  0  0  0  0  0  0  0  0  0  0  # atno 7974 bound_to 7965
  155.1606  140.3283  155.4412 H   0  0  0  0  0  0  0  0  0  0  0  0  # atno 8008 bound_to 7997
  156.2544  140.1961  156.6664 H   0  0  0  0  0  0  0  0  0  0  0  0  # atno 8009 bound_to 7997
  154.6408  140.0570  156.9829 H   0  0  0  0  0  0  0  0  0  0  0  0  # atno 8010 bound_to 7997
  139.5584  144.6865  151.4113 H   0  0  0  0  0  0  0  0  0  0  0  0  # atno 10167 bound_to 10162
  156.0059  130.5144  150.6202 H   0  0  0  0  0  0  0  0  0  0  0  0  # atno 10718 bound_to 10713
  153.1463  135.4622  154.9570 H   0  0  0  0  0  0  0  0  0  0  0  0  # atno 10763 bound_to 10752
  154.7788  135.3182  154.8036 H   0  0  0  0  0  0  0  0  0  0  0  0  # atno 10764 bound_to 10752
  153.8550  135.6918  153.4842 H   0  0  0  0  0  0  0  0  0  0  0  0  # atno 10765 bound_to 10752
  140.5299  134.5626  157.5072 H   0  0  0  0  0  0  0  0  0  0  0  0  # atno 11005 bound_to 11000
  145.9349  139.2631  143.1303 LP  0  0  0  0  0  0  0  0  0  0  0  0  # atno 17320 bound_to 7965
  145.9484  140.8927  143.0272 LP  0  0  0  0  0  0  0  0  0  0  0  0  # atno 17321 bound_to 7965
  140.6861  143.7971  150.7188 LP  0  0  0  0  0  0  0  0  0  0  0  0  # atno 17342 bound_to 10162
  140.1439  143.4417  152.2176 LP  0  0  0  0  0  0  0  0  0  0  0  0  # atno 17343 bound_to 10162
  157.4019  131.0811  151.1301 LP  0  0  0  0  0  0  0  0  0  0  0  0  # atno 17370 bound_to 10713
  157.1959  130.6373  149.5721 LP  0  0  0  0  0  0  0  0  0  0  0  0  # atno 17371 bound_to 10713
  139.9560  134.7535  156.0342 LP  0  0  0  0  0  0  0  0  0  0  0  0  # atno 17394 bound_to 11000
  141.1287  133.6592  156.3405 LP  0  0  0  0  0  0  0  0  0  0  0  0  # atno 17395 bound_to 11000

$$$$
