#       Name:                AV-unprocessed.smi:3146
#       Creating user name   scv26
#       Creation time:       Fri Mar 27 17:39:08 2020


#       File generated by GOLD software.
#

@<TRIPOS>MOLECULE
AV-unprocessed.smi:3146
    38    39     1
SMALL
NO_CHARGES


@<TRIPOS>ATOM
      1 ****        -2.0295  -0.6559   0.2321 O.2            1 S1                 0.0000
      2 ****        -1.5035   0.3544  -0.2378 C.2            1 S1                 0.0000
      3 ****        -0.0834   0.2731  -0.8160 C.3            1 S1                 0.0000
      4 ****         0.5287  -1.0568  -0.6192 N.4            1 S1                 1.0000
      5 ****         1.8966  -1.1805  -1.1618 C.3            1 S1                 0.0000
      6 ****         2.4963  -2.5678  -0.8811 C.3            1 S1                 0.0000
      7 ****         2.7509  -2.7820   0.5321 N.pl3          1 S1                 0.0000
      8 ****         3.9278  -2.6012   1.2280 C.2            1 S1                 0.0000
      9 ****         3.6816  -2.9231   2.5320 C.2            1 S1                 0.0000
     10 ****         2.3083  -3.2961   2.5358 C.2            1 S1                 0.0000
     11 ****         1.7535  -3.2085   1.3374 N.2            1 S1                 0.0000
     12 ****        -2.1362   1.5454  -0.2673 N.am           1 S1                 0.0000
     13 ****        -1.5903   2.7891  -0.8101 C.3            1 S1                 0.0000
     14 ****        -2.7542   3.7808  -0.8222 C.3            1 S1                 0.0000
     15 ****        -3.6901   3.2729   0.2660 C.3            1 S1                 0.0000
     16 ****        -3.4830   1.7583   0.2595 C.3            1 S1                 0.0000
     17 ****        -0.1180   0.4940  -1.8836 H              1 S1                 0.0000
     18 ****         0.5457   1.0259  -0.3391 H              1 S1                 0.0000
     19 ****         0.5587  -1.2508   0.3720 H              1 S1                 0.0000
     20 ****         1.8618  -1.0095  -2.2383 H              1 S1                 0.0000
     21 ****         2.5336  -0.4041  -0.7359 H              1 S1                 0.0000
     22 ****         1.8399  -3.3571  -1.2510 H              1 S1                 0.0000
     23 ****         3.4416  -2.6745  -1.4145 H              1 S1                 0.0000
     24 ****         4.8322  -2.2622   0.7441 H              1 S1                 0.0000
     25 ****         4.3771  -2.8978   3.3579 H              1 S1                 0.0000
     26 ****         1.7026  -3.6243   3.3678 H              1 S1                 0.0000
     27 ****        -0.7942   3.1455  -0.1548 H              1 S1                 0.0000
     28 ****        -1.1776   2.6605  -1.8116 H              1 S1                 0.0000
     29 ****        -2.4346   4.8106  -0.6595 H              1 S1                 0.0000
     30 ****        -3.2615   3.7376  -1.7870 H              1 S1                 0.0000
     31 ****        -3.3831   3.6798   1.2305 H              1 S1                 0.0000
     32 ****        -4.7289   3.5590   0.0984 H              1 S1                 0.0000
     33 ****        -4.2033   1.2762  -0.4030 H              1 S1                 0.0000
     34 ****        -3.6061   1.3373   1.2586 H              1 S1                 0.0000
     35 ****        -0.0602  -1.7493  -1.0597 H              1 S1                 0.0000
     36 ****        -1.5317  -1.5232   0.2357 LP             1 S1                 0.0000
     37 ****        -2.9541  -0.6085   0.6100 LP             1 S1                 0.0000
     38 ****         0.8077  -3.4123   1.0846 LP             1 S1                 0.0000
@<TRIPOS>BOND
    1    1    2 2     
    2    2    3 1     
    3    2   12 am    
    4    3    4 1     
    5    3   17 1     
    6    3   18 1     
    7    4    5 1     
    8    4   19 1     
    9    4   35 1     
   10    5    6 1     
   11    5   20 1     
   12    5   21 1     
   13    6    7 1     
   14    6   22 1     
   15    6   23 1     
   16    7   11 1     
   17    7    8 1     
   18    8    9 2     
   19    8   24 1     
   20    9   10 1     
   21    9   25 1     
   22   10   11 2     
   23   10   26 1     
   24   12   16 1     
   25   12   13 1     
   26   13   14 1     
   27   13   27 1     
   28   13   28 1     
   29   14   15 1     
   30   14   29 1     
   31   14   30 1     
   32   15   16 1     
   33   15   31 1     
   34   15   32 1     
   35   16   33 1     
   36   16   34 1     
   37    1   36 1     
   38    1   37 1     
   39   11   38 1     
@<TRIPOS>SUBSTRUCTURE
      1 S1             1
@<TRIPOS>SET
LONE_PAIRS      STATIC     ATOMS    <user>   **** ""
3 36 37 38
DONOR_HYDROGENS      STATIC     ATOMS    <user>   **** ""
2 19 35
ATOM$BLUE        STATIC     ATOMS    COLORGROUP SYSTEM
3 36 37 38
ATOM$RED        STATIC     ATOMS    COLORGROUP SYSTEM
2 19 35
