AV-unprocessed.smi:2276|AV-procd|sdf|9177|dock3
  -GOLD-   2272012393D 1   1.00000     0.00000
 Structure written by MMmdl.
 52 53  0  0  0  0  0  0  0  0  1 V2000
  151.8741  145.7365  160.5271 C   0  0  0  0  0  0  0  0  0  0  0  0
  151.9609  144.3969  159.8261 C   0  0  0  0  0  0  0  0  0  0  0  0
  152.8193  143.3868  160.3005 C   0  0  0  0  0  0  0  0  0  0  0  0
  152.8529  142.1623  159.6046 C   0  0  0  0  0  0  0  0  0  0  0  0
  153.7564  141.0339  160.0553 C   0  0  0  0  0  0  0  0  0  0  0  0
  152.1000  141.9152  158.5115 N   0  0  0  0  0  0  0  0  0  0  0  0
  151.2687  142.8803  158.0463 C   0  0  0  0  0  0  0  0  0  0  0  0
  150.4410  142.7224  156.9031 N   0  0  0  0  0  0  0  0  0  0  0  0
  150.3225  141.6461  156.1057 C   0  0  0  0  0  0  0  0  0  0  0  0
  150.9162  140.5777  156.2560 O   0  0  0  0  0  0  0  0  0  0  0  0
  149.4519  141.8724  155.1128 N   0  0  0  0  0  0  0  0  0  0  0  0
  149.0722  140.8897  154.1042 C   0  0  0  0  0  0  0  0  0  0  0  0
  147.5949  141.0384  153.6809 C   0  0  1  0  0  0  0  0  0  0  0  0
  147.1059  139.8038  152.8988 C   0  0  0  0  0  0  0  0  0  0  0  0
  146.6296  141.3096  154.8598 C   0  0  0  0  0  0  0  0  0  0  0  0
  145.5440  142.2573  154.5913 N   0  0  0  0  0  0  0  0  0  0  0  0
  146.0139  143.4590  153.8902 C   0  0  0  0  0  0  0  0  0  0  0  0
  144.8553  144.4287  153.5931 C   0  0  0  0  0  0  0  0  0  0  0  0
  144.1900  144.8528  154.8230 N   0  0  0  0  0  0  0  0  0  0  0  0
  143.0927  145.7681  154.5495 C   0  0  0  0  0  0  0  0  0  0  0  0
  143.7347  143.6689  155.5484 C   0  0  0  0  0  0  0  0  0  0  0  0
  144.8989  142.6996  155.8302 C   0  0  0  0  0  0  0  0  0  0  0  0
  151.1783  144.1388  158.6826 C   0  0  0  0  0  0  0  0  0  0  0  0
  152.5872  145.8003  161.3496 H   0  0  0  0  0  0  0  0  0  0  0  0
  150.8726  145.8862  160.9312 H   0  0  0  0  0  0  0  0  0  0  0  0
  152.0880  146.5448  159.8275 H   0  0  0  0  0  0  0  0  0  0  0  0
  153.4356  143.5460  161.1733 H   0  0  0  0  0  0  0  0  0  0  0  0
  154.3610  141.3290  160.9134 H   0  0  0  0  0  0  0  0  0  0  0  0
  154.4302  140.7424  159.2491 H   0  0  0  0  0  0  0  0  0  0  0  0
  153.1633  140.1640  160.3389 H   0  0  0  0  0  0  0  0  0  0  0  0
  149.8658  143.5183  156.6709 H   0  0  0  0  0  0  0  0  0  0  0  0
  149.0087  142.7777  155.0584 H   0  0  0  0  0  0  0  0  0  0  0  0
  149.7233  140.9723  153.2321 H   0  0  0  0  0  0  0  0  0  0  0  0
  149.2391  139.9103  154.5500 H   0  0  0  0  0  0  0  0  0  0  0  0
  147.5287  141.8919  153.0045 H   0  0  0  0  0  0  0  0  0  0  0  0
  147.1755  138.9007  153.5061 H   0  0  0  0  0  0  0  0  0  0  0  0
  147.6854  139.6391  151.9904 H   0  0  0  0  0  0  0  0  0  0  0  0
  146.0654  139.9171  152.5930 H   0  0  0  0  0  0  0  0  0  0  0  0
  146.1891  140.3457  155.1191 H   0  0  0  0  0  0  0  0  0  0  0  0
  147.1865  141.6108  155.7483 H   0  0  0  0  0  0  0  0  0  0  0  0
  146.7660  143.9707  154.4929 H   0  0  0  0  0  0  0  0  0  0  0  0
  146.5046  143.2019  152.9551 H   0  0  0  0  0  0  0  0  0  0  0  0
  145.2407  145.3013  153.0642 H   0  0  0  0  0  0  0  0  0  0  0  0
  144.1384  143.9491  152.9243 H   0  0  0  0  0  0  0  0  0  0  0  0
  142.6228  146.0960  155.4774 H   0  0  0  0  0  0  0  0  0  0  0  0
  142.3293  145.2950  153.9304 H   0  0  0  0  0  0  0  0  0  0  0  0
  143.4518  146.6555  154.0271 H   0  0  0  0  0  0  0  0  0  0  0  0
  143.2771  143.9687  156.4918 H   0  0  0  0  0  0  0  0  0  0  0  0
  142.9615  143.1537  154.9761 H   0  0  0  0  0  0  0  0  0  0  0  0
  144.5133  141.8364  156.3739 H   0  0  0  0  0  0  0  0  0  0  0  0
  145.6296  143.1794  156.4838 H   0  0  0  0  0  0  0  0  0  0  0  0
  150.5126  144.8999  158.3010 H   0  0  0  0  0  0  0  0  0  0  0  0
  1  2  1  0  0  0  0
  1 24  1  0  0  0  0
  1 25  1  0  0  0  0
  1 26  1  0  0  0  0
  2 23  1  0  0  0  0
  2  3  2  0  0  0  0
  3  4  1  0  0  0  0
  3 27  1  0  0  0  0
  4  5  1  0  0  0  0
  4  6  2  0  0  0  0
  5 28  1  0  0  0  0
  5 29  1  0  0  0  0
  5 30  1  0  0  0  0
  6  7  1  0  0  0  0
  7  8  1  0  0  0  0
  7 23  2  0  0  0  0
  8  9  1  0  0  0  0
  8 31  1  0  0  0  0
  9 10  2  0  0  0  0
  9 11  1  0  0  0  0
 11 12  1  0  0  0  0
 11 32  1  0  0  0  0
 12 13  1  0  0  0  0
 12 33  1  0  0  0  0
 12 34  1  0  0  0  0
 13 14  1  0  0  0  0
 13 15  1  0  0  0  0
 13 35  1  0  0  0  0
 14 36  1  0  0  0  0
 14 37  1  0  0  0  0
 14 38  1  0  0  0  0
 15 16  1  0  0  0  0
 15 39  1  0  0  0  0
 15 40  1  0  0  0  0
 16 22  1  0  0  0  0
 16 17  1  0  0  0  0
 17 18  1  0  0  0  0
 17 41  1  0  0  0  0
 17 42  1  0  0  0  0
 18 19  1  0  0  0  0
 18 43  1  0  0  0  0
 18 44  1  0  0  0  0
 19 20  1  0  0  0  0
 19 21  1  0  0  0  0
 20 45  1  0  0  0  0
 20 46  1  0  0  0  0
 20 47  1  0  0  0  0
 21 22  1  0  0  0  0
 21 48  1  0  0  0  0
 21 49  1  0  0  0  0
 22 50  1  0  0  0  0
 22 51  1  0  0  0  0
 23 52  1  0  0  0  0
M  END
> <s_m_source_file>
AV-unprocessed.smi

> <i_m_source_file_index>
2276

> <i_lp_mmshare_version>
43012

> <i_f3d_flags>
0

> <s_epik_input>
W0NIM11jMVtjSF1jKFtDSDNdKW5jKFtjSF0xKVtOSF1DKD1PKVtOSF1bQ0gyXVtDQEhdKFtDSDNdKVtDSDJdTjJbQ0gyXVtDSDJdTihbQ0gzXSlbQ0gyXVtDSDJdMg==

> <s_epik_cmdline>
J2VwaWtfcHl0aG9uJywgJy1waCcsICc3LjAnLCAnLXRuJywgJzgnLCAnLW1hJywgJzIwMCcsICctbWV0YWxfYmluZGluZycsICctaW1hZScsICc8aW5maWxlLm1hZT4nLCAnLW9tYWUnLCAnPG91dGZpbGUubWFlPic=

> <r_epik_Ionization_Penalty>
3.46991

> <r_epik_Ionization_Penalty_Charging>
0

> <r_epik_Ionization_Penalty_Neutral>
3.46991

> <r_epik_State_Penalty>
2.28006

> <r_epik_Charging_Adjusted_Penalty>
2.28006

> <i_epik_Tot_Q>
0

> <i_epik_Tot_abs_Q>
0

> <r_epik_Metal_State_Penalty>
2.28005

> <b_epik_Metal_Only>
0

> <s_lp_Force_Field>
OPLS_2005

> <r_lp_Energy>
40.6997

> <b_lp_Chiralities_Consistent>
1

> <s_lp_Variant>
AV-unprocessed.smi:2276-6

> <Gold.Version>
5.8.1

> <Gold.Id.Protein>
6NUR|6NUR_protein|mol2

> <Gold.PLP.Fitness>
55.7221

> <Gold.PLP.PLP>
-51.4376

> <Gold.PLP.part.hbond>
-2.0000

> <Gold.PLP.part.metal>
0.0000

> <Gold.PLP.part.buried>
-4.5727

> <Gold.PLP.part.nonpolar>
-46.0513

> <Gold.PLP.part.repulsive>
0.5560

> <Gold.PLP.ligand.clash>
0.0000

> <Gold.PLP.ligand.torsion>
0.8947

> <Gold.PLP.Chemscore.Hbond>
1.9920

> <Gold.PLP.Chemscore.CHOScore>
0.0000

> <Gold.PLP.Chemscore.Metal>
0.0000

> <Gold.Chemscore.Hbonds>
donor molecule, donor type, donor heavy atom, donor atom, acceptor molecule, acceptor atom, score
      L1  H     8    31       P1  8028  1.00
      L1  H    11    32       P1  8028  1.00

> <Gold.PLP.Chemscore.Internal.Correction>
0.0979

> <Gold.Rescore>
     Score         DG    S(hbond)    S(metal)    S(lipo)     H(rot)  DE(clash)    DE(int)     intcor
     20.65     -23.10       1.92        0.00     130.14       1.57       0.31       2.14       ----

> <Gold.Chemscore.Fitness>
20.6496

> <Gold.Chemscore.DG>
-23.1038

> <Gold.Chemscore.ZeroCoef>
-5.4800

> <Gold.Chemscore.Hbond>
1.9222

> <Gold.Chemscore.Metal>
0.0000

> <Gold.Chemscore.Lipo>
130.1444

> <Gold.Chemscore.Internal_Hbond>
0.0000

> <Gold.Chemscore.DEClash>
0.3129

> <Gold.Chemscore.DEInternal>
2.1414

> <Gold.Chemscore.Rot>
1.5715

> <Gold.Chemscore.Internal.Correction>
   9.000000E+99

> <Gold.Chemscore.Hbonds>
donor molecule, donor type, donor heavy atom, donor atom, acceptor molecule, acceptor atom, score
      L1  H     8    31       P1  8028  1.00
      L1  H    11    32       P1  8028  0.89

> <Gold.Chemscore.Hbond.Weighted>
-6.4201

> <Gold.Chemscore.Metal.Weighted>
-0.0000

> <Gold.Chemscore.Lipo.Weighted>
-15.2269

> <Gold.Chemscore.Internal_Hbond.Weighted>
0.0000

> <Gold.Chemscore.DEClash.Weighted>
0.3129

> <Gold.Chemscore.DEInternal.Weighted>
2.1414

> <Gold.Chemscore.Rot.Weighted>
4.0231

> <Gold.Chemscore.Internal.Correction.Weighted>
   9.000000E+99

> <Gold.Protein.RotatedTorsions>
[ 6907 6896 6895 6894 ] final -145.71 input  -60.11 | X-H torsion
[ 7974 7965 7964 7962 ] final -178.87 input  175.53 | X-H torsion
[ 8008 7997 7996 7995 ] final  -97.91 input   59.86 | X-H torsion
[ 10167 10162 10161 10158 ] final  -19.23 input  -65.29 | X-H torsion
[ 10718 10713 10712 10709 ] final -128.58 input   66.30 | X-H torsion
[ 10763 10752 10751 10750 ] final  158.62 input  -60.55 | X-H torsion
[ 11005 11000 10999 10996 ] final   12.95 input  -57.11 | X-H torsion

> <Gold.Protein.ActiveResidues>
 VAL166  LYS551  ARG553  GLY616  TRP617  ASP618  TYR619  PRO620  LYS621  CYS622 
 ASP623  PHE694  ASN695  SER759  ASP760  ASP761  ALA762  ILE779  LEU786  VAL792 
 PHE793  MET794  SER795  GLU796  ALA797  LYS798  CYS799  TRP800  GLU811  SER814 

> <Gold.Protein.RotatedAtoms>
  151.1316  133.5033  159.2598 H   0  0  0  0  0  0  0  0  0  0  0  0  # atno 6907 bound_to 6896
  151.1751  135.0335  159.8778 H   0  0  0  0  0  0  0  0  0  0  0  0  # atno 6908 bound_to 6896
  152.5460  134.1174  159.8438 H   0  0  0  0  0  0  0  0  0  0  0  0  # atno 6909 bound_to 6896
  144.7133  140.0804  143.6426 H   0  0  0  0  0  0  0  0  0  0  0  0  # atno 7974 bound_to 7965
  154.7941  140.0459  157.1223 H   0  0  0  0  0  0  0  0  0  0  0  0  # atno 8008 bound_to 7997
  154.9556  140.3071  155.5034 H   0  0  0  0  0  0  0  0  0  0  0  0  # atno 8009 bound_to 7997
  156.2953  140.2280  156.4638 H   0  0  0  0  0  0  0  0  0  0  0  0  # atno 8010 bound_to 7997
  140.7266  143.4839  151.0081 H   0  0  0  0  0  0  0  0  0  0  0  0  # atno 10167 bound_to 10162
  156.1964  130.6829  151.0487 H   0  0  0  0  0  0  0  0  0  0  0  0  # atno 10718 bound_to 10713
  154.2190  135.2783  155.2931 H   0  0  0  0  0  0  0  0  0  0  0  0  # atno 10763 bound_to 10752
  154.5717  135.5616  153.7105 H   0  0  0  0  0  0  0  0  0  0  0  0  # atno 10764 bound_to 10752
  153.0046  135.6323  154.2330 H   0  0  0  0  0  0  0  0  0  0  0  0  # atno 10765 bound_to 10752
  140.4863  134.0885  155.7761 H   0  0  0  0  0  0  0  0  0  0  0  0  # atno 11005 bound_to 11000
  145.9707  139.2868  143.1100 LP  0  0  0  0  0  0  0  0  0  0  0  0  # atno 17320 bound_to 7965
  145.9119  140.9174  143.0449 LP  0  0  0  0  0  0  0  0  0  0  0  0  # atno 17321 bound_to 7965
  139.8539  143.7402  152.3177 LP  0  0  0  0  0  0  0  0  0  0  0  0  # atno 17342 bound_to 10162
  139.7594  144.7511  151.0387 LP  0  0  0  0  0  0  0  0  0  0  0  0  # atno 17343 bound_to 10162
  157.6960  131.0793  150.6967 LP  0  0  0  0  0  0  0  0  0  0  0  0  # atno 17370 bound_to 10713
  156.7024  130.4627  149.5569 LP  0  0  0  0  0  0  0  0  0  0  0  0  # atno 17371 bound_to 10713
  141.1506  133.8975  157.2106 LP  0  0  0  0  0  0  0  0  0  0  0  0  # atno 17394 bound_to 11000
  139.9796  135.0102  156.9717 LP  0  0  0  0  0  0  0  0  0  0  0  0  # atno 17395 bound_to 11000

$$$$
