AV-unprocessed.smi:113|AV-procd|sdf|1095|dock10
  -GOLD-   2262018203D 1   1.00000     0.00000
 Structure written by MMmdl.
 52 55  0  0  0  0  0  0  0  0  1 V2000
  151.0254  137.6020  158.7267 C   0  0  0  0  0  0  0  0  0  0  0  0
  151.1467  139.0862  158.4508 C   0  0  0  0  0  0  0  0  0  0  0  0
  150.6257  139.6417  157.2689 C   0  0  0  0  0  0  0  0  0  0  0  0
  150.7646  141.0304  157.0440 C   0  0  0  0  0  0  0  0  0  0  0  0
  150.2146  141.6864  155.7725 C   0  0  0  0  0  0  0  0  0  0  0  0
  148.8545  141.3364  155.3875 N   0  0  0  0  0  0  0  0  0  0  0  0
  148.6494  140.8085  154.0894 C   0  0  0  0  0  0  0  0  0  0  0  0
  149.5829  140.6606  153.2977 O   0  0  0  0  0  0  0  0  0  0  0  0
  147.2663  140.4380  153.7801 C   0  0  0  0  0  0  0  0  0  0  0  0
  146.9710  139.8523  152.4081 C   0  0  0  0  0  0  0  0  0  0  0  0
  146.2984  140.6134  154.7118 C   0  0  0  0  0  0  0  0  0  0  0  0
  146.5238  141.1418  155.9709 N   0  0  0  0  0  0  0  0  0  0  0  0
  145.3794  141.2372  156.9568 C   0  0  2  0  0  0  0  0  0  0  0  0
  144.8441  139.8687  157.4111 C   0  0  0  0  0  0  0  0  0  0  0  0
  143.3882  139.9024  156.9695 C   0  0  1  0  0  0  0  0  0  0  0  0
  142.5580  139.2923  157.9366 O   0  0  0  0  0  0  0  0  0  0  0  0
  143.0997  141.4005  156.8206 C   0  0  2  0  0  0  0  0  0  0  0  0
  141.9887  141.7439  155.8165 C   0  0  0  0  0  0  0  0  0  0  0  0
  141.9435  140.7857  154.7804 O   0  0  0  0  0  0  0  0  0  0  0  0
  144.3322  141.9288  156.3515 O   0  0  0  0  0  0  0  0  0  0  0  0
  147.8369  141.4915  156.3554 C   0  0  0  0  0  0  0  0  0  0  0  0
  148.0834  141.8965  157.4933 O   0  0  0  0  0  0  0  0  0  0  0  0
  151.4307  141.8013  158.0352 C   0  0  0  0  0  0  0  0  0  0  0  0
  151.6107  143.1981  157.8887 C   0  0  0  0  0  0  0  0  0  0  0  0
  152.2720  143.9428  158.8817 C   0  0  0  0  0  0  0  0  0  0  0  0
  152.7607  143.2998  160.0309 C   0  0  0  0  0  0  0  0  0  0  0  0
  152.5870  141.9126  160.1838 C   0  0  0  0  0  0  0  0  0  0  0  0
  151.9259  141.1451  159.2008 C   0  0  0  0  0  0  0  0  0  0  0  0
  151.7803  139.8152  159.3900 N   0  0  0  0  0  0  0  0  0  0  0  0
  150.1995  137.1665  158.1636 H   0  0  0  0  0  0  0  0  0  0  0  0
  150.8457  137.4164  159.7863 H   0  0  0  0  0  0  0  0  0  0  0  0
  151.9443  137.0906  158.4386 H   0  0  0  0  0  0  0  0  0  0  0  0
  150.1311  138.9992  156.5558 H   0  0  0  0  0  0  0  0  0  0  0  0
  150.2562  142.7732  155.8618 H   0  0  0  0  0  0  0  0  0  0  0  0
  150.8613  141.4615  154.9230 H   0  0  0  0  0  0  0  0  0  0  0  0
  145.9128  139.6209  152.2840 H   0  0  0  0  0  0  0  0  0  0  0  0
  147.5337  138.9299  152.2590 H   0  0  0  0  0  0  0  0  0  0  0  0
  147.2523  140.5560  151.6239 H   0  0  0  0  0  0  0  0  0  0  0  0
  145.2907  140.3219  154.4521 H   0  0  0  0  0  0  0  0  0  0  0  0
  145.7496  141.8218  157.7997 H   0  0  0  0  0  0  0  0  0  0  0  0
  145.4019  139.0366  156.9801 H   0  0  0  0  0  0  0  0  0  0  0  0
  144.9362  139.8153  158.4968 H   0  0  0  0  0  0  0  0  0  0  0  0
  143.2748  139.3909  156.0134 H   0  0  0  0  0  0  0  0  0  0  0  0
  141.6797  139.2477  157.5894 H   0  0  0  0  0  0  0  0  0  0  0  0
  142.8962  141.8515  157.7940 H   0  0  0  0  0  0  0  0  0  0  0  0
  141.0207  141.7503  156.3184 H   0  0  0  0  0  0  0  0  0  0  0  0
  142.1380  142.7376  155.3925 H   0  0  0  0  0  0  0  0  0  0  0  0
  142.6523  140.9590  154.1799 H   0  0  0  0  0  0  0  0  0  0  0  0
  151.2478  143.7229  157.0181 H   0  0  0  0  0  0  0  0  0  0  0  0
  152.4039  145.0081  158.7610 H   0  0  0  0  0  0  0  0  0  0  0  0
  153.2687  143.8690  160.7955 H   0  0  0  0  0  0  0  0  0  0  0  0
  152.9674  141.4294  161.0719 H   0  0  0  0  0  0  0  0  0  0  0  0
  1  2  1  0  0  0  0
  1 30  1  0  0  0  0
  1 31  1  0  0  0  0
  1 32  1  0  0  0  0
  2 29  1  0  0  0  0
  2  3  2  0  0  0  0
  3  4  1  0  0  0  0
  3 33  1  0  0  0  0
  4  5  1  0  0  0  0
  4 23  2  0  0  0  0
  5  6  1  0  0  0  0
  5 34  1  0  0  0  0
  5 35  1  0  0  0  0
  6 21  1  0  0  0  0
  6  7  1  0  0  0  0
  7  8  2  0  0  0  0
  7  9  1  0  0  0  0
  9 10  1  0  0  0  0
  9 11  2  0  0  0  0
 10 36  1  0  0  0  0
 10 37  1  0  0  0  0
 10 38  1  0  0  0  0
 11 12  1  0  0  0  0
 11 39  1  0  0  0  0
 12 13  1  0  0  0  0
 12 21  1  0  0  0  0
 13 20  1  0  0  0  0
 13 14  1  0  0  0  0
 13 40  1  0  0  0  0
 14 15  1  0  0  0  0
 14 41  1  0  0  0  0
 14 42  1  0  0  0  0
 15 16  1  0  0  0  0
 15 17  1  0  0  0  0
 15 43  1  0  0  0  0
 16 44  1  0  0  0  0
 17 18  1  0  0  0  0
 17 20  1  0  0  0  0
 17 45  1  0  0  0  0
 18 19  1  0  0  0  0
 18 46  1  0  0  0  0
 18 47  1  0  0  0  0
 19 48  1  0  0  0  0
 21 22  2  0  0  0  0
 23 28  1  0  0  0  0
 23 24  1  0  0  0  0
 24 25  2  0  0  0  0
 24 49  1  0  0  0  0
 25 26  1  0  0  0  0
 25 50  1  0  0  0  0
 26 27  2  0  0  0  0
 26 51  1  0  0  0  0
 27 28  1  0  0  0  0
 27 52  1  0  0  0  0
 28 29  2  0  0  0  0
M  END
> <s_m_source_file>
AV-unprocessed.smi

> <i_m_source_file_index>
113

> <i_lp_mmshare_version>
43012

> <i_f3d_flags>
0

> <s_epik_input>
W2NIXTFbY0hdW2NIXVtjSF1jKGMxMiluYyhbQ0gzXSlbY0hdYzJbQ0gyXW4zYyg9TyljKFtDSDNdKVtjSF1uKGMzPU8pW0NAQEhdNFtDSDJdW0NAQEhdKFtPSF0pW0NASF0oTzQpW0NIMl1bT0hd

> <s_epik_cmdline>
J2VwaWtfcHl0aG9uJywgJy1waCcsICc3LjAnLCAnLXRuJywgJzgnLCAnLW1hJywgJzIwMCcsICctbWV0YWxfYmluZGluZycsICctaW1hZScsICc8aW5maWxlLm1hZT4nLCAnLW9tYWUnLCAnPG91dGZpbGUubWFlPic=

> <r_lp_tautomer_probability>
1

> <r_epik_Ionization_Penalty>
0.214728

> <r_epik_Ionization_Penalty_Charging>
3.04883e-08

> <r_epik_Ionization_Penalty_Neutral>
0.214728

> <r_epik_State_Penalty>
0.204913

> <r_epik_Charging_Adjusted_Penalty>
0.204913

> <i_epik_Tot_Q>
0

> <i_epik_Tot_abs_Q>
0

> <r_epik_Metal_State_Penalty>
0.000244761

> <b_epik_Metal_Only>
0

> <s_epik_Chemistry_Notes>
This compound contains an acetal/aminal-like group ( X-CH(R)-Y where X, Y are N, S, or O) that may be acid/base labile, releasing an aldehyde.

> <s_lp_Force_Field>
OPLS_2005

> <r_lp_Energy>
32.9041

> <b_lp_Chiralities_Consistent>
1

> <s_lp_Variant>
AV-unprocessed.smi:113-5

> <Gold.Version>
5.8.1

> <Gold.Id.Protein>
6NUR|6NUR_protein|mol2

> <Gold.PLP.Fitness>
46.1335

> <Gold.PLP.PLP>
-37.3833

> <Gold.PLP.part.hbond>
-3.7838

> <Gold.PLP.part.metal>
0.0000

> <Gold.PLP.part.buried>
-3.8017

> <Gold.PLP.part.nonpolar>
-37.9208

> <Gold.PLP.part.repulsive>
6.0077

> <Gold.PLP.ligand.clash>
0.0000

> <Gold.PLP.ligand.torsion>
0.6365

> <Gold.PLP.Chemscore.Hbond>
2.3280

> <Gold.PLP.Chemscore.CHOScore>
1.0000

> <Gold.PLP.Chemscore.Metal>
0.0000

> <Gold.Chemscore.Hbonds>
donor molecule, donor type, donor heavy atom, donor atom, acceptor molecule, acceptor atom, score
      L1  H    19    48       P1 10175  0.98
      P1  H  7989  7998       L1     8  0.32
      P1  H  8011  8017       L1     8  1.00
      L1  C    11    39       P1 10175  0.96

> <Gold.PLP.Chemscore.Internal.Correction>
0.0391

> <Gold.Rescore>
     Score         DG    S(hbond)    S(metal)    S(lipo)     H(rot)  DE(clash)    DE(int)     intcor
     12.44     -16.84       1.79        0.00     110.31       2.95       2.48       1.91       ----

> <Gold.Chemscore.Fitness>
12.4440

> <Gold.Chemscore.DG>
-16.8361

> <Gold.Chemscore.ZeroCoef>
-5.4800

> <Gold.Chemscore.Hbond>
1.7946

> <Gold.Chemscore.Metal>
0.0000

> <Gold.Chemscore.Lipo>
110.3084

> <Gold.Chemscore.Internal_Hbond>
0.0000

> <Gold.Chemscore.DEClash>
2.4838

> <Gold.Chemscore.DEInternal>
1.9084

> <Gold.Chemscore.Rot>
2.9469

> <Gold.Chemscore.Internal.Correction>
   9.000000E+99

> <Gold.Chemscore.Hbonds>
donor molecule, donor type, donor heavy atom, donor atom, acceptor molecule, acceptor atom, score
      L1  H    19    48       P1 10175  0.32
      P1  H  7989  7998       L1     8  0.30
      P1  H  8011  8017       L1     8  0.57

> <Gold.Chemscore.Hbond.Weighted>
-5.9940

> <Gold.Chemscore.Metal.Weighted>
-0.0000

> <Gold.Chemscore.Lipo.Weighted>
-12.9061

> <Gold.Chemscore.Internal_Hbond.Weighted>
0.0000

> <Gold.Chemscore.DEClash.Weighted>
2.4838

> <Gold.Chemscore.DEInternal.Weighted>
1.9084

> <Gold.Chemscore.Rot.Weighted>
7.5439

> <Gold.Chemscore.Internal.Correction.Weighted>
   9.000000E+99

> <Gold.Protein.RotatedTorsions>
[ 6907 6896 6895 6894 ] final  143.96 input  -60.11 | X-H torsion
[ 7974 7965 7964 7962 ] final  -46.79 input  175.53 | X-H torsion
[ 8008 7997 7996 7995 ] final   83.39 input   59.86 | X-H torsion
[ 10167 10162 10161 10158 ] final  134.13 input  -65.29 | X-H torsion
[ 10718 10713 10712 10709 ] final  -46.95 input   66.30 | X-H torsion
[ 10763 10752 10751 10750 ] final -133.10 input  -60.55 | X-H torsion
[ 11005 11000 10999 10996 ] final   23.09 input  -57.11 | X-H torsion

> <Gold.Protein.ActiveResidues>
 VAL166  LYS551  ARG553  GLY616  TRP617  ASP618  TYR619  PRO620  LYS621  CYS622 
 ASP623  PHE694  ASN695  SER759  ASP760  ASP761  ALA762  ILE779  LEU786  VAL792 
 PHE793  MET794  SER795  GLU796  ALA797  LYS798  CYS799  TRP800  GLU811  SER814 

> <Gold.Protein.RotatedAtoms>
  152.1997  133.4832  159.5051 H   0  0  0  0  0  0  0  0  0  0  0  0  # atno 6907 bound_to 6896
  150.6967  134.1607  159.4184 H   0  0  0  0  0  0  0  0  0  0  0  0  # atno 6908 bound_to 6896
  151.9524  135.0163  160.0593 H   0  0  0  0  0  0  0  0  0  0  0  0  # atno 6909 bound_to 6896
  145.9683  140.7409  142.9423 H   0  0  0  0  0  0  0  0  0  0  0  0  # atno 7974 bound_to 7965
  155.9233  140.3420  155.6190 H   0  0  0  0  0  0  0  0  0  0  0  0  # atno 8008 bound_to 7997
  155.7246  140.0788  157.2334 H   0  0  0  0  0  0  0  0  0  0  0  0  # atno 8009 bound_to 7997
  154.4073  140.1599  156.2428 H   0  0  0  0  0  0  0  0  0  0  0  0  # atno 8010 bound_to 7997
  139.5268  144.6582  151.5095 H   0  0  0  0  0  0  0  0  0  0  0  0  # atno 10167 bound_to 10162
  156.2133  130.4162  149.9087 H   0  0  0  0  0  0  0  0  0  0  0  0  # atno 10718 bound_to 10713
  154.8736  135.3777  154.4517 H   0  0  0  0  0  0  0  0  0  0  0  0  # atno 10763 bound_to 10752
  153.5193  135.7029  153.5745 H   0  0  0  0  0  0  0  0  0  0  0  0  # atno 10764 bound_to 10752
  153.3999  135.3951  155.1946 H   0  0  0  0  0  0  0  0  0  0  0  0  # atno 10765 bound_to 10752
  140.3734  134.1998  155.7666 H   0  0  0  0  0  0  0  0  0  0  0  0  # atno 11005 bound_to 11000
  144.6831  140.2706  143.7306 LP  0  0  0  0  0  0  0  0  0  0  0  0  # atno 17320 bound_to 7965
  145.7942  139.1939  143.2085 LP  0  0  0  0  0  0  0  0  0  0  0  0  # atno 17321 bound_to 7965
  140.6418  143.8874  150.6699 LP  0  0  0  0  0  0  0  0  0  0  0  0  # atno 17342 bound_to 10162
  140.2211  143.3808  152.1642 LP  0  0  0  0  0  0  0  0  0  0  0  0  # atno 17343 bound_to 10162
  156.6758  130.8838  151.3569 LP  0  0  0  0  0  0  0  0  0  0  0  0  # atno 17370 bound_to 10713
  157.7050  130.9374  150.0902 LP  0  0  0  0  0  0  0  0  0  0  0  0  # atno 17371 bound_to 10713
  141.1947  133.8122  157.0745 LP  0  0  0  0  0  0  0  0  0  0  0  0  # atno 17394 bound_to 11000
  140.0534  134.9793  157.1177 LP  0  0  0  0  0  0  0  0  0  0  0  0  # atno 17395 bound_to 11000

$$$$
