AV-unprocessed.smi:1166|AV-procd|sdf|4936|dock6
  -GOLD-   22720 3523D 1   1.00000     0.00000
 Structure written by MMmdl.
 46 47  0  0  0  0  0  0  0  0  1 V2000
  154.3237  141.9285  160.6492 C   0  0  0  0  0  0  0  0  0  0  0  0
  153.2428  142.2041  159.7082 N   0  0  0  0  0  0  0  0  0  0  0  0
  152.7258  143.5603  159.5742 C   0  0  0  0  0  0  0  0  0  0  0  0
  152.7650  141.1748  158.8649 C   0  0  0  0  0  0  0  0  0  0  0  0
  151.7862  141.4268  157.8717 C   0  0  0  0  0  0  0  0  0  0  0  0
  151.3437  140.3669  157.0581 C   0  0  0  0  0  0  0  0  0  0  0  0
  151.8750  139.0781  157.2534 C   0  0  0  0  0  0  0  0  0  0  0  0
  151.4233  138.0329  156.4036 N   0  0  0  0  0  0  0  0  0  0  0  0
  151.5136  136.7054  156.5912 C   0  0  0  0  0  0  0  0  0  0  0  0
  152.0003  136.1563  157.5794 O   0  0  0  0  0  0  0  0  0  0  0  0
  150.9786  136.0352  155.5610 N   0  0  0  0  0  0  0  0  0  0  0  0
  150.8788  134.5827  155.4616 C   0  0  2  0  0  0  0  0  0  0  0  0
  152.2061  133.9137  155.8547 C   0  0  0  0  0  0  0  0  0  0  0  0
  152.0868  132.3943  155.6910 C   0  0  0  0  0  0  0  0  0  0  0  0
  151.6593  132.0166  154.2617 C   0  0  0  0  0  0  0  0  0  0  0  0
  150.4299  132.7267  153.8534 N   0  0  0  0  0  0  0  0  0  0  0  0
  148.8980  131.9012  153.8761 S   0  0  0  0  0  0  0  0  0  0  0  0
  148.0312  132.5145  152.3738 C   0  0  0  0  0  0  0  0  0  0  0  0
  149.1594  130.4645  153.6993 O   0  0  0  0  0  0  0  0  0  0  0  0
  148.1543  132.3667  155.0569 O   0  0  0  0  0  0  0  0  0  0  0  0
  150.4785  134.1921  154.0257 C   0  0  0  0  0  0  0  0  0  0  0  0
  152.8557  138.9206  158.2603 C   0  0  0  0  0  0  0  0  0  0  0  0
  153.2833  139.9347  159.0413 N   0  0  0  0  0  0  0  0  0  0  0  0
  154.0430  141.1267  161.3328 H   0  0  0  0  0  0  0  0  0  0  0  0
  154.5632  142.8067  161.2490 H   0  0  0  0  0  0  0  0  0  0  0  0
  155.2273  141.6299  160.1168 H   0  0  0  0  0  0  0  0  0  0  0  0
  152.8898  143.9348  158.5633 H   0  0  0  0  0  0  0  0  0  0  0  0
  153.2196  144.2435  160.2653 H   0  0  0  0  0  0  0  0  0  0  0  0
  151.6571  143.5864  159.7886 H   0  0  0  0  0  0  0  0  0  0  0  0
  151.3663  142.4092  157.7175 H   0  0  0  0  0  0  0  0  0  0  0  0
  150.6000  140.5453  156.2951 H   0  0  0  0  0  0  0  0  0  0  0  0
  150.9214  138.3321  155.5804 H   0  0  0  0  0  0  0  0  0  0  0  0
  150.5994  136.5690  154.7928 H   0  0  0  0  0  0  0  0  0  0  0  0
  150.1002  134.2419  156.1439 H   0  0  0  0  0  0  0  0  0  0  0  0
  153.0171  134.2896  155.2292 H   0  0  0  0  0  0  0  0  0  0  0  0
  152.4665  134.1549  156.8861 H   0  0  0  0  0  0  0  0  0  0  0  0
  153.0408  131.9216  155.9259 H   0  0  0  0  0  0  0  0  0  0  0  0
  151.3699  132.0042  156.4123 H   0  0  0  0  0  0  0  0  0  0  0  0
  152.4544  132.2784  153.5627 H   0  0  0  0  0  0  0  0  0  0  0  0
  151.5214  130.9389  154.1797 H   0  0  0  0  0  0  0  0  0  0  0  0
  147.0421  132.0599  152.3247 H   0  0  0  0  0  0  0  0  0  0  0  0
  148.5899  132.2364  151.4820 H   0  0  0  0  0  0  0  0  0  0  0  0
  147.9200  133.5963  152.4235 H   0  0  0  0  0  0  0  0  0  0  0  0
  149.5167  134.6332  153.7646 H   0  0  0  0  0  0  0  0  0  0  0  0
  151.2033  134.5949  153.3167 H   0  0  0  0  0  0  0  0  0  0  0  0
  153.3380  137.9741  158.4474 H   0  0  0  0  0  0  0  0  0  0  0  0
  1  2  1  0  0  0  0
  1 24  1  0  0  0  0
  1 25  1  0  0  0  0
  1 26  1  0  0  0  0
  2  3  1  0  0  0  0
  2  4  1  0  0  0  0
  3 27  1  0  0  0  0
  3 28  1  0  0  0  0
  3 29  1  0  0  0  0
  4 23  1  0  0  0  0
  4  5  2  0  0  0  0
  5  6  1  0  0  0  0
  5 30  1  0  0  0  0
  6  7  2  0  0  0  0
  6 31  1  0  0  0  0
  7  8  1  0  0  0  0
  7 22  1  0  0  0  0
  8  9  1  0  0  0  0
  8 32  1  0  0  0  0
  9 10  2  0  0  0  0
  9 11  1  0  0  0  0
 11 12  1  0  0  0  0
 11 33  1  0  0  0  0
 12 21  1  0  0  0  0
 12 13  1  0  0  0  0
 12 34  1  0  0  0  0
 13 14  1  0  0  0  0
 13 35  1  0  0  0  0
 13 36  1  0  0  0  0
 14 15  1  0  0  0  0
 14 37  1  0  0  0  0
 14 38  1  0  0  0  0
 15 16  1  0  0  0  0
 15 39  1  0  0  0  0
 15 40  1  0  0  0  0
 16 17  1  0  0  0  0
 16 21  1  0  0  0  0
 17 18  1  0  0  0  0
 17 19  2  0  0  0  0
 17 20  2  0  0  0  0
 18 41  1  0  0  0  0
 18 42  1  0  0  0  0
 18 43  1  0  0  0  0
 21 44  1  0  0  0  0
 21 45  1  0  0  0  0
 22 23  2  0  0  0  0
 22 46  1  0  0  0  0
M  END
> <s_m_source_file>
AV-unprocessed.smi

> <i_m_source_file_index>
1166

> <i_lp_mmshare_version>
43012

> <i_f3d_flags>
0

> <s_epik_input>
W0NIM11OKFtDSDNdKWMxW2NIXVtjSF1jKFtjSF1uMSlbTkhdQyg9TylbTkhdW0NAQEhdMltDSDJdW0NIMl1bQ0gyXU4oW0NIMl0yKVMoPU8pKD1PKVtDSDNd

> <s_epik_cmdline>
J2VwaWtfcHl0aG9uJywgJy1waCcsICc3LjAnLCAnLXRuJywgJzgnLCAnLW1hJywgJzIwMCcsICctbWV0YWxfYmluZGluZycsICctaW1hZScsICc8aW5maWxlLm1hZT4nLCAnLW9tYWUnLCAnPG91dGZpbGUubWFlPic=

> <r_lp_tautomer_probability>
1

> <r_epik_Ionization_Penalty>
0.585334

> <r_epik_Ionization_Penalty_Charging>
0

> <r_epik_Ionization_Penalty_Neutral>
0.585334

> <r_epik_State_Penalty>
0.597345

> <r_epik_Charging_Adjusted_Penalty>
0.597345

> <i_epik_Tot_Q>
0

> <i_epik_Tot_abs_Q>
0

> <r_epik_Metal_State_Penalty>
0.29678

> <b_epik_Metal_Only>
0

> <s_lp_Force_Field>
OPLS_2005

> <r_lp_Energy>
0.833523

> <b_lp_Chiralities_Consistent>
1

> <s_lp_Variant>
AV-unprocessed.smi:1166-3

> <Gold.Version>
5.8.1

> <Gold.Id.Protein>
6NUR|6NUR_protein|mol2

> <Gold.PLP.Fitness>
38.2697

> <Gold.PLP.PLP>
-37.3526

> <Gold.PLP.part.hbond>
-1.0000

> <Gold.PLP.part.metal>
0.0000

> <Gold.PLP.part.buried>
-5.1577

> <Gold.PLP.part.nonpolar>
-31.8324

> <Gold.PLP.part.repulsive>
0.1792

> <Gold.PLP.ligand.clash>
0.0000

> <Gold.PLP.ligand.torsion>
1.3291

> <Gold.PLP.Chemscore.Hbond>
0.5039

> <Gold.PLP.Chemscore.CHOScore>
0.0000

> <Gold.PLP.Chemscore.Metal>
0.0000

> <Gold.PLP.Chemscore.Internal.Correction>
2.0636

> <Gold.Rescore>
     Score         DG    S(hbond)    S(metal)    S(lipo)     H(rot)  DE(clash)    DE(int)     intcor
     10.44     -14.25       0.77        0.00      74.84       1.00       0.00       3.81       ----

> <Gold.Chemscore.Fitness>
10.4407

> <Gold.Chemscore.DG>
-14.2542

> <Gold.Chemscore.ZeroCoef>
-5.4800

> <Gold.Chemscore.Hbond>
0.7720

> <Gold.Chemscore.Metal>
0.0000

> <Gold.Chemscore.Lipo>
74.8361

> <Gold.Chemscore.Internal_Hbond>
0.0000

> <Gold.Chemscore.DEClash>
0.0000

> <Gold.Chemscore.DEInternal>
3.8135

> <Gold.Chemscore.Rot>
1.0000

> <Gold.Chemscore.Internal.Correction>
   9.000000E+99

> <Gold.Chemscore.Hbond.Weighted>
-2.5784

> <Gold.Chemscore.Metal.Weighted>
-0.0000

> <Gold.Chemscore.Lipo.Weighted>
-8.7558

> <Gold.Chemscore.Internal_Hbond.Weighted>
0.0000

> <Gold.Chemscore.DEClash.Weighted>
0.0000

> <Gold.Chemscore.DEInternal.Weighted>
3.8135

> <Gold.Chemscore.Rot.Weighted>
2.5600

> <Gold.Chemscore.Internal.Correction.Weighted>
   9.000000E+99

> <Gold.Protein.RotatedTorsions>
[ 6907 6896 6895 6894 ] final  -41.85 input  -60.11 | X-H torsion
[ 7974 7965 7964 7962 ] final -157.17 input  175.53 | X-H torsion
[ 8008 7997 7996 7995 ] final   15.01 input   59.86 | X-H torsion
[ 10167 10162 10161 10158 ] final  -84.31 input  -65.29 | X-H torsion
[ 10718 10713 10712 10709 ] final -110.44 input   66.30 | X-H torsion
[ 10763 10752 10751 10750 ] final -157.88 input  -60.55 | X-H torsion
[ 11005 11000 10999 10996 ] final   92.80 input  -57.11 | X-H torsion

> <Gold.Protein.ActiveResidues>
 VAL166  LYS551  ARG553  GLY616  TRP617  ASP618  TYR619  PRO620  LYS621  CYS622 
 ASP623  PHE694  ASN695  SER759  ASP760  ASP761  ALA762  ILE779  LEU786  VAL792 
 PHE793  MET794  SER795  GLU796  ALA797  LYS798  CYS799  TRP800  GLU811  SER814 

> <Gold.Protein.RotatedAtoms>
  150.9620  134.9006  159.7735 H   0  0  0  0  0  0  0  0  0  0  0  0  # atno 6907 bound_to 6896
  152.5159  134.3660  159.9311 H   0  0  0  0  0  0  0  0  0  0  0  0  # atno 6908 bound_to 6896
  151.3671  133.3827  159.2730 H   0  0  0  0  0  0  0  0  0  0  0  0  # atno 6909 bound_to 6896
  144.7560  140.4006  143.6012 H   0  0  0  0  0  0  0  0  0  0  0  0  # atno 7974 bound_to 7965
  154.8566  140.2938  155.5565 H   0  0  0  0  0  0  0  0  0  0  0  0  # atno 8008 bound_to 7997
  156.3018  140.2486  156.3465 H   0  0  0  0  0  0  0  0  0  0  0  0  # atno 8009 bound_to 7997
  154.8964  140.0393  157.1857 H   0  0  0  0  0  0  0  0  0  0  0  0  # atno 8010 bound_to 7997
  140.4144  143.2609  151.8974 H   0  0  0  0  0  0  0  0  0  0  0  0  # atno 10167 bound_to 10162
  156.0591  130.5815  150.8237 H   0  0  0  0  0  0  0  0  0  0  0  0  # atno 10718 bound_to 10713
  154.7601  135.3115  154.8395 H   0  0  0  0  0  0  0  0  0  0  0  0  # atno 10763 bound_to 10752
  153.9158  135.6801  153.4753 H   0  0  0  0  0  0  0  0  0  0  0  0  # atno 10764 bound_to 10752
  153.1201  135.4826  154.9112 H   0  0  0  0  0  0  0  0  0  0  0  0  # atno 10765 bound_to 10752
  139.8818  134.8754  156.3625 H   0  0  0  0  0  0  0  0  0  0  0  0  # atno 11005 bound_to 11000
  145.6779  139.1612  143.2717 LP  0  0  0  0  0  0  0  0  0  0  0  0  # atno 17320 bound_to 7965
  146.1570  140.6843  142.9295 LP  0  0  0  0  0  0  0  0  0  0  0  0  # atno 17321 bound_to 7965
  139.4782  144.5503  151.8396 LP  0  0  0  0  0  0  0  0  0  0  0  0  # atno 17342 bound_to 10162
  140.4602  144.1732  150.5905 LP  0  0  0  0  0  0  0  0  0  0  0  0  # atno 17343 bound_to 10162
  157.5585  131.0945  150.9594 LP  0  0  0  0  0  0  0  0  0  0  0  0  # atno 17370 bound_to 10713
  156.9837  130.5536  149.5298 LP  0  0  0  0  0  0  0  0  0  0  0  0  # atno 17371 bound_to 10713
  140.9519  133.7445  156.0284 LP  0  0  0  0  0  0  0  0  0  0  0  0  # atno 17394 bound_to 11000
  140.8095  134.3416  157.5416 LP  0  0  0  0  0  0  0  0  0  0  0  0  # atno 17395 bound_to 11000

$$$$
