AV-unprocessed.smi:1492|AV-procd|sdf|6045|dock3
  -GOLD-   22720 6153D 1   1.00000     0.00000
 Structure written by MMmdl.
 51 52  0  0  0  0  0  0  0  0  2 V2000
  156.8042  139.8900  159.4296 C   0  0  0  0  0  0  0  0  0  0  0  0
  156.0417  140.2252  160.7245 C   0  0  0  0  0  0  0  0  0  0  0  0
  154.5168  139.8892  160.7455 C   0  0  2  0  0  0  0  0  0  0  0  0
  154.0736  139.6985  162.2209 C   0  0  0  0  0  0  0  0  0  0  0  0
  154.2943  138.5176  160.0316 C   0  0  0  0  0  0  0  0  0  0  0  0
  154.7703  137.3935  160.8337 N   0  0  0  0  0  0  0  0  0  0  0  0
  154.3486  136.1232  160.7553 C   0  0  0  0  0  0  0  0  0  0  0  0
  153.3775  135.7637  160.0901 O   0  0  0  0  0  0  0  0  0  0  0  0
  155.1825  135.0967  161.5221 C   0  0  0  0  0  0  0  0  0  0  0  0
  154.4111  134.3121  162.5854 C   0  0  0  0  0  0  0  0  0  0  0  0
  153.8139  134.9006  163.6610 C   0  0  0  0  0  0  0  0  0  0  0  0
  153.8708  136.3956  163.9221 C   0  0  0  0  0  0  0  0  0  0  0  0
  153.0951  134.1409  164.5995 N   0  0  0  0  0  0  0  0  0  0  0  0
  153.0001  132.8756  164.4452 C   0  0  0  0  0  0  0  0  0  0  0  0
  152.2123  132.0747  165.4600 C   0  0  0  0  0  0  0  0  0  0  0  0
  153.5682  132.1845  163.3987 N   0  5  0  0  0  0  0  0  0  0  0  0
  154.2681  132.8522  162.4384 C   0  0  0  0  0  0  0  0  0  0  0  0
  154.7587  132.2751  161.4688 O   0  0  0  0  0  0  0  0  0  0  0  0
  153.6948  140.9574  160.1028 N   0  0  0  0  0  0  0  0  0  0  0  0
  152.3819  140.5335  159.6034 C   0  0  0  0  0  0  0  0  0  0  0  0
  151.6763  141.6545  158.8217 C   0  0  0  0  0  0  0  0  0  0  0  0
  151.5474  142.8061  159.6468 O   0  0  0  0  0  0  0  0  0  0  0  0
  152.8055  143.2865  160.1049 C   0  0  0  0  0  0  0  0  0  0  0  0
  153.5241  142.1806  160.8963 C   0  0  0  0  0  0  0  0  0  0  0  0
  157.8566  140.1539  159.5336 H   0  0  0  0  0  0  0  0  0  0  0  0
  156.4208  140.4437  158.5733 H   0  0  0  0  0  0  0  0  0  0  0  0
  156.7641  138.8267  159.1949 H   0  0  0  0  0  0  0  0  0  0  0  0
  156.5468  139.7049  161.5377 H   0  0  0  0  0  0  0  0  0  0  0  0
  156.1894  141.2873  160.9180 H   0  0  0  0  0  0  0  0  0  0  0  0
  154.4500  138.7682  162.6466 H   0  0  0  0  0  0  0  0  0  0  0  0
  152.9872  139.6697  162.3111 H   0  0  0  0  0  0  0  0  0  0  0  0
  154.4331  140.5018  162.8642 H   0  0  0  0  0  0  0  0  0  0  0  0
  153.2353  138.3549  159.8308 H   0  0  0  0  0  0  0  0  0  0  0  0
  154.7714  138.4997  159.0510 H   0  0  0  0  0  0  0  0  0  0  0  0
  155.5763  137.5744  161.4156 H   0  0  0  0  0  0  0  0  0  0  0  0
  155.6530  134.4225  160.8058 H   0  0  0  0  0  0  0  0  0  0  0  0
  156.0127  135.6145  162.0028 H   0  0  0  0  0  0  0  0  0  0  0  0
  153.4800  136.9513  163.0699 H   0  0  0  0  0  0  0  0  0  0  0  0
  154.8980  136.7123  164.1024 H   0  0  0  0  0  0  0  0  0  0  0  0
  153.2777  136.6662  164.7963 H   0  0  0  0  0  0  0  0  0  0  0  0
  151.1499  132.3054  165.3770 H   0  0  0  0  0  0  0  0  0  0  0  0
  152.5405  132.3161  166.4714 H   0  0  0  0  0  0  0  0  0  0  0  0
  152.3425  131.0023  165.3070 H   0  0  0  0  0  0  0  0  0  0  0  0
  152.4747  139.6761  158.9388 H   0  0  0  0  0  0  0  0  0  0  0  0
  151.7422  140.2270  160.4309 H   0  0  0  0  0  0  0  0  0  0  0  0
  152.2342  141.9046  157.9187 H   0  0  0  0  0  0  0  0  0  0  0  0
  150.6850  141.3300  158.5053 H   0  0  0  0  0  0  0  0  0  0  0  0
  153.4104  143.6123  159.2582 H   0  0  0  0  0  0  0  0  0  0  0  0
  152.6444  144.1600  160.7365 H   0  0  0  0  0  0  0  0  0  0  0  0
  152.9481  141.9686  161.7969 H   0  0  0  0  0  0  0  0  0  0  0  0
  154.4856  142.5738  161.2215 H   0  0  0  0  0  0  0  0  0  0  0  0
  1  2  1  0  0  0  0
  1 25  1  0  0  0  0
  1 26  1  0  0  0  0
  1 27  1  0  0  0  0
  2  3  1  0  0  0  0
  2 28  1  0  0  0  0
  2 29  1  0  0  0  0
  3  4  1  0  0  0  0
  3  5  1  0  0  0  0
  3 19  1  0  0  0  0
  4 30  1  0  0  0  0
  4 31  1  0  0  0  0
  4 32  1  0  0  0  0
  5  6  1  0  0  0  0
  5 33  1  0  0  0  0
  5 34  1  0  0  0  0
  6  7  1  0  0  0  0
  6 35  1  0  0  0  0
  7  8  2  0  0  0  0
  7  9  1  0  0  0  0
  9 10  1  0  0  0  0
  9 36  1  0  0  0  0
  9 37  1  0  0  0  0
 10 17  1  0  0  0  0
 10 11  2  0  0  0  0
 11 12  1  0  0  0  0
 11 13  1  0  0  0  0
 12 38  1  0  0  0  0
 12 39  1  0  0  0  0
 12 40  1  0  0  0  0
 13 14  2  0  0  0  0
 14 15  1  0  0  0  0
 14 16  1  0  0  0  0
 15 41  1  0  0  0  0
 15 42  1  0  0  0  0
 15 43  1  0  0  0  0
 16 17  1  0  0  0  0
 17 18  2  0  0  0  0
 19 24  1  0  0  0  0
 19 20  1  0  0  0  0
 20 21  1  0  0  0  0
 20 44  1  0  0  0  0
 20 45  1  0  0  0  0
 21 22  1  0  0  0  0
 21 46  1  0  0  0  0
 21 47  1  0  0  0  0
 22 23  1  0  0  0  0
 23 24  1  0  0  0  0
 23 48  1  0  0  0  0
 23 49  1  0  0  0  0
 24 50  1  0  0  0  0
 24 51  1  0  0  0  0
M  CHG  1  16  -1
M  END
> <s_m_source_file>
AV-unprocessed.smi

> <i_m_source_file_index>
1492

> <i_lp_mmshare_version>
43012

> <i_f3d_flags>
0

> <s_epik_input>
W0NIMl0xW0NIMl1PW0NIMl1bQ0gyXU4xW0NAQF0oW0NIM10pKFtDSDJdW0NIM10pW0NIMl1bTkhdQyg9TylbQ0gyXWMyYyhbQ0gzXSluYyhbQ0gzXSlbbkhdYzI9Tw==

> <s_epik_cmdline>
J2VwaWtfcHl0aG9uJywgJy1waCcsICc3LjAnLCAnLXRuJywgJzgnLCAnLW1hJywgJzIwMCcsICctbWV0YWxfYmluZGluZycsICctaW1hZScsICc8aW5maWxlLm1hZT4nLCAnLW9tYWUnLCAnPG91dGZpbGUubWFlPic=

> <r_lp_tautomer_probability>
0.839158

> <r_epik_Ionization_Penalty>
6.88574

> <r_epik_Ionization_Penalty_Charging>
6.74373e-08

> <r_epik_Ionization_Penalty_Neutral>
6.88574

> <r_epik_State_Penalty>
4.79448

> <r_epik_Charging_Adjusted_Penalty>
4.79448

> <i_epik_Tot_Q>
-1

> <i_epik_Tot_abs_Q>
1

> <r_epik_Metal_State_Penalty>
1.16421

> <b_epik_Metal_Only>
1

> <s_lp_Force_Field>
OPLS_2005

> <r_lp_Energy>
46.4707

> <b_lp_Chiralities_Consistent>
1

> <s_lp_Variant>
AV-unprocessed.smi:1492-10

> <Gold.Version>
5.8.1

> <Gold.Id.Protein>
6NUR|6NUR_protein|mol2

> <Gold.PLP.Fitness>
36.2809

> <Gold.PLP.PLP>
-35.5537

> <Gold.PLP.part.hbond>
-1.0000

> <Gold.PLP.part.metal>
0.0000

> <Gold.PLP.part.buried>
-4.4412

> <Gold.PLP.part.nonpolar>
-30.1993

> <Gold.PLP.part.repulsive>
0.0620

> <Gold.PLP.ligand.clash>
0.0000

> <Gold.PLP.ligand.torsion>
1.2201

> <Gold.PLP.Chemscore.Hbond>
1.0000

> <Gold.PLP.Chemscore.CHOScore>
0.0000

> <Gold.PLP.Chemscore.Metal>
0.0000

> <Gold.Chemscore.Hbonds>
donor molecule, donor type, donor heavy atom, donor atom, acceptor molecule, acceptor atom, score
      P1  H  6896  6907       L1     8  0.71

> <Gold.PLP.Chemscore.Internal.Correction>
0.1674

> <Gold.Rescore>
     Score         DG    S(hbond)    S(metal)    S(lipo)     H(rot)  DE(clash)    DE(int)     intcor
     14.67     -15.87       1.00        0.00     105.04       2.05       0.04       1.16       ----

> <Gold.Chemscore.Fitness>
14.6716

> <Gold.Chemscore.DG>
-15.8711

> <Gold.Chemscore.ZeroCoef>
-5.4800

> <Gold.Chemscore.Hbond>
0.9999

> <Gold.Chemscore.Metal>
0.0000

> <Gold.Chemscore.Lipo>
105.0372

> <Gold.Chemscore.Internal_Hbond>
0.0000

> <Gold.Chemscore.DEClash>
0.0437

> <Gold.Chemscore.DEInternal>
1.1557

> <Gold.Chemscore.Rot>
2.0461

> <Gold.Chemscore.Internal.Correction>
   9.000000E+99

> <Gold.Chemscore.Hbonds>
donor molecule, donor type, donor heavy atom, donor atom, acceptor molecule, acceptor atom, score
      P1  H  6896  6907       L1     8  0.71

> <Gold.Chemscore.Hbond.Weighted>
-3.3398

> <Gold.Chemscore.Metal.Weighted>
-0.0000

> <Gold.Chemscore.Lipo.Weighted>
-12.2894

> <Gold.Chemscore.Internal_Hbond.Weighted>
0.0000

> <Gold.Chemscore.DEClash.Weighted>
0.0437

> <Gold.Chemscore.DEInternal.Weighted>
1.1557

> <Gold.Chemscore.Rot.Weighted>
5.2381

> <Gold.Chemscore.Internal.Correction.Weighted>
   9.000000E+99

> <Gold.Protein.RotatedTorsions>
[ 6907 6896 6895 6894 ] final   41.40 input  -60.11 | X-H torsion
[ 7974 7965 7964 7962 ] final   30.54 input  175.53 | X-H torsion
[ 8008 7997 7996 7995 ] final   48.67 input   59.86 | X-H torsion
[ 10167 10162 10161 10158 ] final  -77.51 input  -65.29 | X-H torsion
[ 10718 10713 10712 10709 ] final  -25.54 input   66.30 | X-H torsion
[ 10763 10752 10751 10750 ] final  -27.69 input  -60.55 | X-H torsion
[ 11005 11000 10999 10996 ] final   57.78 input  -57.11 | X-H torsion

> <Gold.Protein.ActiveResidues>
 VAL166  LYS551  ARG553  GLY616  TRP617  ASP618  TYR619  PRO620  LYS621  CYS622 
 ASP623  PHE694  ASN695  SER759  ASP760  ASP761  ALA762  ILE779  LEU786  VAL792 
 PHE793  MET794  SER795  GLU796  ALA797  LYS798  CYS799  TRP800  GLU811  SER814 

> <Gold.Protein.RotatedAtoms>
  152.1948  134.8640  160.0513 H   0  0  0  0  0  0  0  0  0  0  0  0  # atno 6907 bound_to 6896
  151.9515  133.3662  159.4010 H   0  0  0  0  0  0  0  0  0  0  0  0  # atno 6908 bound_to 6896
  150.6942  134.4259  159.5270 H   0  0  0  0  0  0  0  0  0  0  0  0  # atno 6909 bound_to 6896
  146.1606  139.6776  142.9036 H   0  0  0  0  0  0  0  0  0  0  0  0  # atno 7974 bound_to 7965
  155.3896  140.3432  155.4250 H   0  0  0  0  0  0  0  0  0  0  0  0  # atno 8008 bound_to 7997
  156.1565  140.1587  156.8717 H   0  0  0  0  0  0  0  0  0  0  0  0  # atno 8009 bound_to 7997
  154.5100  140.0792  156.7952 H   0  0  0  0  0  0  0  0  0  0  0  0  # atno 8010 bound_to 7997
  140.4763  143.2413  151.8127 H   0  0  0  0  0  0  0  0  0  0  0  0  # atno 10167 bound_to 10162
  156.4630  130.4508  149.6917 H   0  0  0  0  0  0  0  0  0  0  0  0  # atno 10718 bound_to 10713
  153.7362  135.6935  153.4977 H   0  0  0  0  0  0  0  0  0  0  0  0  # atno 10763 bound_to 10752
  153.2101  135.4406  155.0368 H   0  0  0  0  0  0  0  0  0  0  0  0  # atno 10764 bound_to 10752
  154.8236  135.3434  154.6890 H   0  0  0  0  0  0  0  0  0  0  0  0  # atno 10765 bound_to 10752
  140.0427  134.5850  155.9362 H   0  0  0  0  0  0  0  0  0  0  0  0  # atno 11005 bound_to 11000
  145.4598  141.0432  143.2757 LP  0  0  0  0  0  0  0  0  0  0  0  0  # atno 17320 bound_to 7965
  144.8021  139.6120  143.7067 LP  0  0  0  0  0  0  0  0  0  0  0  0  # atno 17321 bound_to 7965
  139.4826  144.4828  151.9284 LP  0  0  0  0  0  0  0  0  0  0  0  0  # atno 17342 bound_to 10162
  140.3914  144.2611  150.5899 LP  0  0  0  0  0  0  0  0  0  0  0  0  # atno 17343 bound_to 10162
  156.3697  130.7524  151.2506 LP  0  0  0  0  0  0  0  0  0  0  0  0  # atno 17370 bound_to 10713
  157.7496  131.0326  150.4236 LP  0  0  0  0  0  0  0  0  0  0  0  0  # atno 17371 bound_to 10713
  141.1891  133.6564  156.5353 LP  0  0  0  0  0  0  0  0  0  0  0  0  # atno 17394 bound_to 11000
  140.4043  134.7328  157.4799 LP  0  0  0  0  0  0  0  0  0  0  0  0  # atno 17395 bound_to 11000

$$$$
