AV-unprocessed.smi:1701|AV-procd|sdf|6823|dock9
  -GOLD-   22720 8 03D 1   1.00000     0.00000
 Structure written by MMmdl.
 55 57  0  0  0  0  0  0  0  0  3 V2000
  152.6785  141.9222  159.3249 C   0  0  0  0  0  0  0  0  0  0  0  0
  152.1675  141.0091  158.1995 C   0  0  0  0  0  0  0  0  0  0  0  0
  151.3321  141.7156  157.2288 N   0  0  0  0  0  0  0  0  0  0  0  0
  150.7052  142.9623  157.6742 C   0  0  0  0  0  0  0  0  0  0  0  0
  151.6561  144.1688  157.6166 C   0  0  0  0  0  0  0  0  0  0  0  0
  150.6238  140.8816  156.3341 C   0  0  0  0  0  0  0  0  0  0  0  0
  151.2587  139.8492  155.6045 C   0  0  0  0  0  0  0  0  0  0  0  0
  150.5015  139.0329  154.7403 C   0  0  0  0  0  0  0  0  0  0  0  0
  149.1127  139.2433  154.6098 C   0  0  0  0  0  0  0  0  0  0  0  0
  148.4025  138.3892  153.7214 N   0  0  0  0  0  0  0  0  0  0  0  0
  147.0893  138.3745  153.4155 C   0  0  0  0  0  0  0  0  0  0  0  0
  146.2510  139.1457  153.8746 O   0  0  0  0  0  0  0  0  0  0  0  0
  146.7394  137.4157  152.5395 N   0  0  0  0  0  0  0  0  0  0  0  0
  145.4101  137.1254  152.0007 C   0  0  2  0  0  0  0  0  0  0  0  0
  144.2516  137.4996  152.9468 C   0  0  0  0  0  0  0  0  0  0  0  0
  143.2159  136.3673  152.7955 C   0  0  0  0  0  0  0  0  0  0  0  0
  143.7446  135.4963  151.7287 N   0  3  2  0  0  0  0  0  0  0  0  0
  143.2906  134.0886  151.7184 C   0  0  0  0  0  0  0  0  0  0  0  0
  143.8902  133.3706  150.4923 C   0  0  0  0  0  0  0  0  0  0  0  0
  145.4240  133.5235  150.4320 C   0  0  0  0  0  0  0  0  0  0  0  0
  145.8404  135.0032  150.5403 C   0  0  0  0  0  0  0  0  0  0  0  0
  145.2081  135.6239  151.7967 C   0  0  1  0  0  0  0  0  0  0  0  0
  148.5250  140.2940  155.3555 C   0  0  0  0  0  0  0  0  0  0  0  0
  149.2890  141.0524  156.1707 N   0  3  0  0  0  0  0  0  0  0  0  0
  153.3134  141.3642  160.0133 H   0  0  0  0  0  0  0  0  0  0  0  0
  151.8549  142.3415  159.9039 H   0  0  0  0  0  0  0  0  0  0  0  0
  153.2676  142.7508  158.9308 H   0  0  0  0  0  0  0  0  0  0  0  0
  153.0200  140.5799  157.6722 H   0  0  0  0  0  0  0  0  0  0  0  0
  151.6345  140.1600  158.6252 H   0  0  0  0  0  0  0  0  0  0  0  0
  149.8098  143.1591  157.0833 H   0  0  0  0  0  0  0  0  0  0  0  0
  150.3637  142.8391  158.7026 H   0  0  0  0  0  0  0  0  0  0  0  0
  151.1595  145.0653  157.9883 H   0  0  0  0  0  0  0  0  0  0  0  0
  151.9958  144.3815  156.6034 H   0  0  0  0  0  0  0  0  0  0  0  0
  152.5377  144.0005  158.2358 H   0  0  0  0  0  0  0  0  0  0  0  0
  152.3222  139.6807  155.6889 H   0  0  0  0  0  0  0  0  0  0  0  0
  150.9906  138.2474  154.1827 H   0  0  0  0  0  0  0  0  0  0  0  0
  148.9595  137.6719  153.2813 H   0  0  0  0  0  0  0  0  0  0  0  0
  147.4877  136.8266  152.2025 H   0  0  0  0  0  0  0  0  0  0  0  0
  145.2725  137.6286  151.0413 H   0  0  0  0  0  0  0  0  0  0  0  0
  144.5859  137.5567  153.9838 H   0  0  0  0  0  0  0  0  0  0  0  0
  143.8302  138.4708  152.6850 H   0  0  0  0  0  0  0  0  0  0  0  0
  143.1352  135.8086  153.7294 H   0  0  0  0  0  0  0  0  0  0  0  0
  142.2244  136.7398  152.5368 H   0  0  0  0  0  0  0  0  0  0  0  0
  143.5968  133.5915  152.6401 H   0  0  0  0  0  0  0  0  0  0  0  0
  142.2013  134.0548  151.6793 H   0  0  0  0  0  0  0  0  0  0  0  0
  143.6195  132.3145  150.5083 H   0  0  0  0  0  0  0  0  0  0  0  0
  143.4530  133.7853  149.5830 H   0  0  0  0  0  0  0  0  0  0  0  0
  145.8760  132.9590  151.2484 H   0  0  0  0  0  0  0  0  0  0  0  0
  145.8086  133.0911  149.5078 H   0  0  0  0  0  0  0  0  0  0  0  0
  146.9271  135.0847  150.5831 H   0  0  0  0  0  0  0  0  0  0  0  0
  145.5191  135.5446  149.6494 H   0  0  0  0  0  0  0  0  0  0  0  0
  145.5613  135.0900  152.6825 H   0  0  0  0  0  0  0  0  0  0  0  0
  147.4821  140.5702  155.3390 H   0  0  0  0  0  0  0  0  0  0  0  0
  143.4613  135.9098  150.8517 H   0  0  0  0  0  0  0  0  0  0  0  0
  148.8320  141.7978  156.6967 H   0  0  0  0  0  0  0  0  0  0  0  0
  1  2  1  0  0  0  0
  1 25  1  0  0  0  0
  1 26  1  0  0  0  0
  1 27  1  0  0  0  0
  2  3  1  0  0  0  0
  2 28  1  0  0  0  0
  2 29  1  0  0  0  0
  3  4  1  0  0  0  0
  3  6  1  0  0  0  0
  4  5  1  0  0  0  0
  4 30  1  0  0  0  0
  4 31  1  0  0  0  0
  5 32  1  0  0  0  0
  5 33  1  0  0  0  0
  5 34  1  0  0  0  0
  6 24  1  0  0  0  0
  6  7  2  0  0  0  0
  7  8  1  0  0  0  0
  7 35  1  0  0  0  0
  8  9  2  0  0  0  0
  8 36  1  0  0  0  0
  9 10  1  0  0  0  0
  9 23  1  0  0  0  0
 10 11  1  0  0  0  0
 10 37  1  0  0  0  0
 11 12  2  0  0  0  0
 11 13  1  0  0  0  0
 13 14  1  0  0  0  0
 13 38  1  0  0  0  0
 14 22  1  0  0  0  0
 14 15  1  0  0  0  0
 14 39  1  0  0  0  0
 15 16  1  0  0  0  0
 15 40  1  0  0  0  0
 15 41  1  0  0  0  0
 16 17  1  0  0  0  0
 16 42  1  0  0  0  0
 16 43  1  0  0  0  0
 17 22  1  0  0  0  0
 17 18  1  0  0  0  0
 17 54  1  0  0  0  0
 18 19  1  0  0  0  0
 18 44  1  0  0  0  0
 18 45  1  0  0  0  0
 19 20  1  0  0  0  0
 19 46  1  0  0  0  0
 19 47  1  0  0  0  0
 20 21  1  0  0  0  0
 20 48  1  0  0  0  0
 20 49  1  0  0  0  0
 21 22  1  0  0  0  0
 21 50  1  0  0  0  0
 21 51  1  0  0  0  0
 22 52  1  0  0  0  0
 23 24  2  0  0  0  0
 23 53  1  0  0  0  0
 24 55  1  0  0  0  0
M  CHG  1  17   1
M  CHG  1  24   1
M  END
> <s_m_source_file>
AV-unprocessed.smi

> <i_m_source_file_index>
1701

> <i_lp_mmshare_version>
43012

> <i_f3d_flags>
0

> <s_epik_input>
W0NIM11bQ0gyXU4oW0NIMl1bQ0gzXSljMVtjSF1bY0hdYyhbY0hdbjEpW05IXUMoPU8pW05IXVtDQEhdKFtDSDJdW0NIMl0yKVtDQEBIXShOMjMpW0NIMl1bQ0gyXVtDSDJdW0NIMl0z

> <s_epik_cmdline>
J2VwaWtfcHl0aG9uJywgJy1waCcsICc3LjAnLCAnLXRuJywgJzgnLCAnLW1hJywgJzIwMCcsICctbWV0YWxfYmluZGluZycsICctaW1hZScsICc8aW5maWxlLm1hZT4nLCAnLW9tYWUnLCAnPG91dGZpbGUubWFlPic=

> <r_lp_tautomer_probability>
0.999994

> <r_epik_Ionization_Penalty>
0.302862

> <r_epik_Ionization_Penalty_Charging>
0.302842

> <r_epik_Ionization_Penalty_Neutral>
1.95166e-05

> <r_epik_State_Penalty>
0.019791

> <r_epik_Charging_Adjusted_Penalty>
0.322633

> <i_epik_Tot_Q>
2

> <i_epik_Tot_abs_Q>
2

> <r_epik_Metal_State_Penalty>
0.0536763

> <b_epik_Metal_Only>
0

> <s_lp_Force_Field>
OPLS_2005

> <r_lp_Energy>
62.5639

> <b_lp_Chiralities_Consistent>
1

> <s_lp_Variant>
AV-unprocessed.smi:1701-3

> <Gold.Version>
5.8.1

> <Gold.Id.Protein>
6NUR|6NUR_protein|mol2

> <Gold.PLP.Fitness>
45.5386

> <Gold.PLP.PLP>
-41.5154

> <Gold.PLP.part.hbond>
-2.0000

> <Gold.PLP.part.metal>
0.0000

> <Gold.PLP.part.buried>
-4.6392

> <Gold.PLP.part.nonpolar>
-35.9651

> <Gold.PLP.part.repulsive>
0.2234

> <Gold.PLP.ligand.clash>
0.0000

> <Gold.PLP.ligand.torsion>
1.3197

> <Gold.PLP.Chemscore.Hbond>
1.9280

> <Gold.PLP.Chemscore.CHOScore>
0.0000

> <Gold.PLP.Chemscore.Metal>
0.0000

> <Gold.Chemscore.Hbonds>
donor molecule, donor type, donor heavy atom, donor atom, acceptor molecule, acceptor atom, score
      L1  H    10    37       P1  7948  0.90
      L1  H    13    38       P1  7948  1.00

> <Gold.PLP.Chemscore.Internal.Correction>
0.8786

> <Gold.Rescore>
     Score         DG    S(hbond)    S(metal)    S(lipo)     H(rot)  DE(clash)    DE(int)     intcor
     16.67     -20.78       1.94        0.00     103.85       1.30       0.20       3.91       ----

> <Gold.Chemscore.Fitness>
16.6684

> <Gold.Chemscore.DG>
-20.7756

> <Gold.Chemscore.ZeroCoef>
-5.4800

> <Gold.Chemscore.Hbond>
1.9396

> <Gold.Chemscore.Metal>
0.0000

> <Gold.Chemscore.Lipo>
103.8497

> <Gold.Chemscore.Internal_Hbond>
0.0000

> <Gold.Chemscore.DEClash>
0.1991

> <Gold.Chemscore.DEInternal>
3.9081

> <Gold.Chemscore.Rot>
1.3020

> <Gold.Chemscore.Internal.Correction>
   9.000000E+99

> <Gold.Chemscore.Hbonds>
donor molecule, donor type, donor heavy atom, donor atom, acceptor molecule, acceptor atom, score
      L1  H    10    37       P1  7948  0.85
      L1  H    13    38       P1  7948  0.98

> <Gold.Chemscore.Hbond.Weighted>
-6.4782

> <Gold.Chemscore.Metal.Weighted>
-0.0000

> <Gold.Chemscore.Lipo.Weighted>
-12.1504

> <Gold.Chemscore.Internal_Hbond.Weighted>
0.0000

> <Gold.Chemscore.DEClash.Weighted>
0.1991

> <Gold.Chemscore.DEInternal.Weighted>
3.9081

> <Gold.Chemscore.Rot.Weighted>
3.3330

> <Gold.Chemscore.Internal.Correction.Weighted>
   9.000000E+99

> <Gold.Protein.RotatedTorsions>
[ 6907 6896 6895 6894 ] final  157.22 input  -60.11 | X-H torsion
[ 7974 7965 7964 7962 ] final  -70.57 input  175.53 | X-H torsion
[ 8008 7997 7996 7995 ] final   77.17 input   59.86 | X-H torsion
[ 10167 10162 10161 10158 ] final  128.64 input  -65.29 | X-H torsion
[ 10718 10713 10712 10709 ] final   95.22 input   66.30 | X-H torsion
[ 10763 10752 10751 10750 ] final  156.80 input  -60.55 | X-H torsion
[ 11005 11000 10999 10996 ] final -106.42 input  -57.11 | X-H torsion

> <Gold.Protein.ActiveResidues>
 VAL166  LYS551  ARG553  GLY616  TRP617  ASP618  TYR619  PRO620  LYS621  CYS622 
 ASP623  PHE694  ASN695  SER759  ASP760  ASP761  ALA762  ILE779  LEU786  VAL792 
 PHE793  MET794  SER795  GLU796  ALA797  LYS798  CYS799  TRP800  GLU811  SER814 

> <Gold.Protein.RotatedAtoms>
  152.0183  133.3888  159.4247 H   0  0  0  0  0  0  0  0  0  0  0  0  # atno 6907 bound_to 6896
  150.6892  134.3654  159.4978 H   0  0  0  0  0  0  0  0  0  0  0  0  # atno 6908 bound_to 6896
  152.1424  134.9052  160.0603 H   0  0  0  0  0  0  0  0  0  0  0  0  # atno 6909 bound_to 6896
  145.6892  140.9159  143.0790 H   0  0  0  0  0  0  0  0  0  0  0  0  # atno 7974 bound_to 7965
  155.8378  140.3463  155.5612 H   0  0  0  0  0  0  0  0  0  0  0  0  # atno 8008 bound_to 7997
  155.8174  140.0908  157.1889 H   0  0  0  0  0  0  0  0  0  0  0  0  # atno 8009 bound_to 7997
  154.4004  140.1436  156.3446 H   0  0  0  0  0  0  0  0  0  0  0  0  # atno 8010 bound_to 7997
  139.5517  144.6818  151.4304 H   0  0  0  0  0  0  0  0  0  0  0  0  # atno 10167 bound_to 10162
  157.6941  131.0538  150.4306 H   0  0  0  0  0  0  0  0  0  0  0  0  # atno 10718 bound_to 10713
  154.1901  135.2795  155.3024 H   0  0  0  0  0  0  0  0  0  0  0  0  # atno 10763 bound_to 10752
  154.5935  135.5552  153.7306 H   0  0  0  0  0  0  0  0  0  0  0  0  # atno 10764 bound_to 10752
  153.0114  135.6374  154.2040 H   0  0  0  0  0  0  0  0  0  0  0  0  # atno 10765 bound_to 10752
  141.1005  133.8892  157.1853 H   0  0  0  0  0  0  0  0  0  0  0  0  # atno 11005 bound_to 11000
  144.7002  139.8799  143.7446 LP  0  0  0  0  0  0  0  0  0  0  0  0  # atno 17320 bound_to 7965
  146.0896  139.3886  143.0414 LP  0  0  0  0  0  0  0  0  0  0  0  0  # atno 17321 bound_to 7965
  140.6781  143.8144  150.7085 LP  0  0  0  0  0  0  0  0  0  0  0  0  # atno 17342 bound_to 10162
  140.1589  143.4292  152.2080 LP  0  0  0  0  0  0  0  0  0  0  0  0  # atno 17343 bound_to 10162
  156.4673  130.4045  149.6539 LP  0  0  0  0  0  0  0  0  0  0  0  0  # atno 17370 bound_to 10713
  156.3633  130.7492  151.2467 LP  0  0  0  0  0  0  0  0  0  0  0  0  # atno 17371 bound_to 10713
  139.9856  135.0083  156.9853 LP  0  0  0  0  0  0  0  0  0  0  0  0  # atno 17394 bound_to 11000
  140.5033  134.1076  155.7255 LP  0  0  0  0  0  0  0  0  0  0  0  0  # atno 17395 bound_to 11000

$$$$
