AV-unprocessed.smi:942|AV-procd|sdf|4227|dock9
  -GOLD-   22720 2133D 1   1.00000     0.00000
 Structure written by MMmdl.
 42 44  0  0  0  0  0  0  0  0  1 V2000
  152.4303  139.7015  157.3495 O   0  0  0  0  0  0  0  0  0  0  0  0
  151.7134  140.5170  157.9301 C   0  0  0  0  0  0  0  0  0  0  0  0
  150.4483  140.2584  158.2915 N   0  0  0  0  0  0  0  0  0  0  0  0
  149.7610  138.9781  158.1197 C   0  0  2  0  0  0  0  0  0  0  0  0
  150.6260  137.8175  158.6570 C   0  0  0  0  0  0  0  0  0  0  0  0
  150.9973  136.9460  157.4489 C   0  0  0  0  0  0  0  0  0  0  0  0
  150.7457  137.8239  156.2244 C   0  0  0  0  0  0  0  0  0  0  0  0
  149.5224  138.6526  156.6288 C   0  0  2  0  0  0  0  0  0  0  0  0
  149.2426  139.8119  155.7855 N   0  0  0  0  0  0  0  0  0  0  0  0
  148.4210  140.9033  156.0527 C   0  0  0  0  0  0  0  0  0  0  0  0
  148.4932  141.7316  154.9559 C   0  0  0  0  0  0  0  0  0  0  0  0
  149.3595  141.1865  154.0127 N   0  0  0  0  0  0  0  0  0  0  0  0
  149.7699  140.0587  154.5770 C   0  0  0  0  0  0  0  0  0  0  0  0
  152.2519  141.9070  158.2922 C   0  0  0  0  0  0  0  0  0  0  0  0
  152.2613  142.1235  159.8204 C   0  0  0  0  0  0  0  0  0  0  0  0
  152.7881  143.5222  160.1820 C   0  0  0  0  0  0  0  0  0  0  0  0
  151.9769  144.6227  159.4798 C   0  0  0  0  0  0  0  0  0  0  0  0
  151.9530  144.4111  157.9578 C   0  0  0  0  0  0  0  0  0  0  0  0
  151.4268  143.0119  157.5990 C   0  0  0  0  0  0  0  0  0  0  0  0
  149.9334  140.9893  158.7611 H   0  0  0  0  0  0  0  0  0  0  0  0
  148.8001  139.0128  158.6366 H   0  0  0  0  0  0  0  0  0  0  0  0
  151.5292  138.1868  159.1454 H   0  0  0  0  0  0  0  0  0  0  0  0
  150.0836  137.2321  159.4001 H   0  0  0  0  0  0  0  0  0  0  0  0
  152.0244  136.5829  157.4965 H   0  0  0  0  0  0  0  0  0  0  0  0
  150.3416  136.0751  157.4125 H   0  0  0  0  0  0  0  0  0  0  0  0
  151.6116  138.4672  156.0622 H   0  0  0  0  0  0  0  0  0  0  0  0
  150.5812  137.2404  155.3181 H   0  0  0  0  0  0  0  0  0  0  0  0
  148.6502  137.9995  156.5642 H   0  0  0  0  0  0  0  0  0  0  0  0
  147.8614  141.0050  156.9705 H   0  0  0  0  0  0  0  0  0  0  0  0
  147.9967  142.6740  154.7771 H   0  0  0  0  0  0  0  0  0  0  0  0
  150.4657  139.3879  154.0946 H   0  0  0  0  0  0  0  0  0  0  0  0
  153.2810  141.9792  157.9348 H   0  0  0  0  0  0  0  0  0  0  0  0
  151.2547  142.0043  160.2244 H   0  0  0  0  0  0  0  0  0  0  0  0
  152.8794  141.3656  160.3035 H   0  0  0  0  0  0  0  0  0  0  0  0
  152.7519  143.6655  161.2622 H   0  0  0  0  0  0  0  0  0  0  0  0
  153.8372  143.6026  159.8945 H   0  0  0  0  0  0  0  0  0  0  0  0
  150.9559  144.6250  159.8635 H   0  0  0  0  0  0  0  0  0  0  0  0
  152.3976  145.6013  159.7129 H   0  0  0  0  0  0  0  0  0  0  0  0
  151.3321  145.1737  157.4867 H   0  0  0  0  0  0  0  0  0  0  0  0
  152.9580  144.5386  157.5538 H   0  0  0  0  0  0  0  0  0  0  0  0
  151.4549  142.8789  156.5164 H   0  0  0  0  0  0  0  0  0  0  0  0
  150.3780  142.9378  157.8915 H   0  0  0  0  0  0  0  0  0  0  0  0
  1  2  2  0  0  0  0
  2  3  1  0  0  0  0
  2 14  1  0  0  0  0
  3  4  1  0  0  0  0
  3 20  1  0  0  0  0
  4  8  1  0  0  0  0
  4  5  1  0  0  0  0
  4 21  1  0  0  0  0
  5  6  1  0  0  0  0
  5 22  1  0  0  0  0
  5 23  1  0  0  0  0
  6  7  1  0  0  0  0
  6 24  1  0  0  0  0
  6 25  1  0  0  0  0
  7  8  1  0  0  0  0
  7 26  1  0  0  0  0
  7 27  1  0  0  0  0
  8  9  1  0  0  0  0
  8 28  1  0  0  0  0
  9 13  1  0  0  0  0
  9 10  1  0  0  0  0
 10 11  2  0  0  0  0
 10 29  1  0  0  0  0
 11 12  1  0  0  0  0
 11 30  1  0  0  0  0
 12 13  2  0  0  0  0
 13 31  1  0  0  0  0
 14 19  1  0  0  0  0
 14 15  1  0  0  0  0
 14 32  1  0  0  0  0
 15 16  1  0  0  0  0
 15 33  1  0  0  0  0
 15 34  1  0  0  0  0
 16 17  1  0  0  0  0
 16 35  1  0  0  0  0
 16 36  1  0  0  0  0
 17 18  1  0  0  0  0
 17 37  1  0  0  0  0
 17 38  1  0  0  0  0
 18 19  1  0  0  0  0
 18 39  1  0  0  0  0
 18 40  1  0  0  0  0
 19 41  1  0  0  0  0
 19 42  1  0  0  0  0
M  END
> <s_m_source_file>
AV-unprocessed.smi

> <i_m_source_file_index>
942

> <i_lp_mmshare_version>
43012

> <i_f3d_flags>
0

> <s_epik_input>
W0NIMl0xW0NIMl1bQ0gyXVtDSDJdW0NIMl1bQ0hdMUMoPU8pW05IXVtDQEBIXTJbQ0gyXVtDSDJdW0NIMl1bQ0BIXTJuM1tjSF1bY0hdbltjSF0z

> <s_epik_cmdline>
J2VwaWtfcHl0aG9uJywgJy1waCcsICc3LjAnLCAnLXRuJywgJzgnLCAnLW1hJywgJzIwMCcsICctbWV0YWxfYmluZGluZycsICctaW1hZScsICc8aW5maWxlLm1hZT4nLCAnLW9tYWUnLCAnPG91dGZpbGUubWFlPic=

> <r_lp_tautomer_probability>
1

> <r_epik_Ionization_Penalty>
0.778458

> <r_epik_Ionization_Penalty_Charging>
0.778458

> <r_epik_Ionization_Penalty_Neutral>
2.79355e-08

> <r_epik_State_Penalty>
0.807804

> <r_epik_Charging_Adjusted_Penalty>
1.58626

> <i_epik_Tot_Q>
0

> <i_epik_Tot_abs_Q>
0

> <r_epik_Metal_State_Penalty>
0.343007

> <b_epik_Metal_Only>
0

> <s_lp_Force_Field>
OPLS_2005

> <r_lp_Energy>
33.2669

> <b_lp_Chiralities_Consistent>
1

> <s_lp_Variant>
AV-unprocessed.smi:942-7

> <Gold.Version>
5.8.1

> <Gold.Id.Protein>
6NUR|6NUR_protein|mol2

> <Gold.PLP.Fitness>
40.8872

> <Gold.PLP.PLP>
-33.7535

> <Gold.PLP.part.hbond>
-3.0000

> <Gold.PLP.part.metal>
0.0000

> <Gold.PLP.part.buried>
-2.9583

> <Gold.PLP.part.nonpolar>
-28.1449

> <Gold.PLP.part.repulsive>
1.3537

> <Gold.PLP.ligand.clash>
0.0000

> <Gold.PLP.ligand.torsion>
0.4900

> <Gold.PLP.Chemscore.Hbond>
1.8564

> <Gold.PLP.Chemscore.CHOScore>
0.8409

> <Gold.PLP.Chemscore.Metal>
0.0000

> <Gold.Chemscore.Hbonds>
donor molecule, donor type, donor heavy atom, donor atom, acceptor molecule, acceptor atom, score
      P1  H  7997  8008       L1     1  0.83
      P1  H  8011  8017       L1    12  0.62
      L1  C    11    30       P1  8028  0.84

> <Gold.PLP.Chemscore.Internal.Correction>
0.0216

> <Gold.Rescore>
     Score         DG    S(hbond)    S(metal)    S(lipo)     H(rot)  DE(clash)    DE(int)     intcor
     15.11     -18.64       1.77        0.00      93.51       1.44       0.57       2.95       ----

> <Gold.Chemscore.Fitness>
15.1148

> <Gold.Chemscore.DG>
-18.6403

> <Gold.Chemscore.ZeroCoef>
-5.4800

> <Gold.Chemscore.Hbond>
1.7679

> <Gold.Chemscore.Metal>
0.0000

> <Gold.Chemscore.Lipo>
93.5115

> <Gold.Chemscore.Internal_Hbond>
0.0000

> <Gold.Chemscore.DEClash>
0.5746

> <Gold.Chemscore.DEInternal>
2.9510

> <Gold.Chemscore.Rot>
1.4395

> <Gold.Chemscore.Internal.Correction>
   9.000000E+99

> <Gold.Chemscore.Hbonds>
donor molecule, donor type, donor heavy atom, donor atom, acceptor molecule, acceptor atom, score
      P1  H  7997  8008       L1     1  0.80
      P1  H  8011  8017       L1    12  0.56

> <Gold.Chemscore.Hbond.Weighted>
-5.9046

> <Gold.Chemscore.Metal.Weighted>
-0.0000

> <Gold.Chemscore.Lipo.Weighted>
-10.9408

> <Gold.Chemscore.Internal_Hbond.Weighted>
0.0000

> <Gold.Chemscore.DEClash.Weighted>
0.5746

> <Gold.Chemscore.DEInternal.Weighted>
2.9510

> <Gold.Chemscore.Rot.Weighted>
3.6852

> <Gold.Chemscore.Internal.Correction.Weighted>
   9.000000E+99

> <Gold.Protein.RotatedTorsions>
[ 6907 6896 6895 6894 ] final  -92.82 input  -60.11 | X-H torsion
[ 7974 7965 7964 7962 ] final  -79.81 input  175.53 | X-H torsion
[ 8008 7997 7996 7995 ] final  -64.17 input   59.86 | X-H torsion
[ 10167 10162 10161 10158 ] final  106.16 input  -65.29 | X-H torsion
[ 10718 10713 10712 10709 ] final  -62.17 input   66.30 | X-H torsion
[ 10763 10752 10751 10750 ] final  -88.17 input  -60.55 | X-H torsion
[ 11005 11000 10999 10996 ] final -172.84 input  -57.11 | X-H torsion

> <Gold.Protein.ActiveResidues>
 VAL166  LYS551  ARG553  GLY616  TRP617  ASP618  TYR619  PRO620  LYS621  CYS622 
 ASP623  PHE694  ASN695  SER759  ASP760  ASP761  ALA762  ILE779  LEU786  VAL792 
 PHE793  MET794  SER795  GLU796  ALA797  LYS798  CYS799  TRP800  GLU811  SER814 

> <Gold.Protein.RotatedAtoms>
  150.6912  134.2063  159.4341 H   0  0  0  0  0  0  0  0  0  0  0  0  # atno 6907 bound_to 6896
  152.0027  134.9917  160.0575 H   0  0  0  0  0  0  0  0  0  0  0  0  # atno 6908 bound_to 6896
  152.1564  133.4519  159.4875 H   0  0  0  0  0  0  0  0  0  0  0  0  # atno 6909 bound_to 6896
  145.5683  140.9470  143.1409 H   0  0  0  0  0  0  0  0  0  0  0  0  # atno 7974 bound_to 7965
  154.4596  140.0959  156.6856 H   0  0  0  0  0  0  0  0  0  0  0  0  # atno 8008 bound_to 7997
  155.5033  140.3474  155.4356 H   0  0  0  0  0  0  0  0  0  0  0  0  # atno 8009 bound_to 7997
  156.0845  140.1381  156.9659 H   0  0  0  0  0  0  0  0  0  0  0  0  # atno 8010 bound_to 7997
  139.7032  144.7091  151.1150 H   0  0  0  0  0  0  0  0  0  0  0  0  # atno 10167 bound_to 10162
  156.0873  130.4206  150.1097 H   0  0  0  0  0  0  0  0  0  0  0  0  # atno 10718 bound_to 10713
  154.6416  135.5387  153.7796 H   0  0  0  0  0  0  0  0  0  0  0  0  # atno 10763 bound_to 10752
  153.0337  135.6460  154.1151 H   0  0  0  0  0  0  0  0  0  0  0  0  # atno 10764 bound_to 10752
  154.1075  135.2929  155.3218 H   0  0  0  0  0  0  0  0  0  0  0  0  # atno 10765 bound_to 10752
  140.4924  134.5972  157.4959 H   0  0  0  0  0  0  0  0  0  0  0  0  # atno 11005 bound_to 11000
  144.7450  139.7345  143.7296 LP  0  0  0  0  0  0  0  0  0  0  0  0  # atno 17320 bound_to 7965
  146.1802  139.4991  142.9871 LP  0  0  0  0  0  0  0  0  0  0  0  0  # atno 17321 bound_to 7965
  140.7715  143.5394  150.9330 LP  0  0  0  0  0  0  0  0  0  0  0  0  # atno 17342 bound_to 10162
  139.9077  143.6758  152.3120 LP  0  0  0  0  0  0  0  0  0  0  0  0  # atno 17343 bound_to 10162
  156.9115  130.9653  151.3562 LP  0  0  0  0  0  0  0  0  0  0  0  0  # atno 17370 bound_to 10713
  157.6011  130.8513  149.8804 LP  0  0  0  0  0  0  0  0  0  0  0  0  # atno 17371 bound_to 10713
  139.9761  134.7213  155.9947 LP  0  0  0  0  0  0  0  0  0  0  0  0  # atno 17394 bound_to 11000
  141.1477  133.6553  156.3918 LP  0  0  0  0  0  0  0  0  0  0  0  0  # atno 17395 bound_to 11000

$$$$
