AV-unprocessed.smi:1021|AV-procd|sdf|4455|dock8
  -GOLD-   22720 2423D 1   1.00000     0.00000
 Structure written by MMmdl.
 42 44  0  0  0  0  0  0  0  0  1 V2000
  152.1191  137.1021  154.0936 O   0  0  0  0  0  0  0  0  0  0  0  0
  151.1105  137.8914  154.6871 C   0  0  0  0  0  0  0  0  0  0  0  0
  151.7242  139.1007  155.4070 C   0  0  0  0  0  0  0  0  0  0  0  0
  151.3026  139.2095  156.8825 C   0  0  0  0  0  0  0  0  0  0  0  0
  151.6709  140.5318  157.4895 C   0  0  0  0  0  0  0  0  0  0  0  0
  152.4348  140.6036  158.5804 N   0  0  0  0  0  0  0  0  0  0  0  0
  152.5076  141.9621  158.8149 C   0  0  0  0  0  0  0  0  0  0  0  0
  153.1684  142.6837  159.8350 C   0  0  0  0  0  0  0  0  0  0  0  0
  153.0980  144.0917  159.8740 C   0  0  0  0  0  0  0  0  0  0  0  0
  152.3674  144.7967  158.8958 C   0  0  0  0  0  0  0  0  0  0  0  0
  151.7022  144.0968  157.8709 C   0  0  0  0  0  0  0  0  0  0  0  0
  151.7762  142.6911  157.8354 C   0  0  0  0  0  0  0  0  0  0  0  0
  151.2515  141.7217  156.9847 N   0  0  0  0  0  0  0  0  0  0  0  0
  150.4322  141.9750  155.8051 C   0  0  0  0  0  0  0  0  0  0  0  0
  148.9753  141.4965  155.9631 C   0  0  1  0  0  0  0  0  0  0  0  0
  148.6768  141.3017  157.3324 O   0  0  0  0  0  0  0  0  0  0  0  0
  148.0050  142.4547  155.2898 C   0  0  0  0  0  0  0  0  0  0  0  0
  148.0708  142.6567  153.8943 C   0  0  0  0  0  0  0  0  0  0  0  0
  147.1810  143.5478  153.2630 C   0  0  0  0  0  0  0  0  0  0  0  0
  146.2219  144.2437  154.0238 C   0  0  0  0  0  0  0  0  0  0  0  0
  145.3663  145.0994  153.4164 F   0  0  0  0  0  0  0  0  0  0  0  0
  146.1545  144.0500  155.4168 C   0  0  0  0  0  0  0  0  0  0  0  0
  147.0446  143.1600  156.0486 C   0  0  0  0  0  0  0  0  0  0  0  0
  151.8304  136.8417  153.2322 H   0  0  0  0  0  0  0  0  0  0  0  0
  150.4008  138.2122  153.9239 H   0  0  0  0  0  0  0  0  0  0  0  0
  150.5617  137.2728  155.3975 H   0  0  0  0  0  0  0  0  0  0  0  0
  152.8096  139.0175  155.3515 H   0  0  0  0  0  0  0  0  0  0  0  0
  151.4670  140.0185  154.8765 H   0  0  0  0  0  0  0  0  0  0  0  0
  150.2226  139.0839  156.9689 H   0  0  0  0  0  0  0  0  0  0  0  0
  151.7420  138.3928  157.4522 H   0  0  0  0  0  0  0  0  0  0  0  0
  153.7290  142.1524  160.5896 H   0  0  0  0  0  0  0  0  0  0  0  0
  153.6060  144.6329  160.6586 H   0  0  0  0  0  0  0  0  0  0  0  0
  152.3168  145.8751  158.9330 H   0  0  0  0  0  0  0  0  0  0  0  0
  151.1387  144.6350  157.1236 H   0  0  0  0  0  0  0  0  0  0  0  0
  150.4480  143.0454  155.5978 H   0  0  0  0  0  0  0  0  0  0  0  0
  150.9021  141.5047  154.9413 H   0  0  0  0  0  0  0  0  0  0  0  0
  148.8671  140.5247  155.4833 H   0  0  0  0  0  0  0  0  0  0  0  0
  148.2169  142.0635  157.6503 H   0  0  0  0  0  0  0  0  0  0  0  0
  148.8051  142.1299  153.3024 H   0  0  0  0  0  0  0  0  0  0  0  0
  147.2349  143.6986  152.1951 H   0  0  0  0  0  0  0  0  0  0  0  0
  145.4208  144.5851  156.0013 H   0  0  0  0  0  0  0  0  0  0  0  0
  146.9880  143.0227  157.1186 H   0  0  0  0  0  0  0  0  0  0  0  0
  1  2  1  0  0  0  0
  1 24  1  0  0  0  0
  2  3  1  0  0  0  0
  2 25  1  0  0  0  0
  2 26  1  0  0  0  0
  3  4  1  0  0  0  0
  3 27  1  0  0  0  0
  3 28  1  0  0  0  0
  4  5  1  0  0  0  0
  4 29  1  0  0  0  0
  4 30  1  0  0  0  0
  5 13  1  0  0  0  0
  5  6  2  0  0  0  0
  6  7  1  0  0  0  0
  7 12  2  0  0  0  0
  7  8  1  0  0  0  0
  8  9  2  0  0  0  0
  8 31  1  0  0  0  0
  9 10  1  0  0  0  0
  9 32  1  0  0  0  0
 10 11  2  0  0  0  0
 10 33  1  0  0  0  0
 11 12  1  0  0  0  0
 11 34  1  0  0  0  0
 12 13  1  0  0  0  0
 13 14  1  0  0  0  0
 14 15  1  0  0  0  0
 14 35  1  0  0  0  0
 14 36  1  0  0  0  0
 15 16  1  0  0  0  0
 15 17  1  0  0  0  0
 15 37  1  0  0  0  0
 16 38  1  0  0  0  0
 17 23  1  0  0  0  0
 17 18  2  0  0  0  0
 18 19  1  0  0  0  0
 18 39  1  0  0  0  0
 19 20  2  0  0  0  0
 19 40  1  0  0  0  0
 20 21  1  0  0  0  0
 20 22  1  0  0  0  0
 22 23  2  0  0  0  0
 22 41  1  0  0  0  0
 23 42  1  0  0  0  0
M  END
> <s_m_source_file>
AV-unprocessed.smi

> <i_m_source_file_index>
1021

> <i_lp_mmshare_version>
43012

> <i_f3d_flags>
0

> <s_epik_input>
W09IXVtDSDJdW0NIMl1bQ0gyXWMobjEpbihjKGMxMilbY0hdW2NIXVtjSF1bY0hdMilbQ0gyXVtDQEhdKFtPSF0pYzNbY0hdW2NIXWMoRilbY0hdW2NIXTM=

> <s_epik_cmdline>
J2VwaWtfcHl0aG9uJywgJy1waCcsICc3LjAnLCAnLXRuJywgJzgnLCAnLW1hJywgJzIwMCcsICctbWV0YWxfYmluZGluZycsICctaW1hZScsICc8aW5maWxlLm1hZT4nLCAnLW9tYWUnLCAnPG91dGZpbGUubWFlPic=

> <r_epik_Ionization_Penalty>
0.182562

> <r_epik_Ionization_Penalty_Charging>
0

> <r_epik_Ionization_Penalty_Neutral>
0.182562

> <r_epik_State_Penalty>
0.172086

> <r_epik_Charging_Adjusted_Penalty>
0.172086

> <i_epik_Tot_Q>
0

> <i_epik_Tot_abs_Q>
0

> <r_epik_Metal_State_Penalty>
0.000199649

> <b_epik_Metal_Only>
0

> <s_lp_Force_Field>
OPLS_2005

> <r_lp_Energy>
11.397

> <b_lp_Chiralities_Consistent>
1

> <s_lp_Variant>
AV-unprocessed.smi:1021-2

> <Gold.Version>
5.8.1

> <Gold.Id.Protein>
6NUR|6NUR_protein|mol2

> <Gold.PLP.Fitness>
55.2007

> <Gold.PLP.PLP>
-50.6261

> <Gold.PLP.part.hbond>
-2.3992

> <Gold.PLP.part.metal>
0.0000

> <Gold.PLP.part.buried>
-5.6477

> <Gold.PLP.part.nonpolar>
-42.5153

> <Gold.PLP.part.repulsive>
0.0000

> <Gold.PLP.ligand.clash>
0.0000

> <Gold.PLP.ligand.torsion>
1.0855

> <Gold.PLP.Chemscore.Hbond>
2.2253

> <Gold.PLP.Chemscore.CHOScore>
0.0000

> <Gold.PLP.Chemscore.Metal>
0.0000

> <Gold.Chemscore.Hbonds>
donor molecule, donor type, donor heavy atom, donor atom, acceptor molecule, acceptor atom, score
      L1  H     1    24       P1  7949  0.96
      P1  H 10752 10763       L1     1  0.29

> <Gold.PLP.Chemscore.Internal.Correction>
0.0697

> <Gold.Rescore>
     Score         DG    S(hbond)    S(metal)    S(lipo)     H(rot)  DE(clash)    DE(int)     intcor
     17.36     -18.34       1.75        0.00     127.30       3.07       0.04       0.95       ----

> <Gold.Chemscore.Fitness>
17.3568

> <Gold.Chemscore.DG>
-18.3438

> <Gold.Chemscore.ZeroCoef>
-5.4800

> <Gold.Chemscore.Hbond>
1.7482

> <Gold.Chemscore.Metal>
0.0000

> <Gold.Chemscore.Lipo>
127.3042

> <Gold.Chemscore.Internal_Hbond>
0.0000

> <Gold.Chemscore.DEClash>
0.0396

> <Gold.Chemscore.DEInternal>
0.9475

> <Gold.Chemscore.Rot>
3.0741

> <Gold.Chemscore.Internal.Correction>
   9.000000E+99

> <Gold.Chemscore.Hbonds>
donor molecule, donor type, donor heavy atom, donor atom, acceptor molecule, acceptor atom, score
      L1  H     1    24       P1  7949  0.91

> <Gold.Chemscore.Hbond.Weighted>
-5.8390

> <Gold.Chemscore.Metal.Weighted>
-0.0000

> <Gold.Chemscore.Lipo.Weighted>
-14.8946

> <Gold.Chemscore.Internal_Hbond.Weighted>
0.0000

> <Gold.Chemscore.DEClash.Weighted>
0.0396

> <Gold.Chemscore.DEInternal.Weighted>
0.9475

> <Gold.Chemscore.Rot.Weighted>
7.8698

> <Gold.Chemscore.Internal.Correction.Weighted>
   9.000000E+99

> <Gold.Protein.RotatedTorsions>
[ 6907 6896 6895 6894 ] final   77.35 input  -60.11 | X-H torsion
[ 7974 7965 7964 7962 ] final  -46.13 input  175.53 | X-H torsion
[ 8008 7997 7996 7995 ] final   35.34 input   59.86 | X-H torsion
[ 10167 10162 10161 10158 ] final  140.63 input  -65.29 | X-H torsion
[ 10718 10713 10712 10709 ] final -139.17 input   66.30 | X-H torsion
[ 10763 10752 10751 10750 ] final   28.53 input  -60.55 | X-H torsion
[ 11005 11000 10999 10996 ] final   -8.03 input  -57.11 | X-H torsion

> <Gold.Protein.ActiveResidues>
 VAL166  LYS551  ARG553  GLY616  TRP617  ASP618  TYR619  PRO620  LYS621  CYS622 
 ASP623  PHE694  ASN695  SER759  ASP760  ASP761  ALA762  ILE779  LEU786  VAL792 
 PHE793  MET794  SER795  GLU796  ALA797  LYS798  CYS799  TRP800  GLU811  SER814 

> <Gold.Protein.RotatedAtoms>
  152.5113  134.3831  159.9357 H   0  0  0  0  0  0  0  0  0  0  0  0  # atno 6907 bound_to 6896
  151.3788  133.3822  159.2715 H   0  0  0  0  0  0  0  0  0  0  0  0  # atno 6908 bound_to 6896
  150.9520  134.8939  159.7737 H   0  0  0  0  0  0  0  0  0  0  0  0  # atno 6909 bound_to 6896
  145.9750  140.7343  142.9391 H   0  0  0  0  0  0  0  0  0  0  0  0  # atno 7974 bound_to 7965
  155.1695  140.3290  155.4395 H   0  0  0  0  0  0  0  0  0  0  0  0  # atno 8008 bound_to 7997
  156.2515  140.1946  156.6749 H   0  0  0  0  0  0  0  0  0  0  0  0  # atno 8009 bound_to 7997
  154.6348  140.0578  156.9761 H   0  0  0  0  0  0  0  0  0  0  0  0  # atno 8010 bound_to 7997
  139.5043  144.6222  151.6024 H   0  0  0  0  0  0  0  0  0  0  0  0  # atno 10167 bound_to 10162
  156.3077  130.7464  151.1532 H   0  0  0  0  0  0  0  0  0  0  0  0  # atno 10718 bound_to 10713
  153.0486  135.6511  154.0752 H   0  0  0  0  0  0  0  0  0  0  0  0  # atno 10763 bound_to 10752
  154.0445  135.2900  155.3351 H   0  0  0  0  0  0  0  0  0  0  0  0  # atno 10764 bound_to 10752
  154.6760  135.5338  153.8266 H   0  0  0  0  0  0  0  0  0  0  0  0  # atno 10765 bound_to 10752
  140.7191  133.8844  155.8807 H   0  0  0  0  0  0  0  0  0  0  0  0  # atno 11005 bound_to 11000
  144.6846  140.2812  143.7292 LP  0  0  0  0  0  0  0  0  0  0  0  0  # atno 17320 bound_to 7965
  145.7852  139.1906  143.2135 LP  0  0  0  0  0  0  0  0  0  0  0  0  # atno 17321 bound_to 7965
  140.5928  143.9750  150.6335 LP  0  0  0  0  0  0  0  0  0  0  0  0  # atno 17342 bound_to 10162
  140.2936  143.3308  152.1039 LP  0  0  0  0  0  0  0  0  0  0  0  0  # atno 17343 bound_to 10162
  157.7383  131.0542  150.5300 LP  0  0  0  0  0  0  0  0  0  0  0  0  # atno 17370 bound_to 10713
  156.5436  130.4214  149.6142 LP  0  0  0  0  0  0  0  0  0  0  0  0  # atno 17371 bound_to 10713
  141.0019  134.1139  157.4309 LP  0  0  0  0  0  0  0  0  0  0  0  0  # atno 17394 bound_to 11000
  139.8852  135.0070  156.6422 LP  0  0  0  0  0  0  0  0  0  0  0  0  # atno 17395 bound_to 11000

$$$$
