AV-unprocessed.smi:2152|AV-procd|sdf|8762|dock6
  -GOLD-   2272011543D 1   1.00000     0.00000
 Structure written by MMmdl.
 41 42  0  0  0  0  0  0  0  0  1 V2000
  151.4948  140.2541  158.9820 C   0  0  0  0  0  0  0  0  0  0  0  0
  152.0428  141.6531  158.6468 C   0  0  2  0  0  0  0  0  0  0  0  0
  152.5615  142.3510  159.9204 C   0  0  0  0  0  0  0  0  0  0  0  0
  153.1216  143.7494  159.6198 C   0  0  0  0  0  0  0  0  0  0  0  0
  152.0722  144.6245  158.9211 C   0  0  0  0  0  0  0  0  0  0  0  0
  151.5572  143.9501  157.6415 C   0  0  0  0  0  0  0  0  0  0  0  0
  150.9980  142.5406  157.9256 C   0  0  1  0  0  0  0  0  0  0  0  0
  150.5819  141.9175  156.6713 N   0  0  0  0  0  0  0  0  0  0  0  0
  149.3226  141.5940  156.3413 C   0  0  0  0  0  0  0  0  0  0  0  0
  148.3523  141.8213  157.0652 O   0  0  0  0  0  0  0  0  0  0  0  0
  149.1352  140.9321  154.9700 C   0  0  0  0  0  0  0  0  0  0  0  0
  149.6380  139.5532  154.9320 N   0  0  0  0  0  0  0  0  0  0  0  0
  148.7453  138.4980  154.8838 C   0  0  0  0  0  0  0  0  0  0  0  0
  149.1253  137.2016  154.8635 C   0  0  0  0  0  0  0  0  0  0  0  0
  150.5360  136.8337  154.8882 C   0  0  0  0  0  0  0  0  0  0  0  0
  150.9238  135.6649  154.8887 O   0  0  0  0  0  0  0  0  0  0  0  0
  151.4279  137.9328  154.9235 N   0  0  0  0  0  0  0  0  0  0  0  0
  152.8521  137.6731  154.9671 C   0  0  0  0  0  0  0  0  0  0  0  0
  151.0237  139.2858  154.9610 C   0  0  0  0  0  0  0  0  0  0  0  0
  151.8408  140.2083  155.0230 O   0  0  0  0  0  0  0  0  0  0  0  0
  150.6192  140.3180  159.6289 H   0  0  0  0  0  0  0  0  0  0  0  0
  152.2444  139.6530  159.4974 H   0  0  0  0  0  0  0  0  0  0  0  0
  151.2048  139.7073  158.0845 H   0  0  0  0  0  0  0  0  0  0  0  0
  152.8935  141.5188  157.9764 H   0  0  0  0  0  0  0  0  0  0  0  0
  151.7542  142.4339  160.6495 H   0  0  0  0  0  0  0  0  0  0  0  0
  153.3367  141.7437  160.3890 H   0  0  0  0  0  0  0  0  0  0  0  0
  153.4464  144.2263  160.5449 H   0  0  0  0  0  0  0  0  0  0  0  0
  154.0068  143.6626  158.9884 H   0  0  0  0  0  0  0  0  0  0  0  0
  151.2379  144.8096  159.5989 H   0  0  0  0  0  0  0  0  0  0  0  0
  152.4996  145.5986  158.6818 H   0  0  0  0  0  0  0  0  0  0  0  0
  150.7877  144.5748  157.1862 H   0  0  0  0  0  0  0  0  0  0  0  0
  152.3701  143.8853  156.9168 H   0  0  0  0  0  0  0  0  0  0  0  0
  150.1323  142.6388  158.5842 H   0  0  0  0  0  0  0  0  0  0  0  0
  151.3131  141.6991  156.0100 H   0  0  0  0  0  0  0  0  0  0  0  0
  148.0716  140.9483  154.7281 H   0  0  0  0  0  0  0  0  0  0  0  0
  149.6227  141.5284  154.1962 H   0  0  0  0  0  0  0  0  0  0  0  0
  147.6877  138.7181  154.8685 H   0  0  0  0  0  0  0  0  0  0  0  0
  148.3751  136.4254  154.8316 H   0  0  0  0  0  0  0  0  0  0  0  0
  153.3476  138.3640  154.2826 H   0  0  0  0  0  0  0  0  0  0  0  0
  153.0695  136.6554  154.6431 H   0  0  0  0  0  0  0  0  0  0  0  0
  153.1717  137.8332  155.9979 H   0  0  0  0  0  0  0  0  0  0  0  0
  1  2  1  0  0  0  0
  1 21  1  0  0  0  0
  1 22  1  0  0  0  0
  1 23  1  0  0  0  0
  2  7  1  0  0  0  0
  2  3  1  0  0  0  0
  2 24  1  0  0  0  0
  3  4  1  0  0  0  0
  3 25  1  0  0  0  0
  3 26  1  0  0  0  0
  4  5  1  0  0  0  0
  4 27  1  0  0  0  0
  4 28  1  0  0  0  0
  5  6  1  0  0  0  0
  5 29  1  0  0  0  0
  5 30  1  0  0  0  0
  6  7  1  0  0  0  0
  6 31  1  0  0  0  0
  6 32  1  0  0  0  0
  7  8  1  0  0  0  0
  7 33  1  0  0  0  0
  8  9  1  0  0  0  0
  8 34  1  0  0  0  0
  9 10  2  0  0  0  0
  9 11  1  0  0  0  0
 11 12  1  0  0  0  0
 11 35  1  0  0  0  0
 11 36  1  0  0  0  0
 12 19  1  0  0  0  0
 12 13  1  0  0  0  0
 13 14  2  0  0  0  0
 13 37  1  0  0  0  0
 14 15  1  0  0  0  0
 14 38  1  0  0  0  0
 15 16  2  0  0  0  0
 15 17  1  0  0  0  0
 17 18  1  0  0  0  0
 17 19  1  0  0  0  0
 18 39  1  0  0  0  0
 18 40  1  0  0  0  0
 18 41  1  0  0  0  0
 19 20  2  0  0  0  0
M  END
> <s_m_source_file>
AV-unprocessed.smi

> <i_m_source_file_index>
2152

> <i_lp_mmshare_version>
43012

> <i_f3d_flags>
0

> <s_epik_input>
W0NIM11bQ0BASF0xW0NIMl1bQ0gyXVtDSDJdW0NIMl1bQ0BIXTFbTkhdQyg9TylbQ0gyXW4yW2NIXVtjSF1jKD1PKW4oW0NIM10pYzI9Tw==

> <s_epik_cmdline>
J2VwaWtfcHl0aG9uJywgJy1waCcsICc3LjAnLCAnLXRuJywgJzgnLCAnLW1hJywgJzIwMCcsICctbWV0YWxfYmluZGluZycsICctaW1hZScsICc8aW5maWxlLm1hZT4nLCAnLW9tYWUnLCAnPG91dGZpbGUubWFlPic=

> <r_lp_tautomer_probability>
1

> <r_epik_Ionization_Penalty>
3.20555e-08

> <r_epik_Ionization_Penalty_Charging>
1.30086e-08

> <r_epik_Ionization_Penalty_Neutral>
1.90469e-08

> <r_epik_State_Penalty>
-0

> <r_epik_Charging_Adjusted_Penalty>
1.30086e-08

> <i_epik_Tot_Q>
0

> <i_epik_Tot_abs_Q>
0

> <r_epik_Metal_State_Penalty>
-0

> <b_epik_Metal_Only>
0

> <s_lp_Force_Field>
OPLS_2005

> <r_lp_Energy>
17.5308

> <b_lp_Chiralities_Consistent>
1

> <s_lp_Variant>
AV-unprocessed.smi:2152-1

> <Gold.Version>
5.8.1

> <Gold.Id.Protein>
6NUR|6NUR_protein|mol2

> <Gold.PLP.Fitness>
41.7013

> <Gold.PLP.PLP>
-36.6613

> <Gold.PLP.part.hbond>
-1.8901

> <Gold.PLP.part.metal>
0.0000

> <Gold.PLP.part.buried>
-0.3409

> <Gold.PLP.part.nonpolar>
-35.5648

> <Gold.PLP.part.repulsive>
0.3978

> <Gold.PLP.ligand.clash>
0.0000

> <Gold.PLP.ligand.torsion>
0.2562

> <Gold.PLP.Chemscore.Hbond>
1.8480

> <Gold.PLP.Chemscore.CHOScore>
0.0000

> <Gold.PLP.Chemscore.Metal>
0.0000

> <Gold.Chemscore.Hbonds>
donor molecule, donor type, donor heavy atom, donor atom, acceptor molecule, acceptor atom, score
      P1  H  7989  7998       L1    20  0.86
      P1  H 10752 10765       L1    16  1.00

> <Gold.PLP.Chemscore.Internal.Correction>
0.0085

> <Gold.Rescore>
     Score         DG    S(hbond)    S(metal)    S(lipo)     H(rot)  DE(clash)    DE(int)     intcor
     15.28     -17.88       1.86        0.00      86.19       1.52       0.87       1.73       ----

> <Gold.Chemscore.Fitness>
15.2797

> <Gold.Chemscore.DG>
-17.8804

> <Gold.Chemscore.ZeroCoef>
-5.4800

> <Gold.Chemscore.Hbond>
1.8618

> <Gold.Chemscore.Metal>
0.0000

> <Gold.Chemscore.Lipo>
86.1857

> <Gold.Chemscore.Internal_Hbond>
0.0000

> <Gold.Chemscore.DEClash>
0.8667

> <Gold.Chemscore.DEInternal>
1.7339

> <Gold.Chemscore.Rot>
1.5242

> <Gold.Chemscore.Internal.Correction>
   9.000000E+99

> <Gold.Chemscore.Hbonds>
donor molecule, donor type, donor heavy atom, donor atom, acceptor molecule, acceptor atom, score
      P1  H  7989  7998       L1    20  0.25
      P1  H 10752 10765       L1    16  0.73

> <Gold.Chemscore.Hbond.Weighted>
-6.2185

> <Gold.Chemscore.Metal.Weighted>
-0.0000

> <Gold.Chemscore.Lipo.Weighted>
-10.0837

> <Gold.Chemscore.Internal_Hbond.Weighted>
0.0000

> <Gold.Chemscore.DEClash.Weighted>
0.8667

> <Gold.Chemscore.DEInternal.Weighted>
1.7339

> <Gold.Chemscore.Rot.Weighted>
3.9019

> <Gold.Chemscore.Internal.Correction.Weighted>
   9.000000E+99

> <Gold.Protein.RotatedTorsions>
[ 6907 6896 6895 6894 ] final   88.48 input  -60.11 | X-H torsion
[ 7974 7965 7964 7962 ] final  -90.47 input  175.53 | X-H torsion
[ 8008 7997 7996 7995 ] final   26.80 input   59.86 | X-H torsion
[ 10167 10162 10161 10158 ] final -117.32 input  -65.29 | X-H torsion
[ 10718 10713 10712 10709 ] final  162.02 input   66.30 | X-H torsion
[ 10763 10752 10751 10750 ] final  178.96 input  -60.55 | X-H torsion
[ 11005 11000 10999 10996 ] final   59.85 input  -57.11 | X-H torsion

> <Gold.Protein.ActiveResidues>
 VAL166  LYS551  ARG553  GLY616  TRP617  ASP618  TYR619  PRO620  LYS621  CYS622 
 ASP623  PHE694  ASN695  SER759  ASP760  ASP761  ALA762  ILE779  LEU786  VAL792 
 PHE793  MET794  SER795  GLU796  ALA797  LYS798  CYS799  TRP800  GLU811  SER814 

> <Gold.Protein.RotatedAtoms>
  152.5425  134.2115  159.8751 H   0  0  0  0  0  0  0  0  0  0  0  0  # atno 6907 bound_to 6896
  151.2098  133.4556  159.2605 H   0  0  0  0  0  0  0  0  0  0  0  0  # atno 6908 bound_to 6896
  151.0908  134.9928  159.8457 H   0  0  0  0  0  0  0  0  0  0  0  0  # atno 6909 bound_to 6896
  145.4261  140.9553  143.2154 H   0  0  0  0  0  0  0  0  0  0  0  0  # atno 7974 bound_to 7965
  155.0330  140.3160  155.4751 H   0  0  0  0  0  0  0  0  0  0  0  0  # atno 8008 bound_to 7997
  156.2870  140.2177  156.5394 H   0  0  0  0  0  0  0  0  0  0  0  0  # atno 8009 bound_to 7997
  154.7354  140.0478  157.0752 H   0  0  0  0  0  0  0  0  0  0  0  0  # atno 8010 bound_to 7997
  140.0696  143.4890  152.1987 H   0  0  0  0  0  0  0  0  0  0  0  0  # atno 10167 bound_to 10162
  157.1284  131.0510  151.2383 H   0  0  0  0  0  0  0  0  0  0  0  0  # atno 10718 bound_to 10713
  154.5145  135.2790  155.1315 H   0  0  0  0  0  0  0  0  0  0  0  0  # atno 10763 bound_to 10752
  154.2897  135.6269  153.5384 H   0  0  0  0  0  0  0  0  0  0  0  0  # atno 10764 bound_to 10752
  152.9925  135.5671  154.5618 H   0  0  0  0  0  0  0  0  0  0  0  0  # atno 10765 bound_to 10752
  140.0274  134.6062  155.9554 H   0  0  0  0  0  0  0  0  0  0  0  0  # atno 11005 bound_to 11000
  144.8213  139.5786  143.6985 LP  0  0  0  0  0  0  0  0  0  0  0  0  # atno 17320 bound_to 7965
  146.2631  139.6457  142.9348 LP  0  0  0  0  0  0  0  0  0  0  0  0  # atno 17321 bound_to 7965
  139.5844  144.7524  151.3557 LP  0  0  0  0  0  0  0  0  0  0  0  0  # atno 17342 bound_to 10162
  140.7132  143.7335  150.7606 LP  0  0  0  0  0  0  0  0  0  0  0  0  # atno 17343 bound_to 10162
  157.4414  130.7546  149.7072 LP  0  0  0  0  0  0  0  0  0  0  0  0  # atno 17370 bound_to 10713
  155.9813  130.4021  150.3479 LP  0  0  0  0  0  0  0  0  0  0  0  0  # atno 17371 bound_to 10713
  141.1811  133.6547  156.5023 LP  0  0  0  0  0  0  0  0  0  0  0  0  # atno 17394 bound_to 11000
  140.4283  134.7125  157.4928 LP  0  0  0  0  0  0  0  0  0  0  0  0  # atno 17395 bound_to 11000

$$$$
