AV-unprocessed.smi:2973|AV-procd|sdf|11352|dock1
  -GOLD-   2272016273D 1   1.00000     0.00000
 Structure written by MMmdl.
 49 51  0  0  0  0  0  0  0  0  3 V2000
  145.0881  138.0831  159.9470 C   0  0  0  0  0  0  0  0  0  0  0  0
  145.3251  137.2439  161.2221 C   0  0  1  0  0  0  0  0  0  0  0  0
  144.0665  136.4063  161.5428 C   0  0  0  0  0  0  0  0  0  0  0  0
  144.2222  135.6111  162.8472 C   0  0  0  0  0  0  0  0  0  0  0  0
  145.4602  134.7070  162.8020 C   0  0  0  0  0  0  0  0  0  0  0  0
  146.7278  135.5237  162.4968 C   0  0  0  0  0  0  0  0  0  0  0  0
  146.6225  136.3673  161.1974 C   0  0  2  0  0  0  0  0  0  0  0  0
  147.8015  137.2112  161.1015 N   0  5  0  0  0  0  0  0  0  0  0  0
  148.5029  136.8697  159.9961 C   0  0  0  0  0  0  0  0  0  0  0  0
  149.5630  137.3654  159.6150 O   0  0  0  0  0  0  0  0  0  0  0  0
  147.8908  135.8786  159.3218 N   0  0  0  0  0  0  0  0  0  0  0  0
  148.3993  135.2657  158.0877 C   0  0  0  0  0  0  0  0  0  0  0  0
  147.4388  135.4237  156.9011 C   0  0  0  0  0  0  0  0  0  0  0  0
  146.5412  136.2674  156.9194 O   0  0  0  0  0  0  0  0  0  0  0  0
  147.6529  134.6064  155.8593 N   0  0  0  0  0  0  0  0  0  0  0  0
  146.8556  134.5817  154.6392 C   0  0  0  0  0  0  0  0  0  0  0  0
  146.4786  133.1451  154.2393 C   0  0  0  0  0  0  0  0  0  0  0  0
  145.8394  133.0809  152.8661 C   0  0  0  0  0  0  0  0  0  0  0  0
  146.5747  133.3164  151.6841 C   0  0  0  0  0  0  0  0  0  0  0  0
  145.9201  133.2343  150.4371 C   0  0  0  0  0  0  0  0  0  0  0  0
  144.5463  132.9171  150.3985 C   0  0  0  0  0  0  0  0  0  0  0  0
  143.8611  132.6895  151.6095 C   0  0  0  0  0  0  0  0  0  0  0  0
  144.5235  132.7778  152.7840 N   0  3  0  0  0  0  0  0  0  0  0  0
  146.7712  135.5003  159.9483 C   0  0  0  0  0  0  0  0  0  0  0  0
  145.9877  134.6161  159.5997 O   0  0  0  0  0  0  0  0  0  0  0  0
  144.9044  137.4547  159.0753 H   0  0  0  0  0  0  0  0  0  0  0  0
  145.9403  138.7244  159.7225 H   0  0  0  0  0  0  0  0  0  0  0  0
  144.2215  138.7335  160.0668 H   0  0  0  0  0  0  0  0  0  0  0  0
  145.4397  137.9579  162.0399 H   0  0  0  0  0  0  0  0  0  0  0  0
  143.1994  137.0619  161.6277 H   0  0  0  0  0  0  0  0  0  0  0  0
  143.8465  135.7227  160.7225 H   0  0  0  0  0  0  0  0  0  0  0  0
  144.3041  136.3014  163.6878 H   0  0  0  0  0  0  0  0  0  0  0  0
  143.3299  135.0104  163.0252 H   0  0  0  0  0  0  0  0  0  0  0  0
  145.5762  134.1937  163.7568 H   0  0  0  0  0  0  0  0  0  0  0  0
  145.3214  133.9267  162.0540 H   0  0  0  0  0  0  0  0  0  0  0  0
  146.9243  136.1850  163.3426 H   0  0  0  0  0  0  0  0  0  0  0  0
  147.5836  134.8483  162.4451 H   0  0  0  0  0  0  0  0  0  0  0  0
  149.3604  135.7027  157.8125 H   0  0  0  0  0  0  0  0  0  0  0  0
  148.5966  134.2063  158.2616 H   0  0  0  0  0  0  0  0  0  0  0  0
  148.4162  133.9484  155.9239 H   0  0  0  0  0  0  0  0  0  0  0  0
  145.9594  135.1910  154.7685 H   0  0  0  0  0  0  0  0  0  0  0  0
  147.4389  135.0505  153.8464 H   0  0  0  0  0  0  0  0  0  0  0  0
  147.3650  132.5092  154.2474 H   0  0  0  0  0  0  0  0  0  0  0  0
  145.7891  132.7174  154.9685 H   0  0  0  0  0  0  0  0  0  0  0  0
  147.6275  133.5560  151.7308 H   0  0  0  0  0  0  0  0  0  0  0  0
  146.4656  133.4114  149.5215 H   0  0  0  0  0  0  0  0  0  0  0  0
  144.0261  132.8495  149.4543 H   0  0  0  0  0  0  0  0  0  0  0  0
  142.8116  132.4418  151.6742 H   0  0  0  0  0  0  0  0  0  0  0  0
  144.0070  132.6090  153.6476 H   0  0  0  0  0  0  0  0  0  0  0  0
  1  2  1  0  0  0  0
  1 26  1  0  0  0  0
  1 27  1  0  0  0  0
  1 28  1  0  0  0  0
  2  7  1  0  0  0  0
  2  3  1  0  0  0  0
  2 29  1  0  0  0  0
  3  4  1  0  0  0  0
  3 30  1  0  0  0  0
  3 31  1  0  0  0  0
  4  5  1  0  0  0  0
  4 32  1  0  0  0  0
  4 33  1  0  0  0  0
  5  6  1  0  0  0  0
  5 34  1  0  0  0  0
  5 35  1  0  0  0  0
  6  7  1  0  0  0  0
  6 36  1  0  0  0  0
  6 37  1  0  0  0  0
  7 24  1  0  0  0  0
  7  8  1  0  0  0  0
  8  9  1  0  0  0  0
  9 10  2  0  0  0  0
  9 11  1  0  0  0  0
 11 12  1  0  0  0  0
 11 24  1  0  0  0  0
 12 13  1  0  0  0  0
 12 38  1  0  0  0  0
 12 39  1  0  0  0  0
 13 14  2  0  0  0  0
 13 15  1  0  0  0  0
 15 16  1  0  0  0  0
 15 40  1  0  0  0  0
 16 17  1  0  0  0  0
 16 41  1  0  0  0  0
 16 42  1  0  0  0  0
 17 18  1  0  0  0  0
 17 43  1  0  0  0  0
 17 44  1  0  0  0  0
 18 23  1  0  0  0  0
 18 19  2  0  0  0  0
 19 20  1  0  0  0  0
 19 45  1  0  0  0  0
 20 21  2  0  0  0  0
 20 46  1  0  0  0  0
 21 22  1  0  0  0  0
 21 47  1  0  0  0  0
 22 23  2  0  0  0  0
 22 48  1  0  0  0  0
 23 49  1  0  0  0  0
 24 25  2  0  0  0  0
M  CHG  1   8  -1
M  CHG  1  23   1
M  END
> <s_m_source_file>
AV-unprocessed.smi

> <i_m_source_file_index>
2973

> <i_lp_mmshare_version>
43012

> <i_f3d_flags>
0

> <s_epik_input>
W0NIMl0xW0NIMl1bQ0gyXVtDSDJdW0NAQEhdKFtDSDNdKVtDQF0xMltOSF1DKD1PKU4oQzI9TylbQ0gyXUMoPU8pW05IXVtDSDJdW0NIMl1jM1tjSF1bY0hdW2NIXVtjSF1uMw==

> <s_epik_cmdline>
J2VwaWtfcHl0aG9uJywgJy1waCcsICc3LjAnLCAnLXRuJywgJzgnLCAnLW1hJywgJzIwMCcsICctbWV0YWxfYmluZGluZycsICctaW1hZScsICc8aW5maWxlLm1hZT4nLCAnLW9tYWUnLCAnPG91dGZpbGUubWFlPic=

> <r_lp_tautomer_probability>
1

> <r_epik_Ionization_Penalty>
7.89073

> <r_epik_Ionization_Penalty_Charging>
7.89073

> <r_epik_Ionization_Penalty_Neutral>
1.56557e-07

> <r_epik_State_Penalty>
8.01193

> <r_epik_Charging_Adjusted_Penalty>
15.9027

> <i_epik_Tot_Q>
0

> <i_epik_Tot_abs_Q>
2

> <r_epik_Metal_State_Penalty>
3.98737

> <b_epik_Metal_Only>
1

> <s_lp_Force_Field>
OPLS_2005

> <r_lp_Energy>
17.432

> <b_lp_Chiralities_Consistent>
1

> <s_lp_Variant>
AV-unprocessed.smi:2973-16

> <Gold.Version>
5.8.1

> <Gold.Id.Protein>
6NUR|6NUR_protein|mol2

> <Gold.PLP.Fitness>
49.2880

> <Gold.PLP.PLP>
-33.2584

> <Gold.PLP.part.hbond>
-3.9753

> <Gold.PLP.part.metal>
0.0000

> <Gold.PLP.part.buried>
-4.4321

> <Gold.PLP.part.nonpolar>
-25.1382

> <Gold.PLP.part.repulsive>
0.0000

> <Gold.PLP.ligand.clash>
0.0000

> <Gold.PLP.ligand.torsion>
0.4229

> <Gold.PLP.Chemscore.Hbond>
5.6177

> <Gold.PLP.Chemscore.CHOScore>
0.0000

> <Gold.PLP.Chemscore.Metal>
0.0000

> <Gold.Chemscore.Hbonds>
donor molecule, donor type, donor heavy atom, donor atom, acceptor molecule, acceptor atom, score
      L1  H    23    49       P1 10957  2.00
      P1  H  6931  6943       L1     8  1.76
      P1  H  6934  6947       L1     8  1.63

> <Gold.PLP.Chemscore.Internal.Correction>
0.0223

> <Gold.Rescore>
     Score         DG    S(hbond)    S(metal)    S(lipo)     H(rot)  DE(clash)    DE(int)     intcor
     16.14     -16.64       2.11        0.00      77.19       1.92       0.08       0.42       ----

> <Gold.Chemscore.Fitness>
16.1442

> <Gold.Chemscore.DG>
-16.6438

> <Gold.Chemscore.ZeroCoef>
-5.4800

> <Gold.Chemscore.Hbond>
2.1083

> <Gold.Chemscore.Metal>
0.0000

> <Gold.Chemscore.Lipo>
77.1863

> <Gold.Chemscore.Internal_Hbond>
0.0000

> <Gold.Chemscore.DEClash>
0.0816

> <Gold.Chemscore.DEInternal>
0.4180

> <Gold.Chemscore.Rot>
1.9175

> <Gold.Chemscore.Internal.Correction>
   9.000000E+99

> <Gold.Chemscore.Hbonds>
donor molecule, donor type, donor heavy atom, donor atom, acceptor molecule, acceptor atom, score
      L1  H    23    49       P1 10957  0.49
      P1  H  6931  6943       L1     8  0.20
      P1  H  6934  6947       L1     8  0.37

> <Gold.Chemscore.Hbond.Weighted>
-7.0418

> <Gold.Chemscore.Metal.Weighted>
-0.0000

> <Gold.Chemscore.Lipo.Weighted>
-9.0308

> <Gold.Chemscore.Internal_Hbond.Weighted>
0.0000

> <Gold.Chemscore.DEClash.Weighted>
0.0816

> <Gold.Chemscore.DEInternal.Weighted>
0.4180

> <Gold.Chemscore.Rot.Weighted>
4.9087

> <Gold.Chemscore.Internal.Correction.Weighted>
   9.000000E+99

> <Gold.Protein.RotatedTorsions>
[ 6907 6896 6895 6894 ] final   71.65 input  -60.11 | X-H torsion
[ 7974 7965 7964 7962 ] final -132.59 input  175.53 | X-H torsion
[ 8008 7997 7996 7995 ] final   55.13 input   59.86 | X-H torsion
[ 10167 10162 10161 10158 ] final  161.32 input  -65.29 | X-H torsion
[ 10718 10713 10712 10709 ] final -108.27 input   66.30 | X-H torsion
[ 10763 10752 10751 10750 ] final  -81.48 input  -60.55 | X-H torsion
[ 11005 11000 10999 10996 ] final  175.81 input  -57.11 | X-H torsion

> <Gold.Protein.ActiveResidues>
 VAL166  LYS551  ARG553  GLY616  TRP617  ASP618  TYR619  PRO620  LYS621  CYS622 
 ASP623  PHE694  ASN695  SER759  ASP760  ASP761  ALA762  ILE779  LEU786  VAL792 
 PHE793  MET794  SER795  GLU796  ALA797  LYS798  CYS799  TRP800  GLU811  SER814 

> <Gold.Protein.RotatedAtoms>
  152.4822  134.4688  159.9628 H   0  0  0  0  0  0  0  0  0  0  0  0  # atno 6907 bound_to 6896
  151.4691  133.3567  159.2828 H   0  0  0  0  0  0  0  0  0  0  0  0  # atno 6908 bound_to 6896
  150.8904  134.8333  159.7350 H   0  0  0  0  0  0  0  0  0  0  0  0  # atno 6909 bound_to 6896
  144.9271  140.7085  143.4929 H   0  0  0  0  0  0  0  0  0  0  0  0  # atno 7974 bound_to 7965
  155.4961  140.3473  155.4363 H   0  0  0  0  0  0  0  0  0  0  0  0  # atno 8008 bound_to 7997
  156.0945  140.1419  156.9577 H   0  0  0  0  0  0  0  0  0  0  0  0  # atno 8009 bound_to 7997
  154.4655  140.0919  156.6985 H   0  0  0  0  0  0  0  0  0  0  0  0  # atno 8010 bound_to 7997
  139.4848  144.4547  151.8783 H   0  0  0  0  0  0  0  0  0  0  0  0  # atno 10167 bound_to 10162
  156.0477  130.5704  150.7938 H   0  0  0  0  0  0  0  0  0  0  0  0  # atno 10718 bound_to 10713
  154.5641  135.5625  153.7034 H   0  0  0  0  0  0  0  0  0  0  0  0  # atno 10763 bound_to 10752
  153.0027  135.6281  154.2204 H   0  0  0  0  0  0  0  0  0  0  0  0  # atno 10764 bound_to 10752
  154.2143  135.2872  155.2927 H   0  0  0  0  0  0  0  0  0  0  0  0  # atno 10765 bound_to 10752
  140.3662  134.7069  157.4363 H   0  0  0  0  0  0  0  0  0  0  0  0  # atno 11005 bound_to 11000
  145.3201  139.1791  143.4592 LP  0  0  0  0  0  0  0  0  0  0  0  0  # atno 17320 bound_to 7965
  146.3231  140.3217  142.8634 LP  0  0  0  0  0  0  0  0  0  0  0  0  # atno 17321 bound_to 7965
  140.4006  144.2498  150.5893 LP  0  0  0  0  0  0  0  0  0  0  0  0  # atno 17342 bound_to 10162
  140.5060  143.2304  151.8607 LP  0  0  0  0  0  0  0  0  0  0  0  0  # atno 17343 bound_to 10162
  157.5371  131.0939  150.9877 LP  0  0  0  0  0  0  0  0  0  0  0  0  # atno 17370 bound_to 10713
  157.0169  130.5659  149.5327 LP  0  0  0  0  0  0  0  0  0  0  0  0  # atno 17371 bound_to 10713
  140.0587  134.6026  155.8774 LP  0  0  0  0  0  0  0  0  0  0  0  0  # atno 17394 bound_to 11000
  141.1969  133.6593  156.5713 LP  0  0  0  0  0  0  0  0  0  0  0  0  # atno 17395 bound_to 11000

$$$$
