AV-unprocessed.smi:34|AV-procd|sdf|233|dock10
  -GOLD-   2262015573D 1   1.00000     0.00000
 Structure written by MMmdl.
 54 58  0  0  0  0  0  0  0  0  2 V2000
  149.6307  141.2527  157.9068 O   0  0  0  0  0  0  0  0  0  0  0  0
  150.8292  141.4193  157.6710 C   0  0  0  0  0  0  0  0  0  0  0  0
  151.4684  141.3013  156.4796 N   0  5  0  0  0  0  0  0  0  0  0  0
  151.6963  140.0866  155.9573 C   0  0  0  0  0  0  0  0  0  0  0  0
  152.5590  139.9374  154.9201 N   0  0  0  0  0  0  0  0  0  0  0  0
  152.7751  138.7283  154.3902 C   0  0  0  0  0  0  0  0  0  0  0  0
  152.2367  137.5545  154.7324 N   0  0  0  0  0  0  0  0  0  0  0  0
  151.3630  137.6882  155.7712 C   0  0  0  0  0  0  0  0  0  0  0  0
  151.0436  138.9134  156.4270 C   0  0  0  0  0  0  0  0  0  0  0  0
  150.1183  138.7041  157.4384 N   0  0  0  0  0  0  0  0  0  0  0  0
  149.9238  137.3903  157.3560 C   0  0  0  0  0  0  0  0  0  0  0  0
  150.6054  136.7166  156.4084 N   0  0  0  0  0  0  0  0  0  0  0  0
  150.5270  135.2494  156.1303 C   0  0  2  0  0  0  0  0  0  0  0  0
  150.1612  135.0581  154.7949 O   0  0  0  0  0  0  0  0  0  0  0  0
  149.1675  134.0328  154.6808 C   0  0  2  0  0  0  0  0  0  0  0  0
  147.8317  134.6453  154.2369 C   0  0  0  0  0  0  0  0  0  0  0  0
  147.3984  134.0246  153.0374 O   0  0  0  0  0  0  0  0  0  0  0  0
  146.2815  134.4591  152.4212 C   0  0  0  0  0  0  0  0  0  0  0  0
  145.8850  135.6255  152.4695 O   0  0  0  0  0  0  0  0  0  0  0  0
  145.5739  133.3815  151.6721 C   0  0  0  0  0  0  0  0  0  0  0  0
  144.5165  133.7261  150.7981 C   0  0  0  0  0  0  0  0  0  0  0  0
  143.8299  132.7312  150.0753 C   0  0  0  0  0  0  0  0  0  0  0  0
  144.1927  131.3793  150.2175 C   0  0  0  0  0  0  0  0  0  0  0  0
  145.2436  131.0236  151.0830 C   0  0  0  0  0  0  0  0  0  0  0  0
  145.9318  132.0172  151.8065 C   0  0  0  0  0  0  0  0  0  0  0  0
  149.0778  133.4178  156.0794 C   0  0  1  0  0  0  0  0  0  0  0  0
  149.9945  132.4487  156.1577 F   0  0  0  0  0  0  0  0  0  0  0  0
  149.4447  134.5876  156.9777 C   0  0  1  0  0  0  0  0  0  0  0  0
  149.9028  134.1267  158.2329 O   0  0  0  0  0  0  0  0  0  0  0  0
  151.7569  141.7328  158.8145 C   0  0  0  0  0  0  0  0  0  0  0  0
  152.7128  140.7750  159.2238 C   0  0  0  0  0  0  0  0  0  0  0  0
  153.5728  141.0387  160.3079 C   0  0  0  0  0  0  0  0  0  0  0  0
  153.4804  142.2604  161.0004 C   0  0  0  0  0  0  0  0  0  0  0  0
  152.5238  143.2165  160.6109 C   0  0  0  0  0  0  0  0  0  0  0  0
  151.6630  142.9533  159.5276 C   0  0  0  0  0  0  0  0  0  0  0  0
  153.4790  138.6962  153.5718 H   0  0  0  0  0  0  0  0  0  0  0  0
  149.2380  136.8870  158.0216 H   0  0  0  0  0  0  0  0  0  0  0  0
  151.5300  134.8562  156.3053 H   0  0  0  0  0  0  0  0  0  0  0  0
  149.4833  133.2876  153.9494 H   0  0  0  0  0  0  0  0  0  0  0  0
  147.0753  134.4846  155.0058 H   0  0  0  0  0  0  0  0  0  0  0  0
  147.9305  135.7228  154.1069 H   0  0  0  0  0  0  0  0  0  0  0  0
  144.2204  134.7575  150.6717 H   0  0  0  0  0  0  0  0  0  0  0  0
  143.0246  133.0069  149.4101 H   0  0  0  0  0  0  0  0  0  0  0  0
  143.6667  130.6168  149.6623 H   0  0  0  0  0  0  0  0  0  0  0  0
  145.5236  129.9862  151.1925 H   0  0  0  0  0  0  0  0  0  0  0  0
  146.7352  131.7103  152.4603 H   0  0  0  0  0  0  0  0  0  0  0  0
  148.1080  132.9747  156.3082 H   0  0  0  0  0  0  0  0  0  0  0  0
  148.5963  135.2638  157.0951 H   0  0  0  0  0  0  0  0  0  0  0  0
  149.2039  133.6443  158.6480 H   0  0  0  0  0  0  0  0  0  0  0  0
  152.7957  139.8316  158.7038 H   0  0  0  0  0  0  0  0  0  0  0  0
  154.3027  140.3018  160.6083 H   0  0  0  0  0  0  0  0  0  0  0  0
  154.1391  142.4623  161.8319 H   0  0  0  0  0  0  0  0  0  0  0  0
  152.4469  144.1519  161.1450 H   0  0  0  0  0  0  0  0  0  0  0  0
  150.9281  143.6961  159.2524 H   0  0  0  0  0  0  0  0  0  0  0  0
  1  2  2  0  0  0  0
  2  3  1  0  0  0  0
  2 30  1  0  0  0  0
  3  4  1  0  0  0  0
  4  9  1  0  0  0  0
  4  5  2  0  0  0  0
  5  6  1  0  0  0  0
  6  7  2  0  0  0  0
  6 36  1  0  0  0  0
  7  8  1  0  0  0  0
  8 12  1  0  0  0  0
  8  9  2  0  0  0  0
  9 10  1  0  0  0  0
 10 11  2  0  0  0  0
 11 12  1  0  0  0  0
 11 37  1  0  0  0  0
 12 13  1  0  0  0  0
 13 28  1  0  0  0  0
 13 14  1  0  0  0  0
 13 38  1  0  0  0  0
 14 15  1  0  0  0  0
 15 16  1  0  0  0  0
 15 26  1  0  0  0  0
 15 39  1  0  0  0  0
 16 17  1  0  0  0  0
 16 40  1  0  0  0  0
 16 41  1  0  0  0  0
 17 18  1  0  0  0  0
 18 19  2  0  0  0  0
 18 20  1  0  0  0  0
 20 25  1  0  0  0  0
 20 21  2  0  0  0  0
 21 22  1  0  0  0  0
 21 42  1  0  0  0  0
 22 23  2  0  0  0  0
 22 43  1  0  0  0  0
 23 24  1  0  0  0  0
 23 44  1  0  0  0  0
 24 25  2  0  0  0  0
 24 45  1  0  0  0  0
 25 46  1  0  0  0  0
 26 27  1  0  0  0  0
 26 28  1  0  0  0  0
 26 47  1  0  0  0  0
 28 29  1  0  0  0  0
 28 48  1  0  0  0  0
 29 49  1  0  0  0  0
 30 35  1  0  0  0  0
 30 31  2  0  0  0  0
 31 32  1  0  0  0  0
 31 50  1  0  0  0  0
 32 33  2  0  0  0  0
 32 51  1  0  0  0  0
 33 34  1  0  0  0  0
 33 52  1  0  0  0  0
 34 35  2  0  0  0  0
 34 53  1  0  0  0  0
 35 54  1  0  0  0  0
M  CHG  1   3  -1
M  END
> <s_m_source_file>
AV-unprocessed.smi

> <i_m_source_file_index>
34

> <i_lp_mmshare_version>
43012

> <i_f3d_flags>
0

> <s_epik_input>
W2NIXTFbY0hdW2NIXVtjSF1bY0hdYzFDKD1PKVtOSF1jKG5bY0hdbjIpYyhjMjMpbltjSF1uM1tDQEBIXTRPW0NASF0oW0NAQEhdKEYpW0NASF00W09IXSlbQ0gyXU9DKD1PKWM1W2NIXVtjSF1bY0hdW2NIXVtjSF01

> <s_epik_cmdline>
J2VwaWtfcHl0aG9uJywgJy1waCcsICc3LjAnLCAnLXRuJywgJzgnLCAnLW1hJywgJzIwMCcsICctbWV0YWxfYmluZGluZycsICctaW1hZScsICc8aW5maWxlLm1hZT4nLCAnLW9tYWUnLCAnPG91dGZpbGUubWFlPic=

> <r_lp_tautomer_probability>
1

> <r_epik_Ionization_Penalty>
4.33227

> <r_epik_Ionization_Penalty_Charging>
3.41027

> <r_epik_Ionization_Penalty_Neutral>
0.922001

> <r_epik_State_Penalty>
3.41358

> <r_epik_Charging_Adjusted_Penalty>
6.82385

> <i_epik_Tot_Q>
-1

> <i_epik_Tot_abs_Q>
1

> <r_epik_Metal_State_Penalty>
0.496292

> <b_epik_Metal_Only>
1

> <s_epik_Chemistry_Notes>
This compound has an ester and may undergo hydrolysis at high or low pH. This compound contains an acetal/aminal-like group ( X-CH(R)-Y where X, Y are N, S, or O) that may be acid/base labile, releasing an aldehyde.

> <s_lp_Force_Field>
OPLS_2005

> <r_lp_Energy>
46.7296

> <b_lp_Chiralities_Consistent>
1

> <s_lp_Variant>
AV-unprocessed.smi:34-19

> <Gold.Version>
5.8.1

> <Gold.Id.Protein>
6NUR|6NUR_protein|mol2

> <Gold.PLP.Fitness>
54.1694

> <Gold.PLP.PLP>
-50.8927

> <Gold.PLP.part.hbond>
-3.7996

> <Gold.PLP.part.metal>
0.0000

> <Gold.PLP.part.buried>
-4.5128

> <Gold.PLP.part.nonpolar>
-44.1913

> <Gold.PLP.part.repulsive>
1.7106

> <Gold.PLP.ligand.clash>
0.0000

> <Gold.PLP.ligand.torsion>
3.2309

> <Gold.PLP.Chemscore.Hbond>
3.1608

> <Gold.PLP.Chemscore.CHOScore>
0.0000

> <Gold.PLP.Chemscore.Metal>
0.0000

> <Gold.Chemscore.Hbonds>
donor molecule, donor type, donor heavy atom, donor atom, acceptor molecule, acceptor atom, score
      P1  H  6896  6907       L1    29  0.51
      P1  H  7989  7998       L1     5  0.54
      P1  H  7997  8010       L1     5  0.69
      P1  H 10752 10765       L1     7  0.69

> <Gold.PLP.Chemscore.Internal.Correction>
0.2562

> <Gold.Rescore>
     Score         DG    S(hbond)    S(metal)    S(lipo)     H(rot)  DE(clash)    DE(int)     intcor
     13.32     -19.62       2.12        0.00     119.35       2.69       0.69       5.60       ----

> <Gold.Chemscore.Fitness>
13.3243

> <Gold.Chemscore.DG>
-19.6164

> <Gold.Chemscore.ZeroCoef>
-5.4800

> <Gold.Chemscore.Hbond>
2.1169

> <Gold.Chemscore.Metal>
0.0000

> <Gold.Chemscore.Lipo>
119.3457

> <Gold.Chemscore.Internal_Hbond>
0.0000

> <Gold.Chemscore.DEClash>
0.6945

> <Gold.Chemscore.DEInternal>
5.5977

> <Gold.Chemscore.Rot>
2.6944

> <Gold.Chemscore.Internal.Correction>
   9.000000E+99

> <Gold.Chemscore.Hbonds>
donor molecule, donor type, donor heavy atom, donor atom, acceptor molecule, acceptor atom, score
      P1  H  6896  6907       L1    29  0.07
      P1  H  7989  7998       L1     5  0.09
      P1  H  7997  8010       L1     5  0.05
      P1  H 10752 10765       L1     7  0.59

> <Gold.Chemscore.Hbond.Weighted>
-7.0705

> <Gold.Chemscore.Metal.Weighted>
-0.0000

> <Gold.Chemscore.Lipo.Weighted>
-13.9635

> <Gold.Chemscore.Internal_Hbond.Weighted>
0.0000

> <Gold.Chemscore.DEClash.Weighted>
0.6945

> <Gold.Chemscore.DEInternal.Weighted>
5.5977

> <Gold.Chemscore.Rot.Weighted>
6.8975

> <Gold.Chemscore.Internal.Correction.Weighted>
   9.000000E+99

> <Gold.Protein.RotatedTorsions>
[ 6907 6896 6895 6894 ] final  -81.14 input  -60.11 | X-H torsion
[ 7974 7965 7964 7962 ] final  -98.83 input  175.53 | X-H torsion
[ 8008 7997 7996 7995 ] final  105.04 input   59.86 | X-H torsion
[ 10167 10162 10161 10158 ] final -105.35 input  -65.29 | X-H torsion
[ 10718 10713 10712 10709 ] final  -40.78 input   66.30 | X-H torsion
[ 10763 10752 10751 10750 ] final  171.77 input  -60.55 | X-H torsion
[ 11005 11000 10999 10996 ] final -121.31 input  -57.11 | X-H torsion

> <Gold.Protein.ActiveResidues>
 VAL166  LYS551  ARG553  GLY616  TRP617  ASP618  TYR619  PRO620  LYS621  CYS622 
 ASP623  PHE694  ASN695  SER759  ASP760  ASP761  ALA762  ILE779  LEU786  VAL792 
 PHE793  MET794  SER795  GLU796  ALA797  LYS798  CYS799  TRP800  GLU811  SER814 

> <Gold.Protein.RotatedAtoms>
  150.6917  134.3863  159.5056 H   0  0  0  0  0  0  0  0  0  0  0  0  # atno 6907 bound_to 6896
  152.1658  134.8872  160.0547 H   0  0  0  0  0  0  0  0  0  0  0  0  # atno 6908 bound_to 6896
  151.9916  133.3758  159.4184 H   0  0  0  0  0  0  0  0  0  0  0  0  # atno 6909 bound_to 6896
  145.3154  140.9410  143.2745 H   0  0  0  0  0  0  0  0  0  0  0  0  # atno 7974 bound_to 7965
  156.1625  140.3137  155.8832 H   0  0  0  0  0  0  0  0  0  0  0  0  # atno 8008 bound_to 7997
  155.3753  140.0484  157.3062 H   0  0  0  0  0  0  0  0  0  0  0  0  # atno 8009 bound_to 7997
  154.5160  140.2181  155.9076 H   0  0  0  0  0  0  0  0  0  0  0  0  # atno 8010 bound_to 7997
  140.1995  143.3830  152.1141 H   0  0  0  0  0  0  0  0  0  0  0  0  # atno 10167 bound_to 10162
  156.2776  130.4213  149.8371 H   0  0  0  0  0  0  0  0  0  0  0  0  # atno 10718 bound_to 10713
  154.4166  135.2757  155.2003 H   0  0  0  0  0  0  0  0  0  0  0  0  # atno 10763 bound_to 10752
  154.3966  135.6054  153.5877 H   0  0  0  0  0  0  0  0  0  0  0  0  # atno 10764 bound_to 10752
  152.9832  135.5916  154.4455 H   0  0  0  0  0  0  0  0  0  0  0  0  # atno 10765 bound_to 10752
  141.0079  134.0307  157.3452 H   0  0  0  0  0  0  0  0  0  0  0  0  # atno 11005 bound_to 11000
  144.8982  139.4685  143.6645 LP  0  0  0  0  0  0  0  0  0  0  0  0  # atno 17320 bound_to 7965
  146.3102  139.7720  142.9025 LP  0  0  0  0  0  0  0  0  0  0  0  0  # atno 17321 bound_to 7965
  139.5223  144.7057  151.5361 LP  0  0  0  0  0  0  0  0  0  0  0  0  # atno 17342 bound_to 10162
  140.6400  143.8907  150.6683 LP  0  0  0  0  0  0  0  0  0  0  0  0  # atno 17343 bound_to 10162
  156.5830  130.8474  151.3388 LP  0  0  0  0  0  0  0  0  0  0  0  0  # atno 17370 bound_to 10713
  157.7304  130.9685  150.1832 LP  0  0  0  0  0  0  0  0  0  0  0  0  # atno 17371 bound_to 10713
  139.9074  135.0182  156.7544 LP  0  0  0  0  0  0  0  0  0  0  0  0  # atno 17394 bound_to 11000
  140.6782  133.9499  155.7895 LP  0  0  0  0  0  0  0  0  0  0  0  0  # atno 17395 bound_to 11000

$$$$
