#       Name:                AV-unprocessed.smi:1473
#       Creating user name   scv26
#       Creation time:       Fri Mar 27 06:05:48 2020


#       File generated by GOLD software.
#

@<TRIPOS>MOLECULE
AV-unprocessed.smi:1473
    39    40     1
SMALL
NO_CHARGES


@<TRIPOS>ATOM
      1 ****        -4.0557   2.3970   2.3894 N.3            1 S1                 0.0000
      2 ****        -2.5163   1.6855   2.1127 S.o2           1 S1                 0.0000
      3 ****        -2.1244   1.9221   0.7152 O.2            1 S1                 0.0000
      4 ****        -1.6229   2.0303   3.2284 O.2            1 S1                 0.0000
      5 ****        -2.9623   0.0288   2.2730 N.pl3          1 S1                 0.0000
      6 ****        -1.9364  -1.0106   2.3293 C.3            1 S1                 0.0000
      7 ****        -1.3071  -1.2806   0.9768 C.ar           1 S1                 0.0000
      8 ****        -1.9478  -2.1251   0.0475 C.ar           1 S1                 0.0000
      9 ****        -1.3461  -2.3368  -1.2065 C.ar           1 S1                 0.0000
     10 ****        -0.1764  -1.7299  -1.5018 N.pl3          1 S1                 1.0000
     11 ****         0.4846  -0.9024  -0.6542 C.ar           1 S1                 0.0000
     12 ****         1.7020  -0.3304  -1.0911 N.3            1 S1                 0.0000
     13 ****         1.7784   0.0614  -2.4988 C.3            1 S1                 0.0000
     14 ****         3.2323   0.3557  -2.9045 C.3            1 S1                 0.0000
     15 ****         3.7910   1.3224  -2.0231 O.3            1 S1                 0.0000
     16 ****         3.8339   0.8465  -0.6834 C.3            1 S1                 0.0000
     17 ****         2.4064   0.5704  -0.1814 C.3            1 S1                 0.0000
     18 ****        -0.0849  -0.6676   0.6238 C.ar           1 S1                 0.0000
     19 ****        -4.4107   2.8867   1.5682 H              1 S1                 0.0000
     20 ****        -4.0764   2.9600   3.2395 H              1 S1                 0.0000
     21 ****        -3.7940  -0.1404   2.8387 H              1 S1                 0.0000
     22 ****        -1.1736  -0.7298   3.0564 H              1 S1                 0.0000
     23 ****        -2.3925  -1.9303   2.6966 H              1 S1                 0.0000
     24 ****        -2.8875  -2.6002   0.2892 H              1 S1                 0.0000
     25 ****        -1.7630  -2.9665  -1.9790 H              1 S1                 0.0000
     26 ****         1.3892  -0.7173  -3.1544 H              1 S1                 0.0000
     27 ****         1.1609   0.9475  -2.6513 H              1 S1                 0.0000
     28 ****         3.8324  -0.5558  -2.8919 H              1 S1                 0.0000
     29 ****         3.2656   0.7431  -3.9228 H              1 S1                 0.0000
     30 ****         4.4476  -0.0541  -0.6255 H              1 S1                 0.0000
     31 ****         4.3129   1.5974  -0.0548 H              1 S1                 0.0000
     32 ****         1.8488   1.5042  -0.0961 H              1 S1                 0.0000
     33 ****         2.4733   0.1324   0.8146 H              1 S1                 0.0000
     34 ****         0.3836  -0.0093   1.3397 H              1 S1                 0.0000
     35 ****         0.2334  -1.9043  -2.4197 H              1 S1                 0.0000
     36 ****        -4.6963   1.6463   2.5505 LP             1 S1                 0.0000
     37 ****         2.2639  -1.1560  -1.0384 LP             1 S1                 0.0000
     38 ****         3.2331   2.1517  -2.0552 LP             1 S1                 0.0000
     39 ****         4.7214   1.5348  -2.3220 LP             1 S1                 0.0000
@<TRIPOS>BOND
    1    1    2 1     
    2    1   19 1     
    3    1   20 1     
    4    2    3 2     
    5    2    4 2     
    6    2    5 1     
    7    5    6 1     
    8    5   21 1     
    9    6    7 1     
   10    6   22 1     
   11    6   23 1     
   12    7   18 ar    
   13    7    8 ar    
   14    8    9 ar    
   15    8   24 1     
   16    9   10 ar    
   17    9   25 1     
   18   10   11 ar    
   19   10   35 1     
   20   11   12 1     
   21   11   18 ar    
   22   12   17 1     
   23   12   13 1     
   24   13   14 1     
   25   13   26 1     
   26   13   27 1     
   27   14   15 1     
   28   14   28 1     
   29   14   29 1     
   30   15   16 1     
   31   16   17 1     
   32   16   30 1     
   33   16   31 1     
   34   17   32 1     
   35   17   33 1     
   36   18   34 1     
   37    1   36 1     
   38   12   37 1     
   39   15   38 1     
   40   15   39 1     
@<TRIPOS>SUBSTRUCTURE
      1 S1             1
@<TRIPOS>SET
LONE_PAIRS      STATIC     ATOMS    <user>   **** ""
6 36 3 4 37 38 39
DONOR_HYDROGENS      STATIC     ATOMS    <user>   **** ""
4 19 20 21 35
ATOM$BLUE        STATIC     ATOMS    COLORGROUP SYSTEM
6 36 3 4 37 38 39
ATOM$RED        STATIC     ATOMS    COLORGROUP SYSTEM
4 19 20 21 35
