AV-unprocessed.smi:3116|AV-procd|sdf|11872|dock6
  -GOLD-   2272017253D 1   1.00000     0.00000
 Structure written by MMmdl.
 33 33  0  0  0  0  0  0  0  0  1 V2000
  148.3758  141.4365  154.0340 C   0  0  0  0  0  0  0  0  0  0  0  0
  148.7620  140.4043  155.1044 C   0  0  2  0  0  0  0  0  0  0  0  0
  150.0844  140.7391  155.6596 N   0  0  0  0  0  0  0  0  0  0  0  0
  150.0807  141.7175  156.7484 C   0  0  1  0  0  0  0  0  0  0  0  0
  148.9931  141.3080  157.7576 C   0  0  0  0  0  0  0  0  0  0  0  0
  151.4914  141.8221  157.3872 C   0  0  2  0  0  0  0  0  0  0  0  0
  151.8624  140.5958  158.2410 C   0  0  0  0  0  0  0  0  0  0  0  0
  151.7043  143.0678  158.1198 N   0  0  0  0  0  0  0  0  0  0  0  0
  151.5875  144.3703  157.6745 C   0  0  0  0  0  0  0  0  0  0  0  0
  151.9079  145.1914  158.7170 C   0  0  0  0  0  0  0  0  0  0  0  0
  152.2167  144.2901  159.7728 C   0  0  0  0  0  0  0  0  0  0  0  0
  152.0975  143.0230  159.4126 N   0  0  0  0  0  0  0  0  0  0  0  0
  148.6943  138.9812  154.5269 C   0  0  0  0  0  0  0  0  0  0  0  0
  149.3838  138.7425  153.4086 N   0  0  0  0  0  0  0  0  0  0  0  0
  148.0157  138.1144  155.0749 O   0  0  0  0  0  0  0  0  0  0  0  0
  147.3891  141.2273  153.6188 H   0  0  0  0  0  0  0  0  0  0  0  0
  149.0891  141.4474  153.2087 H   0  0  0  0  0  0  0  0  0  0  0  0
  148.3451  142.4417  154.4557 H   0  0  0  0  0  0  0  0  0  0  0  0
  148.0318  140.4847  155.9119 H   0  0  0  0  0  0  0  0  0  0  0  0
  150.5957  139.9130  155.9368 H   0  0  0  0  0  0  0  0  0  0  0  0
  149.8298  142.7094  156.3700 H   0  0  0  0  0  0  0  0  0  0  0  0
  148.9758  141.9902  158.6078 H   0  0  0  0  0  0  0  0  0  0  0  0
  149.1550  140.3012  158.1445 H   0  0  0  0  0  0  0  0  0  0  0  0
  148.0020  141.3297  157.3043 H   0  0  0  0  0  0  0  0  0  0  0  0
  152.2007  141.8240  156.5574 H   0  0  0  0  0  0  0  0  0  0  0  0
  151.7842  139.6771  157.6592 H   0  0  0  0  0  0  0  0  0  0  0  0
  151.2120  140.4917  159.1097 H   0  0  0  0  0  0  0  0  0  0  0  0
  152.8885  140.6689  158.6030 H   0  0  0  0  0  0  0  0  0  0  0  0
  151.2911  144.6031  156.6624 H   0  0  0  0  0  0  0  0  0  0  0  0
  151.9221  146.2711  158.7237 H   0  0  0  0  0  0  0  0  0  0  0  0
  152.5239  144.5172  160.7829 H   0  0  0  0  0  0  0  0  0  0  0  0
  149.3684  137.8228  152.9925 H   0  0  0  0  0  0  0  0  0  0  0  0
  149.9184  139.4857  152.9825 H   0  0  0  0  0  0  0  0  0  0  0  0
  1  2  1  0  0  0  0
  1 16  1  0  0  0  0
  1 17  1  0  0  0  0
  1 18  1  0  0  0  0
  2  3  1  0  0  0  0
  2 13  1  0  0  0  0
  2 19  1  0  0  0  0
  3  4  1  0  0  0  0
  3 20  1  0  0  0  0
  4  5  1  0  0  0  0
  4  6  1  0  0  0  0
  4 21  1  0  0  0  0
  5 22  1  0  0  0  0
  5 23  1  0  0  0  0
  5 24  1  0  0  0  0
  6  7  1  0  0  0  0
  6  8  1  0  0  0  0
  6 25  1  0  0  0  0
  7 26  1  0  0  0  0
  7 27  1  0  0  0  0
  7 28  1  0  0  0  0
  8 12  1  0  0  0  0
  8  9  1  0  0  0  0
  9 10  2  0  0  0  0
  9 29  1  0  0  0  0
 10 11  1  0  0  0  0
 10 30  1  0  0  0  0
 11 12  2  0  0  0  0
 11 31  1  0  0  0  0
 13 14  1  0  0  0  0
 13 15  2  0  0  0  0
 14 32  1  0  0  0  0
 14 33  1  0  0  0  0
M  END
> <s_m_source_file>
AV-unprocessed.smi

> <i_m_source_file_index>
3116

> <i_lp_mmshare_version>
43012

> <i_f3d_flags>
0

> <s_epik_input>
W05IMl1DKD1PKVtDQEhdKFtDSDNdKVtOSF1bQ0BIXShbQ0gzXSlbQ0BIXShbQ0gzXSluMVtjSF1bY0hdW2NIXW4x

> <s_epik_cmdline>
J2VwaWtfcHl0aG9uJywgJy1waCcsICc3LjAnLCAnLXRuJywgJzgnLCAnLW1hJywgJzIwMCcsICctbWV0YWxfYmluZGluZycsICctaW1hZScsICc8aW5maWxlLm1hZT4nLCAnLW9tYWUnLCAnPG91dGZpbGUubWFlPic=

> <r_lp_tautomer_probability>
1

> <r_epik_Ionization_Penalty>
0.865977

> <r_epik_Ionization_Penalty_Charging>
0

> <r_epik_Ionization_Penalty_Neutral>
0.865977

> <r_epik_State_Penalty>
0.901888

> <r_epik_Charging_Adjusted_Penalty>
0.901888

> <i_epik_Tot_Q>
0

> <i_epik_Tot_abs_Q>
0

> <r_epik_Metal_State_Penalty>
0.901181

> <b_epik_Metal_Only>
0

> <s_lp_Force_Field>
OPLS_2005

> <r_lp_Energy>
10.1697

> <b_lp_Chiralities_Consistent>
1

> <s_lp_Variant>
AV-unprocessed.smi:3116-11

> <Gold.Version>
5.8.1

> <Gold.Id.Protein>
6NUR|6NUR_protein|mol2

> <Gold.PLP.Fitness>
37.4374

> <Gold.PLP.PLP>
-31.4976

> <Gold.PLP.part.hbond>
-2.0000

> <Gold.PLP.part.metal>
0.0000

> <Gold.PLP.part.buried>
-5.8565

> <Gold.PLP.part.nonpolar>
-24.4600

> <Gold.PLP.part.repulsive>
0.1689

> <Gold.PLP.ligand.clash>
0.0000

> <Gold.PLP.ligand.torsion>
0.7907

> <Gold.PLP.Chemscore.Hbond>
1.4480

> <Gold.PLP.Chemscore.CHOScore>
0.9927

> <Gold.PLP.Chemscore.Metal>
0.0000

> <Gold.Chemscore.Hbonds>
donor molecule, donor type, donor heavy atom, donor atom, acceptor molecule, acceptor atom, score
      L1  H    14    32       P1  7948  1.00
      L1  H    14    33       P1  7957  0.43
      L1  C     9    29       P1  8028  0.88

> <Gold.PLP.Chemscore.Internal.Correction>
0.1993

> <Gold.Rescore>
     Score         DG    S(hbond)    S(metal)    S(lipo)     H(rot)  DE(clash)    DE(int)     intcor
     13.59     -14.77       1.92        0.00      76.83       2.38       0.17       1.00       ----

> <Gold.Chemscore.Fitness>
13.5945

> <Gold.Chemscore.DG>
-14.7659

> <Gold.Chemscore.ZeroCoef>
-5.4800

> <Gold.Chemscore.Hbond>
1.9158

> <Gold.Chemscore.Metal>
0.0000

> <Gold.Chemscore.Lipo>
76.8292

> <Gold.Chemscore.Internal_Hbond>
0.0000

> <Gold.Chemscore.DEClash>
0.1710

> <Gold.Chemscore.DEInternal>
1.0005

> <Gold.Chemscore.Rot>
2.3836

> <Gold.Chemscore.Internal.Correction>
   9.000000E+99

> <Gold.Chemscore.Hbonds>
donor molecule, donor type, donor heavy atom, donor atom, acceptor molecule, acceptor atom, score
      L1  H    14    32       P1  7948  0.93
      L1  H    14    33       P1  7957  0.44

> <Gold.Chemscore.Hbond.Weighted>
-6.3989

> <Gold.Chemscore.Metal.Weighted>
-0.0000

> <Gold.Chemscore.Lipo.Weighted>
-8.9890

> <Gold.Chemscore.Internal_Hbond.Weighted>
0.0000

> <Gold.Chemscore.DEClash.Weighted>
0.1710

> <Gold.Chemscore.DEInternal.Weighted>
1.0005

> <Gold.Chemscore.Rot.Weighted>
6.1020

> <Gold.Chemscore.Internal.Correction.Weighted>
   9.000000E+99

> <Gold.Protein.RotatedTorsions>
[ 6907 6896 6895 6894 ] final   99.32 input  -60.11 | X-H torsion
[ 7974 7965 7964 7962 ] final  163.89 input  175.53 | X-H torsion
[ 8008 7997 7996 7995 ] final  136.85 input   59.86 | X-H torsion
[ 10167 10162 10161 10158 ] final   -2.69 input  -65.29 | X-H torsion
[ 10718 10713 10712 10709 ] final  -16.28 input   66.30 | X-H torsion
[ 10763 10752 10751 10750 ] final  178.69 input  -60.55 | X-H torsion
[ 11005 11000 10999 10996 ] final   52.67 input  -57.11 | X-H torsion

> <Gold.Protein.ActiveResidues>
 VAL166  LYS551  ARG553  GLY616  TRP617  ASP618  TYR619  PRO620  LYS621  CYS622 
 ASP623  PHE694  ASN695  SER759  ASP760  ASP761  ALA762  ILE779  LEU786  VAL792 
 PHE793  MET794  SER795  GLU796  ALA797  LYS798  CYS799  TRP800  GLU811  SER814 

> <Gold.Protein.RotatedAtoms>
  152.5394  134.0446  159.8082 H   0  0  0  0  0  0  0  0  0  0  0  0  # atno 6907 bound_to 6896
  151.0597  133.5547  159.2642 H   0  0  0  0  0  0  0  0  0  0  0  0  # atno 6908 bound_to 6896
  151.2450  135.0610  159.9094 H   0  0  0  0  0  0  0  0  0  0  0  0  # atno 6909 bound_to 6896
  144.7569  139.8248  143.6346 H   0  0  0  0  0  0  0  0  0  0  0  0  # atno 7974 bound_to 7965
  156.3003  140.2434  156.3814 H   0  0  0  0  0  0  0  0  0  0  0  0  # atno 8008 bound_to 7997
  154.8698  140.0416  157.1737 H   0  0  0  0  0  0  0  0  0  0  0  0  # atno 8009 bound_to 7997
  154.8808  140.2949  155.5430 H   0  0  0  0  0  0  0  0  0  0  0  0  # atno 8010 bound_to 7997
  140.6861  143.6627  150.8253 H   0  0  0  0  0  0  0  0  0  0  0  0  # atno 10167 bound_to 10162
  156.5898  130.4796  149.6284 H   0  0  0  0  0  0  0  0  0  0  0  0  # atno 10718 bound_to 10713
  154.5109  135.2788  155.1343 H   0  0  0  0  0  0  0  0  0  0  0  0  # atno 10763 bound_to 10752
  154.2939  135.6261  153.5400 H   0  0  0  0  0  0  0  0  0  0  0  0  # atno 10764 bound_to 10752
  152.9918  135.5680  154.5574 H   0  0  0  0  0  0  0  0  0  0  0  0  # atno 10765 bound_to 10752
  140.0830  134.5313  155.8927 H   0  0  0  0  0  0  0  0  0  0  0  0  # atno 11005 bound_to 11000
  146.1590  139.4697  143.0000 LP  0  0  0  0  0  0  0  0  0  0  0  0  # atno 17320 bound_to 7965
  145.6748  141.0207  143.1638 LP  0  0  0  0  0  0  0  0  0  0  0  0  # atno 17321 bound_to 7965
  140.0334  143.5420  152.2750 LP  0  0  0  0  0  0  0  0  0  0  0  0  # atno 17342 bound_to 10162
  139.6221  144.7631  151.2718 LP  0  0  0  0  0  0  0  0  0  0  0  0  # atno 17343 bound_to 10162
  156.2559  130.6934  151.1687 LP  0  0  0  0  0  0  0  0  0  0  0  0  # atno 17370 bound_to 10713
  157.7306  131.0615  150.5717 LP  0  0  0  0  0  0  0  0  0  0  0  0  # atno 17371 bound_to 10713
  141.2053  133.6646  156.6172 LP  0  0  0  0  0  0  0  0  0  0  0  0  # atno 17394 bound_to 11000
  140.3461  134.7808  157.4433 LP  0  0  0  0  0  0  0  0  0  0  0  0  # atno 17395 bound_to 11000

$$$$
