AV-unprocessed.smi:694|AV-procd|sdf|3376|dock4
  -GOLD-   22720 0353D 1   1.00000     0.00000
 Structure written by MMmdl.
 43 44  0  0  0  0  0  0  0  0  2 V2000
  149.0014  127.9118  153.6657 C   0  0  0  0  0  0  0  0  0  0  0  0
  148.0020  128.9553  153.4651 N   0  0  0  0  0  0  0  0  0  0  0  0
  146.6687  128.6111  152.9885 C   0  0  0  0  0  0  0  0  0  0  0  0
  148.3755  130.3120  153.5809 C   0  0  0  0  0  0  0  0  0  0  0  0
  149.4438  130.7561  154.3976 C   0  0  0  0  0  0  0  0  0  0  0  0
  149.7512  132.1305  154.4638 C   0  0  0  0  0  0  0  0  0  0  0  0
  148.9973  133.0593  153.7161 C   0  0  0  0  0  0  0  0  0  0  0  0
  149.3460  134.4339  153.8357 N   0  0  0  0  0  0  0  0  0  0  0  0
  150.1630  135.0327  154.7207 C   0  0  0  0  0  0  0  0  0  0  0  0
  150.7248  134.4788  155.6646 O   0  0  0  0  0  0  0  0  0  0  0  0
  150.2926  136.3394  154.4508 N   0  0  0  0  0  0  0  0  0  0  0  0
  151.1207  137.2727  155.2081 C   0  0  0  0  0  0  0  0  0  0  0  0
  150.9060  138.7336  154.7643 C   0  0  2  0  0  0  0  0  0  0  0  0
  151.3972  139.7755  155.7836 C   0  0  0  0  0  0  0  0  0  0  0  0
  150.4774  140.9991  155.6389 C   0  0  0  0  0  0  0  0  0  0  0  0
  149.4266  140.6281  154.5874 C   0  0  0  0  0  0  0  0  0  0  0  0
  149.4336  139.1000  154.5484 C   0  0  1  0  0  0  0  0  0  0  0  0
  148.9354  138.6157  153.3183 O   0  0  0  0  0  0  0  0  0  0  0  0
  147.9411  132.5653  152.9131 C   0  0  0  0  0  0  0  0  0  0  0  0
  147.6807  131.2405  152.8795 N   0  3  0  0  0  0  0  0  0  0  0  0
  149.4184  127.9693  154.6716 H   0  0  0  0  0  0  0  0  0  0  0  0
  149.8137  128.0158  152.9457 H   0  0  0  0  0  0  0  0  0  0  0  0
  148.5695  126.9184  153.5417 H   0  0  0  0  0  0  0  0  0  0  0  0
  146.4922  129.0377  152.0006 H   0  0  0  0  0  0  0  0  0  0  0  0
  145.9080  128.9872  153.6734 H   0  0  0  0  0  0  0  0  0  0  0  0
  146.5412  127.5311  152.9123 H   0  0  0  0  0  0  0  0  0  0  0  0
  150.0353  130.0641  154.9782 H   0  0  0  0  0  0  0  0  0  0  0  0
  150.5645  132.4659  155.0909 H   0  0  0  0  0  0  0  0  0  0  0  0
  148.9331  135.0415  153.1432 H   0  0  0  0  0  0  0  0  0  0  0  0
  149.7924  136.7163  153.6590 H   0  0  0  0  0  0  0  0  0  0  0  0
  150.9192  137.1671  156.2754 H   0  0  0  0  0  0  0  0  0  0  0  0
  152.1639  136.9886  155.0661 H   0  0  0  0  0  0  0  0  0  0  0  0
  151.4397  138.9077  153.8278 H   0  0  0  0  0  0  0  0  0  0  0  0
  151.3170  139.3841  156.7986 H   0  0  0  0  0  0  0  0  0  0  0  0
  152.4444  140.0314  155.6182 H   0  0  0  0  0  0  0  0  0  0  0  0
  149.9968  141.2152  156.5937 H   0  0  0  0  0  0  0  0  0  0  0  0
  151.0311  141.8913  155.3445 H   0  0  0  0  0  0  0  0  0  0  0  0
  148.4414  141.0371  154.8147 H   0  0  0  0  0  0  0  0  0  0  0  0
  149.7334  141.0278  153.6194 H   0  0  0  0  0  0  0  0  0  0  0  0
  148.8244  138.7106  155.3655 H   0  0  0  0  0  0  0  0  0  0  0  0
  148.9720  139.3138  152.6825 H   0  0  0  0  0  0  0  0  0  0  0  0
  147.2845  133.1627  152.2999 H   0  0  0  0  0  0  0  0  0  0  0  0
  146.9107  130.9204  152.2920 H   0  0  0  0  0  0  0  0  0  0  0  0
  1  2  1  0  0  0  0
  1 21  1  0  0  0  0
  1 22  1  0  0  0  0
  1 23  1  0  0  0  0
  2  3  1  0  0  0  0
  2  4  1  0  0  0  0
  3 24  1  0  0  0  0
  3 25  1  0  0  0  0
  3 26  1  0  0  0  0
  4 20  1  0  0  0  0
  4  5  2  0  0  0  0
  5  6  1  0  0  0  0
  5 27  1  0  0  0  0
  6  7  2  0  0  0  0
  6 28  1  0  0  0  0
  7  8  1  0  0  0  0
  7 19  1  0  0  0  0
  8  9  1  0  0  0  0
  8 29  1  0  0  0  0
  9 10  2  0  0  0  0
  9 11  1  0  0  0  0
 11 12  1  0  0  0  0
 11 30  1  0  0  0  0
 12 13  1  0  0  0  0
 12 31  1  0  0  0  0
 12 32  1  0  0  0  0
 13 17  1  0  0  0  0
 13 14  1  0  0  0  0
 13 33  1  0  0  0  0
 14 15  1  0  0  0  0
 14 34  1  0  0  0  0
 14 35  1  0  0  0  0
 15 16  1  0  0  0  0
 15 36  1  0  0  0  0
 15 37  1  0  0  0  0
 16 17  1  0  0  0  0
 16 38  1  0  0  0  0
 16 39  1  0  0  0  0
 17 18  1  0  0  0  0
 17 40  1  0  0  0  0
 18 41  1  0  0  0  0
 19 20  2  0  0  0  0
 19 42  1  0  0  0  0
 20 43  1  0  0  0  0
M  CHG  1  20   1
M  END
> <s_m_source_file>
AV-unprocessed.smi

> <i_m_source_file_index>
694

> <i_lp_mmshare_version>
43012

> <i_f3d_flags>
0

> <s_epik_input>
W0NIM11OKFtDSDNdKWMxW2NIXVtjSF1jKFtjSF1uMSlbTkhdQyg9TylbTkhdW0NIMl1bQ0BASF0yW0NIMl1bQ0gyXVtDSDJdW0NASF0yW09IXQ==

> <s_epik_cmdline>
J2VwaWtfcHl0aG9uJywgJy1waCcsICc3LjAnLCAnLXRuJywgJzgnLCAnLW1hJywgJzIwMCcsICctbWV0YWxfYmluZGluZycsICctaW1hZScsICc8aW5maWxlLm1hZT4nLCAnLW9tYWUnLCAnPG91dGZpbGUubWFlPic=

> <r_lp_tautomer_probability>
0.999994

> <r_epik_Ionization_Penalty>
0.266135

> <r_epik_Ionization_Penalty_Charging>
0.266113

> <r_epik_Ionization_Penalty_Neutral>
2.14137e-05

> <r_epik_State_Penalty>
0.258052

> <r_epik_Charging_Adjusted_Penalty>
0.524165

> <i_epik_Tot_Q>
1

> <i_epik_Tot_abs_Q>
1

> <r_epik_Metal_State_Penalty>
0.544313

> <b_epik_Metal_Only>
0

> <s_lp_Force_Field>
OPLS_2005

> <r_lp_Energy>
32.5934

> <b_lp_Chiralities_Consistent>
1

> <s_lp_Variant>
AV-unprocessed.smi:694-1

> <Gold.Version>
5.8.1

> <Gold.Id.Protein>
6NUR|6NUR_protein|mol2

> <Gold.PLP.Fitness>
48.0146

> <Gold.PLP.PLP>
-40.3122

> <Gold.PLP.part.hbond>
-6.1146

> <Gold.PLP.part.metal>
0.0000

> <Gold.PLP.part.buried>
-1.9422

> <Gold.PLP.part.nonpolar>
-32.4984

> <Gold.PLP.part.repulsive>
0.1471

> <Gold.PLP.ligand.clash>
0.0000

> <Gold.PLP.ligand.torsion>
0.4571

> <Gold.PLP.Chemscore.Hbond>
2.8640

> <Gold.PLP.Chemscore.CHOScore>
0.0000

> <Gold.PLP.Chemscore.Metal>
0.0000

> <Gold.Chemscore.Hbonds>
donor molecule, donor type, donor heavy atom, donor atom, acceptor molecule, acceptor atom, score
      L1  H     8    29       P1  7948  1.00
      L1  H    11    30       P1  7948  0.86
      L1  H    18    41       P1  7957  1.00

> <Gold.PLP.Chemscore.Internal.Correction>
0.0247

> <Gold.Rescore>
     Score         DG    S(hbond)    S(metal)    S(lipo)     H(rot)  DE(clash)    DE(int)     intcor
     12.69     -15.78       1.88        0.00      72.68       1.75       0.03       3.06       ----

> <Gold.Chemscore.Fitness>
12.6900

> <Gold.Chemscore.DG>
-15.7759

> <Gold.Chemscore.ZeroCoef>
-5.4800

> <Gold.Chemscore.Hbond>
1.8768

> <Gold.Chemscore.Metal>
0.0000

> <Gold.Chemscore.Lipo>
72.6808

> <Gold.Chemscore.Internal_Hbond>
0.0000

> <Gold.Chemscore.DEClash>
0.0275

> <Gold.Chemscore.DEInternal>
3.0583

> <Gold.Chemscore.Rot>
1.7485

> <Gold.Chemscore.Internal.Correction>
   9.000000E+99

> <Gold.Chemscore.Hbonds>
donor molecule, donor type, donor heavy atom, donor atom, acceptor molecule, acceptor atom, score
      L1  H     8    29       P1  7948  0.25
      L1  H    11    30       P1  7948  0.40
      L1  H    18    41       P1  7957  0.95

> <Gold.Chemscore.Hbond.Weighted>
-6.2684

> <Gold.Chemscore.Metal.Weighted>
-0.0000

> <Gold.Chemscore.Lipo.Weighted>
-8.5037

> <Gold.Chemscore.Internal_Hbond.Weighted>
0.0000

> <Gold.Chemscore.DEClash.Weighted>
0.0275

> <Gold.Chemscore.DEInternal.Weighted>
3.0583

> <Gold.Chemscore.Rot.Weighted>
4.4762

> <Gold.Chemscore.Internal.Correction.Weighted>
   9.000000E+99

> <Gold.Protein.RotatedTorsions>
[ 6907 6896 6895 6894 ] final -155.57 input  -60.11 | X-H torsion
[ 7974 7965 7964 7962 ] final  126.19 input  175.53 | X-H torsion
[ 8008 7997 7996 7995 ] final  155.71 input   59.86 | X-H torsion
[ 10167 10162 10161 10158 ] final  128.42 input  -65.29 | X-H torsion
[ 10718 10713 10712 10709 ] final  127.76 input   66.30 | X-H torsion
[ 10763 10752 10751 10750 ] final  -68.74 input  -60.55 | X-H torsion
[ 11005 11000 10999 10996 ] final   45.56 input  -57.11 | X-H torsion

> <Gold.Protein.ActiveResidues>
 VAL166  LYS551  ARG553  GLY616  TRP617  ASP618  TYR619  PRO620  LYS621  CYS622 
 ASP623  PHE694  ASN695  SER759  ASP760  ASP761  ALA762  ILE779  LEU786  VAL792 
 PHE793  MET794  SER795  GLU796  ALA797  LYS798  CYS799  TRP800  GLU811  SER814 

> <Gold.Protein.RotatedAtoms>
  151.2745  133.4239  159.2622 H   0  0  0  0  0  0  0  0  0  0  0  0  # atno 6907 bound_to 6896
  151.0415  134.9611  159.8174 H   0  0  0  0  0  0  0  0  0  0  0  0  # atno 6908 bound_to 6896
  152.5366  134.2703  159.9021 H   0  0  0  0  0  0  0  0  0  0  0  0  # atno 6909 bound_to 6896
  145.0645  139.3779  143.4989 H   0  0  0  0  0  0  0  0  0  0  0  0  # atno 7974 bound_to 7965
  156.2463  140.1932  156.6844 H   0  0  0  0  0  0  0  0  0  0  0  0  # atno 8008 bound_to 7997
  154.6298  140.0597  156.9744 H   0  0  0  0  0  0  0  0  0  0  0  0  # atno 8009 bound_to 7997
  155.1728  140.3269  155.4392 H   0  0  0  0  0  0  0  0  0  0  0  0  # atno 8010 bound_to 7997
  139.5528  144.6826  151.4273 H   0  0  0  0  0  0  0  0  0  0  0  0  # atno 10167 bound_to 10162
  157.5305  131.1098  150.9017 H   0  0  0  0  0  0  0  0  0  0  0  0  # atno 10718 bound_to 10713
  154.3933  135.6047  153.5856 H   0  0  0  0  0  0  0  0  0  0  0  0  # atno 10763 bound_to 10752
  152.9787  135.5889  154.4271 H   0  0  0  0  0  0  0  0  0  0  0  0  # atno 10764 bound_to 10752
  154.4059  135.2843  155.2046 H   0  0  0  0  0  0  0  0  0  0  0  0  # atno 10765 bound_to 10752
  140.1449  134.4536  155.8423 H   0  0  0  0  0  0  0  0  0  0  0  0  # atno 11005 bound_to 11000
  146.3526  140.0359  142.8647 LP  0  0  0  0  0  0  0  0  0  0  0  0  # atno 17320 bound_to 7965
  145.1368  140.9549  143.4512 LP  0  0  0  0  0  0  0  0  0  0  0  0  # atno 17321 bound_to 7965
  140.6794  143.8116  150.7101 LP  0  0  0  0  0  0  0  0  0  0  0  0  # atno 17342 bound_to 10162
  140.1565  143.4313  152.2096 LP  0  0  0  0  0  0  0  0  0  0  0  0  # atno 17343 bound_to 10162
  156.9600  130.5451  149.5285 LP  0  0  0  0  0  0  0  0  0  0  0  0  # atno 17370 bound_to 10713
  156.0419  130.5500  150.8790 LP  0  0  0  0  0  0  0  0  0  0  0  0  # atno 17371 bound_to 10713
  141.2191  133.6848  156.7315 LP  0  0  0  0  0  0  0  0  0  0  0  0  # atno 17394 bound_to 11000
  140.2676  134.8417  157.3817 LP  0  0  0  0  0  0  0  0  0  0  0  0  # atno 17395 bound_to 11000

$$$$
