AV-unprocessed.smi:907|AV-procd|sdf|4108|dock2
  -GOLD-   22720 2 03D 1   1.00000     0.00000
 Structure written by MMmdl.
 53 56  0  0  0  0  0  0  0  0  2 V2000
  152.3823  139.8253  156.1731 O   0  0  0  0  0  0  0  0  0  0  0  0
  151.4439  140.0669  155.4132 C   0  0  0  0  0  0  0  0  0  0  0  0
  150.7605  141.2213  155.4686 N   0  0  0  0  0  0  0  0  0  0  0  0
  151.0498  142.3131  156.3879 C   0  0  0  0  0  0  0  0  0  0  0  0
  150.9322  141.8374  157.8426 C   0  0  0  0  0  0  0  0  0  0  0  0
  151.2384  142.9419  158.8364 C   0  0  0  0  0  0  0  0  0  0  0  0
  151.6625  144.2129  158.3935 C   0  0  0  0  0  0  0  0  0  0  0  0
  151.9267  145.2050  159.3575 C   0  0  0  0  0  0  0  0  0  0  0  0
  151.7573  144.8898  160.7195 C   0  0  0  0  0  0  0  0  0  0  0  0
  151.3294  143.5907  161.0585 C   0  0  0  0  0  0  0  0  0  0  0  0
  151.0736  142.6322  160.1422 N   0  0  0  0  0  0  0  0  0  0  0  0
  151.0005  139.1883  154.4790 N   0  0  0  0  0  0  0  0  0  0  0  0
  151.6493  137.9330  154.0817 C   0  0  0  0  0  0  0  0  0  0  0  0
  150.8451  136.7587  154.6649 C   0  0  0  0  0  0  0  0  0  0  0  0
  149.4149  136.7881  154.2350 N   0  3  0  0  0  0  0  0  0  0  0  0
  148.6451  135.6389  154.8036 C   0  0  2  0  0  0  0  0  0  0  0  0
  149.5088  134.3515  154.8871 C   0  0  0  0  0  0  0  0  0  0  0  0
  148.6712  133.3011  154.1401 C   0  0  1  0  0  0  0  0  0  0  0  0
  147.4238  132.9537  154.9688 C   0  0  0  0  0  0  0  0  0  0  0  0
  146.5638  134.2205  154.8205 C   0  0  0  0  0  0  0  0  0  0  0  0
  147.4447  135.1394  153.9500 C   0  0  2  0  0  0  0  0  0  0  0  0
  148.0880  134.1314  153.0047 C   0  0  0  0  0  0  0  0  0  0  0  0
  148.7908  138.1253  154.4637 C   0  0  0  0  0  0  0  0  0  0  0  0
  149.6565  139.2713  153.9059 C   0  0  0  0  0  0  0  0  0  0  0  0
  149.9901  141.3524  154.8296 H   0  0  0  0  0  0  0  0  0  0  0  0
  152.0558  142.6885  156.1945 H   0  0  0  0  0  0  0  0  0  0  0  0
  150.3564  143.1363  156.2072 H   0  0  0  0  0  0  0  0  0  0  0  0
  149.9254  141.4621  158.0329 H   0  0  0  0  0  0  0  0  0  0  0  0
  151.6095  141.0002  158.0173 H   0  0  0  0  0  0  0  0  0  0  0  0
  151.7808  144.4256  157.3412 H   0  0  0  0  0  0  0  0  0  0  0  0
  152.2522  146.1902  159.0576 H   0  0  0  0  0  0  0  0  0  0  0  0
  151.9499  145.6257  161.4859 H   0  0  0  0  0  0  0  0  0  0  0  0
  151.1880  143.3147  162.0929 H   0  0  0  0  0  0  0  0  0  0  0  0
  151.6678  137.8677  152.9928 H   0  0  0  0  0  0  0  0  0  0  0  0
  152.6909  137.8544  154.3927 H   0  0  0  0  0  0  0  0  0  0  0  0
  151.3209  135.8263  154.3638 H   0  0  0  0  0  0  0  0  0  0  0  0
  150.8925  136.7926  155.7547 H   0  0  0  0  0  0  0  0  0  0  0  0
  148.2903  135.9303  155.7939 H   0  0  0  0  0  0  0  0  0  0  0  0
  150.4641  134.4665  154.3734 H   0  0  0  0  0  0  0  0  0  0  0  0
  149.7210  134.0600  155.9164 H   0  0  0  0  0  0  0  0  0  0  0  0
  149.2445  132.4285  153.8255 H   0  0  0  0  0  0  0  0  0  0  0  0
  146.9075  132.0878  154.5524 H   0  0  0  0  0  0  0  0  0  0  0  0
  147.6662  132.7321  156.0088 H   0  0  0  0  0  0  0  0  0  0  0  0
  145.6285  133.9863  154.3102 H   0  0  0  0  0  0  0  0  0  0  0  0
  146.3122  134.6691  155.7823 H   0  0  0  0  0  0  0  0  0  0  0  0
  146.8438  135.9050  153.4649 H   0  0  0  0  0  0  0  0  0  0  0  0
  148.8453  134.5705  152.3527 H   0  0  0  0  0  0  0  0  0  0  0  0
  147.3648  133.5848  152.3967 H   0  0  0  0  0  0  0  0  0  0  0  0
  147.8229  138.1891  153.9715 H   0  0  0  0  0  0  0  0  0  0  0  0
  148.6227  138.2698  155.5323 H   0  0  0  0  0  0  0  0  0  0  0  0
  149.1731  140.2302  154.0992 H   0  0  0  0  0  0  0  0  0  0  0  0
  149.7245  139.1928  152.8200 H   0  0  0  0  0  0  0  0  0  0  0  0
  149.4177  136.6585  153.2333 H   0  0  0  0  0  0  0  0  0  0  0  0
  1  2  2  0  0  0  0
  2  3  1  0  0  0  0
  2 12  1  0  0  0  0
  3  4  1  0  0  0  0
  3 25  1  0  0  0  0
  4  5  1  0  0  0  0
  4 26  1  0  0  0  0
  4 27  1  0  0  0  0
  5  6  1  0  0  0  0
  5 28  1  0  0  0  0
  5 29  1  0  0  0  0
  6 11  1  0  0  0  0
  6  7  2  0  0  0  0
  7  8  1  0  0  0  0
  7 30  1  0  0  0  0
  8  9  2  0  0  0  0
  8 31  1  0  0  0  0
  9 10  1  0  0  0  0
  9 32  1  0  0  0  0
 10 11  2  0  0  0  0
 10 33  1  0  0  0  0
 12 24  1  0  0  0  0
 12 13  1  0  0  0  0
 13 14  1  0  0  0  0
 13 34  1  0  0  0  0
 13 35  1  0  0  0  0
 14 15  1  0  0  0  0
 14 36  1  0  0  0  0
 14 37  1  0  0  0  0
 15 16  1  0  0  0  0
 15 23  1  0  0  0  0
 15 53  1  0  0  0  0
 16 21  1  0  0  0  0
 16 17  1  0  0  0  0
 16 38  1  0  0  0  0
 17 18  1  0  0  0  0
 17 39  1  0  0  0  0
 17 40  1  0  0  0  0
 18 22  1  0  0  0  0
 18 19  1  0  0  0  0
 18 41  1  0  0  0  0
 19 20  1  0  0  0  0
 19 42  1  0  0  0  0
 19 43  1  0  0  0  0
 20 21  1  0  0  0  0
 20 44  1  0  0  0  0
 20 45  1  0  0  0  0
 21 22  1  0  0  0  0
 21 46  1  0  0  0  0
 22 47  1  0  0  0  0
 22 48  1  0  0  0  0
 23 24  1  0  0  0  0
 23 49  1  0  0  0  0
 23 50  1  0  0  0  0
 24 51  1  0  0  0  0
 24 52  1  0  0  0  0
M  CHG  1  15   1
M  END
> <s_m_source_file>
AV-unprocessed.smi

> <i_m_source_file_index>
907

> <i_lp_mmshare_version>
43012

> <i_f3d_flags>
0

> <s_epik_input>
W0NIMl0xW0NIMl1bQ0BASF0oW0NIMl0yKVtDQEBIXShbQ0gyXVtDQEhdMTIpTihbQ0gyXVtDSDJdMylbQ0gyXVtDSDJdTjNDKD1PKVtOSF1bQ0gyXVtDSDJdYzRbY0hdW2NIXVtjSF1bY0hdbjQ=

> <s_epik_cmdline>
J2VwaWtfcHl0aG9uJywgJy1waCcsICc3LjAnLCAnLXRuJywgJzgnLCAnLW1hJywgJzIwMCcsICctbWV0YWxfYmluZGluZycsICctaW1hZScsICc8aW5maWxlLm1hZT4nLCAnLW9tYWUnLCAnPG91dGZpbGUubWFlPic=

> <r_epik_Ionization_Penalty>
0.0419258

> <r_epik_Ionization_Penalty_Charging>
0.00262064

> <r_epik_Ionization_Penalty_Neutral>
0.0393052

> <r_epik_State_Penalty>
0.0329887

> <r_epik_Charging_Adjusted_Penalty>
0.0356093

> <i_epik_Tot_Q>
1

> <i_epik_Tot_abs_Q>
1

> <r_epik_Metal_State_Penalty>
0.0309172

> <b_epik_Metal_Only>
0

> <s_lp_Force_Field>
OPLS_2005

> <r_lp_Energy>
96.3886

> <b_lp_Chiralities_Consistent>
1

> <s_lp_Variant>
AV-unprocessed.smi:907-3

> <Gold.Version>
5.8.1

> <Gold.Id.Protein>
6NUR|6NUR_protein|mol2

> <Gold.PLP.Fitness>
55.4585

> <Gold.PLP.PLP>
-48.2103

> <Gold.PLP.part.hbond>
-2.8287

> <Gold.PLP.part.metal>
0.0000

> <Gold.PLP.part.buried>
-3.2113

> <Gold.PLP.part.nonpolar>
-42.3071

> <Gold.PLP.part.repulsive>
0.2027

> <Gold.PLP.ligand.clash>
0.6544

> <Gold.PLP.ligand.torsion>
0.5970

> <Gold.PLP.Chemscore.Hbond>
3.0000

> <Gold.PLP.Chemscore.CHOScore>
0.0000

> <Gold.PLP.Chemscore.Metal>
0.0000

> <Gold.Chemscore.Hbonds>
donor molecule, donor type, donor heavy atom, donor atom, acceptor molecule, acceptor atom, score
      L1  H    15    53       P1  7948  1.76
      P1  H  7997  8009       L1     1  1.00

> <Gold.PLP.Chemscore.Internal.Correction>
0.0966

> <Gold.Rescore>
     Score         DG    S(hbond)    S(metal)    S(lipo)     H(rot)  DE(clash)    DE(int)     intcor
     21.49     -22.85       1.85        0.00     125.56       1.37       0.81       0.55       ----

> <Gold.Chemscore.Fitness>
21.4898

> <Gold.Chemscore.DG>
-22.8454

> <Gold.Chemscore.ZeroCoef>
-5.4800

> <Gold.Chemscore.Hbond>
1.8534

> <Gold.Chemscore.Metal>
0.0000

> <Gold.Chemscore.Lipo>
125.5572

> <Gold.Chemscore.Internal_Hbond>
0.0000

> <Gold.Chemscore.DEClash>
0.8104

> <Gold.Chemscore.DEInternal>
0.5452

> <Gold.Chemscore.Rot>
1.3731

> <Gold.Chemscore.Internal.Correction>
   9.000000E+99

> <Gold.Chemscore.Hbonds>
donor molecule, donor type, donor heavy atom, donor atom, acceptor molecule, acceptor atom, score
      L1  H    15    53       P1  7948  0.70
      P1  H  7997  8009       L1     1  0.94

> <Gold.Chemscore.Hbond.Weighted>
-6.1904

> <Gold.Chemscore.Metal.Weighted>
-0.0000

> <Gold.Chemscore.Lipo.Weighted>
-14.6902

> <Gold.Chemscore.Internal_Hbond.Weighted>
0.0000

> <Gold.Chemscore.DEClash.Weighted>
0.8104

> <Gold.Chemscore.DEInternal.Weighted>
0.5452

> <Gold.Chemscore.Rot.Weighted>
3.5152

> <Gold.Chemscore.Internal.Correction.Weighted>
   9.000000E+99

> <Gold.Protein.RotatedTorsions>
[ 6907 6896 6895 6894 ] final -158.98 input  -60.11 | X-H torsion
[ 7974 7965 7964 7962 ] final  -57.02 input  175.53 | X-H torsion
[ 8008 7997 7996 7995 ] final -148.31 input   59.86 | X-H torsion
[ 10167 10162 10161 10158 ] final  -19.99 input  -65.29 | X-H torsion
[ 10718 10713 10712 10709 ] final -119.84 input   66.30 | X-H torsion
[ 10763 10752 10751 10750 ] final   61.43 input  -60.55 | X-H torsion
[ 11005 11000 10999 10996 ] final   82.74 input  -57.11 | X-H torsion

> <Gold.Protein.ActiveResidues>
 VAL166  LYS551  ARG553  GLY616  TRP617  ASP618  TYR619  PRO620  LYS621  CYS622 
 ASP623  PHE694  ASN695  SER759  ASP760  ASP761  ALA762  ILE779  LEU786  VAL792 
 PHE793  MET794  SER795  GLU796  ALA797  LYS798  CYS799  TRP800  GLU811  SER814 

> <Gold.Protein.RotatedAtoms>
  151.3265  133.4018  159.2658 H   0  0  0  0  0  0  0  0  0  0  0  0  # atno 6907 bound_to 6896
  150.9991  134.9308  159.7954 H   0  0  0  0  0  0  0  0  0  0  0  0  # atno 6908 bound_to 6896
  152.5270  134.3230  159.9207 H   0  0  0  0  0  0  0  0  0  0  0  0  # atno 6909 bound_to 6896
  145.8559  140.8320  142.9962 H   0  0  0  0  0  0  0  0  0  0  0  0  # atno 7974 bound_to 7965
  155.5896  140.0651  157.2762 H   0  0  0  0  0  0  0  0  0  0  0  0  # atno 8008 bound_to 7997
  154.4309  140.1837  156.1107 H   0  0  0  0  0  0  0  0  0  0  0  0  # atno 8009 bound_to 7997
  156.0243  140.3313  155.7075 H   0  0  0  0  0  0  0  0  0  0  0  0  # atno 8010 bound_to 7997
  140.7273  143.4765  151.0175 H   0  0  0  0  0  0  0  0  0  0  0  0  # atno 10167 bound_to 10162
  156.1212  130.6324  150.9466 H   0  0  0  0  0  0  0  0  0  0  0  0  # atno 10718 bound_to 10713
  152.9950  135.5501  154.6032 H   0  0  0  0  0  0  0  0  0  0  0  0  # atno 10763 bound_to 10752
  154.5369  135.2817  155.1132 H   0  0  0  0  0  0  0  0  0  0  0  0  # atno 10764 bound_to 10752
  154.2425  135.6414  153.5265 H   0  0  0  0  0  0  0  0  0  0  0  0  # atno 10765 bound_to 10752
  139.9054  134.8093  156.2215 H   0  0  0  0  0  0  0  0  0  0  0  0  # atno 11005 bound_to 11000
  144.6727  140.1022  143.7460 LP  0  0  0  0  0  0  0  0  0  0  0  0  # atno 17320 bound_to 7965
  145.9304  139.2603  143.1328 LP  0  0  0  0  0  0  0  0  0  0  0  0  # atno 17321 bound_to 7965
  139.8461  143.7500  152.3179 LP  0  0  0  0  0  0  0  0  0  0  0  0  # atno 17342 bound_to 10162
  139.7665  144.7490  151.0286 LP  0  0  0  0  0  0  0  0  0  0  0  0  # atno 17343 bound_to 10162
  157.6395  131.0912  150.8280 LP  0  0  0  0  0  0  0  0  0  0  0  0  # atno 17370 bound_to 10713
  156.8376  130.5037  149.5324 LP  0  0  0  0  0  0  0  0  0  0  0  0  # atno 17371 bound_to 10713
  141.0403  133.6941  156.1585 LP  0  0  0  0  0  0  0  0  0  0  0  0  # atno 17394 bound_to 11000
  140.6966  134.4609  157.5587 LP  0  0  0  0  0  0  0  0  0  0  0  0  # atno 17395 bound_to 11000

$$$$
