#       Name:                AV-unprocessed.smi:218
#       Creating user name   scv26
#       Creation time:       Thu Mar 26 20:07:44 2020


#       File generated by GOLD software.
#

@<TRIPOS>MOLECULE
AV-unprocessed.smi:218
    68    71     1
SMALL
NO_CHARGES


@<TRIPOS>ATOM
      1 ****        -5.0463   5.2633  -4.5409 C.3            1 S1                 0.0000
      2 ****        -4.6601   5.1274  -3.0631 C.3            1 S1                 0.0000
      3 ****        -3.6404   6.2035  -2.6527 C.3            1 S1                 0.0000
      4 ****        -4.0951   3.8253  -2.8982 O.3            1 S1                 0.0000
      5 ****        -4.0387   3.2467  -1.6448 C.ar           1 S1                 0.0000
      6 ****        -3.4015   1.9959  -1.5152 C.ar           1 S1                 0.0000
      7 ****        -3.3441   1.3887  -0.2445 C.ar           1 S1                 0.0000
      8 ****        -2.6595   0.0510  -0.0633 C.3            1 S1                 0.0000
      9 ****        -1.2079   0.1627  -0.0322 N.pl3          1 S1                 0.0000
     10 ****        -0.4466  -0.9486   0.0578 C.ar           1 S1                 0.0000
     11 ****        -1.0132  -2.1824   0.0920 N.ar           1 S1                 0.0000
     12 ****        -0.2395  -3.2686   0.1652 C.ar           1 S1                 0.0000
     13 ****         1.0918  -3.3410   0.2192 N.ar           1 S1                 0.0000
     14 ****         1.6708  -2.1040   0.1985 C.ar           1 S1                 0.0000
     15 ****         0.9693  -0.8683   0.1111 C.ar           1 S1                 0.0000
     16 ****         1.8714   0.1848   0.0859 N.2            1 S1                 0.0000
     17 ****         3.0372  -0.3988   0.1460 C.2            1 S1                 0.0000
     18 ****         3.0150  -1.7749   0.2541 N.pl3          1 S1                 0.0000
     19 ****         4.1959  -2.7127   0.2996 C.3            1 S1                 0.0000
     20 ****         3.7814  -3.9656   0.7420 O.3            1 S1                 0.0000
     21 ****         3.7909  -3.9824   2.1611 C.3            1 S1                 0.0000
     22 ****         3.7749  -5.4378   2.6517 C.3            1 S1                 0.0000
     23 ****         3.6225  -5.4860   4.0541 O.3            1 S1                 0.0000
     24 ****         5.0613  -3.1935   2.5067 C.3            1 S1                 0.0000
     25 ****         4.8678  -2.4641   3.7026 O.3            1 S1                 0.0000
     26 ****         5.2459  -2.2370   1.3243 C.3            1 S1                 0.0000
     27 ****         6.5532  -2.3354   0.7979 O.3            1 S1                 0.0000
     28 ****        -3.9242   2.0574   0.8515 C.ar           1 S1                 0.0000
     29 ****        -4.5395   3.3037   0.6242 C.ar           1 S1                 0.0000
     30 ****        -4.6002   3.8897  -0.5905 N.ar           1 S1                 0.0000
     31 ****         4.5470  -2.7402  -0.7327 H              1 S1                 0.0000
     32 ****         2.9000  -3.4562   2.5105 H              1 S1                 0.0000
     33 ****         5.9171  -3.8626   2.6104 H              1 S1                 0.0000
     34 ****         5.0744  -1.1998   1.6107 H              1 S1                 0.0000
     35 ****        -5.4930   6.2373  -4.7425 H              1 S1                 0.0000
     36 ****        -5.7725   4.5013  -4.8251 H              1 S1                 0.0000
     37 ****        -4.1768   5.1530  -5.1894 H              1 S1                 0.0000
     38 ****        -5.5757   5.2384  -2.4804 H              1 S1                 0.0000
     39 ****        -4.0448   7.2039  -2.8080 H              1 S1                 0.0000
     40 ****        -2.7247   6.1199  -3.2385 H              1 S1                 0.0000
     41 ****        -3.3675   6.1217  -1.6010 H              1 S1                 0.0000
     42 ****        -2.9649   1.5127  -2.3772 H              1 S1                 0.0000
     43 ****        -3.0073  -0.4109   0.8617 H              1 S1                 0.0000
     44 ****        -2.9595  -0.6045  -0.8821 H              1 S1                 0.0000
     45 ****        -0.8300   1.0987  -0.0622 H              1 S1                 0.0000
     46 ****        -0.7602  -4.2146   0.1831 H              1 S1                 0.0000
     47 ****         3.9543   0.1710   0.1087 H              1 S1                 0.0000
     48 ****         2.9395  -5.9731   2.1999 H              1 S1                 0.0000
     49 ****         4.6869  -5.9604   2.3624 H              1 S1                 0.0000
     50 ****         3.6046  -6.3916   4.3236 H              1 S1                 0.0000
     51 ****         4.0884  -1.9378   3.6109 H              1 S1                 0.0000
     52 ****         7.1657  -2.0819   1.4717 H              1 S1                 0.0000
     53 ****        -3.8991   1.6295   1.8430 H              1 S1                 0.0000
     54 ****        -4.9951   3.8449   1.4401 H              1 S1                 0.0000
     55 ****        -3.1549   3.8746  -3.2352 LP             1 S1                 0.0000
     56 ****        -4.6249   3.2060  -3.4776 LP             1 S1                 0.0000
     57 ****        -2.0082  -2.2774   0.0625 LP             1 S1                 0.0000
     58 ****         1.6043  -4.1982   0.2689 LP             1 S1                 0.0000
     59 ****         1.6744   1.1639   0.0338 LP             1 S1                 0.0000
     60 ****         4.4042  -4.6665   0.3945 LP             1 S1                 0.0000
     61 ****         2.8557  -4.1484   0.4110 LP             1 S1                 0.0000
     62 ****         2.7669  -5.0394   4.3158 LP             1 S1                 0.0000
     63 ****         4.3901  -5.0188   4.4929 LP             1 S1                 0.0000
     64 ****         5.6567  -1.8722   3.8680 LP             1 S1                 0.0000
     65 ****         4.7592  -3.0966   4.4695 LP             1 S1                 0.0000
     66 ****         6.6468  -1.7267   0.0100 LP             1 S1                 0.0000
     67 ****         6.7333  -3.2774   0.5147 LP             1 S1                 0.0000
     68 ****        -5.0480   4.7758  -0.7101 LP             1 S1                 0.0000
@<TRIPOS>BOND
    1    1    2 1     
    2    1   35 1     
    3    1   36 1     
    4    1   37 1     
    5    2    3 1     
    6    2    4 1     
    7    2   38 1     
    8    3   39 1     
    9    3   40 1     
   10    3   41 1     
   11    4    5 1     
   12    5   30 ar    
   13    5    6 ar    
   14    6    7 ar    
   15    6   42 1     
   16    7    8 1     
   17    7   28 ar    
   18    8    9 1     
   19    8   43 1     
   20    8   44 1     
   21    9   10 1     
   22    9   45 1     
   23   10   15 ar    
   24   10   11 ar    
   25   11   12 ar    
   26   12   13 ar    
   27   12   46 1     
   28   13   14 ar    
   29   14   18 1     
   30   14   15 ar    
   31   15   16 1     
   32   16   17 2     
   33   17   18 1     
   34   17   47 1     
   35   18   19 1     
   36   19   31 1     
   37   19   26 1     
   38   19   20 1     
   39   20   21 1     
   40   21   32 1     
   41   21   22 1     
   42   21   24 1     
   43   22   23 1     
   44   22   48 1     
   45   22   49 1     
   46   23   50 1     
   47   24   33 1     
   48   24   25 1     
   49   24   26 1     
   50   25   51 1     
   51   26   34 1     
   52   26   27 1     
   53   27   52 1     
   54   28   29 ar    
   55   28   53 1     
   56   29   30 ar    
   57   29   54 1     
   58    4   55 1     
   59    4   56 1     
   60   11   57 1     
   61   13   58 1     
   62   16   59 1     
   63   20   60 1     
   64   20   61 1     
   65   23   62 1     
   66   23   63 1     
   67   25   64 1     
   68   25   65 1     
   69   27   66 1     
   70   27   67 1     
   71   30   68 1     
@<TRIPOS>SUBSTRUCTURE
      1 S1             1
@<TRIPOS>SET
LONE_PAIRS      STATIC     ATOMS    <user>   **** ""
14 55 56 57 58 59 60 61 62 63 64 65 66 67 68
DONOR_HYDROGENS      STATIC     ATOMS    <user>   **** ""
4 45 50 51 52
ATOM$BLUE        STATIC     ATOMS    COLORGROUP SYSTEM
14 55 56 57 58 59 60 61 62 63 64 65 66 67 68
ATOM$RED        STATIC     ATOMS    COLORGROUP SYSTEM
4 45 50 51 52
