AV-unprocessed.smi:2809|AV-procd|sdf|10825|dock7
  -GOLD-   2272015263D 1   1.00000     0.00000
 Structure written by MMmdl.
 44 45  0  0  0  0  0  0  0  0  1 V2000
  151.9744  144.1221  161.1817 C   0  0  0  0  0  0  0  0  0  0  0  0
  153.0514  143.3282  160.4340 C   0  0  0  0  0  0  0  0  0  0  0  0
  152.5145  142.6791  159.1724 C   0  0  0  0  0  0  0  0  0  0  0  0
  152.6894  141.2983  158.9527 C   0  0  0  0  0  0  0  0  0  0  0  0
  152.1859  140.6999  157.7818 C   0  0  0  0  0  0  0  0  0  0  0  0
  151.5005  141.4652  156.8164 C   0  0  0  0  0  0  0  0  0  0  0  0
  151.0386  140.7976  155.7028 O   0  0  0  0  0  0  0  0  0  0  0  0
  149.9026  141.3195  155.0261 C   0  0  0  0  0  0  0  0  0  0  0  0
  149.0808  140.1486  154.4658 C   0  0  2  0  0  0  0  0  0  0  0  0
  149.8860  139.4967  153.5041 O   0  0  0  0  0  0  0  0  0  0  0  0
  147.7782  140.6263  153.7845 C   0  0  0  0  0  0  0  0  0  0  0  0
  146.8814  139.5075  153.4514 N   0  0  0  0  0  0  0  0  0  0  0  0
  146.9175  139.0550  152.1226 C   0  0  0  0  0  0  0  0  0  0  0  0
  146.1696  138.0818  151.7162 N   0  0  0  0  0  0  0  0  0  0  0  0
  145.2986  137.4516  152.6096 C   0  0  0  0  0  0  0  0  0  0  0  0
  144.4645  136.3243  152.0275 C   0  0  0  0  0  0  0  0  0  0  0  0
  145.2204  137.8382  153.9123 C   0  0  0  0  0  0  0  0  0  0  0  0
  144.2947  137.1855  154.9316 C   0  0  0  0  0  0  0  0  0  0  0  0
  146.0677  138.9428  154.3902 C   0  0  0  0  0  0  0  0  0  0  0  0
  146.0548  139.3391  155.5574 O   0  0  0  0  0  0  0  0  0  0  0  0
  151.3285  142.8542  157.0425 C   0  0  0  0  0  0  0  0  0  0  0  0
  151.8330  143.4538  158.2127 C   0  0  0  0  0  0  0  0  0  0  0  0
  152.3845  144.5790  162.0825 H   0  0  0  0  0  0  0  0  0  0  0  0
  151.1471  143.4782  161.4816 H   0  0  0  0  0  0  0  0  0  0  0  0
  151.5695  144.9204  160.5591 H   0  0  0  0  0  0  0  0  0  0  0  0
  153.8805  143.9861  160.1708 H   0  0  0  0  0  0  0  0  0  0  0  0
  153.4653  142.5603  161.0886 H   0  0  0  0  0  0  0  0  0  0  0  0
  153.2087  140.6930  159.6813 H   0  0  0  0  0  0  0  0  0  0  0  0
  152.3254  139.6403  157.6235 H   0  0  0  0  0  0  0  0  0  0  0  0
  149.2892  141.9184  155.7016 H   0  0  0  0  0  0  0  0  0  0  0  0
  150.2350  141.9619  154.2086 H   0  0  0  0  0  0  0  0  0  0  0  0
  148.8713  139.4479  155.2751 H   0  0  0  0  0  0  0  0  0  0  0  0
  149.5554  139.7051  152.6438 H   0  0  0  0  0  0  0  0  0  0  0  0
  147.2404  141.2991  154.4550 H   0  0  0  0  0  0  0  0  0  0  0  0
  148.0064  141.2488  152.9165 H   0  0  0  0  0  0  0  0  0  0  0  0
  147.6169  139.5764  151.4669 H   0  0  0  0  0  0  0  0  0  0  0  0
  143.4022  136.5575  152.1039 H   0  0  0  0  0  0  0  0  0  0  0  0
  144.6562  135.3922  152.5594 H   0  0  0  0  0  0  0  0  0  0  0  0
  144.6962  136.1611  150.9743 H   0  0  0  0  0  0  0  0  0  0  0  0
  144.8788  136.7443  155.7398 H   0  0  0  0  0  0  0  0  0  0  0  0
  143.6744  136.3983  154.5067 H   0  0  0  0  0  0  0  0  0  0  0  0
  143.6260  137.9301  155.3646 H   0  0  0  0  0  0  0  0  0  0  0  0
  150.8132  143.4830  156.3327 H   0  0  0  0  0  0  0  0  0  0  0  0
  151.6927  144.5128  158.3728 H   0  0  0  0  0  0  0  0  0  0  0  0
  1  2  1  0  0  0  0
  1 23  1  0  0  0  0
  1 24  1  0  0  0  0
  1 25  1  0  0  0  0
  2  3  1  0  0  0  0
  2 26  1  0  0  0  0
  2 27  1  0  0  0  0
  3 22  1  0  0  0  0
  3  4  2  0  0  0  0
  4  5  1  0  0  0  0
  4 28  1  0  0  0  0
  5  6  2  0  0  0  0
  5 29  1  0  0  0  0
  6  7  1  0  0  0  0
  6 21  1  0  0  0  0
  7  8  1  0  0  0  0
  8  9  1  0  0  0  0
  8 30  1  0  0  0  0
  8 31  1  0  0  0  0
  9 10  1  0  0  0  0
  9 11  1  0  0  0  0
  9 32  1  0  0  0  0
 10 33  1  0  0  0  0
 11 12  1  0  0  0  0
 11 34  1  0  0  0  0
 11 35  1  0  0  0  0
 12 19  1  0  0  0  0
 12 13  1  0  0  0  0
 13 14  2  0  0  0  0
 13 36  1  0  0  0  0
 14 15  1  0  0  0  0
 15 16  1  0  0  0  0
 15 17  2  0  0  0  0
 16 37  1  0  0  0  0
 16 38  1  0  0  0  0
 16 39  1  0  0  0  0
 17 18  1  0  0  0  0
 17 19  1  0  0  0  0
 18 40  1  0  0  0  0
 18 41  1  0  0  0  0
 18 42  1  0  0  0  0
 19 20  2  0  0  0  0
 21 22  2  0  0  0  0
 21 43  1  0  0  0  0
 22 44  1  0  0  0  0
M  END
> <s_m_source_file>
AV-unprocessed.smi

> <i_m_source_file_index>
2809

> <i_lp_mmshare_version>
43012

> <i_f3d_flags>
0

> <s_epik_input>
W0NIM11bQ0gyXWMxW2NIXVtjSF1jKFtjSF1bY0hdMSlPW0NIMl1bQ0BIXShbT0hdKVtDSDJdbjJbY0hdbmMoW0NIM10pYyhbQ0gzXSljMj1P

> <s_epik_cmdline>
J2VwaWtfcHl0aG9uJywgJy1waCcsICc3LjAnLCAnLXRuJywgJzgnLCAnLW1hJywgJzIwMCcsICctbWV0YWxfYmluZGluZycsICctaW1hZScsICc8aW5maWxlLm1hZT4nLCAnLW9tYWUnLCAnPG91dGZpbGUubWFlPic=

> <r_lp_tautomer_probability>
1

> <r_epik_Ionization_Penalty>
3.74127e-05

> <r_epik_Ionization_Penalty_Charging>
8.43242e-08

> <r_epik_Ionization_Penalty_Neutral>
3.73284e-05

> <r_epik_State_Penalty>
-0

> <r_epik_Charging_Adjusted_Penalty>
8.43242e-08

> <i_epik_Tot_Q>
0

> <i_epik_Tot_abs_Q>
0

> <r_epik_Metal_State_Penalty>
-0

> <b_epik_Metal_Only>
0

> <s_lp_Force_Field>
OPLS_2005

> <r_lp_Energy>
22.1893

> <b_lp_Chiralities_Consistent>
1

> <s_lp_Variant>
AV-unprocessed.smi:2809-1

> <Gold.Version>
5.8.1

> <Gold.Id.Protein>
6NUR|6NUR_protein|mol2

> <Gold.PLP.Fitness>
45.9111

> <Gold.PLP.PLP>
-40.7479

> <Gold.PLP.part.hbond>
-2.2072

> <Gold.PLP.part.metal>
0.0000

> <Gold.PLP.part.buried>
-3.8338

> <Gold.PLP.part.nonpolar>
-34.7922

> <Gold.PLP.part.repulsive>
1.1633

> <Gold.PLP.ligand.clash>
0.0000

> <Gold.PLP.ligand.torsion>
1.0006

> <Gold.PLP.Chemscore.Hbond>
1.3501

> <Gold.PLP.Chemscore.CHOScore>
1.0000

> <Gold.PLP.Chemscore.Metal>
0.0000

> <Gold.Chemscore.Hbonds>
donor molecule, donor type, donor heavy atom, donor atom, acceptor molecule, acceptor atom, score
      L1  H    10    33       P1  7957  0.98
      P1  H  7989  7998       L1    10  0.38
      L1  C    13    36       P1  7957  0.98

> <Gold.PLP.Chemscore.Internal.Correction>
0.1143

> <Gold.Rescore>
     Score         DG    S(hbond)    S(metal)    S(lipo)     H(rot)  DE(clash)    DE(int)     intcor
     14.21     -15.20       0.99        0.00     108.91       2.47       0.09       0.90       ----

> <Gold.Chemscore.Fitness>
14.2130

> <Gold.Chemscore.DG>
-15.2004

> <Gold.Chemscore.ZeroCoef>
-5.4800

> <Gold.Chemscore.Hbond>
0.9851

> <Gold.Chemscore.Metal>
0.0000

> <Gold.Chemscore.Lipo>
108.9092

> <Gold.Chemscore.Internal_Hbond>
0.0000

> <Gold.Chemscore.DEClash>
0.0872

> <Gold.Chemscore.DEInternal>
0.9002

> <Gold.Chemscore.Rot>
2.4657

> <Gold.Chemscore.Internal.Correction>
   9.000000E+99

> <Gold.Chemscore.Hbonds>
donor molecule, donor type, donor heavy atom, donor atom, acceptor molecule, acceptor atom, score
      L1  H    10    33       P1  7957  0.90
      P1  H  7989  7998       L1    10  0.02

> <Gold.Chemscore.Hbond.Weighted>
-3.2902

> <Gold.Chemscore.Metal.Weighted>
-0.0000

> <Gold.Chemscore.Lipo.Weighted>
-12.7424

> <Gold.Chemscore.Internal_Hbond.Weighted>
0.0000

> <Gold.Chemscore.DEClash.Weighted>
0.0872

> <Gold.Chemscore.DEInternal.Weighted>
0.9002

> <Gold.Chemscore.Rot.Weighted>
6.3121

> <Gold.Chemscore.Internal.Correction.Weighted>
   9.000000E+99

> <Gold.Protein.RotatedTorsions>
[ 6907 6896 6895 6894 ] final  -28.15 input  -60.11 | X-H torsion
[ 7974 7965 7964 7962 ] final   52.62 input  175.53 | X-H torsion
[ 8008 7997 7996 7995 ] final   94.97 input   59.86 | X-H torsion
[ 10167 10162 10161 10158 ] final  101.81 input  -65.29 | X-H torsion
[ 10718 10713 10712 10709 ] final -101.45 input   66.30 | X-H torsion
[ 10763 10752 10751 10750 ] final  161.11 input  -60.55 | X-H torsion
[ 11005 11000 10999 10996 ] final   94.34 input  -57.11 | X-H torsion

> <Gold.Protein.ActiveResidues>
 VAL166  LYS551  ARG553  GLY616  TRP617  ASP618  TYR619  PRO620  LYS621  CYS622 
 ASP623  PHE694  ASN695  SER759  ASP760  ASP761  ALA762  ILE779  LEU786  VAL792 
 PHE793  MET794  SER795  GLU796  ALA797  LYS798  CYS799  TRP800  GLU811  SER814 

> <Gold.Protein.RotatedAtoms>
  151.1370  135.0160  159.8607 H   0  0  0  0  0  0  0  0  0  0  0  0  # atno 6907 bound_to 6896
  152.5452  134.1544  159.8542 H   0  0  0  0  0  0  0  0  0  0  0  0  # atno 6908 bound_to 6896
  151.1616  133.4796  159.2627 H   0  0  0  0  0  0  0  0  0  0  0  0  # atno 6909 bound_to 6896
  145.9795  139.4228  143.0141 H   0  0  0  0  0  0  0  0  0  0  0  0  # atno 7974 bound_to 7965
  156.0637  140.3293  155.7492 H   0  0  0  0  0  0  0  0  0  0  0  0  # atno 8008 bound_to 7997
  155.5414  140.0602  157.2886 H   0  0  0  0  0  0  0  0  0  0  0  0  # atno 8009 bound_to 7997
  154.4494  140.1910  156.0583 H   0  0  0  0  0  0  0  0  0  0  0  0  # atno 8010 bound_to 7997
  139.7405  144.7012  151.0582 H   0  0  0  0  0  0  0  0  0  0  0  0  # atno 10167 bound_to 10162
  156.0195  130.5374  150.6965 H   0  0  0  0  0  0  0  0  0  0  0  0  # atno 10718 bound_to 10713
  154.2578  135.2769  155.2790 H   0  0  0  0  0  0  0  0  0  0  0  0  # atno 10763 bound_to 10752
  154.5410  135.5702  153.6842 H   0  0  0  0  0  0  0  0  0  0  0  0  # atno 10764 bound_to 10752
  152.9968  135.6251  154.2727 H   0  0  0  0  0  0  0  0  0  0  0  0  # atno 10765 bound_to 10752
  139.8799  134.8840  156.3850 H   0  0  0  0  0  0  0  0  0  0  0  0  # atno 11005 bound_to 11000
  145.7790  140.9864  143.1109 LP  0  0  0  0  0  0  0  0  0  0  0  0  # atno 17320 bound_to 7965
  144.6857  139.9541  143.7478 LP  0  0  0  0  0  0  0  0  0  0  0  0  # atno 17321 bound_to 7965
  140.7785  143.4930  150.9869 LP  0  0  0  0  0  0  0  0  0  0  0  0  # atno 17342 bound_to 10162
  139.8618  143.7304  152.3173 LP  0  0  0  0  0  0  0  0  0  0  0  0  # atno 17343 bound_to 10162
  157.4635  131.0885  151.0720 LP  0  0  0  0  0  0  0  0  0  0  0  0  # atno 17370 bound_to 10713
  157.1201  130.6058  149.5503 LP  0  0  0  0  0  0  0  0  0  0  0  0  # atno 17371 bound_to 10713
  140.9372  133.7539  156.0100 LP  0  0  0  0  0  0  0  0  0  0  0  0  # atno 17394 bound_to 11000
  140.8261  134.3232  157.5365 LP  0  0  0  0  0  0  0  0  0  0  0  0  # atno 17395 bound_to 11000

$$$$
