AV-unprocessed.smi:1310|AV-procd|sdf|5445|dock3
  -GOLD-   22720 5 13D 1   1.00000     0.00000
 Structure written by MMmdl.
 34 35  0  0  0  0  0  0  0  0  1 V2000
  140.3906  145.8200  160.7211 C   0  0  0  0  0  0  0  0  0  0  0  0
  141.2446  144.8396  161.3002 O   0  0  0  0  0  0  0  0  0  0  0  0
  142.5700  144.8165  160.9167 C   0  0  0  0  0  0  0  0  0  0  0  0
  143.4598  143.9776  161.6160 C   0  0  0  0  0  0  0  0  0  0  0  0
  144.8144  143.9482  161.2323 C   0  0  0  0  0  0  0  0  0  0  0  0
  145.2377  144.7599  160.1520 C   0  0  0  0  0  0  0  0  0  0  0  0
  146.5713  144.8391  159.6643 N   0  0  0  0  0  0  0  0  0  0  0  0
  147.7206  144.4131  160.2251 C   0  0  0  0  0  0  0  0  0  0  0  0
  147.8071  143.8374  161.3071 O   0  0  0  0  0  0  0  0  0  0  0  0
  148.8168  144.6704  159.4886 N   0  0  0  0  0  0  0  0  0  0  0  0
  150.2126  144.3480  159.7963 C   0  0  0  0  0  0  0  0  0  0  0  0
  151.0703  145.6274  159.8356 C   0  0  0  0  0  0  0  0  0  0  0  0
  152.3316  145.3155  159.0292 C   0  0  0  0  0  0  0  0  0  0  0  0
  151.8661  144.3122  157.9798 C   0  0  0  0  0  0  0  0  0  0  0  0
  150.8453  143.4446  158.7167 C   0  0  0  0  0  0  0  0  0  0  0  0
  144.2682  145.5687  159.5236 C   0  0  0  0  0  0  0  0  0  0  0  0
  142.9687  145.6019  159.8862 N   0  0  0  0  0  0  0  0  0  0  0  0
  139.3833  145.7015  161.1200 H   0  0  0  0  0  0  0  0  0  0  0  0
  140.3323  145.7092  159.6373 H   0  0  0  0  0  0  0  0  0  0  0  0
  140.7243  146.8305  160.9606 H   0  0  0  0  0  0  0  0  0  0  0  0
  143.1101  143.3679  162.4362 H   0  0  0  0  0  0  0  0  0  0  0  0
  145.4894  143.3125  161.7819 H   0  0  0  0  0  0  0  0  0  0  0  0
  146.6666  145.2625  158.7528 H   0  0  0  0  0  0  0  0  0  0  0  0
  148.6656  145.1654  158.6215 H   0  0  0  0  0  0  0  0  0  0  0  0
  150.2734  143.8541  160.7678 H   0  0  0  0  0  0  0  0  0  0  0  0
  150.5448  146.4574  159.3599 H   0  0  0  0  0  0  0  0  0  0  0  0
  151.3034  145.9373  160.8548 H   0  0  0  0  0  0  0  0  0  0  0  0
  152.7800  146.2068  158.5896 H   0  0  0  0  0  0  0  0  0  0  0  0
  153.0767  144.8504  159.6759 H   0  0  0  0  0  0  0  0  0  0  0  0
  151.3769  144.8398  157.1600 H   0  0  0  0  0  0  0  0  0  0  0  0
  152.6867  143.7299  157.5595 H   0  0  0  0  0  0  0  0  0  0  0  0
  151.3615  142.6153  159.2023 H   0  0  0  0  0  0  0  0  0  0  0  0
  150.1174  143.0084  158.0315 H   0  0  0  0  0  0  0  0  0  0  0  0
  144.5427  146.2121  158.7002 H   0  0  0  0  0  0  0  0  0  0  0  0
  1  2  1  0  0  0  0
  1 18  1  0  0  0  0
  1 19  1  0  0  0  0
  1 20  1  0  0  0  0
  2  3  1  0  0  0  0
  3 17  1  0  0  0  0
  3  4  2  0  0  0  0
  4  5  1  0  0  0  0
  4 21  1  0  0  0  0
  5  6  2  0  0  0  0
  5 22  1  0  0  0  0
  6  7  1  0  0  0  0
  6 16  1  0  0  0  0
  7  8  1  0  0  0  0
  7 23  1  0  0  0  0
  8  9  2  0  0  0  0
  8 10  1  0  0  0  0
 10 11  1  0  0  0  0
 10 24  1  0  0  0  0
 11 15  1  0  0  0  0
 11 12  1  0  0  0  0
 11 25  1  0  0  0  0
 12 13  1  0  0  0  0
 12 26  1  0  0  0  0
 12 27  1  0  0  0  0
 13 14  1  0  0  0  0
 13 28  1  0  0  0  0
 13 29  1  0  0  0  0
 14 15  1  0  0  0  0
 14 30  1  0  0  0  0
 14 31  1  0  0  0  0
 15 32  1  0  0  0  0
 15 33  1  0  0  0  0
 16 17  2  0  0  0  0
 16 34  1  0  0  0  0
M  END
> <s_m_source_file>
AV-unprocessed.smi

> <i_m_source_file_index>
1310

> <i_lp_mmshare_version>
43012

> <i_f3d_flags>
0

> <s_epik_input>
W0NIM11PYzFbY0hdW2NIXWMoW2NIXW4xKVtOSF1DKD1PKVtOSF1bQ0hdMltDSDJdW0NIMl1bQ0gyXVtDSDJdMg==

> <s_epik_cmdline>
J2VwaWtfcHl0aG9uJywgJy1waCcsICc3LjAnLCAnLXRuJywgJzgnLCAnLW1hJywgJzIwMCcsICctbWV0YWxfYmluZGluZycsICctaW1hZScsICc8aW5maWxlLm1hZT4nLCAnLW9tYWUnLCAnPG91dGZpbGUubWFlPic=

> <r_lp_tautomer_probability>
1

> <r_epik_Ionization_Penalty>
0.000100082

> <r_epik_Ionization_Penalty_Charging>
0

> <r_epik_Ionization_Penalty_Neutral>
0.000100082

> <r_epik_State_Penalty>
-0

> <r_epik_Charging_Adjusted_Penalty>
0

> <i_epik_Tot_Q>
0

> <i_epik_Tot_abs_Q>
0

> <r_epik_Metal_State_Penalty>
-0

> <b_epik_Metal_Only>
0

> <s_lp_Force_Field>
OPLS_2005

> <r_lp_Energy>
31.5118

> <b_lp_Chiralities_Consistent>
1

> <s_lp_Variant>
AV-unprocessed.smi:1310-1

> <Gold.Version>
5.8.1

> <Gold.Id.Protein>
6NUR|6NUR_protein|mol2

> <Gold.PLP.Fitness>
42.7558

> <Gold.PLP.PLP>
-33.9903

> <Gold.PLP.part.hbond>
-3.7493

> <Gold.PLP.part.metal>
0.0000

> <Gold.PLP.part.buried>
-4.6441

> <Gold.PLP.part.nonpolar>
-24.9382

> <Gold.PLP.part.repulsive>
0.4919

> <Gold.PLP.ligand.clash>
0.0000

> <Gold.PLP.ligand.torsion>
0.1194

> <Gold.PLP.Chemscore.Hbond>
3.0000

> <Gold.PLP.Chemscore.CHOScore>
0.0000

> <Gold.PLP.Chemscore.Metal>
0.0000

> <Gold.Chemscore.Hbonds>
donor molecule, donor type, donor heavy atom, donor atom, acceptor molecule, acceptor atom, score
      L1  H     7    23       P1  8029  0.99
      L1  H    10    24       P1  8029  1.00
      P1  H  6933  6944       L1     9  1.00

> <Gold.PLP.Chemscore.Internal.Correction>
0.0042

> <Gold.Rescore>
     Score         DG    S(hbond)    S(metal)    S(lipo)     H(rot)  DE(clash)    DE(int)     intcor
     21.03     -21.33       2.91        0.00      79.48       1.23       0.01       0.29       ----

> <Gold.Chemscore.Fitness>
21.0279

> <Gold.Chemscore.DG>
-21.3308

> <Gold.Chemscore.ZeroCoef>
-5.4800

> <Gold.Chemscore.Hbond>
2.9055

> <Gold.Chemscore.Metal>
0.0000

> <Gold.Chemscore.Lipo>
79.4778

> <Gold.Chemscore.Internal_Hbond>
0.0000

> <Gold.Chemscore.DEClash>
0.0126

> <Gold.Chemscore.DEInternal>
0.2903

> <Gold.Chemscore.Rot>
1.2315

> <Gold.Chemscore.Internal.Correction>
   9.000000E+99

> <Gold.Chemscore.Hbonds>
donor molecule, donor type, donor heavy atom, donor atom, acceptor molecule, acceptor atom, score
      L1  H     7    23       P1  8029  0.90
      L1  H    10    24       P1  8029  0.99
      P1  H  6933  6944       L1     9  0.99

> <Gold.Chemscore.Hbond.Weighted>
-9.7044

> <Gold.Chemscore.Metal.Weighted>
-0.0000

> <Gold.Chemscore.Lipo.Weighted>
-9.2989

> <Gold.Chemscore.Internal_Hbond.Weighted>
0.0000

> <Gold.Chemscore.DEClash.Weighted>
0.0126

> <Gold.Chemscore.DEInternal.Weighted>
0.2903

> <Gold.Chemscore.Rot.Weighted>
3.1526

> <Gold.Chemscore.Internal.Correction.Weighted>
   9.000000E+99

> <Gold.Protein.RotatedTorsions>
[ 6907 6896 6895 6894 ] final -155.22 input  -60.11 | X-H torsion
[ 7974 7965 7964 7962 ] final   32.78 input  175.53 | X-H torsion
[ 8008 7997 7996 7995 ] final  -41.15 input   59.86 | X-H torsion
[ 10167 10162 10161 10158 ] final  -97.88 input  -65.29 | X-H torsion
[ 10718 10713 10712 10709 ] final   59.28 input   66.30 | X-H torsion
[ 10763 10752 10751 10750 ] final -174.18 input  -60.55 | X-H torsion
[ 11005 11000 10999 10996 ] final  -33.23 input  -57.11 | X-H torsion

> <Gold.Protein.ActiveResidues>
 VAL166  LYS551  ARG553  GLY616  TRP617  ASP618  TYR619  PRO620  LYS621  CYS622 
 ASP623  PHE694  ASN695  SER759  ASP760  ASP761  ALA762  ILE779  LEU786  VAL792 
 PHE793  MET794  SER795  GLU796  ALA797  LYS798  CYS799  TRP800  GLU811  SER814 

> <Gold.Protein.RotatedAtoms>
  151.2693  133.4263  159.2620 H   0  0  0  0  0  0  0  0  0  0  0  0  # atno 6907 bound_to 6896
  151.0460  134.9640  159.8197 H   0  0  0  0  0  0  0  0  0  0  0  0  # atno 6908 bound_to 6896
  152.5374  134.2649  159.9002 H   0  0  0  0  0  0  0  0  0  0  0  0  # atno 6909 bound_to 6896
  146.1464  139.6481  142.9128 H   0  0  0  0  0  0  0  0  0  0  0  0  # atno 7974 bound_to 7965
  154.4006  140.1507  156.3144 H   0  0  0  0  0  0  0  0  0  0  0  0  # atno 8008 bound_to 7997
  155.8586  140.3454  155.5719 H   0  0  0  0  0  0  0  0  0  0  0  0  # atno 8009 bound_to 7997
  155.7905  140.0856  157.2002 H   0  0  0  0  0  0  0  0  0  0  0  0  # atno 8010 bound_to 7997
  140.2788  143.3296  152.0462 H   0  0  0  0  0  0  0  0  0  0  0  0  # atno 10167 bound_to 10162
  157.5663  130.8873  149.9193 H   0  0  0  0  0  0  0  0  0  0  0  0  # atno 10718 bound_to 10713
  154.5992  135.2853  155.0554 H   0  0  0  0  0  0  0  0  0  0  0  0  # atno 10763 bound_to 10752
  154.1825  135.6454  153.5042 H   0  0  0  0  0  0  0  0  0  0  0  0  # atno 10764 bound_to 10752
  153.0150  135.5427  154.6705 H   0  0  0  0  0  0  0  0  0  0  0  0  # atno 10765 bound_to 10752
  140.9617  133.7160  156.1381 H   0  0  0  0  0  0  0  0  0  0  0  0  # atno 11005 bound_to 11000
  145.4928  141.0438  143.2584 LP  0  0  0  0  0  0  0  0  0  0  0  0  # atno 17320 bound_to 7965
  144.7851  139.6444  143.7137 LP  0  0  0  0  0  0  0  0  0  0  0  0  # atno 17321 bound_to 7965
  139.4968  144.6606  151.6473 LP  0  0  0  0  0  0  0  0  0  0  0  0  # atno 17342 bound_to 10162
  140.5829  143.9914  150.6279 LP  0  0  0  0  0  0  0  0  0  0  0  0  # atno 17343 bound_to 10162
  156.0711  130.3685  150.0773 LP  0  0  0  0  0  0  0  0  0  0  0  0  # atno 17370 bound_to 10713
  156.8932  130.9595  151.3586 LP  0  0  0  0  0  0  0  0  0  0  0  0  # atno 17371 bound_to 10713
  140.7457  134.4100  157.5548 LP  0  0  0  0  0  0  0  0  0  0  0  0  # atno 17394 bound_to 11000
  139.8880  134.8866  156.2495 LP  0  0  0  0  0  0  0  0  0  0  0  0  # atno 17395 bound_to 11000

$$$$
