AV-unprocessed.smi:2414|AV-procd|sdf|9539|dock1
  -GOLD-   2272013173D 1   1.00000     0.00000
 Structure written by MMmdl.
 43 44  0  0  0  0  0  0  0  0  1 V2000
  150.9062  142.4183  158.1209 C   0  0  0  0  0  0  0  0  0  0  0  0
  150.6115  141.6137  156.9005 C   0  0  0  0  0  0  0  0  0  0  0  0
  150.5334  142.0570  155.6036 C   0  0  0  0  0  0  0  0  0  0  0  0
  150.2404  141.0515  154.6797 N   0  0  0  0  0  0  0  0  0  0  0  0
  150.0944  139.8546  155.2558 C   0  0  0  0  0  0  0  0  0  0  0  0
  149.7807  138.5998  154.5034 C   0  0  1  0  0  0  0  0  0  0  0  0
  150.9395  137.5898  154.5738 C   0  0  0  0  0  0  0  0  0  0  0  0
  148.4093  138.0203  154.9124 C   0  0  0  0  0  0  0  0  0  0  0  0
  147.9646  136.9514  154.0240 N   0  0  0  0  0  0  0  0  0  0  0  0
  146.7463  136.3936  154.0453 C   0  0  0  0  0  0  0  0  0  0  0  0
  145.8605  136.7005  154.8431 O   0  0  0  0  0  0  0  0  0  0  0  0
  146.6066  135.4728  153.0840 N   0  0  0  0  0  0  0  0  0  0  0  0
  145.3862  134.7179  152.8192 C   0  0  0  0  0  0  0  0  0  0  0  0
  145.1912  134.4435  151.3124 C   0  0  1  0  0  0  0  0  0  0  0  0
  145.3247  135.7492  150.5099 C   0  0  0  0  0  0  0  0  0  0  0  0
  146.1247  133.3510  150.7510 C   0  0  0  0  0  0  0  0  0  0  0  0
  145.2233  132.5777  149.8125 C   0  0  0  0  0  0  0  0  0  0  0  0
  143.8924  132.6511  150.5462 C   0  0  0  0  0  0  0  0  0  0  0  0
  143.8621  133.9638  151.0927 O   0  0  0  0  0  0  0  0  0  0  0  0
  150.3183  139.8972  157.0012 S   0  0  0  0  0  0  0  0  0  0  0  0
  150.4768  143.4172  158.0414 H   0  0  0  0  0  0  0  0  0  0  0  0
  151.9820  142.5228  158.2632 H   0  0  0  0  0  0  0  0  0  0  0  0
  150.4920  141.9459  159.0120 H   0  0  0  0  0  0  0  0  0  0  0  0
  150.6723  143.0676  155.2487 H   0  0  0  0  0  0  0  0  0  0  0  0
  149.7001  138.8952  153.4565 H   0  0  0  0  0  0  0  0  0  0  0  0
  151.8693  138.0396  154.2244 H   0  0  0  0  0  0  0  0  0  0  0  0
  150.7490  136.7148  153.9520 H   0  0  0  0  0  0  0  0  0  0  0  0
  151.1005  137.2437  155.5952 H   0  0  0  0  0  0  0  0  0  0  0  0
  148.4616  137.6175  155.9243 H   0  0  0  0  0  0  0  0  0  0  0  0
  147.6565  138.8102  154.9356 H   0  0  0  0  0  0  0  0  0  0  0  0
  148.6251  136.6298  153.3318 H   0  0  0  0  0  0  0  0  0  0  0  0
  147.3936  135.2877  152.4792 H   0  0  0  0  0  0  0  0  0  0  0  0
  145.4433  133.7775  153.3688 H   0  0  0  0  0  0  0  0  0  0  0  0
  144.5164  135.2547  153.2024 H   0  0  0  0  0  0  0  0  0  0  0  0
  146.3223  136.1766  150.6147 H   0  0  0  0  0  0  0  0  0  0  0  0
  144.6076  136.4971  150.8499 H   0  0  0  0  0  0  0  0  0  0  0  0
  145.1453  135.5836  149.4472 H   0  0  0  0  0  0  0  0  0  0  0  0
  147.0061  133.7535  150.2507 H   0  0  0  0  0  0  0  0  0  0  0  0
  146.4786  132.6813  151.5353 H   0  0  0  0  0  0  0  0  0  0  0  0
  145.1522  133.0852  148.8496 H   0  0  0  0  0  0  0  0  0  0  0  0
  145.5595  131.5552  149.6388 H   0  0  0  0  0  0  0  0  0  0  0  0
  143.0382  132.4667  149.8946 H   0  0  0  0  0  0  0  0  0  0  0  0
  143.8650  131.9261  151.3608 H   0  0  0  0  0  0  0  0  0  0  0  0
  1  2  1  0  0  0  0
  1 21  1  0  0  0  0
  1 22  1  0  0  0  0
  1 23  1  0  0  0  0
  2 20  1  0  0  0  0
  2  3  2  0  0  0  0
  3  4  1  0  0  0  0
  3 24  1  0  0  0  0
  4  5  2  0  0  0  0
  5  6  1  0  0  0  0
  5 20  1  0  0  0  0
  6  7  1  0  0  0  0
  6  8  1  0  0  0  0
  6 25  1  0  0  0  0
  7 26  1  0  0  0  0
  7 27  1  0  0  0  0
  7 28  1  0  0  0  0
  8  9  1  0  0  0  0
  8 29  1  0  0  0  0
  8 30  1  0  0  0  0
  9 10  1  0  0  0  0
  9 31  1  0  0  0  0
 10 11  2  0  0  0  0
 10 12  1  0  0  0  0
 12 13  1  0  0  0  0
 12 32  1  0  0  0  0
 13 14  1  0  0  0  0
 13 33  1  0  0  0  0
 13 34  1  0  0  0  0
 14 19  1  0  0  0  0
 14 15  1  0  0  0  0
 14 16  1  0  0  0  0
 15 35  1  0  0  0  0
 15 36  1  0  0  0  0
 15 37  1  0  0  0  0
 16 17  1  0  0  0  0
 16 38  1  0  0  0  0
 16 39  1  0  0  0  0
 17 18  1  0  0  0  0
 17 40  1  0  0  0  0
 17 41  1  0  0  0  0
 18 19  1  0  0  0  0
 18 42  1  0  0  0  0
 18 43  1  0  0  0  0
M  END
> <s_m_source_file>
AV-unprocessed.smi

> <i_m_source_file_index>
2414

> <i_lp_mmshare_version>
43012

> <i_f3d_flags>
0

> <s_epik_input>
W0NIM11jMVtjSF1uYyhzMSlbQ0BIXShbQ0gzXSlbQ0gyXVtOSF1DKD1PKVtOSF1bQ0gyXVtDQEBdMihbQ0gzXSlbQ0gyXVtDSDJdW0NIMl1PMg==

> <s_epik_cmdline>
J2VwaWtfcHl0aG9uJywgJy1waCcsICc3LjAnLCAnLXRuJywgJzgnLCAnLW1hJywgJzIwMCcsICctbWV0YWxfYmluZGluZycsICctaW1hZScsICc8aW5maWxlLm1hZT4nLCAnLW9tYWUnLCAnPG91dGZpbGUubWFlPic=

> <r_epik_Ionization_Penalty>
0.000646956

> <r_epik_Ionization_Penalty_Charging>
0

> <r_epik_Ionization_Penalty_Neutral>
0.000646956

> <r_epik_State_Penalty>
0.000375727

> <r_epik_Charging_Adjusted_Penalty>
0.000375727

> <i_epik_Tot_Q>
0

> <i_epik_Tot_abs_Q>
0

> <r_epik_Metal_State_Penalty>
-0

> <b_epik_Metal_Only>
0

> <s_lp_Force_Field>
OPLS_2005

> <r_lp_Energy>
8.28222

> <b_lp_Chiralities_Consistent>
1

> <s_lp_Variant>
AV-unprocessed.smi:2414-2

> <Gold.Version>
5.8.1

> <Gold.Id.Protein>
6NUR|6NUR_protein|mol2

> <Gold.PLP.Fitness>
43.4313

> <Gold.PLP.PLP>
-33.4387

> <Gold.PLP.part.hbond>
-2.7382

> <Gold.PLP.part.metal>
0.0000

> <Gold.PLP.part.buried>
-4.8819

> <Gold.PLP.part.nonpolar>
-26.2304

> <Gold.PLP.part.repulsive>
0.2724

> <Gold.PLP.ligand.clash>
0.0000

> <Gold.PLP.ligand.torsion>
0.3985

> <Gold.PLP.Chemscore.Hbond>
2.5440

> <Gold.PLP.Chemscore.CHOScore>
1.0000

> <Gold.PLP.Chemscore.Metal>
0.0000

> <Gold.Chemscore.Hbonds>
donor molecule, donor type, donor heavy atom, donor atom, acceptor molecule, acceptor atom, score
      L1  H     9    31       P1  7948  1.00
      L1  H    12    32       P1  7948  0.77
      P1  H  7989  7998       L1     4  0.64
      L1  C     3    24       P1  8028  0.79

> <Gold.PLP.Chemscore.Internal.Correction>
0.1576

> <Gold.Rescore>
     Score         DG    S(hbond)    S(metal)    S(lipo)     H(rot)  DE(clash)    DE(int)     intcor
     19.13     -19.50       2.55        0.00      83.32       1.65       0.04       0.34       ----

> <Gold.Chemscore.Fitness>
19.1250

> <Gold.Chemscore.DG>
-19.5016

> <Gold.Chemscore.ZeroCoef>
-5.4800

> <Gold.Chemscore.Hbond>
2.5459

> <Gold.Chemscore.Metal>
0.0000

> <Gold.Chemscore.Lipo>
83.3159

> <Gold.Chemscore.Internal_Hbond>
0.0000

> <Gold.Chemscore.DEClash>
0.0396

> <Gold.Chemscore.DEInternal>
0.3370

> <Gold.Chemscore.Rot>
1.6522

> <Gold.Chemscore.Internal.Correction>
   9.000000E+99

> <Gold.Chemscore.Hbonds>
donor molecule, donor type, donor heavy atom, donor atom, acceptor molecule, acceptor atom, score
      L1  H     9    31       P1  7948  0.91
      L1  H    12    32       P1  7948  0.78
      P1  H  7989  7998       L1     4  0.27

> <Gold.Chemscore.Hbond.Weighted>
-8.5032

> <Gold.Chemscore.Metal.Weighted>
-0.0000

> <Gold.Chemscore.Lipo.Weighted>
-9.7480

> <Gold.Chemscore.Internal_Hbond.Weighted>
0.0000

> <Gold.Chemscore.DEClash.Weighted>
0.0396

> <Gold.Chemscore.DEInternal.Weighted>
0.3370

> <Gold.Chemscore.Rot.Weighted>
4.2295

> <Gold.Chemscore.Internal.Correction.Weighted>
   9.000000E+99

> <Gold.Protein.RotatedTorsions>
[ 6907 6896 6895 6894 ] final   15.41 input  -60.11 | X-H torsion
[ 7974 7965 7964 7962 ] final  154.04 input  175.53 | X-H torsion
[ 8008 7997 7996 7995 ] final -167.54 input   59.86 | X-H torsion
[ 10167 10162 10161 10158 ] final   95.19 input  -65.29 | X-H torsion
[ 10718 10713 10712 10709 ] final   26.50 input   66.30 | X-H torsion
[ 10763 10752 10751 10750 ] final -179.10 input  -60.55 | X-H torsion
[ 11005 11000 10999 10996 ] final  -63.31 input  -57.11 | X-H torsion

> <Gold.Protein.ActiveResidues>
 VAL166  LYS551  ARG553  GLY616  TRP617  ASP618  TYR619  PRO620  LYS621  CYS622 
 ASP623  PHE694  ASN695  SER759  ASP760  ASP761  ALA762  ILE779  LEU786  VAL792 
 PHE793  MET794  SER795  GLU796  ALA797  LYS798  CYS799  TRP800  GLU811  SER814 

> <Gold.Protein.RotatedAtoms>
  151.8176  135.0662  160.0420 H   0  0  0  0  0  0  0  0  0  0  0  0  # atno 6907 bound_to 6896
  152.2975  133.5617  159.5605 H   0  0  0  0  0  0  0  0  0  0  0  0  # atno 6908 bound_to 6896
  150.7258  134.0256  159.3758 H   0  0  0  0  0  0  0  0  0  0  0  0  # atno 6909 bound_to 6896
  144.8114  139.6881  143.6140 H   0  0  0  0  0  0  0  0  0  0  0  0  # atno 7974 bound_to 7965
  155.8792  140.1006  157.1497 H   0  0  0  0  0  0  0  0  0  0  0  0  # atno 8008 bound_to 7997
  154.4003  140.1332  156.4238 H   0  0  0  0  0  0  0  0  0  0  0  0  # atno 8009 bound_to 7997
  155.7663  140.3462  155.5226 H   0  0  0  0  0  0  0  0  0  0  0  0  # atno 8010 bound_to 7997
  139.8012  144.6813  150.9762 H   0  0  0  0  0  0  0  0  0  0  0  0  # atno 10167 bound_to 10162
  157.2077  130.6919  149.6215 H   0  0  0  0  0  0  0  0  0  0  0  0  # atno 10718 bound_to 10713
  154.5394  135.2805  155.1109 H   0  0  0  0  0  0  0  0  0  0  0  0  # atno 10763 bound_to 10752
  154.2598  135.6324  153.5274 H   0  0  0  0  0  0  0  0  0  0  0  0  # atno 10764 bound_to 10752
  152.9975  135.5603  154.5929 H   0  0  0  0  0  0  0  0  0  0  0  0  # atno 10765 bound_to 10752
  141.1389  133.6650  156.5660 H   0  0  0  0  0  0  0  0  0  0  0  0  # atno 11005 bound_to 11000
  146.2413  139.6008  142.9489 LP  0  0  0  0  0  0  0  0  0  0  0  0  # atno 17320 bound_to 7965
  145.5314  141.0427  143.2381 LP  0  0  0  0  0  0  0  0  0  0  0  0  # atno 17321 bound_to 7965
  140.7820  143.4279  151.0739 LP  0  0  0  0  0  0  0  0  0  0  0  0  # atno 17342 bound_to 10162
  139.7951  143.8163  152.3156 LP  0  0  0  0  0  0  0  0  0  0  0  0  # atno 17343 bound_to 10162
  155.9694  130.4561  150.5914 LP  0  0  0  0  0  0  0  0  0  0  0  0  # atno 17370 bound_to 10713
  157.3704  131.0764  151.1563 LP  0  0  0  0  0  0  0  0  0  0  0  0  # atno 17371 bound_to 10713
  140.3950  134.7406  157.4745 LP  0  0  0  0  0  0  0  0  0  0  0  0  # atno 17394 bound_to 11000
  140.0538  134.6093  155.8830 LP  0  0  0  0  0  0  0  0  0  0  0  0  # atno 17395 bound_to 11000

$$$$
