AV-unprocessed.smi:1762|AV-procd|sdf|7100|dock8
  -GOLD-   22720 8323D 1   1.00000     0.00000
 Structure written by MMmdl.
 52 53  0  0  0  0  0  0  0  0  1 V2000
  152.2744  145.1395  158.9792 C   0  0  0  0  0  0  0  0  0  0  0  0
  152.6922  143.6713  158.8394 C   0  0  2  0  0  0  0  0  0  0  0  0
  151.5838  142.8031  158.2124 C   0  0  0  0  0  0  0  0  0  0  0  0
  151.9445  141.3817  158.1435 N   0  0  0  0  0  0  0  0  0  0  0  0
  150.8866  140.5422  157.5136 C   0  0  2  0  0  0  0  0  0  0  0  0
  150.9448  139.0614  157.9586 C   0  0  0  0  0  0  0  0  0  0  0  0
  151.8859  138.3445  157.6166 O   0  0  0  0  0  0  0  0  0  0  0  0
  149.9505  138.6305  158.7512 N   0  0  0  0  0  0  0  0  0  0  0  0
  149.8581  137.2911  159.3193 C   0  0  0  0  0  0  0  0  0  0  0  0
  148.4007  136.8015  159.3647 C   0  0  0  0  0  0  0  0  0  0  0  0
  148.0021  136.3059  160.7416 C   0  0  0  0  0  0  0  0  0  0  0  0
  147.7667  134.9337  160.9720 C   0  0  0  0  0  0  0  0  0  0  0  0
  147.3950  134.5245  162.2671 C   0  0  0  0  0  0  0  0  0  0  0  0
  147.2715  135.4987  163.2763 C   0  0  0  0  0  0  0  0  0  0  0  0
  147.5265  136.8441  162.9439 C   0  0  0  0  0  0  0  0  0  0  0  0
  147.8843  137.2470  161.7055 N   0  0  0  0  0  0  0  0  0  0  0  0
  150.7918  140.6517  155.9544 C   0  0  0  0  0  0  0  0  0  0  0  0
  149.3652  140.4331  155.4111 C   0  0  0  0  0  0  0  0  0  0  0  0
  151.7957  139.7568  155.2010 C   0  0  0  0  0  0  0  0  0  0  0  0
  152.3463  140.9373  159.4901 C   0  0  0  0  0  0  0  0  0  0  0  0
  153.4451  141.8215  160.1100 C   0  0  2  0  0  0  0  0  0  0  0  0
  153.7864  141.4030  161.5446 C   0  0  0  0  0  0  0  0  0  0  0  0
  153.0014  143.1722  160.1343 O   0  0  0  0  0  0  0  0  0  0  0  0
  152.0404  145.5755  158.0078 H   0  0  0  0  0  0  0  0  0  0  0  0
  153.0748  145.7309  159.4243 H   0  0  0  0  0  0  0  0  0  0  0  0
  151.3931  145.2406  159.6134 H   0  0  0  0  0  0  0  0  0  0  0  0
  153.5883  143.6230  158.2178 H   0  0  0  0  0  0  0  0  0  0  0  0
  150.6590  142.9241  158.7789 H   0  0  0  0  0  0  0  0  0  0  0  0
  151.3983  143.2021  157.2173 H   0  0  0  0  0  0  0  0  0  0  0  0
  149.9323  140.9195  157.8879 H   0  0  0  0  0  0  0  0  0  0  0  0
  149.2175  139.2820  158.9916 H   0  0  0  0  0  0  0  0  0  0  0  0
  150.4593  136.6196  158.7056 H   0  0  0  0  0  0  0  0  0  0  0  0
  150.2980  137.2770  160.3181 H   0  0  0  0  0  0  0  0  0  0  0  0
  147.7230  137.6035  159.0681 H   0  0  0  0  0  0  0  0  0  0  0  0
  148.2544  135.9970  158.6423 H   0  0  0  0  0  0  0  0  0  0  0  0
  147.8669  134.2106  160.1757 H   0  0  0  0  0  0  0  0  0  0  0  0
  147.2074  133.4829  162.4820 H   0  0  0  0  0  0  0  0  0  0  0  0
  146.9877  135.2218  164.2808 H   0  0  0  0  0  0  0  0  0  0  0  0
  147.4408  137.6171  163.6930 H   0  0  0  0  0  0  0  0  0  0  0  0
  151.0191  141.6805  155.6804 H   0  0  0  0  0  0  0  0  0  0  0  0
  149.0370  139.3991  155.5212 H   0  0  0  0  0  0  0  0  0  0  0  0
  149.3132  140.6761  154.3495 H   0  0  0  0  0  0  0  0  0  0  0  0
  148.6460  141.0703  155.9263 H   0  0  0  0  0  0  0  0  0  0  0  0
  151.5762  138.6975  155.3314 H   0  0  0  0  0  0  0  0  0  0  0  0
  152.8181  139.9296  155.5373 H   0  0  0  0  0  0  0  0  0  0  0  0
  151.7693  139.9626  154.1308 H   0  0  0  0  0  0  0  0  0  0  0  0
  151.4748  140.9249  160.1471 H   0  0  0  0  0  0  0  0  0  0  0  0
  152.7378  139.9207  159.4731 H   0  0  0  0  0  0  0  0  0  0  0  0
  154.3503  141.7562  159.5035 H   0  0  0  0  0  0  0  0  0  0  0  0
  154.1437  140.3736  161.5788 H   0  0  0  0  0  0  0  0  0  0  0  0
  152.9144  141.4767  162.1951 H   0  0  0  0  0  0  0  0  0  0  0  0
  154.5673  142.0396  161.9610 H   0  0  0  0  0  0  0  0  0  0  0  0
  1  2  1  0  0  0  0
  1 24  1  0  0  0  0
  1 25  1  0  0  0  0
  1 26  1  0  0  0  0
  2 23  1  0  0  0  0
  2  3  1  0  0  0  0
  2 27  1  0  0  0  0
  3  4  1  0  0  0  0
  3 28  1  0  0  0  0
  3 29  1  0  0  0  0
  4  5  1  0  0  0  0
  4 20  1  0  0  0  0
  5  6  1  0  0  0  0
  5 17  1  0  0  0  0
  5 30  1  0  0  0  0
  6  7  2  0  0  0  0
  6  8  1  0  0  0  0
  8  9  1  0  0  0  0
  8 31  1  0  0  0  0
  9 10  1  0  0  0  0
  9 32  1  0  0  0  0
  9 33  1  0  0  0  0
 10 11  1  0  0  0  0
 10 34  1  0  0  0  0
 10 35  1  0  0  0  0
 11 16  1  0  0  0  0
 11 12  2  0  0  0  0
 12 13  1  0  0  0  0
 12 36  1  0  0  0  0
 13 14  2  0  0  0  0
 13 37  1  0  0  0  0
 14 15  1  0  0  0  0
 14 38  1  0  0  0  0
 15 16  2  0  0  0  0
 15 39  1  0  0  0  0
 17 18  1  0  0  0  0
 17 19  1  0  0  0  0
 17 40  1  0  0  0  0
 18 41  1  0  0  0  0
 18 42  1  0  0  0  0
 18 43  1  0  0  0  0
 19 44  1  0  0  0  0
 19 45  1  0  0  0  0
 19 46  1  0  0  0  0
 20 21  1  0  0  0  0
 20 47  1  0  0  0  0
 20 48  1  0  0  0  0
 21 22  1  0  0  0  0
 21 23  1  0  0  0  0
 21 49  1  0  0  0  0
 22 50  1  0  0  0  0
 22 51  1  0  0  0  0
 22 52  1  0  0  0  0
M  END
> <s_m_source_file>
AV-unprocessed.smi

> <i_m_source_file_index>
1762

> <i_lp_mmshare_version>
43012

> <i_f3d_flags>
0

> <s_epik_input>
W0NIM11bQ0BASF0xW0NIMl1OKFtDSDJdW0NASF0oTzEpW0NIM10pW0NAQEhdKFtDSF0oW0NIM10pW0NIM10pQyg9TylbTkhdW0NIMl1bQ0gyXWMyW2NIXVtjSF1bY0hdW2NIXW4y

> <s_epik_cmdline>
J2VwaWtfcHl0aG9uJywgJy1waCcsICc3LjAnLCAnLXRuJywgJzgnLCAnLW1hJywgJzIwMCcsICctbWV0YWxfYmluZGluZycsICctaW1hZScsICc8aW5maWxlLm1hZT4nLCAnLW9tYWUnLCAnPG91dGZpbGUubWFlPic=

> <r_epik_Ionization_Penalty>
0.0399736

> <r_epik_Ionization_Penalty_Charging>
0

> <r_epik_Ionization_Penalty_Neutral>
0.0399736

> <r_epik_State_Penalty>
0.0317634

> <r_epik_Charging_Adjusted_Penalty>
0.0317634

> <i_epik_Tot_Q>
0

> <i_epik_Tot_abs_Q>
0

> <r_epik_Metal_State_Penalty>
0.0307795

> <b_epik_Metal_Only>
0

> <s_lp_Force_Field>
OPLS_2005

> <r_lp_Energy>
25.9705

> <b_lp_Chiralities_Consistent>
1

> <s_lp_Variant>
AV-unprocessed.smi:1762-2

> <Gold.Version>
5.8.1

> <Gold.Id.Protein>
6NUR|6NUR_protein|mol2

> <Gold.PLP.Fitness>
56.1908

> <Gold.PLP.PLP>
-53.9063

> <Gold.PLP.part.hbond>
-2.0000

> <Gold.PLP.part.metal>
0.0000

> <Gold.PLP.part.buried>
-4.3482

> <Gold.PLP.part.nonpolar>
-47.6995

> <Gold.PLP.part.repulsive>
0.1865

> <Gold.PLP.ligand.clash>
0.0000

> <Gold.PLP.ligand.torsion>
1.6234

> <Gold.PLP.Chemscore.Hbond>
1.7200

> <Gold.PLP.Chemscore.CHOScore>
0.0000

> <Gold.PLP.Chemscore.Metal>
0.0000

> <Gold.Chemscore.Hbonds>
donor molecule, donor type, donor heavy atom, donor atom, acceptor molecule, acceptor atom, score
      P1  H  6931  6943       L1    16  1.00
      P1  H  6934  6947       L1    16  0.60

> <Gold.PLP.Chemscore.Internal.Correction>
0.3712

> <Gold.Rescore>
     Score         DG    S(hbond)    S(metal)    S(lipo)     H(rot)  DE(clash)    DE(int)     intcor
     19.31     -21.92       1.20        0.00     141.29       1.60       0.05       2.55       ----

> <Gold.Chemscore.Fitness>
19.3144

> <Gold.Chemscore.DG>
-21.9152

> <Gold.Chemscore.ZeroCoef>
-5.4800

> <Gold.Chemscore.Hbond>
1.1970

> <Gold.Chemscore.Metal>
0.0000

> <Gold.Chemscore.Lipo>
141.2927

> <Gold.Chemscore.Internal_Hbond>
0.0000

> <Gold.Chemscore.DEClash>
0.0473

> <Gold.Chemscore.DEInternal>
2.5536

> <Gold.Chemscore.Rot>
1.5993

> <Gold.Chemscore.Internal.Correction>
   9.000000E+99

> <Gold.Chemscore.Hbonds>
donor molecule, donor type, donor heavy atom, donor atom, acceptor molecule, acceptor atom, score
      P1  H  6931  6943       L1    16  0.44
      P1  H  6934  6947       L1    16  0.45

> <Gold.Chemscore.Hbond.Weighted>
-3.9980

> <Gold.Chemscore.Metal.Weighted>
-0.0000

> <Gold.Chemscore.Lipo.Weighted>
-16.5312

> <Gold.Chemscore.Internal_Hbond.Weighted>
0.0000

> <Gold.Chemscore.DEClash.Weighted>
0.0473

> <Gold.Chemscore.DEInternal.Weighted>
2.5536

> <Gold.Chemscore.Rot.Weighted>
4.0941

> <Gold.Chemscore.Internal.Correction.Weighted>
   9.000000E+99

> <Gold.Protein.RotatedTorsions>
[ 6907 6896 6895 6894 ] final   99.75 input  -60.11 | X-H torsion
[ 7974 7965 7964 7962 ] final   45.26 input  175.53 | X-H torsion
[ 8008 7997 7996 7995 ] final  -16.69 input   59.86 | X-H torsion
[ 10167 10162 10161 10158 ] final   22.63 input  -65.29 | X-H torsion
[ 10718 10713 10712 10709 ] final  -26.86 input   66.30 | X-H torsion
[ 10763 10752 10751 10750 ] final   -4.52 input  -60.55 | X-H torsion
[ 11005 11000 10999 10996 ] final   16.28 input  -57.11 | X-H torsion

> <Gold.Protein.ActiveResidues>
 VAL166  LYS551  ARG553  GLY616  TRP617  ASP618  TYR619  PRO620  LYS621  CYS622 
 ASP623  PHE694  ASN695  SER759  ASP760  ASP761  ALA762  ILE779  LEU786  VAL792 
 PHE793  MET794  SER795  GLU796  ALA797  LYS798  CYS799  TRP800  GLU811  SER814 

> <Gold.Protein.RotatedAtoms>
  152.5386  134.0381  159.8054 H   0  0  0  0  0  0  0  0  0  0  0  0  # atno 6907 bound_to 6896
  151.0541  133.5591  159.2647 H   0  0  0  0  0  0  0  0  0  0  0  0  # atno 6908 bound_to 6896
  151.2514  135.0631  159.9117 H   0  0  0  0  0  0  0  0  0  0  0  0  # atno 6909 bound_to 6896
  146.0496  139.4984  142.9727 H   0  0  0  0  0  0  0  0  0  0  0  0  # atno 7974 bound_to 7965
  154.5034  140.2163  155.9300 H   0  0  0  0  0  0  0  0  0  0  0  0  # atno 8008 bound_to 7997
  156.1463  140.3170  155.8543 H   0  0  0  0  0  0  0  0  0  0  0  0  # atno 8009 bound_to 7997
  155.4024  140.0485  157.3027 H   0  0  0  0  0  0  0  0  0  0  0  0  # atno 8010 bound_to 7997
  140.5333  143.9804  150.6477 H   0  0  0  0  0  0  0  0  0  0  0  0  # atno 10167 bound_to 10162
  156.4457  130.4473  149.7023 H   0  0  0  0  0  0  0  0  0  0  0  0  # atno 10718 bound_to 10713
  153.3859  135.7000  153.6530 H   0  0  0  0  0  0  0  0  0  0  0  0  # atno 10763 bound_to 10752
  153.5123  135.3629  155.2593 H   0  0  0  0  0  0  0  0  0  0  0  0  # atno 10764 bound_to 10752
  154.8697  135.4138  154.3166 H   0  0  0  0  0  0  0  0  0  0  0  0  # atno 10765 bound_to 10752
  140.4489  134.1244  155.7700 H   0  0  0  0  0  0  0  0  0  0  0  0  # atno 11005 bound_to 11000
  145.6748  141.0207  143.1638 LP  0  0  0  0  0  0  0  0  0  0  0  0  # atno 17320 bound_to 7965
  144.7115  139.8352  143.7413 LP  0  0  0  0  0  0  0  0  0  0  0  0  # atno 17321 bound_to 7965
  140.3184  143.3152  152.0808 LP  0  0  0  0  0  0  0  0  0  0  0  0  # atno 17342 bound_to 10162
  139.4962  144.6590  151.6508 LP  0  0  0  0  0  0  0  0  0  0  0  0  # atno 17343 bound_to 10162
  156.3869  130.7607  151.2605 LP  0  0  0  0  0  0  0  0  0  0  0  0  # atno 17370 bound_to 10713
  157.7505  131.0279  150.4026 LP  0  0  0  0  0  0  0  0  0  0  0  0  # atno 17371 bound_to 10713
  141.1673  133.8678  157.1677 LP  0  0  0  0  0  0  0  0  0  0  0  0  # atno 17394 bound_to 11000
  140.0020  135.0024  157.0210 LP  0  0  0  0  0  0  0  0  0  0  0  0  # atno 17395 bound_to 11000

$$$$
