AV-unprocessed.smi:2989|AV-procd|sdf|11391|dock5
  -GOLD-   2272016313D 1   1.00000     0.00000
 Structure written by MMmdl.
 31 33  0  0  0  0  0  0  0  0  1 V2000
  151.0427  144.2656  157.1659 O   0  0  0  0  0  0  0  0  0  0  0  0
  151.3321  142.9917  157.7045 C   0  0  2  0  0  0  0  0  0  0  0  0
  150.0590  142.1269  157.6170 C   0  0  0  0  0  0  0  0  0  0  0  0
  149.9105  141.5001  156.3149 N   0  0  0  0  0  0  0  0  0  0  0  0
  150.9565  140.8070  155.7829 N   0  0  0  0  0  0  0  0  0  0  0  0
  150.5922  140.3204  154.6341 N   0  0  0  0  0  0  0  0  0  0  0  0
  149.2794  140.6978  154.4055 C   0  0  0  0  0  0  0  0  0  0  0  0
  148.3981  140.4407  153.3309 C   0  0  0  0  0  0  0  0  0  0  0  0
  147.0822  140.9513  153.3549 C   0  0  0  0  0  0  0  0  0  0  0  0
  146.6319  141.7220  154.4484 C   0  0  0  0  0  0  0  0  0  0  0  0
  147.4977  141.9890  155.5268 C   0  0  0  0  0  0  0  0  0  0  0  0
  148.8050  141.4732  155.4866 C   0  0  0  0  0  0  0  0  0  0  0  0
  151.8729  143.0771  159.1253 C   0  0  0  0  0  0  0  0  0  0  0  0
  152.4819  141.9487  159.7155 C   0  0  0  0  0  0  0  0  0  0  0  0
  152.9580  142.0100  161.0395 C   0  0  0  0  0  0  0  0  0  0  0  0
  152.8272  143.1996  161.7813 C   0  0  0  0  0  0  0  0  0  0  0  0
  152.2199  144.3283  161.1985 C   0  0  0  0  0  0  0  0  0  0  0  0
  151.7442  144.2677  159.8743 C   0  0  0  0  0  0  0  0  0  0  0  0
  150.3156  144.1789  156.5683 H   0  0  0  0  0  0  0  0  0  0  0  0
  152.1006  142.5553  157.0649 H   0  0  0  0  0  0  0  0  0  0  0  0
  150.0659  141.3489  158.3814 H   0  0  0  0  0  0  0  0  0  0  0  0
  149.1736  142.7370  157.8039 H   0  0  0  0  0  0  0  0  0  0  0  0
  148.7320  139.8502  152.4905 H   0  0  0  0  0  0  0  0  0  0  0  0
  146.4143  140.7494  152.5306 H   0  0  0  0  0  0  0  0  0  0  0  0
  145.6226  142.1065  154.4594 H   0  0  0  0  0  0  0  0  0  0  0  0
  147.1621  142.5741  156.3704 H   0  0  0  0  0  0  0  0  0  0  0  0
  152.5764  141.0282  159.1580 H   0  0  0  0  0  0  0  0  0  0  0  0
  153.4207  141.1428  161.4870 H   0  0  0  0  0  0  0  0  0  0  0  0
  153.1906  143.2458  162.7973 H   0  0  0  0  0  0  0  0  0  0  0  0
  152.1160  145.2400  161.7681 H   0  0  0  0  0  0  0  0  0  0  0  0
  151.2719  145.1359  159.4382 H   0  0  0  0  0  0  0  0  0  0  0  0
  1  2  1  0  0  0  0
  1 19  1  0  0  0  0
  2  3  1  0  0  0  0
  2 13  1  0  0  0  0
  2 20  1  0  0  0  0
  3  4  1  0  0  0  0
  3 21  1  0  0  0  0
  3 22  1  0  0  0  0
  4 12  1  0  0  0  0
  4  5  1  0  0  0  0
  5  6  2  0  0  0  0
  6  7  1  0  0  0  0
  7 12  2  0  0  0  0
  7  8  1  0  0  0  0
  8  9  2  0  0  0  0
  8 23  1  0  0  0  0
  9 10  1  0  0  0  0
  9 24  1  0  0  0  0
 10 11  2  0  0  0  0
 10 25  1  0  0  0  0
 11 12  1  0  0  0  0
 11 26  1  0  0  0  0
 13 18  1  0  0  0  0
 13 14  2  0  0  0  0
 14 15  1  0  0  0  0
 14 27  1  0  0  0  0
 15 16  2  0  0  0  0
 15 28  1  0  0  0  0
 16 17  1  0  0  0  0
 16 29  1  0  0  0  0
 17 18  2  0  0  0  0
 17 30  1  0  0  0  0
 18 31  1  0  0  0  0
M  END
> <s_m_source_file>
AV-unprocessed.smi

> <i_m_source_file_index>
2989

> <i_lp_mmshare_version>
43012

> <i_f3d_flags>
0

> <s_epik_input>
W2NIXTFbY0hdW2NIXVtjSF1bY0hdYzFbQ0BIXShbT0hdKVtDSDJdbihubjIpYyhjMjMpW2NIXVtjSF1bY0hdW2NIXTM=

> <s_epik_cmdline>
J2VwaWtfcHl0aG9uJywgJy1waCcsICc3LjAnLCAnLXRuJywgJzgnLCAnLW1hJywgJzIwMCcsICctbWV0YWxfYmluZGluZycsICctaW1hZScsICc8aW5maWxlLm1hZT4nLCAnLW9tYWUnLCAnPG91dGZpbGUubWFlPic=

> <r_lp_tautomer_probability>
1

> <r_epik_Ionization_Penalty>
4.09993e-05

> <r_epik_Ionization_Penalty_Charging>
0

> <r_epik_Ionization_Penalty_Neutral>
4.09993e-05

> <r_epik_State_Penalty>
-0

> <r_epik_Charging_Adjusted_Penalty>
0

> <i_epik_Tot_Q>
0

> <i_epik_Tot_abs_Q>
0

> <r_epik_Metal_State_Penalty>
-0

> <b_epik_Metal_Only>
0

> <s_lp_Force_Field>
OPLS_2005

> <r_lp_Energy>
11.9105

> <b_lp_Chiralities_Consistent>
1

> <s_lp_Variant>
AV-unprocessed.smi:2989-1

> <Gold.Version>
5.8.1

> <Gold.Id.Protein>
6NUR|6NUR_protein|mol2

> <Gold.PLP.Fitness>
46.7797

> <Gold.PLP.PLP>
-42.1657

> <Gold.PLP.part.hbond>
-2.4264

> <Gold.PLP.part.metal>
0.0000

> <Gold.PLP.part.buried>
-0.5927

> <Gold.PLP.part.nonpolar>
-39.2219

> <Gold.PLP.part.repulsive>
0.1187

> <Gold.PLP.ligand.clash>
0.0000

> <Gold.PLP.ligand.torsion>
0.6999

> <Gold.PLP.Chemscore.Hbond>
2.0000

> <Gold.PLP.Chemscore.CHOScore>
0.0000

> <Gold.PLP.Chemscore.Metal>
0.0000

> <Gold.Chemscore.Hbonds>
donor molecule, donor type, donor heavy atom, donor atom, acceptor molecule, acceptor atom, score
      L1  H     1    19       P1  8028  1.00
      P1  H  7989  7998       L1     6  1.00

> <Gold.PLP.Chemscore.Internal.Correction>
0.0139

> <Gold.Rescore>
     Score         DG    S(hbond)    S(metal)    S(lipo)     H(rot)  DE(clash)    DE(int)     intcor
     18.78     -21.03       1.73        0.00     121.89       1.76       1.67       0.58       ----

> <Gold.Chemscore.Fitness>
18.7835

> <Gold.Chemscore.DG>
-21.0317

> <Gold.Chemscore.ZeroCoef>
-5.4800

> <Gold.Chemscore.Hbond>
1.7322

> <Gold.Chemscore.Metal>
0.0000

> <Gold.Chemscore.Lipo>
121.8944

> <Gold.Chemscore.Internal_Hbond>
0.0000

> <Gold.Chemscore.DEClash>
1.6657

> <Gold.Chemscore.DEInternal>
0.5824

> <Gold.Chemscore.Rot>
1.7561

> <Gold.Chemscore.Internal.Correction>
   9.000000E+99

> <Gold.Chemscore.Hbonds>
donor molecule, donor type, donor heavy atom, donor atom, acceptor molecule, acceptor atom, score
      L1  H     1    19       P1  8028  0.97
      P1  H  7989  7998       L1     6  0.55

> <Gold.Chemscore.Hbond.Weighted>
-5.7856

> <Gold.Chemscore.Metal.Weighted>
-0.0000

> <Gold.Chemscore.Lipo.Weighted>
-14.2616

> <Gold.Chemscore.Internal_Hbond.Weighted>
0.0000

> <Gold.Chemscore.DEClash.Weighted>
1.6657

> <Gold.Chemscore.DEInternal.Weighted>
0.5824

> <Gold.Chemscore.Rot.Weighted>
4.4955

> <Gold.Chemscore.Internal.Correction.Weighted>
   9.000000E+99

> <Gold.Protein.RotatedTorsions>
[ 6907 6896 6895 6894 ] final  -55.63 input  -60.11 | X-H torsion
[ 7974 7965 7964 7962 ] final  -64.84 input  175.53 | X-H torsion
[ 8008 7997 7996 7995 ] final  152.66 input   59.86 | X-H torsion
[ 10167 10162 10161 10158 ] final   11.07 input  -65.29 | X-H torsion
[ 10718 10713 10712 10709 ] final   35.90 input   66.30 | X-H torsion
[ 10763 10752 10751 10750 ] final  -13.93 input  -60.55 | X-H torsion
[ 11005 11000 10999 10996 ] final -115.14 input  -57.11 | X-H torsion

> <Gold.Protein.ActiveResidues>
 VAL166  LYS551  ARG553  GLY616  TRP617  ASP618  TYR619  PRO620  LYS621  CYS622 
 ASP623  PHE694  ASN695  SER759  ASP760  ASP761  ALA762  ILE779  LEU786  VAL792 
 PHE793  MET794  SER795  GLU796  ALA797  LYS798  CYS799  TRP800  GLU811  SER814 

> <Gold.Protein.RotatedAtoms>
  150.8236  134.7455  159.6792 H   0  0  0  0  0  0  0  0  0  0  0  0  # atno 6907 bound_to 6896
  152.4349  134.5703  159.9929 H   0  0  0  0  0  0  0  0  0  0  0  0  # atno 6908 bound_to 6896
  151.5881  133.3332  159.3058 H   0  0  0  0  0  0  0  0  0  0  0  0  # atno 6909 bound_to 6896
  145.7617  140.8858  143.0426 H   0  0  0  0  0  0  0  0  0  0  0  0  # atno 7974 bound_to 7965
  156.2618  140.2014  156.6369 H   0  0  0  0  0  0  0  0  0  0  0  0  # atno 8008 bound_to 7997
  154.6640  140.0557  157.0117 H   0  0  0  0  0  0  0  0  0  0  0  0  # atno 8009 bound_to 7997
  155.1235  140.3227  155.4494 H   0  0  0  0  0  0  0  0  0  0  0  0  # atno 8010 bound_to 7997
  140.6155  143.8318  150.7113 H   0  0  0  0  0  0  0  0  0  0  0  0  # atno 10167 bound_to 10162
  157.3284  130.7484  149.6831 H   0  0  0  0  0  0  0  0  0  0  0  0  # atno 10718 bound_to 10713
  153.5207  135.7015  153.5733 H   0  0  0  0  0  0  0  0  0  0  0  0  # atno 10763 bound_to 10752
  153.3783  135.3927  155.1838 H   0  0  0  0  0  0  0  0  0  0  0  0  # atno 10764 bound_to 10752
  154.8695  135.3829  154.4696 H   0  0  0  0  0  0  0  0  0  0  0  0  # atno 10765 bound_to 10752
  141.0507  133.9692  157.2841 H   0  0  0  0  0  0  0  0  0  0  0  0  # atno 11005 bound_to 11000
  144.6829  139.9732  143.7482 LP  0  0  0  0  0  0  0  0  0  0  0  0  # atno 17320 bound_to 7965
  146.0258  139.3290  143.0785 LP  0  0  0  0  0  0  0  0  0  0  0  0  # atno 17321 bound_to 7965
  140.1896  143.4047  152.1873 LP  0  0  0  0  0  0  0  0  0  0  0  0  # atno 17342 bound_to 10162
  139.5395  144.7242  151.4782 LP  0  0  0  0  0  0  0  0  0  0  0  0  # atno 17343 bound_to 10162
  155.9693  130.4202  150.4414 LP  0  0  0  0  0  0  0  0  0  0  0  0  # atno 17370 bound_to 10713
  157.2441  131.0532  151.2419 LP  0  0  0  0  0  0  0  0  0  0  0  0  # atno 17371 bound_to 10713
  139.9348  135.0197  156.8519 LP  0  0  0  0  0  0  0  0  0  0  0  0  # atno 17394 bound_to 11000
  140.6061  134.0126  155.7557 LP  0  0  0  0  0  0  0  0  0  0  0  0  # atno 17395 bound_to 11000

$$$$
