AV-unprocessed.smi:1670|AV-procd|sdf|6695|dock1
  -GOLD-   22720 7423D 1   1.00000     0.00000
 Structure written by MMmdl.
 41 42  0  0  0  0  0  0  0  0  1 V2000
  148.8511  127.4518  153.1585 C   0  0  0  0  0  0  0  0  0  0  0  0
  147.9376  127.4885  151.9257 C   0  0  2  0  0  0  0  0  0  0  0  0
  148.5690  126.7361  150.7340 C   0  0  0  0  0  0  0  0  0  0  0  0
  148.3371  125.3027  150.7910 N   0  0  0  0  0  0  0  0  0  0  0  0
  147.8942  124.4666  149.7879 C   0  0  0  0  0  0  0  0  0  0  0  0
  147.8543  123.2019  150.3014 C   0  0  0  0  0  0  0  0  0  0  0  0
  148.2940  123.3682  151.6445 C   0  0  0  0  0  0  0  0  0  0  0  0
  148.5772  124.6272  151.9364 N   0  0  0  0  0  0  0  0  0  0  0  0
  147.6656  128.8821  151.5747 N   0  0  0  0  0  0  0  0  0  0  0  0
  146.4617  129.4720  151.6106 C   0  0  0  0  0  0  0  0  0  0  0  0
  145.4343  128.9249  152.0126 O   0  0  0  0  0  0  0  0  0  0  0  0
  146.5055  130.7193  151.1231 N   0  0  0  0  0  0  0  0  0  0  0  0
  145.3493  131.5935  150.9523 C   0  0  2  0  0  0  0  0  0  0  0  0
  145.2768  132.1228  149.5045 C   0  0  0  0  0  0  0  0  0  0  0  0
  144.1030  133.1001  149.3186 C   0  0  0  0  0  0  0  0  0  0  0  0
  144.1395  134.2577  150.3341 C   0  0  2  0  0  0  0  0  0  0  0  0
  145.2160  135.1267  150.0416 O   0  0  0  0  0  0  0  0  0  0  0  0
  144.2579  133.7392  151.7799 C   0  0  0  0  0  0  0  0  0  0  0  0
  145.4319  132.7597  151.9539 C   0  0  0  0  0  0  0  0  0  0  0  0
  149.0530  126.4254  153.4661 H   0  0  0  0  0  0  0  0  0  0  0  0
  148.3904  127.9630  154.0045 H   0  0  0  0  0  0  0  0  0  0  0  0
  149.8090  127.9333  152.9587 H   0  0  0  0  0  0  0  0  0  0  0  0
  147.0074  126.9873  152.1994 H   0  0  0  0  0  0  0  0  0  0  0  0
  148.1863  127.1247  149.7884 H   0  0  0  0  0  0  0  0  0  0  0  0
  149.6477  126.8971  150.7206 H   0  0  0  0  0  0  0  0  0  0  0  0
  147.6558  124.8362  148.8015 H   0  0  0  0  0  0  0  0  0  0  0  0
  147.5597  122.2954  149.7940 H   0  0  0  0  0  0  0  0  0  0  0  0
  148.4145  122.6167  152.4107 H   0  0  0  0  0  0  0  0  0  0  0  0
  148.4448  129.4207  151.2259 H   0  0  0  0  0  0  0  0  0  0  0  0
  147.3965  131.0783  150.8129 H   0  0  0  0  0  0  0  0  0  0  0  0
  144.4430  131.0238  151.1671 H   0  0  0  0  0  0  0  0  0  0  0  0
  146.2120  132.6209  149.2454 H   0  0  0  0  0  0  0  0  0  0  0  0
  145.1697  131.2942  148.8031 H   0  0  0  0  0  0  0  0  0  0  0  0
  144.0962  133.4887  148.2996 H   0  0  0  0  0  0  0  0  0  0  0  0
  143.1677  132.5522  149.4397 H   0  0  0  0  0  0  0  0  0  0  0  0
  143.2246  134.8434  150.2403 H   0  0  0  0  0  0  0  0  0  0  0  0
  145.3275  135.1613  149.1038 H   0  0  0  0  0  0  0  0  0  0  0  0
  144.3600  134.5738  152.4743 H   0  0  0  0  0  0  0  0  0  0  0  0
  143.3318  133.2308  152.0509 H   0  0  0  0  0  0  0  0  0  0  0  0
  145.4376  132.3757  152.9747 H   0  0  0  0  0  0  0  0  0  0  0  0
  146.3736  133.2946  151.8222 H   0  0  0  0  0  0  0  0  0  0  0  0
  1  2  1  0  0  0  0
  1 20  1  0  0  0  0
  1 21  1  0  0  0  0
  1 22  1  0  0  0  0
  2  3  1  0  0  0  0
  2  9  1  0  0  0  0
  2 23  1  0  0  0  0
  3  4  1  0  0  0  0
  3 24  1  0  0  0  0
  3 25  1  0  0  0  0
  4  8  1  0  0  0  0
  4  5  1  0  0  0  0
  5  6  2  0  0  0  0
  5 26  1  0  0  0  0
  6  7  1  0  0  0  0
  6 27  1  0  0  0  0
  7  8  2  0  0  0  0
  7 28  1  0  0  0  0
  9 10  1  0  0  0  0
  9 29  1  0  0  0  0
 10 11  2  0  0  0  0
 10 12  1  0  0  0  0
 12 13  1  0  0  0  0
 12 30  1  0  0  0  0
 13 19  1  0  0  0  0
 13 14  1  0  0  0  0
 13 31  1  0  0  0  0
 14 15  1  0  0  0  0
 14 32  1  0  0  0  0
 14 33  1  0  0  0  0
 15 16  1  0  0  0  0
 15 34  1  0  0  0  0
 15 35  1  0  0  0  0
 16 17  1  0  0  0  0
 16 18  1  0  0  0  0
 16 36  1  0  0  0  0
 17 37  1  0  0  0  0
 18 19  1  0  0  0  0
 18 38  1  0  0  0  0
 18 39  1  0  0  0  0
 19 40  1  0  0  0  0
 19 41  1  0  0  0  0
M  END
> <s_m_source_file>
AV-unprocessed.smi

> <i_m_source_file_index>
1670

> <i_lp_mmshare_version>
43012

> <i_f3d_flags>
0

> <s_epik_input>
bjFbY0hdW2NIXVtjSF1uMVtDSDJdW0NAQEhdKFtDSDNdKVtOSF1DKD1PKVtOSF1bQ0BASF0yW0NIMl1bQ0gyXVtDQEBIXShbT0hdKVtDSDJdW0NIMl0y

> <s_epik_cmdline>
J2VwaWtfcHl0aG9uJywgJy1waCcsICc3LjAnLCAnLXRuJywgJzgnLCAnLW1hJywgJzIwMCcsICctbWV0YWxfYmluZGluZycsICctaW1hZScsICc8aW5maWxlLm1hZT4nLCAnLW9tYWUnLCAnPG91dGZpbGUubWFlPic=

> <r_lp_tautomer_probability>
1

> <r_epik_Ionization_Penalty>
7.33369e-05

> <r_epik_Ionization_Penalty_Charging>
0

> <r_epik_Ionization_Penalty_Neutral>
7.33369e-05

> <r_epik_State_Penalty>
-0

> <r_epik_Charging_Adjusted_Penalty>
0

> <i_epik_Tot_Q>
0

> <i_epik_Tot_abs_Q>
0

> <r_epik_Metal_State_Penalty>
-0

> <b_epik_Metal_Only>
0

> <s_lp_Force_Field>
OPLS_2005

> <r_lp_Energy>
7.35879

> <b_lp_Chiralities_Consistent>
1

> <s_lp_Variant>
AV-unprocessed.smi:1670-3

> <Gold.Version>
5.8.1

> <Gold.Id.Protein>
6NUR|6NUR_protein|mol2

> <Gold.PLP.Fitness>
48.9883

> <Gold.PLP.PLP>
-41.3552

> <Gold.PLP.part.hbond>
-3.0000

> <Gold.PLP.part.metal>
0.0000

> <Gold.PLP.part.buried>
-5.9531

> <Gold.PLP.part.nonpolar>
-32.5230

> <Gold.PLP.part.repulsive>
0.2852

> <Gold.PLP.ligand.clash>
0.0000

> <Gold.PLP.ligand.torsion>
0.4541

> <Gold.PLP.Chemscore.Hbond>
2.8296

> <Gold.PLP.Chemscore.CHOScore>
0.0000

> <Gold.PLP.Chemscore.Metal>
0.0000

> <Gold.Chemscore.Hbonds>
donor molecule, donor type, donor heavy atom, donor atom, acceptor molecule, acceptor atom, score
      L1  H     9    29       P1 10747  0.82
      L1  H    12    30       P1 10747  1.00
      L1  H    17    37       P1  7921  1.00

> <Gold.PLP.Chemscore.Internal.Correction>
0.0525

> <Gold.Rescore>
     Score         DG    S(hbond)    S(metal)    S(lipo)     H(rot)  DE(clash)    DE(int)     intcor
     16.87     -17.33       2.12        0.00      89.42       2.22       0.02       0.44       ----

> <Gold.Chemscore.Fitness>
16.8736

> <Gold.Chemscore.DG>
-17.3318

> <Gold.Chemscore.ZeroCoef>
-5.4800

> <Gold.Chemscore.Hbond>
2.1194

> <Gold.Chemscore.Metal>
0.0000

> <Gold.Chemscore.Lipo>
89.4225

> <Gold.Chemscore.Internal_Hbond>
0.0000

> <Gold.Chemscore.DEClash>
0.0217

> <Gold.Chemscore.DEInternal>
0.4364

> <Gold.Chemscore.Rot>
2.2224

> <Gold.Chemscore.Internal.Correction>
   9.000000E+99

> <Gold.Chemscore.Hbonds>
donor molecule, donor type, donor heavy atom, donor atom, acceptor molecule, acceptor atom, score
      L1  H     9    29       P1 10747  0.14
      L1  H    12    30       P1 10747  0.95
      L1  H    17    37       P1  7921  0.98

> <Gold.Chemscore.Hbond.Weighted>
-7.0786

> <Gold.Chemscore.Metal.Weighted>
-0.0000

> <Gold.Chemscore.Lipo.Weighted>
-10.4624

> <Gold.Chemscore.Internal_Hbond.Weighted>
0.0000

> <Gold.Chemscore.DEClash.Weighted>
0.0217

> <Gold.Chemscore.DEInternal.Weighted>
0.4364

> <Gold.Chemscore.Rot.Weighted>
5.6893

> <Gold.Chemscore.Internal.Correction.Weighted>
   9.000000E+99

> <Gold.Protein.RotatedTorsions>
[ 6907 6896 6895 6894 ] final -171.27 input  -60.11 | X-H torsion
[ 7974 7965 7964 7962 ] final   88.01 input  175.53 | X-H torsion
[ 8008 7997 7996 7995 ] final  165.19 input   59.86 | X-H torsion
[ 10167 10162 10161 10158 ] final   18.25 input  -65.29 | X-H torsion
[ 10718 10713 10712 10709 ] final  111.74 input   66.30 | X-H torsion
[ 10763 10752 10751 10750 ] final  -27.85 input  -60.55 | X-H torsion
[ 11005 11000 10999 10996 ] final -136.82 input  -57.11 | X-H torsion

> <Gold.Protein.ActiveResidues>
 VAL166  LYS551  ARG553  GLY616  TRP617  ASP618  TYR619  PRO620  LYS621  CYS622 
 ASP623  PHE694  ASN695  SER759  ASP760  ASP761  ALA762  ILE779  LEU786  VAL792 
 PHE793  MET794  SER795  GLU796  ALA797  LYS798  CYS799  TRP800  GLU811  SER814 

> <Gold.Protein.RotatedAtoms>
  151.5212  133.3466  159.2901 H   0  0  0  0  0  0  0  0  0  0  0  0  # atno 6907 bound_to 6896
  150.8651  134.8015  159.7124 H   0  0  0  0  0  0  0  0  0  0  0  0  # atno 6908 bound_to 6896
  152.4658  134.5087  159.9799 H   0  0  0  0  0  0  0  0  0  0  0  0  # atno 6909 bound_to 6896
  145.5513  139.2296  143.2511 H   0  0  0  0  0  0  0  0  0  0  0  0  # atno 7974 bound_to 7965
  156.1820  140.1676  156.8256 H   0  0  0  0  0  0  0  0  0  0  0  0  # atno 8008 bound_to 7997
  154.5371  140.0744  156.8479 H   0  0  0  0  0  0  0  0  0  0  0  0  # atno 8009 bound_to 7997
  155.3290  140.3378  155.4242 H   0  0  0  0  0  0  0  0  0  0  0  0  # atno 8010 bound_to 7997
  140.5667  143.9238  150.6682 H   0  0  0  0  0  0  0  0  0  0  0  0  # atno 10167 bound_to 10162
  157.6429  131.0956  150.6792 H   0  0  0  0  0  0  0  0  0  0  0  0  # atno 10718 bound_to 10713
  153.7387  135.6934  153.4972 H   0  0  0  0  0  0  0  0  0  0  0  0  # atno 10763 bound_to 10752
  153.2084  135.4411  155.0349 H   0  0  0  0  0  0  0  0  0  0  0  0  # atno 10764 bound_to 10752
  154.8228  135.3430  154.6914 H   0  0  0  0  0  0  0  0  0  0  0  0  # atno 10765 bound_to 10752
  140.8769  134.1981  157.4616 H   0  0  0  0  0  0  0  0  0  0  0  0  # atno 11005 bound_to 11000
  146.1914  140.6336  142.9144 LP  0  0  0  0  0  0  0  0  0  0  0  0  # atno 17320 bound_to 7965
  144.7528  140.5233  143.6790 LP  0  0  0  0  0  0  0  0  0  0  0  0  # atno 17321 bound_to 7965
  140.2702  143.3461  152.1244 LP  0  0  0  0  0  0  0  0  0  0  0  0  # atno 17342 bound_to 10162
  139.5096  144.6871  151.5859 LP  0  0  0  0  0  0  0  0  0  0  0  0  # atno 17343 bound_to 10162
  156.7114  130.4653  149.5546 LP  0  0  0  0  0  0  0  0  0  0  0  0  # atno 17370 bound_to 10713
  156.1727  130.6448  151.0857 LP  0  0  0  0  0  0  0  0  0  0  0  0  # atno 17371 bound_to 10713
  139.8716  134.9800  156.5057 LP  0  0  0  0  0  0  0  0  0  0  0  0  # atno 17394 bound_to 11000
  140.8507  133.8134  155.9166 LP  0  0  0  0  0  0  0  0  0  0  0  0  # atno 17395 bound_to 11000

$$$$
