AV-unprocessed.smi:3082|AV-procd|sdf|11743|dock5
  -GOLD-   2272017133D 1   1.00000     0.00000
 Structure written by MMmdl.
 28 29  0  0  0  0  0  0  0  0  2 V2000
  144.5951  144.2597  154.8606 C   0  0  0  0  0  0  0  0  0  0  0  0
  145.4131  143.0021  154.7985 C   0  0  0  0  0  0  0  0  0  0  0  0
  145.0386  141.6933  155.2149 C   0  0  0  0  0  0  0  0  0  0  0  0
  145.9944  140.7999  155.0202 N   0  0  0  0  0  0  0  0  0  0  0  0
  147.0124  141.5026  154.4756 N   0  0  0  0  0  0  0  0  0  0  0  0
  148.2569  140.8373  154.1199 C   0  0  1  0  0  0  0  0  0  0  0  0
  149.3039  140.9512  155.2463 C   0  0  0  0  0  0  0  0  0  0  0  0
  150.5960  140.2210  154.8488 C   0  0  0  0  0  0  0  0  0  0  0  0
  150.3049  138.7612  154.4623 C   0  0  0  0  0  0  0  0  0  0  0  0
  149.2933  138.6960  153.3848 N   0  3  0  0  0  0  0  0  0  0  0  0
  148.0208  139.3578  153.7469 C   0  0  0  0  0  0  0  0  0  0  0  0
  146.6866  142.8353  154.3332 C   0  0  0  0  0  0  0  0  0  0  0  0
  143.6149  144.0851  155.3052 H   0  0  0  0  0  0  0  0  0  0  0  0
  144.4267  144.6787  153.8683 H   0  0  0  0  0  0  0  0  0  0  0  0
  145.0854  145.0291  155.4572 H   0  0  0  0  0  0  0  0  0  0  0  0
  144.1048  141.3678  155.6492 H   0  0  0  0  0  0  0  0  0  0  0  0
  148.6519  141.3481  153.2397 H   0  0  0  0  0  0  0  0  0  0  0  0
  149.5180  141.9992  155.4592 H   0  0  0  0  0  0  0  0  0  0  0  0
  148.9163  140.5187  156.1698 H   0  0  0  0  0  0  0  0  0  0  0  0
  151.0652  140.7366  154.0099 H   0  0  0  0  0  0  0  0  0  0  0  0
  151.3109  140.2539  155.6714 H   0  0  0  0  0  0  0  0  0  0  0  0
  151.2175  138.2700  154.1237 H   0  0  0  0  0  0  0  0  0  0  0  0
  149.9441  138.2036  155.3278 H   0  0  0  0  0  0  0  0  0  0  0  0
  149.6686  139.1487  152.5637 H   0  0  0  0  0  0  0  0  0  0  0  0
  147.5676  138.8138  154.5770 H   0  0  0  0  0  0  0  0  0  0  0  0
  147.3328  139.2834  152.9042 H   0  0  0  0  0  0  0  0  0  0  0  0
  147.3803  143.5501  153.9151 H   0  0  0  0  0  0  0  0  0  0  0  0
  149.1079  137.7272  153.1672 H   0  0  0  0  0  0  0  0  0  0  0  0
  1  2  1  0  0  0  0
  1 13  1  0  0  0  0
  1 14  1  0  0  0  0
  1 15  1  0  0  0  0
  2 12  2  0  0  0  0
  2  3  1  0  0  0  0
  3  4  2  0  0  0  0
  3 16  1  0  0  0  0
  4  5  1  0  0  0  0
  5  6  1  0  0  0  0
  5 12  1  0  0  0  0
  6 11  1  0  0  0  0
  6  7  1  0  0  0  0
  6 17  1  0  0  0  0
  7  8  1  0  0  0  0
  7 18  1  0  0  0  0
  7 19  1  0  0  0  0
  8  9  1  0  0  0  0
  8 20  1  0  0  0  0
  8 21  1  0  0  0  0
  9 10  1  0  0  0  0
  9 22  1  0  0  0  0
  9 23  1  0  0  0  0
 10 11  1  0  0  0  0
 10 24  1  0  0  0  0
 10 28  1  0  0  0  0
 11 25  1  0  0  0  0
 11 26  1  0  0  0  0
 12 27  1  0  0  0  0
M  CHG  1  10   1
M  END
> <s_m_source_file>
AV-unprocessed.smi

> <i_m_source_file_index>
3082

> <i_lp_mmshare_version>
43012

> <i_f3d_flags>
0

> <s_epik_input>
W0NIM11jMVtjSF1ubihbY0hdMSlbQ0BASF0yW0NIMl1bQ0gyXVtDSDJdW05IXVtDSDJdMg==

> <s_epik_cmdline>
J2VwaWtfcHl0aG9uJywgJy1waCcsICc3LjAnLCAnLXRuJywgJzgnLCAnLW1hJywgJzIwMCcsICctbWV0YWxfYmluZGluZycsICctaW1hZScsICc8aW5maWxlLm1hZT4nLCAnLW9tYWUnLCAnPG91dGZpbGUubWFlPic=

> <r_lp_tautomer_probability>
1

> <r_epik_Ionization_Penalty>
0.000667973

> <r_epik_Ionization_Penalty_Charging>
0.000651447

> <r_epik_Ionization_Penalty_Neutral>
1.65255e-05

> <r_epik_State_Penalty>
-0

> <r_epik_Charging_Adjusted_Penalty>
0.000651447

> <i_epik_Tot_Q>
1

> <i_epik_Tot_abs_Q>
1

> <r_epik_Metal_State_Penalty>
-0

> <b_epik_Metal_Only>
0

> <s_lp_Force_Field>
OPLS_2005

> <r_lp_Energy>
15.6496

> <b_lp_Chiralities_Consistent>
1

> <s_lp_Variant>
AV-unprocessed.smi:3082-2

> <Gold.Version>
5.8.1

> <Gold.Id.Protein>
6NUR|6NUR_protein|mol2

> <Gold.PLP.Fitness>
32.8042

> <Gold.PLP.PLP>
-23.1323

> <Gold.PLP.part.hbond>
-2.0000

> <Gold.PLP.part.metal>
0.0000

> <Gold.PLP.part.buried>
0.6420

> <Gold.PLP.part.nonpolar>
-22.1786

> <Gold.PLP.part.repulsive>
0.1851

> <Gold.PLP.ligand.clash>
0.0000

> <Gold.PLP.ligand.torsion>
0.7248

> <Gold.PLP.Chemscore.Hbond>
3.0000

> <Gold.PLP.Chemscore.CHOScore>
0.7012

> <Gold.PLP.Chemscore.Metal>
0.0000

> <Gold.Chemscore.Hbonds>
donor molecule, donor type, donor heavy atom, donor atom, acceptor molecule, acceptor atom, score
      L1  H    10    24       P1  7957  1.00
      L1  H    10    28       P1  7948  2.00
      L1  C    12    27       P1  8028  0.70

> <Gold.PLP.Chemscore.Internal.Correction>
0.0179

> <Gold.Rescore>
     Score         DG    S(hbond)    S(metal)    S(lipo)     H(rot)  DE(clash)    DE(int)     intcor
     14.50     -14.99       1.95        0.00      47.49       1.00       0.01       0.48       ----

> <Gold.Chemscore.Fitness>
14.5033

> <Gold.Chemscore.DG>
-14.9928

> <Gold.Chemscore.ZeroCoef>
-5.4800

> <Gold.Chemscore.Hbond>
1.9512

> <Gold.Chemscore.Metal>
0.0000

> <Gold.Chemscore.Lipo>
47.4859

> <Gold.Chemscore.Internal_Hbond>
0.0000

> <Gold.Chemscore.DEClash>
0.0144

> <Gold.Chemscore.DEInternal>
0.4751

> <Gold.Chemscore.Rot>
1.0000

> <Gold.Chemscore.Internal.Correction>
   9.000000E+99

> <Gold.Chemscore.Hbonds>
donor molecule, donor type, donor heavy atom, donor atom, acceptor molecule, acceptor atom, score
      L1  H    10    24       P1  7957  0.93
      L1  H    10    28       P1  7948  0.93

> <Gold.Chemscore.Hbond.Weighted>
-6.5169

> <Gold.Chemscore.Metal.Weighted>
-0.0000

> <Gold.Chemscore.Lipo.Weighted>
-5.5559

> <Gold.Chemscore.Internal_Hbond.Weighted>
0.0000

> <Gold.Chemscore.DEClash.Weighted>
0.0144

> <Gold.Chemscore.DEInternal.Weighted>
0.4751

> <Gold.Chemscore.Rot.Weighted>
2.5600

> <Gold.Chemscore.Internal.Correction.Weighted>
   9.000000E+99

> <Gold.Protein.RotatedTorsions>
[ 6907 6896 6895 6894 ] final  -73.75 input  -60.11 | X-H torsion
[ 7974 7965 7964 7962 ] final   83.33 input  175.53 | X-H torsion
[ 8008 7997 7996 7995 ] final  139.25 input   59.86 | X-H torsion
[ 10167 10162 10161 10158 ] final  -93.06 input  -65.29 | X-H torsion
[ 10718 10713 10712 10709 ] final  -66.65 input   66.30 | X-H torsion
[ 10763 10752 10751 10750 ] final  123.28 input  -60.55 | X-H torsion
[ 11005 11000 10999 10996 ] final    5.35 input  -57.11 | X-H torsion

> <Gold.Protein.ActiveResidues>
 VAL166  LYS551  ARG553  GLY616  TRP617  ASP618  TYR619  PRO620  LYS621  CYS622 
 ASP623  PHE694  ASN695  SER759  ASP760  ASP761  ALA762  ILE779  LEU786  VAL792 
 PHE793  MET794  SER795  GLU796  ALA797  LYS798  CYS799  TRP800  GLU811  SER814 

> <Gold.Protein.RotatedAtoms>
  150.7118  134.4970  159.5542 H   0  0  0  0  0  0  0  0  0  0  0  0  # atno 6907 bound_to 6896
  152.2576  134.8065  160.0445 H   0  0  0  0  0  0  0  0  0  0  0  0  # atno 6908 bound_to 6896
  151.8790  133.3456  159.3797 H   0  0  0  0  0  0  0  0  0  0  0  0  # atno 6909 bound_to 6896
  145.6133  139.2372  143.2180 H   0  0  0  0  0  0  0  0  0  0  0  0  # atno 7974 bound_to 7965
  156.2991  140.2372  156.4207 H   0  0  0  0  0  0  0  0  0  0  0  0  # atno 8008 bound_to 7997
  154.8358  140.0431  157.1528 H   0  0  0  0  0  0  0  0  0  0  0  0  # atno 8009 bound_to 7997
  154.9158  140.2996  155.5246 H   0  0  0  0  0  0  0  0  0  0  0  0  # atno 8010 bound_to 7997
  140.3285  143.3008  151.9968 H   0  0  0  0  0  0  0  0  0  0  0  0  # atno 10167 bound_to 10162
  156.0601  130.4265  150.1740 H   0  0  0  0  0  0  0  0  0  0  0  0  # atno 10718 bound_to 10713
  153.6430  135.3376  155.3077 H   0  0  0  0  0  0  0  0  0  0  0  0  # atno 10763 bound_to 10752
  154.8555  135.4323  154.1984 H   0  0  0  0  0  0  0  0  0  0  0  0  # atno 10764 bound_to 10752
  153.2908  135.7017  153.7369 H   0  0  0  0  0  0  0  0  0  0  0  0  # atno 10765 bound_to 10752
  140.5716  134.0097  155.8011 H   0  0  0  0  0  0  0  0  0  0  0  0  # atno 11005 bound_to 11000
  146.1488  140.6955  142.9332 LP  0  0  0  0  0  0  0  0  0  0  0  0  # atno 17320 bound_to 7965
  144.7261  140.4528  143.6972 LP  0  0  0  0  0  0  0  0  0  0  0  0  # atno 17321 bound_to 7965
  139.4861  144.6254  151.7175 LP  0  0  0  0  0  0  0  0  0  0  0  0  # atno 17342 bound_to 10162
  140.5419  144.0566  150.6091 LP  0  0  0  0  0  0  0  0  0  0  0  0  # atno 17343 bound_to 10162
  156.9809  130.9864  151.3437 LP  0  0  0  0  0  0  0  0  0  0  0  0  # atno 17370 bound_to 10713
  157.5602  130.8241  149.8256 LP  0  0  0  0  0  0  0  0  0  0  0  0  # atno 17371 bound_to 10713
  141.1052  133.9704  157.3009 LP  0  0  0  0  0  0  0  0  0  0  0  0  # atno 17394 bound_to 11000
  139.9359  135.0196  156.8553 LP  0  0  0  0  0  0  0  0  0  0  0  0  # atno 17395 bound_to 11000

$$$$
