AV-unprocessed.smi:1856|AV-procd|sdf|7539|dock3
  -GOLD-   22720 9253D 1   1.00000     0.00000
 Structure written by MMmdl.
 45 46  0  0  0  0  0  0  0  0  2 V2000
  145.0110  143.8058  155.7743 C   0  0  0  0  0  0  0  0  0  0  0  0
  145.0731  143.1242  154.4030 C   0  0  0  0  0  0  0  0  0  0  0  0
  146.4872  143.1540  153.7962 C   0  0  0  0  0  0  0  0  0  0  0  0
  147.3514  141.9704  154.2413 C   0  0  0  0  0  0  0  0  0  0  0  0
  147.1713  140.8496  153.7642 O   0  0  0  0  0  0  0  0  0  0  0  0
  148.2913  142.2331  155.1630 N   0  0  0  0  0  0  0  0  0  0  0  0
  149.2159  141.2520  155.7230 C   0  0  2  0  0  0  0  0  0  0  0  0
  148.4301  140.0380  156.2385 C   0  0  0  0  0  0  0  0  0  0  0  0
  150.0626  141.8423  156.8138 C   0  0  0  0  0  0  0  0  0  0  0  0
  150.3424  143.1684  156.9652 N   0  3  0  0  0  0  0  0  0  0  0  0
  151.1853  143.3548  158.0592 C   0  0  0  0  0  0  0  0  0  0  0  0
  151.7343  144.5155  158.5950 C   0  0  0  0  0  0  0  0  0  0  0  0
  152.5661  144.3600  159.7227 C   0  0  0  0  0  0  0  0  0  0  0  0
  152.8249  143.0882  160.2728 C   0  0  0  0  0  0  0  0  0  0  0  0
  152.2634  141.9190  159.7191 C   0  0  0  0  0  0  0  0  0  0  0  0
  151.4381  142.0799  158.6052 C   0  0  0  0  0  0  0  0  0  0  0  0
  150.7192  141.1757  157.8107 N   0  0  0  0  0  0  0  0  0  0  0  0
  150.7809  139.7337  158.1190 C   0  0  0  0  0  0  0  0  0  0  0  0
  152.2144  139.1836  158.2985 C   0  0  1  0  0  0  0  0  0  0  0  0
  152.2819  137.7134  158.7382 C   0  0  0  0  0  0  0  0  0  0  0  0
  152.9385  139.3122  157.0929 O   0  0  0  0  0  0  0  0  0  0  0  0
  143.9993  143.7716  156.1794 H   0  0  0  0  0  0  0  0  0  0  0  0
  145.3078  144.8529  155.7092 H   0  0  0  0  0  0  0  0  0  0  0  0
  145.6715  143.3132  156.4881 H   0  0  0  0  0  0  0  0  0  0  0  0
  144.7322  142.0931  154.5063 H   0  0  0  0  0  0  0  0  0  0  0  0
  144.3711  143.6158  153.7282 H   0  0  0  0  0  0  0  0  0  0  0  0
  146.4154  143.1601  152.7074 H   0  0  0  0  0  0  0  0  0  0  0  0
  146.9952  144.0765  154.0802 H   0  0  0  0  0  0  0  0  0  0  0  0
  148.3667  143.1797  155.5063 H   0  0  0  0  0  0  0  0  0  0  0  0
  149.8625  140.9081  154.9157 H   0  0  0  0  0  0  0  0  0  0  0  0
  149.1034  139.2741  156.6286 H   0  0  0  0  0  0  0  0  0  0  0  0
  147.8446  139.5818  155.4398 H   0  0  0  0  0  0  0  0  0  0  0  0
  147.7420  140.3142  157.0382 H   0  0  0  0  0  0  0  0  0  0  0  0
  151.5386  145.4903  158.1733 H   0  0  0  0  0  0  0  0  0  0  0  0
  153.0153  145.2330  160.1740 H   0  0  0  0  0  0  0  0  0  0  0  0
  153.4677  143.0069  161.1375 H   0  0  0  0  0  0  0  0  0  0  0  0
  152.4707  140.9524  160.1529 H   0  0  0  0  0  0  0  0  0  0  0  0
  150.1980  139.5644  159.0247 H   0  0  0  0  0  0  0  0  0  0  0  0
  150.2593  139.1825  157.3373 H   0  0  0  0  0  0  0  0  0  0  0  0
  152.7244  139.7915  159.0463 H   0  0  0  0  0  0  0  0  0  0  0  0
  151.7539  137.5620  159.6795 H   0  0  0  0  0  0  0  0  0  0  0  0
  153.3152  137.3996  158.8905 H   0  0  0  0  0  0  0  0  0  0  0  0
  151.8435  137.0470  157.9949 H   0  0  0  0  0  0  0  0  0  0  0  0
  152.4561  138.8781  156.4058 H   0  0  0  0  0  0  0  0  0  0  0  0
  149.9850  143.8916  156.3545 H   0  0  0  0  0  0  0  0  0  0  0  0
  1  2  1  0  0  0  0
  1 22  1  0  0  0  0
  1 23  1  0  0  0  0
  1 24  1  0  0  0  0
  2  3  1  0  0  0  0
  2 25  1  0  0  0  0
  2 26  1  0  0  0  0
  3  4  1  0  0  0  0
  3 27  1  0  0  0  0
  3 28  1  0  0  0  0
  4  5  2  0  0  0  0
  4  6  1  0  0  0  0
  6  7  1  0  0  0  0
  6 29  1  0  0  0  0
  7  8  1  0  0  0  0
  7  9  1  0  0  0  0
  7 30  1  0  0  0  0
  8 31  1  0  0  0  0
  8 32  1  0  0  0  0
  8 33  1  0  0  0  0
  9 17  1  0  0  0  0
  9 10  2  0  0  0  0
 10 11  1  0  0  0  0
 10 45  1  0  0  0  0
 11 16  2  0  0  0  0
 11 12  1  0  0  0  0
 12 13  2  0  0  0  0
 12 34  1  0  0  0  0
 13 14  1  0  0  0  0
 13 35  1  0  0  0  0
 14 15  2  0  0  0  0
 14 36  1  0  0  0  0
 15 16  1  0  0  0  0
 15 37  1  0  0  0  0
 16 17  1  0  0  0  0
 17 18  1  0  0  0  0
 18 19  1  0  0  0  0
 18 38  1  0  0  0  0
 18 39  1  0  0  0  0
 19 20  1  0  0  0  0
 19 21  1  0  0  0  0
 19 40  1  0  0  0  0
 20 41  1  0  0  0  0
 20 42  1  0  0  0  0
 20 43  1  0  0  0  0
 21 44  1  0  0  0  0
M  CHG  1  10   1
M  END
> <s_m_source_file>
AV-unprocessed.smi

> <i_m_source_file_index>
1856

> <i_lp_mmshare_version>
43012

> <i_f3d_flags>
0

> <s_epik_input>
W0NIM11bQ0gyXVtDSDJdQyg9TylbTkhdW0NASF0oW0NIM10pYyhuMSluKFtDSDJdW0NASF0oW0NIM10pW09IXSljKGMxMilbY0hdW2NIXVtjSF1bY0hdMg==

> <s_epik_cmdline>
J2VwaWtfcHl0aG9uJywgJy1waCcsICc3LjAnLCAnLXRuJywgJzgnLCAnLW1hJywgJzIwMCcsICctbWV0YWxfYmluZGluZycsICctaW1hZScsICc8aW5maWxlLm1hZT4nLCAnLW9tYWUnLCAnPG91dGZpbGUubWFlPic=

> <r_epik_Ionization_Penalty>
0.945588

> <r_epik_Ionization_Penalty_Charging>
0.945588

> <r_epik_Ionization_Penalty_Neutral>
8.64698e-08

> <r_epik_State_Penalty>
0.989378

> <r_epik_Charging_Adjusted_Penalty>
1.93497

> <i_epik_Tot_Q>
1

> <i_epik_Tot_abs_Q>
1

> <r_epik_Metal_State_Penalty>
1.10045

> <b_epik_Metal_Only>
0

> <s_lp_Force_Field>
OPLS_2005

> <r_lp_Energy>
7.08732

> <b_lp_Chiralities_Consistent>
1

> <s_lp_Variant>
AV-unprocessed.smi:1856-7

> <Gold.Version>
5.8.1

> <Gold.Id.Protein>
6NUR|6NUR_protein|mol2

> <Gold.PLP.Fitness>
53.2764

> <Gold.PLP.PLP>
-43.5291

> <Gold.PLP.part.hbond>
-2.8623

> <Gold.PLP.part.metal>
0.0000

> <Gold.PLP.part.buried>
-7.2876

> <Gold.PLP.part.nonpolar>
-34.1096

> <Gold.PLP.part.repulsive>
0.3226

> <Gold.PLP.ligand.clash>
0.0000

> <Gold.PLP.ligand.torsion>
1.1674

> <Gold.PLP.Chemscore.Hbond>
4.0000

> <Gold.PLP.Chemscore.CHOScore>
0.0000

> <Gold.PLP.Chemscore.Metal>
0.0000

> <Gold.Chemscore.Hbonds>
donor molecule, donor type, donor heavy atom, donor atom, acceptor molecule, acceptor atom, score
      L1  H     6    29       P1  8028  1.00
      L1  H    10    45       P1  8028  2.00
      P1  H  7997  8008       L1    21  1.00

> <Gold.PLP.Chemscore.Internal.Correction>
0.0822

> <Gold.Rescore>
     Score         DG    S(hbond)    S(metal)    S(lipo)     H(rot)  DE(clash)    DE(int)     intcor
     18.81     -20.70       2.87        0.00     103.11       2.52       0.01       1.88       ----

> <Gold.Chemscore.Fitness>
18.8139

> <Gold.Chemscore.DG>
-20.7027

> <Gold.Chemscore.ZeroCoef>
-5.4800

> <Gold.Chemscore.Hbond>
2.8742

> <Gold.Chemscore.Metal>
0.0000

> <Gold.Chemscore.Lipo>
103.1107

> <Gold.Chemscore.Internal_Hbond>
0.0000

> <Gold.Chemscore.DEClash>
0.0050

> <Gold.Chemscore.DEInternal>
1.8838

> <Gold.Chemscore.Rot>
2.5161

> <Gold.Chemscore.Internal.Correction>
   9.000000E+99

> <Gold.Chemscore.Hbonds>
donor molecule, donor type, donor heavy atom, donor atom, acceptor molecule, acceptor atom, score
      L1  H     6    29       P1  8028  0.97
      L1  H    10    45       P1  8028  0.92
      P1  H  7997  8008       L1    21  0.73

> <Gold.Chemscore.Hbond.Weighted>
-9.5999

> <Gold.Chemscore.Metal.Weighted>
-0.0000

> <Gold.Chemscore.Lipo.Weighted>
-12.0639

> <Gold.Chemscore.Internal_Hbond.Weighted>
0.0000

> <Gold.Chemscore.DEClash.Weighted>
0.0050

> <Gold.Chemscore.DEInternal.Weighted>
1.8838

> <Gold.Chemscore.Rot.Weighted>
6.4412

> <Gold.Chemscore.Internal.Correction.Weighted>
   9.000000E+99

> <Gold.Protein.RotatedTorsions>
[ 6907 6896 6895 6894 ] final   38.55 input  -60.11 | X-H torsion
[ 7974 7965 7964 7962 ] final -134.23 input  175.53 | X-H torsion
[ 8008 7997 7996 7995 ] final  -46.87 input   59.86 | X-H torsion
[ 10167 10162 10161 10158 ] final   48.77 input  -65.29 | X-H torsion
[ 10718 10713 10712 10709 ] final   75.27 input   66.30 | X-H torsion
[ 10763 10752 10751 10750 ] final   43.94 input  -60.55 | X-H torsion
[ 11005 11000 10999 10996 ] final   14.02 input  -57.11 | X-H torsion

> <Gold.Protein.ActiveResidues>
 VAL166  LYS551  ARG553  GLY616  TRP617  ASP618  TYR619  PRO620  LYS621  CYS622 
 ASP623  PHE694  ASN695  SER759  ASP760  ASP761  ALA762  ILE779  LEU786  VAL792 
 PHE793  MET794  SER795  GLU796  ALA797  LYS798  CYS799  TRP800  GLU811  SER814 

> <Gold.Protein.RotatedAtoms>
  152.1579  134.8936  160.0543 H   0  0  0  0  0  0  0  0  0  0  0  0  # atno 6907 bound_to 6896
  151.9943  133.3797  159.4165 H   0  0  0  0  0  0  0  0  0  0  0  0  # atno 6908 bound_to 6896
  150.6884  134.3825  159.5084 H   0  0  0  0  0  0  0  0  0  0  0  0  # atno 6909 bound_to 6896
  144.9121  140.6908  143.5018 H   0  0  0  0  0  0  0  0  0  0  0  0  # atno 7974 bound_to 7965
  154.4011  140.1360  156.4082 H   0  0  0  0  0  0  0  0  0  0  0  0  # atno 8008 bound_to 7997
  155.7759  140.3482  155.5251 H   0  0  0  0  0  0  0  0  0  0  0  0  # atno 8009 bound_to 7997
  155.8721  140.0973  157.1533 H   0  0  0  0  0  0  0  0  0  0  0  0  # atno 8010 bound_to 7997
  140.2898  144.3059  150.6243 H   0  0  0  0  0  0  0  0  0  0  0  0  # atno 10167 bound_to 10162
  157.6627  130.9718  150.1329 H   0  0  0  0  0  0  0  0  0  0  0  0  # atno 10718 bound_to 10713
  152.9850  135.6086  154.3192 H   0  0  0  0  0  0  0  0  0  0  0  0  # atno 10763 bound_to 10752
  154.2903  135.2775  155.2659 H   0  0  0  0  0  0  0  0  0  0  0  0  # atno 10764 bound_to 10752
  154.4958  135.5880  153.6550 H   0  0  0  0  0  0  0  0  0  0  0  0  # atno 10765 bound_to 10752
  140.4742  134.1000  155.7738 H   0  0  0  0  0  0  0  0  0  0  0  0  # atno 11005 bound_to 11000
  145.3436  139.1725  143.4472 LP  0  0  0  0  0  0  0  0  0  0  0  0  # atno 17320 bound_to 7965
  146.3164  140.3480  142.8653 LP  0  0  0  0  0  0  0  0  0  0  0  0  # atno 17321 bound_to 7965
  140.5742  143.2178  151.7545 LP  0  0  0  0  0  0  0  0  0  0  0  0  # atno 17342 bound_to 10162
  139.4941  144.4174  152.0015 LP  0  0  0  0  0  0  0  0  0  0  0  0  # atno 17343 bound_to 10162
  156.2171  130.3671  149.8600 LP  0  0  0  0  0  0  0  0  0  0  0  0  # atno 17370 bound_to 10713
  156.6463  130.8725  151.3523 LP  0  0  0  0  0  0  0  0  0  0  0  0  # atno 17371 bound_to 10713
  141.1562  133.8877  157.1970 LP  0  0  0  0  0  0  0  0  0  0  0  0  # atno 17394 bound_to 11000
  139.9866  135.0079  156.9878 LP  0  0  0  0  0  0  0  0  0  0  0  0  # atno 17395 bound_to 11000

$$$$
