AV-unprocessed.smi:2098|AV-procd|sdf|8566|dock2
  -GOLD-   2272011293D 1   1.00000     0.00000
 Structure written by MMmdl.
 36 38  0  0  0  0  0  0  0  0  1 V2000
  150.6133  140.0648  154.2950 O   0  0  0  0  0  0  0  0  0  0  0  0
  151.2408  139.5432  155.4503 C   0  0  1  0  0  0  0  0  0  0  0  0
  151.6405  140.7177  156.3574 C   0  0  0  0  0  0  0  0  0  0  0  0
  152.5024  140.2383  157.3813 O   0  0  0  0  0  0  0  0  0  0  0  0
  152.6057  140.9721  158.5438 C   0  0  0  0  0  0  0  0  0  0  0  0
  153.4721  140.4745  159.5393 C   0  0  0  0  0  0  0  0  0  0  0  0
  153.6416  141.1612  160.7570 C   0  0  0  0  0  0  0  0  0  0  0  0
  152.9421  142.3591  160.9918 C   0  0  0  0  0  0  0  0  0  0  0  0
  153.1056  143.0223  162.1609 F   0  0  0  0  0  0  0  0  0  0  0  0
  152.0725  142.8663  160.0088 C   0  0  0  0  0  0  0  0  0  0  0  0
  151.9023  142.1788  158.7913 C   0  0  0  0  0  0  0  0  0  0  0  0
  150.2690  138.5795  156.1586 C   0  0  0  0  0  0  0  0  0  0  0  0
  150.7267  137.2011  156.1300 N   0  0  0  0  0  0  0  0  0  0  0  0
  151.9063  136.7306  156.5786 C   0  0  0  0  0  0  0  0  0  0  0  0
  152.1260  135.4241  156.4620 N   0  0  0  0  0  0  0  0  0  0  0  0
  150.9511  134.9955  155.8683 C   0  0  0  0  0  0  0  0  0  0  0  0
  150.5413  133.7008  155.4762 C   0  0  0  0  0  0  0  0  0  0  0  0
  149.2787  133.5009  154.8800 C   0  0  0  0  0  0  0  0  0  0  0  0
  148.4085  134.5897  154.6664 C   0  0  0  0  0  0  0  0  0  0  0  0
  148.7945  135.8885  155.0494 C   0  0  0  0  0  0  0  0  0  0  0  0
  150.0543  136.0838  155.6456 C   0  0  0  0  0  0  0  0  0  0  0  0
  149.6775  139.9851  154.4021 H   0  0  0  0  0  0  0  0  0  0  0  0
  152.1322  138.9907  155.1498 H   0  0  0  0  0  0  0  0  0  0  0  0
  152.1080  141.5123  155.7730 H   0  0  0  0  0  0  0  0  0  0  0  0
  150.7475  141.1317  156.8291 H   0  0  0  0  0  0  0  0  0  0  0  0
  154.0136  139.5558  159.3672 H   0  0  0  0  0  0  0  0  0  0  0  0
  154.3089  140.7687  161.5100 H   0  0  0  0  0  0  0  0  0  0  0  0
  151.5342  143.7854  160.1881 H   0  0  0  0  0  0  0  0  0  0  0  0
  151.2256  142.5996  158.0633 H   0  0  0  0  0  0  0  0  0  0  0  0
  150.1432  138.8720  157.2018 H   0  0  0  0  0  0  0  0  0  0  0  0
  149.2800  138.6303  155.7014 H   0  0  0  0  0  0  0  0  0  0  0  0
  152.6458  137.3850  157.0164 H   0  0  0  0  0  0  0  0  0  0  0  0
  151.1997  132.8599  155.6350 H   0  0  0  0  0  0  0  0  0  0  0  0
  148.9762  132.5069  154.5848 H   0  0  0  0  0  0  0  0  0  0  0  0
  147.4439  134.4269  154.2084 H   0  0  0  0  0  0  0  0  0  0  0  0
  148.1313  136.7248  154.8851 H   0  0  0  0  0  0  0  0  0  0  0  0
  1  2  1  0  0  0  0
  1 22  1  0  0  0  0
  2  3  1  0  0  0  0
  2 12  1  0  0  0  0
  2 23  1  0  0  0  0
  3  4  1  0  0  0  0
  3 24  1  0  0  0  0
  3 25  1  0  0  0  0
  4  5  1  0  0  0  0
  5 11  1  0  0  0  0
  5  6  2  0  0  0  0
  6  7  1  0  0  0  0
  6 26  1  0  0  0  0
  7  8  2  0  0  0  0
  7 27  1  0  0  0  0
  8  9  1  0  0  0  0
  8 10  1  0  0  0  0
 10 11  2  0  0  0  0
 10 28  1  0  0  0  0
 11 29  1  0  0  0  0
 12 13  1  0  0  0  0
 12 30  1  0  0  0  0
 12 31  1  0  0  0  0
 13 21  1  0  0  0  0
 13 14  1  0  0  0  0
 14 15  2  0  0  0  0
 14 32  1  0  0  0  0
 15 16  1  0  0  0  0
 16 21  2  0  0  0  0
 16 17  1  0  0  0  0
 17 18  2  0  0  0  0
 17 33  1  0  0  0  0
 18 19  1  0  0  0  0
 18 34  1  0  0  0  0
 19 20  2  0  0  0  0
 19 35  1  0  0  0  0
 20 21  1  0  0  0  0
 20 36  1  0  0  0  0
M  END
> <s_m_source_file>
AV-unprocessed.smi

> <i_m_source_file_index>
2098

> <i_lp_mmshare_version>
43012

> <i_f3d_flags>
0

> <s_epik_input>
W2NIXTFbY0hdW2NIXVtjSF1jKGMxMiluKFtjSF1uMilbQ0gyXVtDQEhdKFtPSF0pW0NIMl1PYzNbY0hdW2NIXWMoRilbY0hdW2NIXTM=

> <s_epik_cmdline>
J2VwaWtfcHl0aG9uJywgJy1waCcsICc3LjAnLCAnLXRuJywgJzgnLCAnLW1hJywgJzIwMCcsICctbWV0YWxfYmluZGluZycsICctaW1hZScsICc8aW5maWxlLm1hZT4nLCAnLW9tYWUnLCAnPG91dGZpbGUubWFlPic=

> <r_lp_tautomer_probability>
1

> <r_epik_Ionization_Penalty>
0.0603575

> <r_epik_Ionization_Penalty_Charging>
0

> <r_epik_Ionization_Penalty_Neutral>
0.0603575

> <r_epik_State_Penalty>
0.0523204

> <r_epik_Charging_Adjusted_Penalty>
0.0523204

> <i_epik_Tot_Q>
0

> <i_epik_Tot_abs_Q>
0

> <r_epik_Metal_State_Penalty>
5.46976e-05

> <b_epik_Metal_Only>
0

> <s_lp_Force_Field>
OPLS_2005

> <r_lp_Energy>
15.3663

> <b_lp_Chiralities_Consistent>
1

> <s_lp_Variant>
AV-unprocessed.smi:2098-2

> <Gold.Version>
5.8.1

> <Gold.Id.Protein>
6NUR|6NUR_protein|mol2

> <Gold.PLP.Fitness>
46.3571

> <Gold.PLP.PLP>
-39.2041

> <Gold.PLP.part.hbond>
-3.0496

> <Gold.PLP.part.metal>
0.0000

> <Gold.PLP.part.buried>
-4.1802

> <Gold.PLP.part.nonpolar>
-30.4660

> <Gold.PLP.part.repulsive>
0.0000

> <Gold.PLP.ligand.clash>
0.0000

> <Gold.PLP.ligand.torsion>
0.9254

> <Gold.PLP.Chemscore.Hbond>
2.9913

> <Gold.PLP.Chemscore.CHOScore>
0.0000

> <Gold.PLP.Chemscore.Metal>
0.0000

> <Gold.Chemscore.Hbonds>
donor molecule, donor type, donor heavy atom, donor atom, acceptor molecule, acceptor atom, score
      P1  H  7989  7998       L1     1  0.98
      P1  H  7997  8009       L1     4  1.00
      P1  H 10752 10763       L1    15  1.00

> <Gold.PLP.Chemscore.Internal.Correction>
0.0301

> <Gold.Rescore>
     Score         DG    S(hbond)    S(metal)    S(lipo)     H(rot)  DE(clash)    DE(int)     intcor
     16.28     -17.35       2.06        0.00      94.66       2.37       0.03       1.04       ----

> <Gold.Chemscore.Fitness>
16.2807

> <Gold.Chemscore.DG>
-17.3521

> <Gold.Chemscore.ZeroCoef>
-5.4800

> <Gold.Chemscore.Hbond>
2.0577

> <Gold.Chemscore.Metal>
0.0000

> <Gold.Chemscore.Lipo>
94.6634

> <Gold.Chemscore.Internal_Hbond>
0.0000

> <Gold.Chemscore.DEClash>
0.0287

> <Gold.Chemscore.DEInternal>
1.0427

> <Gold.Chemscore.Rot>
2.3735

> <Gold.Chemscore.Internal.Correction>
   9.000000E+99

> <Gold.Chemscore.Hbonds>
donor molecule, donor type, donor heavy atom, donor atom, acceptor molecule, acceptor atom, score
      P1  H  7989  7998       L1     1  0.68
      P1  H  7997  8009       L1     4  0.29
      P1  H 10752 10763       L1    15  0.09

> <Gold.Chemscore.Hbond.Weighted>
-6.8727

> <Gold.Chemscore.Metal.Weighted>
-0.0000

> <Gold.Chemscore.Lipo.Weighted>
-11.0756

> <Gold.Chemscore.Internal_Hbond.Weighted>
0.0000

> <Gold.Chemscore.DEClash.Weighted>
0.0287

> <Gold.Chemscore.DEInternal.Weighted>
1.0427

> <Gold.Chemscore.Rot.Weighted>
6.0762

> <Gold.Chemscore.Internal.Correction.Weighted>
   9.000000E+99

> <Gold.Protein.RotatedTorsions>
[ 6907 6896 6895 6894 ] final   64.31 input  -60.11 | X-H torsion
[ 7974 7965 7964 7962 ] final -147.75 input  175.53 | X-H torsion
[ 8008 7997 7996 7995 ] final  173.51 input   59.86 | X-H torsion
[ 10167 10162 10161 10158 ] final -150.11 input  -65.29 | X-H torsion
[ 10718 10713 10712 10709 ] final   57.34 input   66.30 | X-H torsion
[ 10763 10752 10751 10750 ] final   95.77 input  -60.55 | X-H torsion
[ 11005 11000 10999 10996 ] final  125.93 input  -57.11 | X-H torsion

> <Gold.Protein.ActiveResidues>
 VAL166  LYS551  ARG553  GLY616  TRP617  ASP618  TYR619  PRO620  LYS621  CYS622 
 ASP623  PHE694  ASN695  SER759  ASP760  ASP761  ALA762  ILE779  LEU786  VAL792 
 PHE793  MET794  SER795  GLU796  ALA797  LYS798  CYS799  TRP800  GLU811  SER814 

> <Gold.Protein.RotatedAtoms>
  152.4322  134.5756  159.9933 H   0  0  0  0  0  0  0  0  0  0  0  0  # atno 6907 bound_to 6896
  151.5876  133.3364  159.3029 H   0  0  0  0  0  0  0  0  0  0  0  0  # atno 6908 bound_to 6896
  150.8216  134.7462  159.6841 H   0  0  0  0  0  0  0  0  0  0  0  0  # atno 6909 bound_to 6896
  144.8073  140.5286  143.5666 H   0  0  0  0  0  0  0  0  0  0  0  0  # atno 7974 bound_to 7965
  156.1068  140.1458  156.9393 H   0  0  0  0  0  0  0  0  0  0  0  0  # atno 8008 bound_to 7997
  154.4739  140.0901  156.7258 H   0  0  0  0  0  0  0  0  0  0  0  0  # atno 8009 bound_to 7997
  155.4666  140.3440  155.4322 H   0  0  0  0  0  0  0  0  0  0  0  0  # atno 8010 bound_to 7997
  139.7383  143.8701  152.2555 H   0  0  0  0  0  0  0  0  0  0  0  0  # atno 10167 bound_to 10162
  157.5506  130.8763  149.8957 H   0  0  0  0  0  0  0  0  0  0  0  0  # atno 10718 bound_to 10713
  153.2571  135.4242  155.0856 H   0  0  0  0  0  0  0  0  0  0  0  0  # atno 10763 bound_to 10752
  154.8405  135.3440  154.6430 H   0  0  0  0  0  0  0  0  0  0  0  0  # atno 10764 bound_to 10752
  153.6851  135.7037  153.5163 H   0  0  0  0  0  0  0  0  0  0  0  0  # atno 10765 bound_to 10752
  139.9431  134.9633  156.8632 H   0  0  0  0  0  0  0  0  0  0  0  0  # atno 11005 bound_to 11000
  145.5407  139.1475  143.3448 LP  0  0  0  0  0  0  0  0  0  0  0  0  # atno 17320 bound_to 7965
  146.2367  140.5546  142.8952 LP  0  0  0  0  0  0  0  0  0  0  0  0  # atno 17321 bound_to 7965
  139.8644  144.7100  150.9061 LP  0  0  0  0  0  0  0  0  0  0  0  0  # atno 17342 bound_to 10162
  140.7782  143.3790  151.1510 LP  0  0  0  0  0  0  0  0  0  0  0  0  # atno 17343 bound_to 10162
  156.0573  130.3706  150.1061 LP  0  0  0  0  0  0  0  0  0  0  0  0  # atno 17370 bound_to 10713
  156.9234  130.9690  151.3545 LP  0  0  0  0  0  0  0  0  0  0  0  0  # atno 17371 bound_to 10713
  140.5902  134.0268  155.7497 LP  0  0  0  0  0  0  0  0  0  0  0  0  # atno 17394 bound_to 11000
  141.1072  133.9674  157.2975 LP  0  0  0  0  0  0  0  0  0  0  0  0  # atno 17395 bound_to 11000

$$$$
