AV-unprocessed.smi:1049|AV-procd|sdf|4611|dock10
  -GOLD-   22720 3113D 1   1.00000     0.00000
 Structure written by MMmdl.
 41 42  0  0  0  0  0  0  0  0  2 V2000
  145.4156  144.0850  153.2676 C   0  0  0  0  0  0  0  0  0  0  0  0
  146.0888  143.2511  154.3665 C   0  0  1  0  0  0  0  0  0  0  0  0
  145.0797  142.8331  155.4584 C   0  0  0  0  0  0  0  0  0  0  0  0
  145.7141  141.8920  156.4998 C   0  0  0  0  0  0  0  0  0  0  0  0
  146.4335  140.7183  155.8125 C   0  0  0  0  0  0  0  0  0  0  0  0
  147.4339  141.2600  154.8767 N   0  0  0  0  0  0  0  0  0  0  0  0
  148.7812  141.2479  155.0429 C   0  0  0  0  0  0  0  0  0  0  0  0
  149.5767  141.4953  154.1353 O   0  0  0  0  0  0  0  0  0  0  0  0
  149.1957  140.9302  156.2815 N   0  0  0  0  0  0  0  0  0  0  0  0
  150.5881  140.8517  156.7070 C   0  0  0  0  0  0  0  0  0  0  0  0
  150.9573  142.0178  157.6409 C   0  0  0  0  0  0  0  0  0  0  0  0
  151.9800  141.6596  158.6787 C   0  0  0  0  0  0  0  0  0  0  0  0
  152.6642  140.5097  158.7336 N   0  3  0  0  0  0  0  0  0  0  0  0
  153.4952  140.4969  159.8198 C   0  0  0  0  0  0  0  0  0  0  0  0
  153.2991  141.6869  160.4693 C   0  0  0  0  0  0  0  0  0  0  0  0
  152.3525  142.3759  159.7545 N   0  0  0  0  0  0  0  0  0  0  0  0
  151.8227  143.7034  160.0824 C   0  0  0  0  0  0  0  0  0  0  0  0
  152.1663  144.0447  161.3242 F   0  0  0  0  0  0  0  0  0  0  0  0
  152.2622  144.6114  159.2104 F   0  0  0  0  0  0  0  0  0  0  0  0
  146.7911  142.0049  153.7854 C   0  0  0  0  0  0  0  0  0  0  0  0
  144.6397  143.5146  152.7558 H   0  0  0  0  0  0  0  0  0  0  0  0
  146.1407  144.4064  152.5197 H   0  0  0  0  0  0  0  0  0  0  0  0
  144.9519  144.9801  153.6831 H   0  0  0  0  0  0  0  0  0  0  0  0
  146.8504  143.8773  154.8341 H   0  0  0  0  0  0  0  0  0  0  0  0
  144.6719  143.7144  155.9545 H   0  0  0  0  0  0  0  0  0  0  0  0
  144.2347  142.3243  154.9923 H   0  0  0  0  0  0  0  0  0  0  0  0
  146.4253  142.4484  157.1119 H   0  0  0  0  0  0  0  0  0  0  0  0
  144.9472  141.5175  157.1784 H   0  0  0  0  0  0  0  0  0  0  0  0
  146.8458  140.0457  156.5641 H   0  0  0  0  0  0  0  0  0  0  0  0
  145.7135  140.1169  155.2554 H   0  0  0  0  0  0  0  0  0  0  0  0
  148.4915  140.7358  156.9789 H   0  0  0  0  0  0  0  0  0  0  0  0
  150.7714  139.8913  157.1919 H   0  0  0  0  0  0  0  0  0  0  0  0
  151.2159  140.8761  155.8160 H   0  0  0  0  0  0  0  0  0  0  0  0
  151.3497  142.8500  157.0575 H   0  0  0  0  0  0  0  0  0  0  0  0
  150.0833  142.3796  158.1836 H   0  0  0  0  0  0  0  0  0  0  0  0
  154.1434  139.6625  160.0449 H   0  0  0  0  0  0  0  0  0  0  0  0
  153.7484  142.0822  161.3689 H   0  0  0  0  0  0  0  0  0  0  0  0
  150.7336  143.6847  160.0269 H   0  0  0  0  0  0  0  0  0  0  0  0
  146.0654  141.3601  153.2872 H   0  0  0  0  0  0  0  0  0  0  0  0
  147.4988  142.3023  153.0101 H   0  0  0  0  0  0  0  0  0  0  0  0
  152.5759  139.7565  158.0629 H   0  0  0  0  0  0  0  0  0  0  0  0
  1  2  1  0  0  0  0
  1 21  1  0  0  0  0
  1 22  1  0  0  0  0
  1 23  1  0  0  0  0
  2 20  1  0  0  0  0
  2  3  1  0  0  0  0
  2 24  1  0  0  0  0
  3  4  1  0  0  0  0
  3 25  1  0  0  0  0
  3 26  1  0  0  0  0
  4  5  1  0  0  0  0
  4 27  1  0  0  0  0
  4 28  1  0  0  0  0
  5  6  1  0  0  0  0
  5 29  1  0  0  0  0
  5 30  1  0  0  0  0
  6  7  1  0  0  0  0
  6 20  1  0  0  0  0
  7  8  2  0  0  0  0
  7  9  1  0  0  0  0
  9 10  1  0  0  0  0
  9 31  1  0  0  0  0
 10 11  1  0  0  0  0
 10 32  1  0  0  0  0
 10 33  1  0  0  0  0
 11 12  1  0  0  0  0
 11 34  1  0  0  0  0
 11 35  1  0  0  0  0
 12 16  1  0  0  0  0
 12 13  2  0  0  0  0
 13 14  1  0  0  0  0
 13 41  1  0  0  0  0
 14 15  2  0  0  0  0
 14 36  1  0  0  0  0
 15 16  1  0  0  0  0
 15 37  1  0  0  0  0
 16 17  1  0  0  0  0
 17 18  1  0  0  0  0
 17 19  1  0  0  0  0
 17 38  1  0  0  0  0
 20 39  1  0  0  0  0
 20 40  1  0  0  0  0
M  CHG  1  13   1
M  END
> <s_m_source_file>
AV-unprocessed.smi

> <i_m_source_file_index>
1049

> <i_lp_mmshare_version>
43012

> <i_f3d_flags>
0

> <s_epik_input>
W0NIM11bQ0BASF0xW0NIMl1bQ0gyXVtDSDJdTihbQ0gyXTEpQyg9TylbTkhdW0NIMl1bQ0gyXWMybltjSF1bY0hdbjJbQ0hdKEYpRg==

> <s_epik_cmdline>
J2VwaWtfcHl0aG9uJywgJy1waCcsICc3LjAnLCAnLXRuJywgJzgnLCAnLW1hJywgJzIwMCcsICctbWV0YWxfYmluZGluZycsICctaW1hZScsICc8aW5maWxlLm1hZT4nLCAnLW9tYWUnLCAnPG91dGZpbGUubWFlPic=

> <r_lp_tautomer_probability>
1

> <r_epik_Ionization_Penalty>
1.09766

> <r_epik_Ionization_Penalty_Charging>
0

> <r_epik_Ionization_Penalty_Neutral>
1.09766

> <r_epik_State_Penalty>
1.15444

> <r_epik_Charging_Adjusted_Penalty>
1.15444

> <i_epik_Tot_Q>
1

> <i_epik_Tot_abs_Q>
1

> <r_epik_Metal_State_Penalty>
1.24204

> <b_epik_Metal_Only>
0

> <s_lp_Force_Field>
OPLS_2005

> <r_lp_Energy>
35.939

> <b_lp_Chiralities_Consistent>
1

> <s_lp_Variant>
AV-unprocessed.smi:1049-4

> <Gold.Version>
5.8.1

> <Gold.Id.Protein>
6NUR|6NUR_protein|mol2

> <Gold.PLP.Fitness>
47.9792

> <Gold.PLP.PLP>
-46.8747

> <Gold.PLP.part.hbond>
-2.0000

> <Gold.PLP.part.metal>
0.0000

> <Gold.PLP.part.buried>
-6.0474

> <Gold.PLP.part.nonpolar>
-39.9302

> <Gold.PLP.part.repulsive>
0.3323

> <Gold.PLP.ligand.clash>
0.0000

> <Gold.PLP.ligand.torsion>
0.7512

> <Gold.PLP.Chemscore.Hbond>
0.8498

> <Gold.PLP.Chemscore.CHOScore>
0.0000

> <Gold.PLP.Chemscore.Metal>
0.0000

> <Gold.Chemscore.Hbonds>
donor molecule, donor type, donor heavy atom, donor atom, acceptor molecule, acceptor atom, score
      P1  H  7989  7998       L1     8  0.15
      P1  H  8011  8017       L1     8  0.62

> <Gold.PLP.Chemscore.Internal.Correction>
0.0573

> <Gold.Rescore>
     Score         DG    S(hbond)    S(metal)    S(lipo)     H(rot)  DE(clash)    DE(int)     intcor
     11.66     -13.15       1.13        0.00      68.52       1.61       1.02       0.47       ----

> <Gold.Chemscore.Fitness>
11.6634

> <Gold.Chemscore.DG>
-13.1545

> <Gold.Chemscore.ZeroCoef>
-5.4800

> <Gold.Chemscore.Hbond>
1.1277

> <Gold.Chemscore.Metal>
0.0000

> <Gold.Chemscore.Lipo>
68.5227

> <Gold.Chemscore.Internal_Hbond>
0.0000

> <Gold.Chemscore.DEClash>
1.0166

> <Gold.Chemscore.DEInternal>
0.4745

> <Gold.Chemscore.Rot>
1.6051

> <Gold.Chemscore.Internal.Correction>
   9.000000E+99

> <Gold.Chemscore.Hbonds>
donor molecule, donor type, donor heavy atom, donor atom, acceptor molecule, acceptor atom, score
      P1  H  7989  7998       L1     8  0.15
      P1  H  8011  8017       L1     8  0.60

> <Gold.Chemscore.Hbond.Weighted>
-3.7665

> <Gold.Chemscore.Metal.Weighted>
-0.0000

> <Gold.Chemscore.Lipo.Weighted>
-8.0172

> <Gold.Chemscore.Internal_Hbond.Weighted>
0.0000

> <Gold.Chemscore.DEClash.Weighted>
1.0166

> <Gold.Chemscore.DEInternal.Weighted>
0.4745

> <Gold.Chemscore.Rot.Weighted>
4.1092

> <Gold.Chemscore.Internal.Correction.Weighted>
   9.000000E+99

> <Gold.Protein.RotatedTorsions>
[ 6907 6896 6895 6894 ] final  145.65 input  -60.11 | X-H torsion
[ 7974 7965 7964 7962 ] final -167.41 input  175.53 | X-H torsion
[ 8008 7997 7996 7995 ] final -113.26 input   59.86 | X-H torsion
[ 10167 10162 10161 10158 ] final  -46.02 input  -65.29 | X-H torsion
[ 10718 10713 10712 10709 ] final   78.42 input   66.30 | X-H torsion
[ 10763 10752 10751 10750 ] final -169.66 input  -60.55 | X-H torsion
[ 11005 11000 10999 10996 ] final  -90.54 input  -57.11 | X-H torsion

> <Gold.Protein.ActiveResidues>
 VAL166  LYS551  ARG553  GLY616  TRP617  ASP618  TYR619  PRO620  LYS621  CYS622 
 ASP623  PHE694  ASN695  SER759  ASP760  ASP761  ALA762  ILE779  LEU786  VAL792 
 PHE793  MET794  SER795  GLU796  ALA797  LYS798  CYS799  TRP800  GLU811  SER814 

> <Gold.Protein.RotatedAtoms>
  152.1781  133.4688  159.4943 H   0  0  0  0  0  0  0  0  0  0  0  0  # atno 6907 bound_to 6896
  150.6930  134.1868  159.4279 H   0  0  0  0  0  0  0  0  0  0  0  0  # atno 6908 bound_to 6896
  151.9778  135.0044  160.0606 H   0  0  0  0  0  0  0  0  0  0  0  0  # atno 6909 bound_to 6896
  144.7224  140.2522  143.6277 H   0  0  0  0  0  0  0  0  0  0  0  0  # atno 7974 bound_to 7965
  155.0180  140.0393  157.2426 H   0  0  0  0  0  0  0  0  0  0  0  0  # atno 8008 bound_to 7997
  154.7403  140.2747  155.6356 H   0  0  0  0  0  0  0  0  0  0  0  0  # atno 8009 bound_to 7997
  156.2862  140.2667  156.2128 H   0  0  0  0  0  0  0  0  0  0  0  0  # atno 8010 bound_to 7997
  140.6834  143.2851  151.3722 H   0  0  0  0  0  0  0  0  0  0  0  0  # atno 10167 bound_to 10162
  157.6744  130.9867  150.1784 H   0  0  0  0  0  0  0  0  0  0  0  0  # atno 10718 bound_to 10713
  154.6499  135.2910  155.0000 H   0  0  0  0  0  0  0  0  0  0  0  0  # atno 10763 bound_to 10752
  154.1097  135.6564  153.4887 H   0  0  0  0  0  0  0  0  0  0  0  0  # atno 10764 bound_to 10752
  153.0370  135.5262  154.7402 H   0  0  0  0  0  0  0  0  0  0  0  0  # atno 10765 bound_to 10752
  141.1563  133.7698  156.9752 H   0  0  0  0  0  0  0  0  0  0  0  0  # atno 11005 bound_to 11000
  145.8217  139.2046  143.1934 LP  0  0  0  0  0  0  0  0  0  0  0  0  # atno 17320 bound_to 7965
  146.0508  140.8071  142.9782 LP  0  0  0  0  0  0  0  0  0  0  0  0  # atno 17321 bound_to 7965
  139.6174  144.0975  152.2359 LP  0  0  0  0  0  0  0  0  0  0  0  0  # atno 17342 bound_to 10162
  140.0409  144.6008  150.7412 LP  0  0  0  0  0  0  0  0  0  0  0  0  # atno 17343 bound_to 10162
  156.2522  130.3702  149.8220 LP  0  0  0  0  0  0  0  0  0  0  0  0  # atno 17370 bound_to 10713
  156.5990  130.8538  151.3427 LP  0  0  0  0  0  0  0  0  0  0  0  0  # atno 17371 bound_to 10713
  140.1103  134.9481  157.2055 LP  0  0  0  0  0  0  0  0  0  0  0  0  # atno 17394 bound_to 11000
  140.3203  134.2924  155.7248 LP  0  0  0  0  0  0  0  0  0  0  0  0  # atno 17395 bound_to 11000

$$$$
