#       Name:                AV-unprocessed.smi:2881
#       Creating user name   scv26
#       Creation time:       Fri Mar 27 15:53:20 2020


#       File generated by GOLD software.
#

@<TRIPOS>MOLECULE
AV-unprocessed.smi:2881
    45    47     1
SMALL
NO_CHARGES


@<TRIPOS>ATOM
      1 ****        -3.4248   2.7831  -2.5961 C.3            1 S1                 0.0000
      2 ****        -3.0556   1.4854  -1.9617 C.2            1 S1                 0.0000
      3 ****        -2.5113   0.3466  -2.4844 C.2            1 S1                 0.0000
      4 ****        -2.3910  -0.5330  -1.3679 C.2            1 S1                 0.0000
      5 ****        -1.8275  -1.9291  -1.3465 C.3            1 S1                 0.0000
      6 ****        -0.3020  -1.8597  -1.2933 C.2            1 S1                 0.0000
      7 ****         0.3602  -2.0361  -2.3157 O.2            1 S1                 0.0000
      8 ****         0.2354  -1.5660  -0.0994 N.am           1 S1                 0.0000
      9 ****         1.6503  -1.2942   0.1537 C.3            1 S1                 0.0000
     10 ****         2.1199  -1.8163   1.5339 C.3            1 S1                 0.0000
     11 ****         1.1744  -1.3562   2.6642 C.3            1 S1                 0.0000
     12 ****         1.4603   0.1537   2.7463 C.3            1 S1                 0.0000
     13 ****         2.5514   0.3586   1.6739 C.3            1 S1                 0.0000
     14 ****         3.3391  -0.9399   1.8033 C.3            1 S1                 0.0000
     15 ****         1.9903   0.2227   0.2366 C.3            1 S1                 0.0000
     16 ****         0.8749   1.2223  -0.1518 C.3            1 S1                 0.0000
     17 ****         1.3448   2.5497  -0.0527 O.3            1 S1                 0.0000
     18 ****        -2.8327   0.0159  -0.2440 N.2            1 S1                 0.0000
     19 ****        -3.2326   1.2453  -0.6187 N.pl3          1 S1                 0.0000
     20 ****        -3.6215   1.9011   0.0440 H              1 S1                 0.0000
     21 ****        -3.3490   2.7212  -3.6819 H              1 S1                 0.0000
     22 ****        -2.7633   3.5807  -2.2575 H              1 S1                 0.0000
     23 ****        -4.4488   3.0616  -2.3461 H              1 S1                 0.0000
     24 ****        -2.2303   0.1677  -3.5119 H              1 S1                 0.0000
     25 ****        -2.1992  -2.4927  -0.4893 H              1 S1                 0.0000
     26 ****        -2.1356  -2.4770  -2.2376 H              1 S1                 0.0000
     27 ****        -0.3942  -1.4445   0.6809 H              1 S1                 0.0000
     28 ****         2.2662  -1.7571  -0.6198 H              1 S1                 0.0000
     29 ****         2.3181  -2.8885   1.5464 H              1 S1                 0.0000
     30 ****         0.1233  -1.5767   2.4781 H              1 S1                 0.0000
     31 ****         1.4430  -1.8415   3.6036 H              1 S1                 0.0000
     32 ****         0.5714   0.7606   2.5811 H              1 S1                 0.0000
     33 ****         1.8448   0.4097   3.7343 H              1 S1                 0.0000
     34 ****         3.1438   1.2616   1.8243 H              1 S1                 0.0000
     35 ****         3.7713  -1.0895   2.7946 H              1 S1                 0.0000
     36 ****         4.1252  -1.0488   1.0539 H              1 S1                 0.0000
     37 ****         2.8182   0.4018  -0.4522 H              1 S1                 0.0000
     38 ****         0.5622   1.0534  -1.1825 H              1 S1                 0.0000
     39 ****        -0.0148   1.1108   0.4670 H              1 S1                 0.0000
     40 ****         0.6476   3.1341  -0.3087 H              1 S1                 0.0000
     41 ****        -0.1001  -2.2252  -3.1831 LP             1 S1                 0.0000
     42 ****         1.3584  -1.9903  -2.2790 LP             1 S1                 0.0000
     43 ****         2.1302   2.6757  -0.6586 LP             1 S1                 0.0000
     44 ****         1.6169   2.7418   0.8902 LP             1 S1                 0.0000
     45 ****        -2.8619  -0.3896   0.6696 LP             1 S1                 0.0000
@<TRIPOS>BOND
    1    1    2 1     
    2    1   21 1     
    3    1   22 1     
    4    1   23 1     
    5    2   19 1     
    6    2    3 2     
    7    3    4 1     
    8    3   24 1     
    9    4    5 1     
   10    4   18 2     
   11    5    6 1     
   12    5   25 1     
   13    5   26 1     
   14    6    7 2     
   15    6    8 am    
   16    8    9 1     
   17    8   27 1     
   18    9   15 1     
   19    9   10 1     
   20    9   28 1     
   21   10   14 1     
   22   10   11 1     
   23   10   29 1     
   24   11   12 1     
   25   11   30 1     
   26   11   31 1     
   27   12   13 1     
   28   12   32 1     
   29   12   33 1     
   30   13   14 1     
   31   13   15 1     
   32   13   34 1     
   33   14   35 1     
   34   14   36 1     
   35   15   16 1     
   36   15   37 1     
   37   16   17 1     
   38   16   38 1     
   39   16   39 1     
   40   17   40 1     
   41   18   19 1     
   42   19   20 1     
   43    7   41 1     
   44    7   42 1     
   45   17   43 1     
   46   17   44 1     
   47   18   45 1     
@<TRIPOS>SUBSTRUCTURE
      1 S1             1
@<TRIPOS>SET
LONE_PAIRS      STATIC     ATOMS    <user>   **** ""
5 41 42 43 44 45
DONOR_HYDROGENS      STATIC     ATOMS    <user>   **** ""
3 27 40 20
ATOM$BLUE        STATIC     ATOMS    COLORGROUP SYSTEM
5 41 42 43 44 45
ATOM$RED        STATIC     ATOMS    COLORGROUP SYSTEM
3 27 40 20
