AV-unprocessed.smi:284|AV-procd|sdf|2162|dock2
  -GOLD-   2262021513D 1   1.00000     0.00000
 Structure written by MMmdl.
 60 62  0  0  0  0  0  0  0  0  1 V2000
  148.6516  137.7570  159.2195 C   0  0  0  0  0  0  0  0  0  0  0  0
  149.4054  137.5471  157.9151 C   0  0  0  0  0  0  0  0  0  0  0  0
  149.7439  138.5774  157.1060 C   0  0  0  0  0  0  0  0  0  0  0  0
  150.4345  138.4279  155.9135 N   0  0  0  0  0  0  0  0  0  0  0  0
  150.8869  139.6072  155.0614 C   0  0  1  0  0  0  0  0  0  0  0  0
  149.7507  140.4379  154.4467 C   0  0  0  0  0  0  0  0  0  0  0  0
  149.6889  141.6726  155.3461 C   0  0  1  0  0  0  0  0  0  0  0  0
  148.3843  141.8642  155.8550 O   0  0  0  0  0  0  0  0  0  0  0  0
  150.7023  141.3901  156.4699 C   0  0  2  0  0  0  0  0  0  0  0  0
  151.4690  142.6239  156.9693 C   0  0  0  0  0  0  0  0  0  0  0  0
  150.5680  143.6239  157.3954 O   0  0  0  0  0  0  0  0  0  0  0  0
  151.6117  140.4772  155.8693 O   0  0  0  0  0  0  0  0  0  0  0  0
  150.8966  137.1447  155.5491 C   0  0  0  0  0  0  0  0  0  0  0  0
  151.5942  136.9862  154.5442 O   0  0  0  0  0  0  0  0  0  0  0  0
  150.5448  136.0439  156.3622 N   0  0  0  0  0  0  0  0  0  0  0  0
  151.0270  134.7004  155.9710 C   0  0  0  0  0  0  0  0  0  0  0  0
  149.8909  133.7413  155.5817 C   0  0  0  0  0  0  0  0  0  0  0  0
  148.7197  134.0411  155.8154 O   0  0  0  0  0  0  0  0  0  0  0  0
  150.2800  132.6181  154.9510 N   0  0  0  0  0  0  0  0  0  0  0  0
  149.4891  131.5264  154.5000 C   0  0  0  0  0  0  0  0  0  0  0  0
  149.9018  130.1753  154.5628 C   0  0  0  0  0  0  0  0  0  0  0  0
  149.0686  129.1512  154.0726 C   0  0  0  0  0  0  0  0  0  0  0  0
  147.8078  129.4487  153.4992 C   0  0  0  0  0  0  0  0  0  0  0  0
  146.8728  128.3553  152.9478 C   0  0  0  0  0  0  0  0  0  0  0  0
  147.6013  127.5490  151.8519 C   0  0  0  0  0  0  0  0  0  0  0  0
  145.5790  128.9255  152.3236 C   0  0  0  0  0  0  0  0  0  0  0  0
  146.4631  127.4049  154.0917 C   0  0  0  0  0  0  0  0  0  0  0  0
  147.4134  130.8053  153.4271 C   0  0  0  0  0  0  0  0  0  0  0  0
  148.2440  131.8303  153.9172 C   0  0  0  0  0  0  0  0  0  0  0  0
  149.7935  136.1829  157.5537 C   0  0  0  0  0  0  0  0  0  0  0  0
  149.5103  135.1977  158.2381 O   0  0  0  0  0  0  0  0  0  0  0  0
  148.3962  138.8050  159.3789 H   0  0  0  0  0  0  0  0  0  0  0  0
  149.2576  137.4294  160.0650 H   0  0  0  0  0  0  0  0  0  0  0  0
  147.7227  137.1855  159.2210 H   0  0  0  0  0  0  0  0  0  0  0  0
  149.4650  139.5636  157.4382 H   0  0  0  0  0  0  0  0  0  0  0  0
  151.5166  139.1770  154.2811 H   0  0  0  0  0  0  0  0  0  0  0  0
  150.0524  140.7359  153.4421 H   0  0  0  0  0  0  0  0  0  0  0  0
  148.8238  139.8732  154.3477 H   0  0  0  0  0  0  0  0  0  0  0  0
  149.9843  142.5526  154.7733 H   0  0  0  0  0  0  0  0  0  0  0  0
  148.2666  142.7824  156.0456 H   0  0  0  0  0  0  0  0  0  0  0  0
  150.2241  140.8834  157.3101 H   0  0  0  0  0  0  0  0  0  0  0  0
  152.1027  142.3538  157.8142 H   0  0  0  0  0  0  0  0  0  0  0  0
  152.1220  143.0221  156.1920 H   0  0  0  0  0  0  0  0  0  0  0  0
  150.0789  143.9275  156.6458 H   0  0  0  0  0  0  0  0  0  0  0  0
  151.7290  134.7498  155.1377 H   0  0  0  0  0  0  0  0  0  0  0  0
  151.6119  134.2583  156.7799 H   0  0  0  0  0  0  0  0  0  0  0  0
  151.2643  132.5546  154.7350 H   0  0  0  0  0  0  0  0  0  0  0  0
  150.8619  129.8966  154.9683 H   0  0  0  0  0  0  0  0  0  0  0  0
  149.4321  128.1382  154.1455 H   0  0  0  0  0  0  0  0  0  0  0  0
  146.9515  126.7841  151.4253 H   0  0  0  0  0  0  0  0  0  0  0  0
  148.4845  127.0371  152.2341 H   0  0  0  0  0  0  0  0  0  0  0  0
  147.9243  128.1963  151.0356 H   0  0  0  0  0  0  0  0  0  0  0  0
  145.7950  129.5969  151.4916 H   0  0  0  0  0  0  0  0  0  0  0  0
  144.9837  129.4726  153.0557 H   0  0  0  0  0  0  0  0  0  0  0  0
  144.9448  128.1287  151.9329 H   0  0  0  0  0  0  0  0  0  0  0  0
  145.7893  126.6242  153.7368 H   0  0  0  0  0  0  0  0  0  0  0  0
  145.9482  127.9451  154.8870 H   0  0  0  0  0  0  0  0  0  0  0  0
  147.3235  126.9059  154.5381 H   0  0  0  0  0  0  0  0  0  0  0  0
  146.4646  131.0755  152.9887 H   0  0  0  0  0  0  0  0  0  0  0  0
  147.9159  132.8572  153.8456 H   0  0  0  0  0  0  0  0  0  0  0  0
  1  2  1  0  0  0  0
  1 32  1  0  0  0  0
  1 33  1  0  0  0  0
  1 34  1  0  0  0  0
  2 30  1  0  0  0  0
  2  3  2  0  0  0  0
  3  4  1  0  0  0  0
  3 35  1  0  0  0  0
  4  5  1  0  0  0  0
  4 13  1  0  0  0  0
  5 12  1  0  0  0  0
  5  6  1  0  0  0  0
  5 36  1  0  0  0  0
  6  7  1  0  0  0  0
  6 37  1  0  0  0  0
  6 38  1  0  0  0  0
  7  8  1  0  0  0  0
  7  9  1  0  0  0  0
  7 39  1  0  0  0  0
  8 40  1  0  0  0  0
  9 10  1  0  0  0  0
  9 12  1  0  0  0  0
  9 41  1  0  0  0  0
 10 11  1  0  0  0  0
 10 42  1  0  0  0  0
 10 43  1  0  0  0  0
 11 44  1  0  0  0  0
 13 14  2  0  0  0  0
 13 15  1  0  0  0  0
 15 16  1  0  0  0  0
 15 30  1  0  0  0  0
 16 17  1  0  0  0  0
 16 45  1  0  0  0  0
 16 46  1  0  0  0  0
 17 18  2  0  0  0  0
 17 19  1  0  0  0  0
 19 20  1  0  0  0  0
 19 47  1  0  0  0  0
 20 29  1  0  0  0  0
 20 21  2  0  0  0  0
 21 22  1  0  0  0  0
 21 48  1  0  0  0  0
 22 23  2  0  0  0  0
 22 49  1  0  0  0  0
 23 24  1  0  0  0  0
 23 28  1  0  0  0  0
 24 25  1  0  0  0  0
 24 26  1  0  0  0  0
 24 27  1  0  0  0  0
 25 50  1  0  0  0  0
 25 51  1  0  0  0  0
 25 52  1  0  0  0  0
 26 53  1  0  0  0  0
 26 54  1  0  0  0  0
 26 55  1  0  0  0  0
 27 56  1  0  0  0  0
 27 57  1  0  0  0  0
 27 58  1  0  0  0  0
 28 29  2  0  0  0  0
 28 59  1  0  0  0  0
 29 60  1  0  0  0  0
 30 31  2  0  0  0  0
M  END
> <s_m_source_file>
AV-unprocessed.smi

> <i_m_source_file_index>
284

> <i_lp_mmshare_version>
43012

> <i_f3d_flags>
0

> <s_epik_input>
W09IXVtDSDJdW0NAQEhdKE8xKVtDQEhdKFtPSF0pW0NIMl1bQ0BIXTFuKFtjSF1jMltDSDNdKWMoPU8pbihjMj1PKVtDSDJdQyg9TylbTkhdYzNbY0hdW2NIXWMoQyhbQ0gzXSkoW0NIM10pW0NIM10pW2NIXVtjSF0z

> <s_epik_cmdline>
J2VwaWtfcHl0aG9uJywgJy1waCcsICc3LjAnLCAnLXRuJywgJzgnLCAnLW1hJywgJzIwMCcsICctbWV0YWxfYmluZGluZycsICctaW1hZScsICc8aW5maWxlLm1hZT4nLCAnLW9tYWUnLCAnPG91dGZpbGUubWFlPic=

> <r_lp_tautomer_probability>
1

> <r_epik_Ionization_Penalty>
4.92358e-06

> <r_epik_Ionization_Penalty_Charging>
1.29777e-07

> <r_epik_Ionization_Penalty_Neutral>
4.79381e-06

> <r_epik_State_Penalty>
-0

> <r_epik_Charging_Adjusted_Penalty>
1.29777e-07

> <i_epik_Tot_Q>
0

> <i_epik_Tot_abs_Q>
0

> <r_epik_Metal_State_Penalty>
-0

> <b_epik_Metal_Only>
0

> <s_epik_Chemistry_Notes>
This compound contains an acetal/aminal-like group ( X-CH(R)-Y where X, Y are N, S, or O) that may be acid/base labile, releasing an aldehyde.

> <s_lp_Force_Field>
OPLS_2005

> <r_lp_Energy>
37.3947

> <b_lp_Chiralities_Consistent>
1

> <s_lp_Variant>
AV-unprocessed.smi:284-6

> <Gold.Version>
5.8.1

> <Gold.Id.Protein>
6NUR|6NUR_protein|mol2

> <Gold.PLP.Fitness>
57.3529

> <Gold.PLP.PLP>
-46.4017

> <Gold.PLP.part.hbond>
-4.4106

> <Gold.PLP.part.metal>
0.0000

> <Gold.PLP.part.buried>
-1.2520

> <Gold.PLP.part.nonpolar>
-40.3757

> <Gold.PLP.part.repulsive>
0.2270

> <Gold.PLP.ligand.clash>
0.0000

> <Gold.PLP.ligand.torsion>
0.5571

> <Gold.PLP.Chemscore.Hbond>
3.9516

> <Gold.PLP.Chemscore.CHOScore>
0.0000

> <Gold.PLP.Chemscore.Metal>
0.0000

> <Gold.Chemscore.Hbonds>
donor molecule, donor type, donor heavy atom, donor atom, acceptor molecule, acceptor atom, score
      L1  H     8    40       P1  8028  0.87
      L1  H    11    44       P1  8028  1.00
      P1  H  6896  6908       L1    31  1.00
      P1  H 10752 10763       L1    14  1.00

> <Gold.PLP.Chemscore.Internal.Correction>
0.2107

> <Gold.Rescore>
     Score         DG    S(hbond)    S(metal)    S(lipo)     H(rot)  DE(clash)    DE(int)     intcor
     15.43     -20.85       3.55        0.00     101.80       3.27       0.73       4.70       ----

> <Gold.Chemscore.Fitness>
15.4262

> <Gold.Chemscore.DG>
-20.8516

> <Gold.Chemscore.ZeroCoef>
-5.4800

> <Gold.Chemscore.Hbond>
3.5451

> <Gold.Chemscore.Metal>
0.0000

> <Gold.Chemscore.Lipo>
101.8046

> <Gold.Chemscore.Internal_Hbond>
0.0000

> <Gold.Chemscore.DEClash>
0.7277

> <Gold.Chemscore.DEInternal>
4.6977

> <Gold.Chemscore.Rot>
3.2735

> <Gold.Chemscore.Internal.Correction>
   9.000000E+99

> <Gold.Chemscore.Hbonds>
donor molecule, donor type, donor heavy atom, donor atom, acceptor molecule, acceptor atom, score
      L1  H     8    40       P1  8028  0.73
      L1  H    11    44       P1  8028  1.00
      P1  H  6896  6908       L1    31  0.99
      P1  H 10752 10763       L1    14  0.95

> <Gold.Chemscore.Hbond.Weighted>
-11.8405

> <Gold.Chemscore.Metal.Weighted>
-0.0000

> <Gold.Chemscore.Lipo.Weighted>
-11.9111

> <Gold.Chemscore.Internal_Hbond.Weighted>
0.0000

> <Gold.Chemscore.DEClash.Weighted>
0.7277

> <Gold.Chemscore.DEInternal.Weighted>
4.6977

> <Gold.Chemscore.Rot.Weighted>
8.3801

> <Gold.Chemscore.Internal.Correction.Weighted>
   9.000000E+99

> <Gold.Protein.RotatedTorsions>
[ 6907 6896 6895 6894 ] final  158.49 input  -60.11 | X-H torsion
[ 7974 7965 7964 7962 ] final   15.48 input  175.53 | X-H torsion
[ 8008 7997 7996 7995 ] final  105.39 input   59.86 | X-H torsion
[ 10167 10162 10161 10158 ] final    0.15 input  -65.29 | X-H torsion
[ 10718 10713 10712 10709 ] final  -82.98 input   66.30 | X-H torsion
[ 10763 10752 10751 10750 ] final   58.22 input  -60.55 | X-H torsion
[ 11005 11000 10999 10996 ] final  -17.79 input  -57.11 | X-H torsion

> <Gold.Protein.ActiveResidues>
 VAL166  LYS551  ARG553  GLY616  TRP617  ASP618  TYR619  PRO620  LYS621  CYS622 
 ASP623  PHE694  ASN695  SER759  ASP760  ASP761  ALA762  ILE779  LEU786  VAL792 
 PHE793  MET794  SER795  GLU796  ALA797  LYS798  CYS799  TRP800  GLU811  SER814 

> <Gold.Protein.RotatedAtoms>
  151.9996  133.3820  159.4176 H   0  0  0  0  0  0  0  0  0  0  0  0  # atno 6907 bound_to 6896
  150.6911  134.3848  159.5059 H   0  0  0  0  0  0  0  0  0  0  0  0  # atno 6908 bound_to 6896
  152.1593  134.8924  160.0593 H   0  0  0  0  0  0  0  0  0  0  0  0  # atno 6909 bound_to 6896
  146.2277  139.8887  142.8558 H   0  0  0  0  0  0  0  0  0  0  0  0  # atno 7974 bound_to 7965
  156.1655  140.3131  155.8880 H   0  0  0  0  0  0  0  0  0  0  0  0  # atno 8008 bound_to 7997
  155.3696  140.0481  157.3062 H   0  0  0  0  0  0  0  0  0  0  0  0  # atno 8009 bound_to 7997
  154.5188  140.2191  155.9026 H   0  0  0  0  0  0  0  0  0  0  0  0  # atno 8010 bound_to 7997
  140.6741  143.6964  150.7986 H   0  0  0  0  0  0  0  0  0  0  0  0  # atno 10167 bound_to 10162
  156.0025  130.4651  150.4187 H   0  0  0  0  0  0  0  0  0  0  0  0  # atno 10718 bound_to 10713
  152.9866  135.5614  154.5517 H   0  0  0  0  0  0  0  0  0  0  0  0  # atno 10763 bound_to 10752
  154.4953  135.2794  155.1466 H   0  0  0  0  0  0  0  0  0  0  0  0  # atno 10764 bound_to 10752
  154.2919  135.6324  153.5442 H   0  0  0  0  0  0  0  0  0  0  0  0  # atno 10765 bound_to 10752
  140.8203  133.8073  155.9653 H   0  0  0  0  0  0  0  0  0  0  0  0  # atno 11005 bound_to 11000
  145.2439  141.0019  143.3920 LP  0  0  0  0  0  0  0  0  0  0  0  0  # atno 17320 bound_to 7965
  144.9429  139.4168  143.6440 LP  0  0  0  0  0  0  0  0  0  0  0  0  # atno 17321 bound_to 7965
  140.0655  143.5113  152.2606 LP  0  0  0  0  0  0  0  0  0  0  0  0  # atno 17342 bound_to 10162
  139.6025  144.7586  151.3139 LP  0  0  0  0  0  0  0  0  0  0  0  0  # atno 17343 bound_to 10162
  157.2245  131.0490  151.2528 LP  0  0  0  0  0  0  0  0  0  0  0  0  # atno 17370 bound_to 10713
  157.3770  130.7211  149.6603 LP  0  0  0  0  0  0  0  0  0  0  0  0  # atno 17371 bound_to 10713
  140.9106  134.2265  157.4988 LP  0  0  0  0  0  0  0  0  0  0  0  0  # atno 17394 bound_to 11000
  139.8709  134.9748  156.4860 LP  0  0  0  0  0  0  0  0  0  0  0  0  # atno 17395 bound_to 11000

$$$$
