AV-unprocessed.smi:332|AV-procd|sdf|2358|dock10
  -GOLD-   2262022273D 1   1.00000     0.00000
 Structure written by MMmdl.
 42 44  0  0  0  0  0  0  0  0  1 V2000
  149.6343  142.1865  156.1365 C   0  0  0  0  0  0  0  0  0  0  0  0
  151.0625  142.1557  156.7095 C   0  0  2  0  0  0  0  0  0  0  0  0
  151.4990  140.7644  156.8117 N   0  0  0  0  0  0  0  0  0  0  0  0
  151.4322  139.8495  155.8326 C   0  0  0  0  0  0  0  0  0  0  0  0
  150.9475  140.0778  154.7235 O   0  0  0  0  0  0  0  0  0  0  0  0
  151.9830  138.4584  156.1745 C   0  0  0  0  0  0  0  0  0  0  0  0
  150.9562  137.5493  156.7098 N   0  0  0  0  0  0  0  0  0  0  0  0
  150.3836  137.8866  157.9526 C   0  0  0  0  0  0  0  0  0  0  0  0
  149.4393  137.1263  158.5290 C   0  0  0  0  0  0  0  0  0  0  0  0
  149.0103  135.9319  157.8403 C   0  0  0  0  0  0  0  0  0  0  0  0
  149.5492  135.6016  156.6495 C   0  0  0  0  0  0  0  0  0  0  0  0
  150.5809  136.4306  156.0152 C   0  0  0  0  0  0  0  0  0  0  0  0
  151.0778  136.1375  154.9271 O   0  0  0  0  0  0  0  0  0  0  0  0
  151.1703  142.8324  158.0987 C   0  0  1  0  0  0  0  0  0  0  0  0
  152.4024  142.3740  158.9207 C   0  0  0  0  0  0  0  0  0  0  0  0
  153.0922  143.6968  159.2966 C   0  0  2  0  0  0  0  0  0  0  0  0
  152.2249  144.4617  160.3126 C   0  0  0  0  0  0  0  0  0  0  0  0
  151.0477  144.9520  159.4492 C   0  0  0  0  0  0  0  0  0  0  0  0
  151.3766  144.3683  158.0614 C   0  0  1  0  0  0  0  0  0  0  0  0
  152.8948  144.5132  158.0270 C   0  0  0  0  0  0  0  0  0  0  0  0
  149.2882  143.2043  155.9623 H   0  0  0  0  0  0  0  0  0  0  0  0
  148.9258  141.7040  156.8107 H   0  0  0  0  0  0  0  0  0  0  0  0
  149.5854  141.6673  155.1786 H   0  0  0  0  0  0  0  0  0  0  0  0
  151.7196  142.6869  156.0187 H   0  0  0  0  0  0  0  0  0  0  0  0
  151.9071  140.4828  157.6913 H   0  0  0  0  0  0  0  0  0  0  0  0
  152.4445  138.0175  155.2885 H   0  0  0  0  0  0  0  0  0  0  0  0
  152.7981  138.5835  156.8888 H   0  0  0  0  0  0  0  0  0  0  0  0
  150.7537  138.7983  158.3987 H   0  0  0  0  0  0  0  0  0  0  0  0
  149.0096  137.4029  159.4808 H   0  0  0  0  0  0  0  0  0  0  0  0
  148.2524  135.3009  158.2814 H   0  0  0  0  0  0  0  0  0  0  0  0
  149.2153  134.7047  156.1485 H   0  0  0  0  0  0  0  0  0  0  0  0
  150.2596  142.6022  158.6543 H   0  0  0  0  0  0  0  0  0  0  0  0
  152.1218  141.7875  159.7964 H   0  0  0  0  0  0  0  0  0  0  0  0
  153.0819  141.7654  158.3224 H   0  0  0  0  0  0  0  0  0  0  0  0
  154.1295  143.5750  159.6097 H   0  0  0  0  0  0  0  0  0  0  0  0
  151.9007  143.8267  161.1379 H   0  0  0  0  0  0  0  0  0  0  0  0
  152.7702  145.3075  160.7335 H   0  0  0  0  0  0  0  0  0  0  0  0
  150.0819  144.6157  159.8283 H   0  0  0  0  0  0  0  0  0  0  0  0
  151.0288  146.0420  159.4146 H   0  0  0  0  0  0  0  0  0  0  0  0
  150.8536  144.8815  157.2555 H   0  0  0  0  0  0  0  0  0  0  0  0
  153.2335  145.5467  158.1206 H   0  0  0  0  0  0  0  0  0  0  0  0
  153.3580  144.0649  157.1466 H   0  0  0  0  0  0  0  0  0  0  0  0
  1  2  1  0  0  0  0
  1 21  1  0  0  0  0
  1 22  1  0  0  0  0
  1 23  1  0  0  0  0
  2  3  1  0  0  0  0
  2 14  1  0  0  0  0
  2 24  1  0  0  0  0
  3  4  1  0  0  0  0
  3 25  1  0  0  0  0
  4  5  2  0  0  0  0
  4  6  1  0  0  0  0
  6  7  1  0  0  0  0
  6 26  1  0  0  0  0
  6 27  1  0  0  0  0
  7 12  1  0  0  0  0
  7  8  1  0  0  0  0
  8  9  2  0  0  0  0
  8 28  1  0  0  0  0
  9 10  1  0  0  0  0
  9 29  1  0  0  0  0
 10 11  2  0  0  0  0
 10 30  1  0  0  0  0
 11 12  1  0  0  0  0
 11 31  1  0  0  0  0
 12 13  2  0  0  0  0
 14 19  1  0  0  0  0
 14 15  1  0  0  0  0
 14 32  1  0  0  0  0
 15 16  1  0  0  0  0
 15 33  1  0  0  0  0
 15 34  1  0  0  0  0
 16 20  1  0  0  0  0
 16 17  1  0  0  0  0
 16 35  1  0  0  0  0
 17 18  1  0  0  0  0
 17 36  1  0  0  0  0
 17 37  1  0  0  0  0
 18 19  1  0  0  0  0
 18 38  1  0  0  0  0
 18 39  1  0  0  0  0
 19 20  1  0  0  0  0
 19 40  1  0  0  0  0
 20 41  1  0  0  0  0
 20 42  1  0  0  0  0
M  END
> <s_m_source_file>
AV-unprocessed.smi

> <i_m_source_file_index>
332

> <i_lp_mmshare_version>
43012

> <i_f3d_flags>
0

> <s_epik_input>
W0NIMl0xW0NIMl1bQ0BIXShbQ0gyXTIpW0NAQEhdKFtDSDJdW0NAQEhdMTIpW0NASF0oW0NIM10pW05IXUMoPU8pW0NIMl1uM1tjSF1bY0hdW2NIXVtjSF1jMz1P

> <s_epik_cmdline>
J2VwaWtfcHl0aG9uJywgJy1waCcsICc3LjAnLCAnLXRuJywgJzgnLCAnLW1hJywgJzIwMCcsICctbWV0YWxfYmluZGluZycsICctaW1hZScsICc8aW5maWxlLm1hZT4nLCAnLW9tYWUnLCAnPG91dGZpbGUubWFlPic=

> <r_lp_tautomer_probability>
1

> <r_epik_Ionization_Penalty>
4.05802e-07

> <r_epik_Ionization_Penalty_Charging>
3.84175e-07

> <r_epik_Ionization_Penalty_Neutral>
2.16269e-08

> <r_epik_State_Penalty>
-0

> <r_epik_Charging_Adjusted_Penalty>
3.84175e-07

> <i_epik_Tot_Q>
0

> <i_epik_Tot_abs_Q>
0

> <r_epik_Metal_State_Penalty>
-0

> <b_epik_Metal_Only>
0

> <s_lp_Force_Field>
OPLS_2005

> <r_lp_Energy>
59.8508

> <b_lp_Chiralities_Consistent>
1

> <s_lp_Variant>
AV-unprocessed.smi:332-7

> <Gold.Version>
5.8.1

> <Gold.Id.Protein>
6NUR|6NUR_protein|mol2

> <Gold.PLP.Fitness>
43.5806

> <Gold.PLP.PLP>
-39.5351

> <Gold.PLP.part.hbond>
-1.9864

> <Gold.PLP.part.metal>
0.0000

> <Gold.PLP.part.buried>
-3.2118

> <Gold.PLP.part.nonpolar>
-34.1930

> <Gold.PLP.part.repulsive>
0.3504

> <Gold.PLP.ligand.clash>
0.0000

> <Gold.PLP.ligand.torsion>
0.9869

> <Gold.PLP.Chemscore.Hbond>
2.0000

> <Gold.PLP.Chemscore.CHOScore>
0.0000

> <Gold.PLP.Chemscore.Metal>
0.0000

> <Gold.Chemscore.Hbonds>
donor molecule, donor type, donor heavy atom, donor atom, acceptor molecule, acceptor atom, score
      P1  H  7989  7998       L1     5  1.00
      P1  H 10752 10764       L1    13  1.00

> <Gold.PLP.Chemscore.Internal.Correction>
0.0193

> <Gold.Rescore>
     Score         DG    S(hbond)    S(metal)    S(lipo)     H(rot)  DE(clash)    DE(int)     intcor
     18.83     -21.26       1.99        0.00     111.72       1.54       0.17       2.26       ----

> <Gold.Chemscore.Fitness>
18.8265

> <Gold.Chemscore.DG>
-21.2616

> <Gold.Chemscore.ZeroCoef>
-5.4800

> <Gold.Chemscore.Hbond>
1.9916

> <Gold.Chemscore.Metal>
0.0000

> <Gold.Chemscore.Lipo>
111.7213

> <Gold.Chemscore.Internal_Hbond>
0.0000

> <Gold.Chemscore.DEClash>
0.1739

> <Gold.Chemscore.DEInternal>
2.2611

> <Gold.Chemscore.Rot>
1.5398

> <Gold.Chemscore.Internal.Correction>
   9.000000E+99

> <Gold.Chemscore.Hbonds>
donor molecule, donor type, donor heavy atom, donor atom, acceptor molecule, acceptor atom, score
      P1  H  7989  7998       L1     5  0.99
      P1  H 10752 10764       L1    13  0.97

> <Gold.Chemscore.Hbond.Weighted>
-6.6521

> <Gold.Chemscore.Metal.Weighted>
-0.0000

> <Gold.Chemscore.Lipo.Weighted>
-13.0714

> <Gold.Chemscore.Internal_Hbond.Weighted>
0.0000

> <Gold.Chemscore.DEClash.Weighted>
0.1739

> <Gold.Chemscore.DEInternal.Weighted>
2.2611

> <Gold.Chemscore.Rot.Weighted>
3.9419

> <Gold.Chemscore.Internal.Correction.Weighted>
   9.000000E+99

> <Gold.Protein.RotatedTorsions>
[ 6907 6896 6895 6894 ] final  114.22 input  -60.11 | X-H torsion
[ 7974 7965 7964 7962 ] final  -19.42 input  175.53 | X-H torsion
[ 8008 7997 7996 7995 ] final -132.64 input   59.86 | X-H torsion
[ 10167 10162 10161 10158 ] final  -49.89 input  -65.29 | X-H torsion
[ 10718 10713 10712 10709 ] final   89.05 input   66.30 | X-H torsion
[ 10763 10752 10751 10750 ] final  -52.75 input  -60.55 | X-H torsion
[ 11005 11000 10999 10996 ] final  -31.69 input  -57.11 | X-H torsion

> <Gold.Protein.ActiveResidues>
 VAL166  LYS551  ARG553  GLY616  TRP617  ASP618  TYR619  PRO620  LYS621  CYS622 
 ASP623  PHE694  ASN695  SER759  ASP760  ASP761  ALA762  ILE779  LEU786  VAL792 
 PHE793  MET794  SER795  GLU796  ALA797  LYS798  CYS799  TRP800  GLU811  SER814 

> <Gold.Protein.RotatedAtoms>
  152.4815  133.8267  159.7081 H   0  0  0  0  0  0  0  0  0  0  0  0  # atno 6907 bound_to 6896
  150.8869  133.7286  159.2922 H   0  0  0  0  0  0  0  0  0  0  0  0  # atno 6908 bound_to 6896
  151.4772  135.1053  159.9820 H   0  0  0  0  0  0  0  0  0  0  0  0  # atno 6909 bound_to 6896
  146.1842  140.4059  142.8483 H   0  0  0  0  0  0  0  0  0  0  0  0  # atno 7974 bound_to 7965
  155.3323  140.0467  157.3043 H   0  0  0  0  0  0  0  0  0  0  0  0  # atno 8008 bound_to 7997
  154.5322  140.2260  155.8751 H   0  0  0  0  0  0  0  0  0  0  0  0  # atno 8009 bound_to 7997
  156.1799  140.3076  155.9136 H   0  0  0  0  0  0  0  0  0  0  0  0  # atno 8010 bound_to 7997
  140.6664  143.2679  151.4280 H   0  0  0  0  0  0  0  0  0  0  0  0  # atno 10167 bound_to 10162
  157.6953  131.0318  150.3368 H   0  0  0  0  0  0  0  0  0  0  0  0  # atno 10718 bound_to 10713
  154.1477  135.6495  153.4956 H   0  0  0  0  0  0  0  0  0  0  0  0  # atno 10763 bound_to 10752
  153.0147  135.5330  154.6840 H   0  0  0  0  0  0  0  0  0  0  0  0  # atno 10764 bound_to 10752
  154.6119  135.2955  155.0394 H   0  0  0  0  0  0  0  0  0  0  0  0  # atno 10765 bound_to 10752
  140.9489  133.7233  156.1190 H   0  0  0  0  0  0  0  0  0  0  0  0  # atno 11005 bound_to 11000
  144.8368  140.6794  143.6255 LP  0  0  0  0  0  0  0  0  0  0  0  0  # atno 17320 bound_to 7965
  145.3987  139.1602  143.4189 LP  0  0  0  0  0  0  0  0  0  0  0  0  # atno 17321 bound_to 7965
  139.5914  144.1490  152.2093 LP  0  0  0  0  0  0  0  0  0  0  0  0  # atno 17342 bound_to 10162
  140.0846  144.5672  150.7098 LP  0  0  0  0  0  0  0  0  0  0  0  0  # atno 17343 bound_to 10162
  156.3834  130.3884  149.7084 LP  0  0  0  0  0  0  0  0  0  0  0  0  # atno 17370 bound_to 10713
  156.4459  130.7883  151.2905 LP  0  0  0  0  0  0  0  0  0  0  0  0  # atno 17371 bound_to 10713
  140.7630  134.3918  157.5522 LP  0  0  0  0  0  0  0  0  0  0  0  0  # atno 17394 bound_to 11000
  139.8842  134.8973  156.2720 LP  0  0  0  0  0  0  0  0  0  0  0  0  # atno 17395 bound_to 11000

$$$$
