AV-unprocessed.smi:2659|AV-procd|sdf|10313|dock3
  -GOLD-   2272014333D 1   1.00000     0.00000
 Structure written by MMmdl.
 47 48  0  0  0  0  0  0  0  0  1 V2000
  147.4357  141.3491  153.7589 C   0  0  0  0  0  0  0  0  0  0  0  0
  148.6114  140.6698  154.2668 N   0  0  0  0  0  0  0  0  0  0  0  0
  149.4765  141.3252  155.0698 N   0  0  0  0  0  0  0  0  0  0  0  0
  150.4240  140.4398  155.3608 C   0  0  0  0  0  0  0  0  0  0  0  0
  151.5669  140.8373  156.2603 C   0  0  0  0  0  0  0  0  0  0  0  0
  151.1895  141.0592  157.7528 C   0  0  0  0  0  0  0  0  0  0  0  0
  150.5426  139.7842  158.3301 C   0  0  0  0  0  0  0  0  0  0  0  0
  150.1655  142.2080  157.8371 C   0  0  0  0  0  0  0  0  0  0  0  0
  152.4164  141.4344  158.6120 C   0  0  0  0  0  0  0  0  0  0  0  0
  150.2022  139.1763  154.7384 C   0  0  0  0  0  0  0  0  0  0  0  0
  149.0327  139.3758  154.0575 C   0  0  0  0  0  0  0  0  0  0  0  0
  148.3361  138.5046  153.2802 N   0  0  0  0  0  0  0  0  0  0  0  0
  147.0105  138.2843  153.2447 C   0  0  0  0  0  0  0  0  0  0  0  0
  146.1711  138.8580  153.9391 O   0  0  0  0  0  0  0  0  0  0  0  0
  146.7021  137.3428  152.3420 N   0  0  0  0  0  0  0  0  0  0  0  0
  145.3549  136.8587  152.0632 C   0  0  0  0  0  0  0  0  0  0  0  0
  145.3732  135.6449  151.1198 C   0  0  1  0  0  0  0  0  0  0  0  0
  146.1833  134.4657  151.6522 C   0  0  0  0  0  0  0  0  0  0  0  0
  145.5790  133.3137  150.8825 C   0  0  0  0  0  0  0  0  0  0  0  0
  144.1029  133.7014  150.8345 C   0  0  0  0  0  0  0  0  0  0  0  0
  144.0589  135.1225  150.9447 O   0  0  0  0  0  0  0  0  0  0  0  0
  146.5433  140.7774  154.0144 H   0  0  0  0  0  0  0  0  0  0  0  0
  147.5049  141.4375  152.6746 H   0  0  0  0  0  0  0  0  0  0  0  0
  147.3508  142.3467  154.1920 H   0  0  0  0  0  0  0  0  0  0  0  0
  152.3168  140.0471  156.2037 H   0  0  0  0  0  0  0  0  0  0  0  0
  152.0663  141.7228  155.8645 H   0  0  0  0  0  0  0  0  0  0  0  0
  150.2223  139.9341  159.3617 H   0  0  0  0  0  0  0  0  0  0  0  0
  151.2373  138.9441  158.3272 H   0  0  0  0  0  0  0  0  0  0  0  0
  149.6647  139.4863  157.7558 H   0  0  0  0  0  0  0  0  0  0  0  0
  149.2767  141.9920  157.2430 H   0  0  0  0  0  0  0  0  0  0  0  0
  150.5863  143.1449  157.4704 H   0  0  0  0  0  0  0  0  0  0  0  0
  149.8400  142.3782  158.8639 H   0  0  0  0  0  0  0  0  0  0  0  0
  152.1242  141.6690  159.6360 H   0  0  0  0  0  0  0  0  0  0  0  0
  152.9282  142.3092  158.2093 H   0  0  0  0  0  0  0  0  0  0  0  0
  153.1415  140.6219  158.6677 H   0  0  0  0  0  0  0  0  0  0  0  0
  150.8102  138.2867  154.7999 H   0  0  0  0  0  0  0  0  0  0  0  0
  148.8940  137.9573  152.6415 H   0  0  0  0  0  0  0  0  0  0  0  0
  147.4533  136.9189  151.8177 H   0  0  0  0  0  0  0  0  0  0  0  0
  144.8522  136.6039  152.9975 H   0  0  0  0  0  0  0  0  0  0  0  0
  144.7828  137.6723  151.6163 H   0  0  0  0  0  0  0  0  0  0  0  0
  145.7608  135.9252  150.1388 H   0  0  0  0  0  0  0  0  0  0  0  0
  147.2552  134.5764  151.4864 H   0  0  0  0  0  0  0  0  0  0  0  0
  146.0130  134.3312  152.7213 H   0  0  0  0  0  0  0  0  0  0  0  0
  145.9919  133.2827  149.8735 H   0  0  0  0  0  0  0  0  0  0  0  0
  145.7507  132.3449  151.3522 H   0  0  0  0  0  0  0  0  0  0  0  0
  143.6184  133.3602  149.9194 H   0  0  0  0  0  0  0  0  0  0  0  0
  143.5660  133.2730  151.6815 H   0  0  0  0  0  0  0  0  0  0  0  0
  1  2  1  0  0  0  0
  1 22  1  0  0  0  0
  1 23  1  0  0  0  0
  1 24  1  0  0  0  0
  2 11  1  0  0  0  0
  2  3  1  0  0  0  0
  3  4  2  0  0  0  0
  4  5  1  0  0  0  0
  4 10  1  0  0  0  0
  5  6  1  0  0  0  0
  5 25  1  0  0  0  0
  5 26  1  0  0  0  0
  6  7  1  0  0  0  0
  6  8  1  0  0  0  0
  6  9  1  0  0  0  0
  7 27  1  0  0  0  0
  7 28  1  0  0  0  0
  7 29  1  0  0  0  0
  8 30  1  0  0  0  0
  8 31  1  0  0  0  0
  8 32  1  0  0  0  0
  9 33  1  0  0  0  0
  9 34  1  0  0  0  0
  9 35  1  0  0  0  0
 10 11  2  0  0  0  0
 10 36  1  0  0  0  0
 11 12  1  0  0  0  0
 12 13  1  0  0  0  0
 12 37  1  0  0  0  0
 13 14  2  0  0  0  0
 13 15  1  0  0  0  0
 15 16  1  0  0  0  0
 15 38  1  0  0  0  0
 16 17  1  0  0  0  0
 16 39  1  0  0  0  0
 16 40  1  0  0  0  0
 17 21  1  0  0  0  0
 17 18  1  0  0  0  0
 17 41  1  0  0  0  0
 18 19  1  0  0  0  0
 18 42  1  0  0  0  0
 18 43  1  0  0  0  0
 19 20  1  0  0  0  0
 19 44  1  0  0  0  0
 19 45  1  0  0  0  0
 20 21  1  0  0  0  0
 20 46  1  0  0  0  0
 20 47  1  0  0  0  0
M  END
> <s_m_source_file>
AV-unprocessed.smi

> <i_m_source_file_index>
2659

> <i_lp_mmshare_version>
43012

> <i_f3d_flags>
0

> <s_epik_input>
W0NIM11uMW5jKFtDSDJdQyhbQ0gzXSkoW0NIM10pW0NIM10pW2NIXWMxW05IXUMoPU8pW05IXVtDSDJdW0NAQEhdMltDSDJdW0NIMl1bQ0gyXU8y

> <s_epik_cmdline>
J2VwaWtfcHl0aG9uJywgJy1waCcsICc3LjAnLCAnLXRuJywgJzgnLCAnLW1hJywgJzIwMCcsICctbWV0YWxfYmluZGluZycsICctaW1hZScsICc8aW5maWxlLm1hZT4nLCAnLW9tYWUnLCAnPG91dGZpbGUubWFlPic=

> <r_lp_tautomer_probability>
1

> <r_epik_Ionization_Penalty>
9.6187e-05

> <r_epik_Ionization_Penalty_Charging>
0

> <r_epik_Ionization_Penalty_Neutral>
9.6187e-05

> <r_epik_State_Penalty>
-0

> <r_epik_Charging_Adjusted_Penalty>
0

> <i_epik_Tot_Q>
0

> <i_epik_Tot_abs_Q>
0

> <r_epik_Metal_State_Penalty>
-0

> <b_epik_Metal_Only>
0

> <s_lp_Force_Field>
OPLS_2005

> <r_lp_Energy>
21.1922

> <b_lp_Chiralities_Consistent>
1

> <s_lp_Variant>
AV-unprocessed.smi:2659-2

> <Gold.Version>
5.8.1

> <Gold.Id.Protein>
6NUR|6NUR_protein|mol2

> <Gold.PLP.Fitness>
42.2820

> <Gold.PLP.PLP>
-37.8188

> <Gold.PLP.part.hbond>
-3.0000

> <Gold.PLP.part.metal>
0.0000

> <Gold.PLP.part.buried>
-2.9877

> <Gold.PLP.part.nonpolar>
-31.4162

> <Gold.PLP.part.repulsive>
0.6295

> <Gold.PLP.ligand.clash>
0.0000

> <Gold.PLP.ligand.torsion>
0.4901

> <Gold.PLP.Chemscore.Hbond>
1.8080

> <Gold.PLP.Chemscore.CHOScore>
0.0000

> <Gold.PLP.Chemscore.Metal>
0.0000

> <Gold.Chemscore.Hbonds>
donor molecule, donor type, donor heavy atom, donor atom, acceptor molecule, acceptor atom, score
      L1  H    12    37       P1  7948  0.85
      L1  H    15    38       P1  7948  0.98

> <Gold.PLP.Chemscore.Internal.Correction>
0.0193

> <Gold.Rescore>
     Score         DG    S(hbond)    S(metal)    S(lipo)     H(rot)  DE(clash)    DE(int)     intcor
     14.28     -17.00       1.82        0.00      78.97       1.49       0.07       2.65       ----

> <Gold.Chemscore.Fitness>
14.2754

> <Gold.Chemscore.DG>
-16.9971

> <Gold.Chemscore.ZeroCoef>
-5.4800

> <Gold.Chemscore.Hbond>
1.8235

> <Gold.Chemscore.Metal>
0.0000

> <Gold.Chemscore.Lipo>
78.9692

> <Gold.Chemscore.Internal_Hbond>
0.0000

> <Gold.Chemscore.DEClash>
0.0734

> <Gold.Chemscore.DEInternal>
2.6483

> <Gold.Chemscore.Rot>
1.4894

> <Gold.Chemscore.Internal.Correction>
   9.000000E+99

> <Gold.Chemscore.Hbonds>
donor molecule, donor type, donor heavy atom, donor atom, acceptor molecule, acceptor atom, score
      L1  H    12    37       P1  7948  0.83
      L1  H    15    38       P1  7948  0.93

> <Gold.Chemscore.Hbond.Weighted>
-6.0906

> <Gold.Chemscore.Metal.Weighted>
-0.0000

> <Gold.Chemscore.Lipo.Weighted>
-9.2394

> <Gold.Chemscore.Internal_Hbond.Weighted>
0.0000

> <Gold.Chemscore.DEClash.Weighted>
0.0734

> <Gold.Chemscore.DEInternal.Weighted>
2.6483

> <Gold.Chemscore.Rot.Weighted>
3.8129

> <Gold.Chemscore.Internal.Correction.Weighted>
   9.000000E+99

> <Gold.Protein.RotatedTorsions>
[ 6907 6896 6895 6894 ] final  -59.93 input  -60.11 | X-H torsion
[ 7974 7965 7964 7962 ] final  -90.47 input  175.53 | X-H torsion
[ 8008 7997 7996 7995 ] final  -30.52 input   59.86 | X-H torsion
[ 10167 10162 10161 10158 ] final   65.41 input  -65.29 | X-H torsion
[ 10718 10713 10712 10709 ] final   78.63 input   66.30 | X-H torsion
[ 10763 10752 10751 10750 ] final   -5.55 input  -60.55 | X-H torsion
[ 11005 11000 10999 10996 ] final  100.93 input  -57.11 | X-H torsion

> <Gold.Protein.ActiveResidues>
 VAL166  LYS551  ARG553  GLY616  TRP617  ASP618  TYR619  PRO620  LYS621  CYS622 
 ASP623  PHE694  ASN695  SER759  ASP760  ASP761  ALA762  ILE779  LEU786  VAL792 
 PHE793  MET794  SER795  GLU796  ALA797  LYS798  CYS799  TRP800  GLU811  SER814 

> <Gold.Protein.RotatedAtoms>
  150.7893  134.6904  159.6492 H   0  0  0  0  0  0  0  0  0  0  0  0  # atno 6907 bound_to 6896
  152.3996  134.6305  160.0084 H   0  0  0  0  0  0  0  0  0  0  0  0  # atno 6908 bound_to 6896
  151.6581  133.3281  159.3204 H   0  0  0  0  0  0  0  0  0  0  0  0  # atno 6909 bound_to 6896
  145.4260  140.9553  143.2154 H   0  0  0  0  0  0  0  0  0  0  0  0  # atno 7974 bound_to 7965
  154.4247  140.1789  156.1419 H   0  0  0  0  0  0  0  0  0  0  0  0  # atno 8008 bound_to 7997
  155.9984  140.3362  155.6797 H   0  0  0  0  0  0  0  0  0  0  0  0  # atno 8009 bound_to 7997
  155.6276  140.0666  157.2649 H   0  0  0  0  0  0  0  0  0  0  0  0  # atno 8010 bound_to 7997
  140.1116  144.4813  150.6974 H   0  0  0  0  0  0  0  0  0  0  0  0  # atno 10167 bound_to 10162
  157.6751  130.9877  150.1815 H   0  0  0  0  0  0  0  0  0  0  0  0  # atno 10718 bound_to 10713
  153.4001  135.7004  153.6432 H   0  0  0  0  0  0  0  0  0  0  0  0  # atno 10763 bound_to 10752
  153.4969  135.3660  155.2520 H   0  0  0  0  0  0  0  0  0  0  0  0  # atno 10764 bound_to 10752
  154.8710  135.4102  154.3334 H   0  0  0  0  0  0  0  0  0  0  0  0  # atno 10765 bound_to 10752
  139.8772  134.9161  156.4831 H   0  0  0  0  0  0  0  0  0  0  0  0  # atno 11005 bound_to 11000
  144.8214  139.5785  143.6985 LP  0  0  0  0  0  0  0  0  0  0  0  0  # atno 17320 bound_to 7965
  146.2632  139.6458  142.9348 LP  0  0  0  0  0  0  0  0  0  0  0  0  # atno 17321 bound_to 7965
  140.6922  143.2383  151.5099 LP  0  0  0  0  0  0  0  0  0  0  0  0  # atno 17342 bound_to 10162
  139.5616  144.2142  152.1700 LP  0  0  0  0  0  0  0  0  0  0  0  0  # atno 17343 bound_to 10162
  156.2546  130.3704  149.8195 LP  0  0  0  0  0  0  0  0  0  0  0  0  # atno 17370 bound_to 10713
  156.5958  130.8525  151.3419 LP  0  0  0  0  0  0  0  0  0  0  0  0  # atno 17371 bound_to 10713
  140.8713  133.7986  155.9367 LP  0  0  0  0  0  0  0  0  0  0  0  0  # atno 17394 bound_to 11000
  140.8950  134.2449  157.5074 LP  0  0  0  0  0  0  0  0  0  0  0  0  # atno 17395 bound_to 11000

$$$$
