AV-unprocessed.smi:2001|AV-procd|sdf|8102|dock1
  -GOLD-   2272010323D 1   1.00000     0.00000
 Structure written by MMmdl.
 50 51  0  0  0  0  0  0  0  0  1 V2000
  153.7552  129.4703  155.1348 C   0  0  0  0  0  0  0  0  0  0  0  0
  152.6687  130.0583  155.8285 O   0  0  0  0  0  0  0  0  0  0  0  0
  153.0806  131.0896  156.7091 C   0  0  0  0  0  0  0  0  0  0  0  0
  151.8348  131.7210  157.3485 C   0  0  0  0  0  0  0  0  0  0  0  0
  151.2029  132.6948  156.4525 N   0  0  0  0  0  0  0  0  0  0  0  0
  151.2990  134.0066  156.8869 N   0  0  0  0  0  0  0  0  0  0  0  0
  150.7758  134.9625  156.1890 C   0  0  0  0  0  0  0  0  0  0  0  0
  150.8493  136.3846  156.6248 C   0  0  0  0  0  0  0  0  0  0  0  0
  150.3809  137.2984  155.9437 O   0  0  0  0  0  0  0  0  0  0  0  0
  151.4541  136.5945  157.8078 N   0  0  0  0  0  0  0  0  0  0  0  0
  151.6225  137.8939  158.4460 C   0  0  0  0  0  0  0  0  0  0  0  0
  152.4750  138.8315  157.5719 C   0  0  0  0  0  0  0  0  0  0  0  0
  153.1013  139.9435  158.2845 N   0  0  0  0  0  0  0  0  0  0  0  0
  153.5234  139.5815  159.6353 C   0  0  0  0  0  0  0  0  0  0  0  0
  154.1615  140.7716  160.3776 C   0  0  2  0  0  0  0  0  0  0  0  0
  154.5340  140.4231  161.8224 C   0  0  0  0  0  0  0  0  0  0  0  0
  153.2365  141.8550  160.4028 O   0  0  0  0  0  0  0  0  0  0  0  0
  152.8298  142.2781  159.1046 C   0  0  2  0  0  0  0  0  0  0  0  0
  151.8510  143.4462  159.2642 C   0  0  0  0  0  0  0  0  0  0  0  0
  152.1969  141.0854  158.3624 C   0  0  0  0  0  0  0  0  0  0  0  0
  150.0864  134.6811  154.9409 C   0  0  0  0  0  0  0  0  0  0  0  0
  150.0085  133.3976  154.5260 C   0  0  0  0  0  0  0  0  0  0  0  0
  150.5921  132.2980  155.2958 C   0  0  0  0  0  0  0  0  0  0  0  0
  150.5409  131.1225  154.9350 O   0  0  0  0  0  0  0  0  0  0  0  0
  153.3852  128.6922  154.4671 H   0  0  0  0  0  0  0  0  0  0  0  0
  154.4625  129.0111  155.8267 H   0  0  0  0  0  0  0  0  0  0  0  0
  154.2842  130.2084  154.5305 H   0  0  0  0  0  0  0  0  0  0  0  0
  153.7328  130.6808  157.4827 H   0  0  0  0  0  0  0  0  0  0  0  0
  153.6500  131.8412  156.1598 H   0  0  0  0  0  0  0  0  0  0  0  0
  151.1228  130.9429  157.6298 H   0  0  0  0  0  0  0  0  0  0  0  0
  152.1164  132.2074  158.2844 H   0  0  0  0  0  0  0  0  0  0  0  0
  151.8135  135.7916  158.3044 H   0  0  0  0  0  0  0  0  0  0  0  0
  150.6274  138.3085  158.6029 H   0  0  0  0  0  0  0  0  0  0  0  0
  152.0719  137.7767  159.4336 H   0  0  0  0  0  0  0  0  0  0  0  0
  153.2600  138.2322  157.1083 H   0  0  0  0  0  0  0  0  0  0  0  0
  151.8680  139.2155  156.7502 H   0  0  0  0  0  0  0  0  0  0  0  0
  152.6673  139.2139  160.2033 H   0  0  0  0  0  0  0  0  0  0  0  0
  154.2472  138.7680  159.5985 H   0  0  0  0  0  0  0  0  0  0  0  0
  155.0630  141.0886  159.8504 H   0  0  0  0  0  0  0  0  0  0  0  0
  155.2459  139.5979  161.8564 H   0  0  0  0  0  0  0  0  0  0  0  0
  153.6547  140.1314  162.3972 H   0  0  0  0  0  0  0  0  0  0  0  0
  154.9912  141.2769  162.3229 H   0  0  0  0  0  0  0  0  0  0  0  0
  153.7062  142.6267  158.5554 H   0  0  0  0  0  0  0  0  0  0  0  0
  151.5203  143.8163  158.2934 H   0  0  0  0  0  0  0  0  0  0  0  0
  152.3182  144.2764  159.7944 H   0  0  0  0  0  0  0  0  0  0  0  0
  150.9671  143.1460  159.8277 H   0  0  0  0  0  0  0  0  0  0  0  0
  151.9124  141.3984  157.3569 H   0  0  0  0  0  0  0  0  0  0  0  0
  151.2758  140.7911  158.8684 H   0  0  0  0  0  0  0  0  0  0  0  0
  149.6466  135.4728  154.3520 H   0  0  0  0  0  0  0  0  0  0  0  0
  149.5009  133.1743  153.5990 H   0  0  0  0  0  0  0  0  0  0  0  0
  1  2  1  0  0  0  0
  1 25  1  0  0  0  0
  1 26  1  0  0  0  0
  1 27  1  0  0  0  0
  2  3  1  0  0  0  0
  3  4  1  0  0  0  0
  3 28  1  0  0  0  0
  3 29  1  0  0  0  0
  4  5  1  0  0  0  0
  4 30  1  0  0  0  0
  4 31  1  0  0  0  0
  5 23  1  0  0  0  0
  5  6  1  0  0  0  0
  6  7  2  0  0  0  0
  7  8  1  0  0  0  0
  7 21  1  0  0  0  0
  8  9  2  0  0  0  0
  8 10  1  0  0  0  0
 10 11  1  0  0  0  0
 10 32  1  0  0  0  0
 11 12  1  0  0  0  0
 11 33  1  0  0  0  0
 11 34  1  0  0  0  0
 12 13  1  0  0  0  0
 12 35  1  0  0  0  0
 12 36  1  0  0  0  0
 13 20  1  0  0  0  0
 13 14  1  0  0  0  0
 14 15  1  0  0  0  0
 14 37  1  0  0  0  0
 14 38  1  0  0  0  0
 15 16  1  0  0  0  0
 15 17  1  0  0  0  0
 15 39  1  0  0  0  0
 16 40  1  0  0  0  0
 16 41  1  0  0  0  0
 16 42  1  0  0  0  0
 17 18  1  0  0  0  0
 18 19  1  0  0  0  0
 18 20  1  0  0  0  0
 18 43  1  0  0  0  0
 19 44  1  0  0  0  0
 19 45  1  0  0  0  0
 19 46  1  0  0  0  0
 20 47  1  0  0  0  0
 20 48  1  0  0  0  0
 21 22  2  0  0  0  0
 21 49  1  0  0  0  0
 22 23  1  0  0  0  0
 22 50  1  0  0  0  0
 23 24  2  0  0  0  0
M  END
> <s_m_source_file>
AV-unprocessed.smi

> <i_m_source_file_index>
2001

> <i_lp_mmshare_version>
43012

> <i_f3d_flags>
0

> <s_epik_input>
W0NIM11PW0NIMl1bQ0gyXW4xbmMoW2NIXVtjSF1jMT1PKUMoPU8pW05IXVtDSDJdW0NIMl1OMltDSDJdW0NAQEhdKFtDSDNdKU9bQ0BASF0oW0NIM10pW0NIMl0y

> <s_epik_cmdline>
J2VwaWtfcHl0aG9uJywgJy1waCcsICc3LjAnLCAnLXRuJywgJzgnLCAnLW1hJywgJzIwMCcsICctbWV0YWxfYmluZGluZycsICctaW1hZScsICc8aW5maWxlLm1hZT4nLCAnLW9tYWUnLCAnPG91dGZpbGUubWFlPic=

> <r_lp_tautomer_probability>
1

> <r_epik_Ionization_Penalty>
0.206669

> <r_epik_Ionization_Penalty_Charging>
5.55992e-09

> <r_epik_Ionization_Penalty_Neutral>
0.206669

> <r_epik_State_Penalty>
0.196651

> <r_epik_Charging_Adjusted_Penalty>
0.196651

> <i_epik_Tot_Q>
0

> <i_epik_Tot_abs_Q>
0

> <r_epik_Metal_State_Penalty>
0.198372

> <b_epik_Metal_Only>
0

> <s_lp_Force_Field>
OPLS_2005

> <r_lp_Energy>
38.6275

> <b_lp_Chiralities_Consistent>
1

> <s_lp_Variant>
AV-unprocessed.smi:2001-1

> <Gold.Version>
5.8.1

> <Gold.Id.Protein>
6NUR|6NUR_protein|mol2

> <Gold.PLP.Fitness>
39.9379

> <Gold.PLP.PLP>
-38.0198

> <Gold.PLP.part.hbond>
-1.5527

> <Gold.PLP.part.metal>
0.0000

> <Gold.PLP.part.buried>
-6.4406

> <Gold.PLP.part.nonpolar>
-30.5382

> <Gold.PLP.part.repulsive>
0.1952

> <Gold.PLP.ligand.clash>
0.0000

> <Gold.PLP.ligand.torsion>
0.5628

> <Gold.PLP.Chemscore.Hbond>
1.0000

> <Gold.PLP.Chemscore.CHOScore>
0.0000

> <Gold.PLP.Chemscore.Metal>
0.0000

> <Gold.Chemscore.Hbonds>
donor molecule, donor type, donor heavy atom, donor atom, acceptor molecule, acceptor atom, score
      P1  H  6896  6909       L1     6  0.06
      P1  H  7997  8010       L1    13  0.79

> <Gold.PLP.Chemscore.Internal.Correction>
0.0437

> <Gold.Rescore>
     Score         DG    S(hbond)    S(metal)    S(lipo)     H(rot)  DE(clash)    DE(int)     intcor
      9.21     -12.16       0.25        0.00      93.79       2.00       0.01       2.93       ----

> <Gold.Chemscore.Fitness>
9.2090

> <Gold.Chemscore.DG>
-12.1557

> <Gold.Chemscore.ZeroCoef>
-5.4800

> <Gold.Chemscore.Hbond>
0.2477

> <Gold.Chemscore.Metal>
0.0000

> <Gold.Chemscore.Lipo>
93.7924

> <Gold.Chemscore.Internal_Hbond>
0.0000

> <Gold.Chemscore.DEClash>
0.0121

> <Gold.Chemscore.DEInternal>
2.9346

> <Gold.Chemscore.Rot>
2.0020

> <Gold.Chemscore.Internal.Correction>
   9.000000E+99

> <Gold.Chemscore.Hbonds>
donor molecule, donor type, donor heavy atom, donor atom, acceptor molecule, acceptor atom, score
      P1  H  6896  6909       L1     6  0.01
      P1  H  7997  8010       L1    13  0.06

> <Gold.Chemscore.Hbond.Weighted>
-0.8272

> <Gold.Chemscore.Metal.Weighted>
-0.0000

> <Gold.Chemscore.Lipo.Weighted>
-10.9737

> <Gold.Chemscore.Internal_Hbond.Weighted>
0.0000

> <Gold.Chemscore.DEClash.Weighted>
0.0121

> <Gold.Chemscore.DEInternal.Weighted>
2.9346

> <Gold.Chemscore.Rot.Weighted>
5.1252

> <Gold.Chemscore.Internal.Correction.Weighted>
   9.000000E+99

> <Gold.Protein.RotatedTorsions>
[ 6907 6896 6895 6894 ] final  -21.68 input  -60.11 | X-H torsion
[ 7974 7965 7964 7962 ] final   72.81 input  175.53 | X-H torsion
[ 8008 7997 7996 7995 ] final   22.75 input   59.86 | X-H torsion
[ 10167 10162 10161 10158 ] final   95.42 input  -65.29 | X-H torsion
[ 10718 10713 10712 10709 ] final   21.28 input   66.30 | X-H torsion
[ 10763 10752 10751 10750 ] final  -18.73 input  -60.55 | X-H torsion
[ 11005 11000 10999 10996 ] final  -93.55 input  -57.11 | X-H torsion

> <Gold.Protein.ActiveResidues>
 VAL166  LYS551  ARG553  GLY616  TRP617  ASP618  TYR619  PRO620  LYS621  CYS622 
 ASP623  PHE694  ASN695  SER759  ASP760  ASP761  ALA762  ILE779  LEU786  VAL792 
 PHE793  MET794  SER795  GLU796  ALA797  LYS798  CYS799  TRP800  GLU811  SER814 

> <Gold.Protein.RotatedAtoms>
  151.2297  135.0550  159.8982 H   0  0  0  0  0  0  0  0  0  0  0  0  # atno 6907 bound_to 6896
  152.5406  134.0550  159.8137 H   0  0  0  0  0  0  0  0  0  0  0  0  # atno 6908 bound_to 6896
  151.0728  133.5404  159.2657 H   0  0  0  0  0  0  0  0  0  0  0  0  # atno 6909 bound_to 6896
  145.7487  139.2751  143.1444 H   0  0  0  0  0  0  0  0  0  0  0  0  # atno 7974 bound_to 7965
  154.9704  140.3089  155.4990 H   0  0  0  0  0  0  0  0  0  0  0  0  # atno 8008 bound_to 7997
  156.2966  140.2285  156.4736 H   0  0  0  0  0  0  0  0  0  0  0  0  # atno 8009 bound_to 7997
  154.7881  140.0441  157.1168 H   0  0  0  0  0  0  0  0  0  0  0  0  # atno 8010 bound_to 7997
  139.7990  144.6821  150.9790 H   0  0  0  0  0  0  0  0  0  0  0  0  # atno 10167 bound_to 10162
  157.1363  130.6613  149.5967 H   0  0  0  0  0  0  0  0  0  0  0  0  # atno 10718 bound_to 10713
  153.5938  135.7001  153.5412 H   0  0  0  0  0  0  0  0  0  0  0  0  # atno 10763 bound_to 10752
  153.3155  135.4089  155.1372 H   0  0  0  0  0  0  0  0  0  0  0  0  # atno 10764 bound_to 10752
  154.8595  135.3683  154.5471 H   0  0  0  0  0  0  0  0  0  0  0  0  # atno 10765 bound_to 10752
  141.1494  133.7895  157.0174 H   0  0  0  0  0  0  0  0  0  0  0  0  # atno 11005 bound_to 11000
  146.0378  140.8195  142.9844 LP  0  0  0  0  0  0  0  0  0  0  0  0  # atno 17320 bound_to 7965
  144.6854  140.2864  143.7284 LP  0  0  0  0  0  0  0  0  0  0  0  0  # atno 17321 bound_to 7965
  140.7820  143.4301  151.0708 LP  0  0  0  0  0  0  0  0  0  0  0  0  # atno 17342 bound_to 10162
  139.7974  143.8132  152.3159 LP  0  0  0  0  0  0  0  0  0  0  0  0  # atno 17343 bound_to 10162
  155.9797  130.4793  150.6733 LP  0  0  0  0  0  0  0  0  0  0  0  0  # atno 17370 bound_to 10713
  157.4347  131.0854  151.1003 LP  0  0  0  0  0  0  0  0  0  0  0  0  # atno 17371 bound_to 10713
  140.0838  134.9633  157.1667 LP  0  0  0  0  0  0  0  0  0  0  0  0  # atno 17394 bound_to 11000
  140.3540  134.2567  155.7195 LP  0  0  0  0  0  0  0  0  0  0  0  0  # atno 17395 bound_to 11000

$$$$
