AV-unprocessed.smi:573|AV-procd|sdf|2970|dock4
  -GOLD-   2262023473D 1   1.00000     0.00000
 Structure written by MMmdl.
 45 47  0  0  0  0  0  0  0  0  2 V2000
  146.3022  139.5911  154.2645 C   0  0  0  0  0  0  0  0  0  0  0  0
  146.8733  140.0063  152.8989 C   0  0  1  0  0  0  0  0  0  0  0  0
  148.2077  140.4467  153.0411 O   0  0  0  0  0  0  0  0  0  0  0  0
  146.7768  138.9339  151.7901 C   0  0  0  0  0  0  0  0  0  0  0  0
  146.5310  137.5854  152.2858 N   0  0  0  0  0  0  0  0  0  0  0  0
  145.2285  137.1847  152.6052 C   0  0  0  0  0  0  0  0  0  0  0  0
  144.1618  138.0031  152.8068 N   0  3  0  0  0  0  0  0  0  0  0  0
  143.0449  137.2102  153.0829 C   0  0  0  0  0  0  0  0  0  0  0  0
  141.7251  137.5635  153.3474 C   0  0  0  0  0  0  0  0  0  0  0  0
  140.8203  136.5068  153.5786 C   0  0  0  0  0  0  0  0  0  0  0  0
  141.2374  135.1605  153.5414 C   0  0  0  0  0  0  0  0  0  0  0  0
  142.5775  134.8113  153.2752 C   0  0  0  0  0  0  0  0  0  0  0  0
  143.4695  135.8598  153.0507 C   0  0  0  0  0  0  0  0  0  0  0  0
  144.8404  135.8932  152.7616 N   0  0  0  0  0  0  0  0  0  0  0  0
  145.6040  134.6421  152.6464 C   0  0  0  0  0  0  0  0  0  0  0  0
  145.5137  134.0439  151.2336 C   0  0  1  0  0  0  0  0  0  0  0  0
  146.1041  132.6237  151.1621 C   0  0  0  0  0  0  0  0  0  0  0  0
  145.9463  132.0497  149.7493 C   0  0  0  0  0  0  0  0  0  0  0  0
  144.4815  132.1496  149.3094 C   0  0  0  0  0  0  0  0  0  0  0  0
  143.9676  133.5879  149.4807 C   0  0  0  0  0  0  0  0  0  0  0  0
  144.1460  134.0070  150.8296 O   0  0  0  0  0  0  0  0  0  0  0  0
  145.2769  139.2335  154.1692 H   0  0  0  0  0  0  0  0  0  0  0  0
  146.2941  140.4344  154.9558 H   0  0  0  0  0  0  0  0  0  0  0  0
  146.8939  138.8001  154.7251 H   0  0  0  0  0  0  0  0  0  0  0  0
  146.3143  140.8775  152.5562 H   0  0  0  0  0  0  0  0  0  0  0  0
  148.7311  140.0393  152.3680 H   0  0  0  0  0  0  0  0  0  0  0  0
  145.9290  139.1777  151.1497 H   0  0  0  0  0  0  0  0  0  0  0  0
  147.6541  138.9561  151.1424 H   0  0  0  0  0  0  0  0  0  0  0  0
  147.2287  136.8769  152.1084 H   0  0  0  0  0  0  0  0  0  0  0  0
  141.4009  138.5935  153.3715 H   0  0  0  0  0  0  0  0  0  0  0  0
  139.7842  136.7331  153.7855 H   0  0  0  0  0  0  0  0  0  0  0  0
  140.5142  134.3778  153.7189 H   0  0  0  0  0  0  0  0  0  0  0  0
  142.8816  133.7758  153.2420 H   0  0  0  0  0  0  0  0  0  0  0  0
  146.6419  134.8648  152.8961 H   0  0  0  0  0  0  0  0  0  0  0  0
  145.2532  133.9352  153.3978 H   0  0  0  0  0  0  0  0  0  0  0  0
  146.0635  134.6938  150.5513 H   0  0  0  0  0  0  0  0  0  0  0  0
  147.1574  132.6369  151.4433 H   0  0  0  0  0  0  0  0  0  0  0  0
  145.5961  131.9762  151.8780 H   0  0  0  0  0  0  0  0  0  0  0  0
  146.5763  132.6065  149.0543 H   0  0  0  0  0  0  0  0  0  0  0  0
  146.2839  131.0135  149.7190 H   0  0  0  0  0  0  0  0  0  0  0  0
  144.3759  131.8313  148.2718 H   0  0  0  0  0  0  0  0  0  0  0  0
  143.8721  131.4723  149.9088 H   0  0  0  0  0  0  0  0  0  0  0  0
  144.4843  134.2713  148.8051 H   0  0  0  0  0  0  0  0  0  0  0  0
  142.9070  133.6396  149.2341 H   0  0  0  0  0  0  0  0  0  0  0  0
  144.1931  139.0122  152.7451 H   0  0  0  0  0  0  0  0  0  0  0  0
  1  2  1  0  0  0  0
  1 22  1  0  0  0  0
  1 23  1  0  0  0  0
  1 24  1  0  0  0  0
  2  3  1  0  0  0  0
  2  4  1  0  0  0  0
  2 25  1  0  0  0  0
  3 26  1  0  0  0  0
  4  5  1  0  0  0  0
  4 27  1  0  0  0  0
  4 28  1  0  0  0  0
  5  6  1  0  0  0  0
  5 29  1  0  0  0  0
  6 14  1  0  0  0  0
  6  7  2  0  0  0  0
  7  8  1  0  0  0  0
  7 45  1  0  0  0  0
  8 13  2  0  0  0  0
  8  9  1  0  0  0  0
  9 10  2  0  0  0  0
  9 30  1  0  0  0  0
 10 11  1  0  0  0  0
 10 31  1  0  0  0  0
 11 12  2  0  0  0  0
 11 32  1  0  0  0  0
 12 13  1  0  0  0  0
 12 33  1  0  0  0  0
 13 14  1  0  0  0  0
 14 15  1  0  0  0  0
 15 16  1  0  0  0  0
 15 34  1  0  0  0  0
 15 35  1  0  0  0  0
 16 21  1  0  0  0  0
 16 17  1  0  0  0  0
 16 36  1  0  0  0  0
 17 18  1  0  0  0  0
 17 37  1  0  0  0  0
 17 38  1  0  0  0  0
 18 19  1  0  0  0  0
 18 39  1  0  0  0  0
 18 40  1  0  0  0  0
 19 20  1  0  0  0  0
 19 41  1  0  0  0  0
 19 42  1  0  0  0  0
 20 21  1  0  0  0  0
 20 43  1  0  0  0  0
 20 44  1  0  0  0  0
M  CHG  1   7   1
M  END
> <s_m_source_file>
AV-unprocessed.smi

> <i_m_source_file_index>
573

> <i_lp_mmshare_version>
43012

> <i_f3d_flags>
0

> <s_epik_input>
W0NIM11bQ0BIXShbT0hdKVtDSDJdW05IXWMobjEpbihjKGMxMilbY0hdW2NIXVtjSF1bY0hdMilbQ0gyXVtDQEBIXTNbQ0gyXVtDSDJdW0NIMl1bQ0gyXU8z

> <s_epik_cmdline>
J2VwaWtfcHl0aG9uJywgJy1waCcsICc3LjAnLCAnLXRuJywgJzgnLCAnLW1hJywgJzIwMCcsICctbWV0YWxfYmluZGluZycsICctaW1hZScsICc8aW5maWxlLm1hZT4nLCAnLW9tYWUnLCAnPG91dGZpbGUubWFlPic=

> <r_epik_Ionization_Penalty>
0.0692245

> <r_epik_Ionization_Penalty_Charging>
0.0692223

> <r_epik_Ionization_Penalty_Neutral>
2.1869e-06

> <r_epik_State_Penalty>
0.0606215

> <r_epik_Charging_Adjusted_Penalty>
0.129844

> <i_epik_Tot_Q>
1

> <i_epik_Tot_abs_Q>
1

> <r_epik_Metal_State_Penalty>
2.77811

> <b_epik_Metal_Only>
0

> <s_lp_Force_Field>
OPLS_2005

> <r_lp_Energy>
24.0167

> <b_lp_Chiralities_Consistent>
1

> <s_lp_Variant>
AV-unprocessed.smi:573-4

> <Gold.Version>
5.8.1

> <Gold.Id.Protein>
6NUR|6NUR_protein|mol2

> <Gold.PLP.Fitness>
53.7699

> <Gold.PLP.PLP>
-41.1637

> <Gold.PLP.part.hbond>
-3.4989

> <Gold.PLP.part.metal>
0.0000

> <Gold.PLP.part.buried>
-3.4980

> <Gold.PLP.part.nonpolar>
-36.3358

> <Gold.PLP.part.repulsive>
0.2417

> <Gold.PLP.ligand.clash>
0.0000

> <Gold.PLP.ligand.torsion>
1.2152

> <Gold.PLP.Chemscore.Hbond>
5.0000

> <Gold.PLP.Chemscore.CHOScore>
0.0000

> <Gold.PLP.Chemscore.Metal>
0.0000

> <Gold.Chemscore.Hbonds>
donor molecule, donor type, donor heavy atom, donor atom, acceptor molecule, acceptor atom, score
      L1  H     3    26       P1  7957  0.89
      L1  H     5    29       P1  7948  2.00
      L1  H     7    45       P1 10175  2.00

> <Gold.PLP.Chemscore.Internal.Correction>
0.0366

> <Gold.Rescore>
     Score         DG    S(hbond)    S(metal)    S(lipo)     H(rot)  DE(clash)    DE(int)     intcor
     20.44     -21.97       2.94        0.00     102.26       2.07       0.28       1.25       ----

> <Gold.Chemscore.Fitness>
20.4404

> <Gold.Chemscore.DG>
-21.9662

> <Gold.Chemscore.ZeroCoef>
-5.4800

> <Gold.Chemscore.Hbond>
2.9405

> <Gold.Chemscore.Metal>
0.0000

> <Gold.Chemscore.Lipo>
102.2576

> <Gold.Chemscore.Internal_Hbond>
0.0000

> <Gold.Chemscore.DEClash>
0.2798

> <Gold.Chemscore.DEInternal>
1.2461

> <Gold.Chemscore.Rot>
2.0699

> <Gold.Chemscore.Internal.Correction>
   9.000000E+99

> <Gold.Chemscore.Hbonds>
donor molecule, donor type, donor heavy atom, donor atom, acceptor molecule, acceptor atom, score
      L1  H     3    26       P1  7957  0.85
      L1  H     5    29       P1  7948  0.98
      L1  H     7    45       P1 10175  0.94

> <Gold.Chemscore.Hbond.Weighted>
-9.8211

> <Gold.Chemscore.Metal.Weighted>
-0.0000

> <Gold.Chemscore.Lipo.Weighted>
-11.9641

> <Gold.Chemscore.Internal_Hbond.Weighted>
0.0000

> <Gold.Chemscore.DEClash.Weighted>
0.2798

> <Gold.Chemscore.DEInternal.Weighted>
1.2461

> <Gold.Chemscore.Rot.Weighted>
5.2991

> <Gold.Chemscore.Internal.Correction.Weighted>
   9.000000E+99

> <Gold.Protein.RotatedTorsions>
[ 6907 6896 6895 6894 ] final  170.76 input  -60.11 | X-H torsion
[ 7974 7965 7964 7962 ] final   48.84 input  175.53 | X-H torsion
[ 8008 7997 7996 7995 ] final  -29.62 input   59.86 | X-H torsion
[ 10167 10162 10161 10158 ] final  -97.21 input  -65.29 | X-H torsion
[ 10718 10713 10712 10709 ] final -168.88 input   66.30 | X-H torsion
[ 10763 10752 10751 10750 ] final -154.17 input  -60.55 | X-H torsion
[ 11005 11000 10999 10996 ] final -165.89 input  -57.11 | X-H torsion

> <Gold.Protein.ActiveResidues>
 VAL166  LYS551  ARG553  GLY616  TRP617  ASP618  TYR619  PRO620  LYS621  CYS622 
 ASP623  PHE694  ASN695  SER759  ASP760  ASP761  ALA762  ILE779  LEU786  VAL792 
 PHE793  MET794  SER795  GLU796  ALA797  LYS798  CYS799  TRP800  GLU811  SER814 

> <Gold.Protein.RotatedAtoms>
  151.8110  133.3381  159.3554 H   0  0  0  0  0  0  0  0  0  0  0  0  # atno 6907 bound_to 6896
  150.7326  134.5664  159.5877 H   0  0  0  0  0  0  0  0  0  0  0  0  # atno 6908 bound_to 6896
  152.3075  134.7538  160.0395 H   0  0  0  0  0  0  0  0  0  0  0  0  # atno 6909 bound_to 6896
  146.0166  139.4603  142.9923 H   0  0  0  0  0  0  0  0  0  0  0  0  # atno 7974 bound_to 7965
  154.4283  140.1813  156.1276 H   0  0  0  0  0  0  0  0  0  0  0  0  # atno 8008 bound_to 7997
  156.0093  140.3352  155.6899 H   0  0  0  0  0  0  0  0  0  0  0  0  # atno 8009 bound_to 7997
  155.6133  140.0652  157.2690 H   0  0  0  0  0  0  0  0  0  0  0  0  # atno 8010 bound_to 7997
  140.2858  143.3253  152.0395 H   0  0  0  0  0  0  0  0  0  0  0  0  # atno 10167 bound_to 10162
  156.7035  130.9205  151.3082 H   0  0  0  0  0  0  0  0  0  0  0  0  # atno 10718 bound_to 10713
  154.7877  135.3196  154.7848 H   0  0  0  0  0  0  0  0  0  0  0  0  # atno 10763 bound_to 10752
  153.8544  135.6859  153.4793 H   0  0  0  0  0  0  0  0  0  0  0  0  # atno 10764 bound_to 10752
  153.1535  135.4689  154.9611 H   0  0  0  0  0  0  0  0  0  0  0  0  # atno 10765 bound_to 10752
  140.5707  134.5241  157.5161 H   0  0  0  0  0  0  0  0  0  0  0  0  # atno 11005 bound_to 11000
  145.7259  141.0059  143.1377 LP  0  0  0  0  0  0  0  0  0  0  0  0  # atno 17320 bound_to 7965
  144.6973  139.8927  143.7454 LP  0  0  0  0  0  0  0  0  0  0  0  0  # atno 17321 bound_to 7965
  139.4950  144.6560  151.6572 LP  0  0  0  0  0  0  0  0  0  0  0  0  # atno 17342 bound_to 10162
  140.5774  144.0005  150.6249 LP  0  0  0  0  0  0  0  0  0  0  0  0  # atno 17343 bound_to 10162
  157.6964  130.9286  150.0657 LP  0  0  0  0  0  0  0  0  0  0  0  0  # atno 17370 bound_to 10713
  156.1712  130.3646  149.9163 LP  0  0  0  0  0  0  0  0  0  0  0  0  # atno 17371 bound_to 10713
  139.9363  134.7869  156.0794 LP  0  0  0  0  0  0  0  0  0  0  0  0  # atno 17394 bound_to 11000
  141.1058  133.6660  156.2861 LP  0  0  0  0  0  0  0  0  0  0  0  0  # atno 17395 bound_to 11000

$$$$
