AV-unprocessed.smi:110|AV-procd|sdf|1077|dock8
  -GOLD-   2262018163D 1   1.00000     0.00000
 Structure written by MMmdl.
 46 50  0  0  0  0  0  0  0  0  1 V2000
  148.4857  136.0879  153.8702 O   0  0  0  0  0  0  0  0  0  0  0  0
  147.3760  136.8062  154.3658 C   0  0  0  0  0  0  0  0  0  0  0  0
  147.7692  138.2694  154.6380 C   0  0  1  0  0  0  0  0  0  0  0  0
  149.1855  138.4091  154.7462 O   0  0  0  0  0  0  0  0  0  0  0  0
  149.5932  139.6785  154.3277 C   0  0  2  0  0  0  0  0  0  0  0  0
  150.2189  140.3812  155.4928 N   0  0  0  0  0  0  0  0  0  0  0  0
  149.8408  141.5926  156.0265 C   0  0  0  0  0  0  0  0  0  0  0  0
  150.5452  142.0013  157.0457 N   0  0  0  0  0  0  0  0  0  0  0  0
  151.5021  141.0092  157.2201 C   0  0  0  0  0  0  0  0  0  0  0  0
  152.5745  140.8076  158.1358 C   0  0  0  0  0  0  0  0  0  0  0  0
  152.9013  141.6555  159.1385 N   0  0  0  0  0  0  0  0  0  0  0  0
  153.3719  141.0838  160.4088 C   0  0  0  0  0  0  0  0  0  0  0  0
  153.1497  142.1386  161.5094 C   0  0  0  0  0  0  0  0  0  0  0  0
  152.6086  143.2776  160.7078 C   0  0  0  0  0  0  0  0  0  0  0  0
  152.2542  144.5556  161.1733 C   0  0  0  0  0  0  0  0  0  0  0  0
  151.7783  145.4966  160.2350 C   0  0  0  0  0  0  0  0  0  0  0  0
  151.6740  145.1524  158.8671 C   0  0  0  0  0  0  0  0  0  0  0  0
  152.0377  143.8623  158.4221 C   0  0  0  0  0  0  0  0  0  0  0  0
  152.4941  142.9214  159.3679 C   0  0  0  0  0  0  0  0  0  0  0  0
  153.2861  139.6572  158.0296 N   0  0  0  0  0  0  0  0  0  0  0  0
  152.9972  138.7775  157.0677 C   0  0  0  0  0  0  0  0  0  0  0  0
  152.0424  138.8424  156.1389 N   0  0  0  0  0  0  0  0  0  0  0  0
  151.3020  139.9823  156.2531 C   0  0  0  0  0  0  0  0  0  0  0  0
  148.3530  140.4235  153.8128 C   0  0  1  0  0  0  0  0  0  0  0  0
  148.5979  141.1902  152.6484 O   0  0  0  0  0  0  0  0  0  0  0  0
  147.3897  139.2730  153.5413 C   0  0  1  0  0  0  0  0  0  0  0  0
  147.5766  138.7025  152.2552 O   0  0  0  0  0  0  0  0  0  0  0  0
  147.3072  138.6023  155.5673 H   0  0  0  0  0  0  0  0  0  0  0  0
  150.3873  139.5806  153.5862 H   0  0  0  0  0  0  0  0  0  0  0  0
  147.9470  141.0643  154.5956 H   0  0  0  0  0  0  0  0  0  0  0  0
  146.3499  139.5905  153.6258 H   0  0  0  0  0  0  0  0  0  0  0  0
  148.6087  136.3149  152.9611 H   0  0  0  0  0  0  0  0  0  0  0  0
  146.5410  136.7410  153.6676 H   0  0  0  0  0  0  0  0  0  0  0  0
  147.0647  136.3229  155.2923 H   0  0  0  0  0  0  0  0  0  0  0  0
  149.0127  142.1675  155.6378 H   0  0  0  0  0  0  0  0  0  0  0  0
  152.8317  140.1645  160.6399 H   0  0  0  0  0  0  0  0  0  0  0  0
  154.4301  140.8352  160.3238 H   0  0  0  0  0  0  0  0  0  0  0  0
  152.4207  141.8106  162.2506 H   0  0  0  0  0  0  0  0  0  0  0  0
  154.0777  142.4155  162.0099 H   0  0  0  0  0  0  0  0  0  0  0  0
  152.3470  144.8119  162.2183 H   0  0  0  0  0  0  0  0  0  0  0  0
  151.4989  146.4872  160.5623 H   0  0  0  0  0  0  0  0  0  0  0  0
  151.3175  145.8827  158.1560 H   0  0  0  0  0  0  0  0  0  0  0  0
  151.9678  143.6090  157.3745 H   0  0  0  0  0  0  0  0  0  0  0  0
  153.6181  137.8943  157.0394 H   0  0  0  0  0  0  0  0  0  0  0  0
  148.6755  140.6004  151.9138 H   0  0  0  0  0  0  0  0  0  0  0  0
  148.3677  138.1851  152.2733 H   0  0  0  0  0  0  0  0  0  0  0  0
  1  2  1  0  0  0  0
  1 32  1  0  0  0  0
  2  3  1  0  0  0  0
  2 33  1  0  0  0  0
  2 34  1  0  0  0  0
  3 28  1  0  0  0  0
  3 26  1  0  0  0  0
  3  4  1  0  0  0  0
  4  5  1  0  0  0  0
  5 29  1  0  0  0  0
  5  6  1  0  0  0  0
  5 24  1  0  0  0  0
  6 23  1  0  0  0  0
  6  7  1  0  0  0  0
  7  8  2  0  0  0  0
  7 35  1  0  0  0  0
  8  9  1  0  0  0  0
  9 23  2  0  0  0  0
  9 10  1  0  0  0  0
 10 11  1  0  0  0  0
 10 20  2  0  0  0  0
 11 19  1  0  0  0  0
 11 12  1  0  0  0  0
 12 13  1  0  0  0  0
 12 36  1  0  0  0  0
 12 37  1  0  0  0  0
 13 14  1  0  0  0  0
 13 38  1  0  0  0  0
 13 39  1  0  0  0  0
 14 19  2  0  0  0  0
 14 15  1  0  0  0  0
 15 16  2  0  0  0  0
 15 40  1  0  0  0  0
 16 17  1  0  0  0  0
 16 41  1  0  0  0  0
 17 18  2  0  0  0  0
 17 42  1  0  0  0  0
 18 19  1  0  0  0  0
 18 43  1  0  0  0  0
 20 21  1  0  0  0  0
 21 22  2  0  0  0  0
 21 44  1  0  0  0  0
 22 23  1  0  0  0  0
 24 30  1  0  0  0  0
 24 25  1  0  0  0  0
 24 26  1  0  0  0  0
 25 45  1  0  0  0  0
 26 31  1  0  0  0  0
 26 27  1  0  0  0  0
 27 46  1  0  0  0  0
M  END
> <s_m_source_file>
AV-unprocessed.smi

> <i_m_source_file_index>
110

> <i_lp_mmshare_version>
43012

> <i_f3d_flags>
0

> <s_epik_input>
W09IXVtDSDJdW0NASF0xT1tDQEhdKFtDQEhdKFtPSF0pW0NAQEhdMVtPSF0pbihbY0hdbjIpYyhjMjMpbltjSF1uYzNOKFtDSDJdW0NIMl00KWMoYzQ1KVtjSF1bY0hdW2NIXVtjSF01

> <s_epik_cmdline>
J2VwaWtfcHl0aG9uJywgJy1waCcsICc3LjAnLCAnLXRuJywgJzgnLCAnLW1hJywgJzIwMCcsICctbWV0YWxfYmluZGluZycsICctaW1hZScsICc8aW5maWxlLm1hZT4nLCAnLW9tYWUnLCAnPG91dGZpbGUubWFlPic=

> <r_lp_tautomer_probability>
1

> <r_epik_Ionization_Penalty>
0.00068475

> <r_epik_Ionization_Penalty_Charging>
0

> <r_epik_Ionization_Penalty_Neutral>
0.00068475

> <r_epik_State_Penalty>
0.000417442

> <r_epik_Charging_Adjusted_Penalty>
0.000417442

> <i_epik_Tot_Q>
0

> <i_epik_Tot_abs_Q>
0

> <r_epik_Metal_State_Penalty>
-0

> <b_epik_Metal_Only>
0

> <s_epik_Chemistry_Notes>
This compound contains an acetal/aminal-like group ( X-CH(R)-Y where X, Y are N, S, or O) that may be acid/base labile, releasing an aldehyde.

> <s_lp_Force_Field>
OPLS_2005

> <r_lp_Energy>
64.5887

> <b_lp_Chiralities_Consistent>
1

> <s_lp_Variant>
AV-unprocessed.smi:110-15

> <Gold.Version>
5.8.1

> <Gold.Id.Protein>
6NUR|6NUR_protein|mol2

> <Gold.PLP.Fitness>
65.1486

> <Gold.PLP.PLP>
-52.5389

> <Gold.PLP.part.hbond>
-4.7146

> <Gold.PLP.part.metal>
0.0000

> <Gold.PLP.part.buried>
-4.2766

> <Gold.PLP.part.nonpolar>
-43.8957

> <Gold.PLP.part.repulsive>
0.2153

> <Gold.PLP.ligand.clash>
0.0000

> <Gold.PLP.ligand.torsion>
0.8589

> <Gold.PLP.Chemscore.Hbond>
3.9918

> <Gold.PLP.Chemscore.CHOScore>
0.7389

> <Gold.PLP.Chemscore.Metal>
0.0000

> <Gold.Chemscore.Hbonds>
donor molecule, donor type, donor heavy atom, donor atom, acceptor molecule, acceptor atom, score
      L1  H     1    32       P1  7948  0.05
      L1  H    25    45       P1  7957  0.36
      L1  H    27    46       P1  7948  0.75
      P1  H  7997  8010       L1    20  0.45
      P1  H  8011  8017       L1    25  0.99
      L1  C     7    35       P1  8028  0.85

> <Gold.PLP.Chemscore.Internal.Correction>
0.1352

> <Gold.Rescore>
     Score         DG    S(hbond)    S(metal)    S(lipo)     H(rot)  DE(clash)    DE(int)     intcor
     16.11     -19.16       2.70        0.00     113.82       3.38       0.76       2.29       ----

> <Gold.Chemscore.Fitness>
16.1093

> <Gold.Chemscore.DG>
-19.1632

> <Gold.Chemscore.ZeroCoef>
-5.4800

> <Gold.Chemscore.Hbond>
2.7031

> <Gold.Chemscore.Metal>
0.0000

> <Gold.Chemscore.Lipo>
113.8203

> <Gold.Chemscore.Internal_Hbond>
0.0000

> <Gold.Chemscore.DEClash>
0.7639

> <Gold.Chemscore.DEInternal>
2.2900

> <Gold.Chemscore.Rot>
3.3837

> <Gold.Chemscore.Internal.Correction>
   9.000000E+99

> <Gold.Chemscore.Hbonds>
donor molecule, donor type, donor heavy atom, donor atom, acceptor molecule, acceptor atom, score
      L1  H     1    32       P1  7948  0.10
      L1  H    25    45       P1  7957  0.35
      L1  H    27    46       P1  7948  0.70
      P1  H  7997  8010       L1    20  0.01
      P1  H  8011  8017       L1    25  0.37

> <Gold.Chemscore.Hbond.Weighted>
-9.0284

> <Gold.Chemscore.Metal.Weighted>
-0.0000

> <Gold.Chemscore.Lipo.Weighted>
-13.3170

> <Gold.Chemscore.Internal_Hbond.Weighted>
0.0000

> <Gold.Chemscore.DEClash.Weighted>
0.7639

> <Gold.Chemscore.DEInternal.Weighted>
2.2900

> <Gold.Chemscore.Rot.Weighted>
8.6622

> <Gold.Chemscore.Internal.Correction.Weighted>
   9.000000E+99

> <Gold.Protein.RotatedTorsions>
[ 6907 6896 6895 6894 ] final  -99.52 input  -60.11 | X-H torsion
[ 7974 7965 7964 7962 ] final  154.89 input  175.53 | X-H torsion
[ 8008 7997 7996 7995 ] final   14.94 input   59.86 | X-H torsion
[ 10167 10162 10161 10158 ] final   22.18 input  -65.29 | X-H torsion
[ 10718 10713 10712 10709 ] final  -97.80 input   66.30 | X-H torsion
[ 10763 10752 10751 10750 ] final -132.99 input  -60.55 | X-H torsion
[ 11005 11000 10999 10996 ] final  -36.84 input  -57.11 | X-H torsion

> <Gold.Protein.ActiveResidues>
 VAL166  LYS551  ARG553  GLY616  TRP617  ASP618  TYR619  PRO620  LYS621  CYS622 
 ASP623  PHE694  ASN695  SER759  ASP760  ASP761  ALA762  ILE779  LEU786  VAL792 
 PHE793  MET794  SER795  GLU796  ALA797  LYS798  CYS799  TRP800  GLU811  SER814 

> <Gold.Protein.RotatedAtoms>
  150.7083  134.1028  159.3971 H   0  0  0  0  0  0  0  0  0  0  0  0  # atno 6907 bound_to 6896
  151.9014  135.0374  160.0516 H   0  0  0  0  0  0  0  0  0  0  0  0  # atno 6908 bound_to 6896
  152.2411  133.5101  159.5307 H   0  0  0  0  0  0  0  0  0  0  0  0  # atno 6909 bound_to 6896
  144.8060  139.6994  143.6162 H   0  0  0  0  0  0  0  0  0  0  0  0  # atno 7974 bound_to 7965
  154.8556  140.2936  155.5571 H   0  0  0  0  0  0  0  0  0  0  0  0  # atno 8008 bound_to 7997
  156.3018  140.2488  156.3454 H   0  0  0  0  0  0  0  0  0  0  0  0  # atno 8009 bound_to 7997
  154.8974  140.0392  157.1863 H   0  0  0  0  0  0  0  0  0  0  0  0  # atno 8010 bound_to 7997
  140.5369  143.9745  150.6496 H   0  0  0  0  0  0  0  0  0  0  0  0  # atno 10167 bound_to 10162
  156.0092  130.5210  150.6428 H   0  0  0  0  0  0  0  0  0  0  0  0  # atno 10718 bound_to 10713
  154.8737  135.3780  154.4500 H   0  0  0  0  0  0  0  0  0  0  0  0  # atno 10763 bound_to 10752
  153.5177  135.7029  153.5753 H   0  0  0  0  0  0  0  0  0  0  0  0  # atno 10764 bound_to 10752
  153.4014  135.3947  155.1956 H   0  0  0  0  0  0  0  0  0  0  0  0  # atno 10765 bound_to 10752
  140.9906  133.7007  156.1843 H   0  0  0  0  0  0  0  0  0  0  0  0  # atno 11005 bound_to 11000
  146.2351  139.5889  142.9529 LP  0  0  0  0  0  0  0  0  0  0  0  0  # atno 17320 bound_to 7965
  145.5438  141.0419  143.2316 LP  0  0  0  0  0  0  0  0  0  0  0  0  # atno 17321 bound_to 7965
  140.3135  143.3182  152.0855 LP  0  0  0  0  0  0  0  0  0  0  0  0  # atno 17342 bound_to 10162
  139.4974  144.6620  151.6442 LP  0  0  0  0  0  0  0  0  0  0  0  0  # atno 17343 bound_to 10162
  157.4205  131.0836  151.1135 LP  0  0  0  0  0  0  0  0  0  0  0  0  # atno 17370 bound_to 10713
  157.1739  130.6279  149.5649 LP  0  0  0  0  0  0  0  0  0  0  0  0  # atno 17371 bound_to 10713
  140.7046  134.4527  157.5584 LP  0  0  0  0  0  0  0  0  0  0  0  0  # atno 17394 bound_to 11000
  139.8990  134.8600  156.1976 LP  0  0  0  0  0  0  0  0  0  0  0  0  # atno 17395 bound_to 11000

$$$$
