AV-unprocessed.smi:542|AV-procd|sdf|2873|dock1
  -GOLD-   2262023363D 1   1.00000     0.00000
 Structure written by MMmdl.
 46 48  0  0  0  0  0  0  0  0  1 V2000
  153.0947  138.2345  159.7768 C   0  0  0  0  0  0  0  0  0  0  0  0
  153.2341  138.5137  158.3948 O   0  0  0  0  0  0  0  0  0  0  0  0
  151.9993  138.8402  157.7807 C   0  0  0  0  0  0  0  0  0  0  0  0
  152.2792  139.3946  156.3742 C   0  0  0  0  0  0  0  0  0  0  0  0
  151.1965  140.2432  155.8858 N   0  0  0  0  0  0  0  0  0  0  0  0
  150.9073  141.5455  156.1809 C   0  0  0  0  0  0  0  0  0  0  0  0
  151.6460  142.3224  157.0849 N   0  0  0  0  0  0  0  0  0  0  0  0
  152.2031  143.6617  156.8764 C   0  0  0  0  0  0  0  0  0  0  0  0
  151.8278  144.6292  158.0142 C   0  0  0  0  0  0  0  0  0  0  0  0
  152.3154  144.0927  159.3696 C   0  0  0  0  0  0  0  0  0  0  0  0
  151.8825  144.9948  160.5338 C   0  0  0  0  0  0  0  0  0  0  0  0
  151.8179  142.6489  159.5445 C   0  0  0  0  0  0  0  0  0  0  0  0
  152.2001  141.7848  158.3300 C   0  0  0  0  0  0  0  0  0  0  0  0
  149.8659  142.0394  155.5017 N   0  0  0  0  0  0  0  0  0  0  0  0
  149.4489  140.9716  154.7265 C   0  0  0  0  0  0  0  0  0  0  0  0
  150.2370  139.8888  154.9338 C   0  0  0  0  0  0  0  0  0  0  0  0
  150.0351  138.6242  154.2124 C   0  0  0  0  0  0  0  0  0  0  0  0
  150.7488  137.6350  154.3619 O   0  0  0  0  0  0  0  0  0  0  0  0
  148.9807  138.6597  153.3617 N   0  0  0  0  0  0  0  0  0  0  0  0
  148.1425  139.7132  153.1174 C   0  0  0  0  0  0  0  0  0  0  0  0
  147.2179  139.5832  152.3157 O   0  0  0  0  0  0  0  0  0  0  0  0
  148.3801  140.8847  153.7921 N   0  0  0  0  0  0  0  0  0  0  0  0
  147.5483  142.0737  153.5956 C   0  0  0  0  0  0  0  0  0  0  0  0
  148.7929  137.8116  152.8472 H   0  0  0  0  0  0  0  0  0  0  0  0
  154.0681  137.9876  160.2006 H   0  0  0  0  0  0  0  0  0  0  0  0
  152.4302  137.3855  159.9427 H   0  0  0  0  0  0  0  0  0  0  0  0
  152.7020  139.0978  160.3159 H   0  0  0  0  0  0  0  0  0  0  0  0
  151.3693  137.9523  157.7242 H   0  0  0  0  0  0  0  0  0  0  0  0
  151.4627  139.5686  158.3885 H   0  0  0  0  0  0  0  0  0  0  0  0
  153.2163  139.9446  156.3524 H   0  0  0  0  0  0  0  0  0  0  0  0
  152.4217  138.5741  155.6713 H   0  0  0  0  0  0  0  0  0  0  0  0
  153.2890  143.5792  156.8122 H   0  0  0  0  0  0  0  0  0  0  0  0
  151.8913  144.0697  155.9200 H   0  0  0  0  0  0  0  0  0  0  0  0
  152.2646  145.6095  157.8221 H   0  0  0  0  0  0  0  0  0  0  0  0
  150.7473  144.7728  158.0400 H   0  0  0  0  0  0  0  0  0  0  0  0
  153.4062  144.0726  159.3517 H   0  0  0  0  0  0  0  0  0  0  0  0
  150.7961  145.0553  160.6060 H   0  0  0  0  0  0  0  0  0  0  0  0
  152.2649  146.0081  160.4079 H   0  0  0  0  0  0  0  0  0  0  0  0
  152.2590  144.6158  161.4843 H   0  0  0  0  0  0  0  0  0  0  0  0
  152.2393  142.2151  160.4520 H   0  0  0  0  0  0  0  0  0  0  0  0
  150.7340  142.6394  159.6698 H   0  0  0  0  0  0  0  0  0  0  0  0
  151.8381  140.7694  158.4928 H   0  0  0  0  0  0  0  0  0  0  0  0
  153.2850  141.7123  158.2418 H   0  0  0  0  0  0  0  0  0  0  0  0
  146.8288  141.9813  152.7813 H   0  0  0  0  0  0  0  0  0  0  0  0
  148.1759  142.9374  153.3725 H   0  0  0  0  0  0  0  0  0  0  0  0
  146.9911  142.2912  154.5073 H   0  0  0  0  0  0  0  0  0  0  0  0
  1  2  1  0  0  0  0
  1 25  1  0  0  0  0
  1 26  1  0  0  0  0
  1 27  1  0  0  0  0
  2  3  1  0  0  0  0
  3  4  1  0  0  0  0
  3 28  1  0  0  0  0
  3 29  1  0  0  0  0
  4  5  1  0  0  0  0
  4 30  1  0  0  0  0
  4 31  1  0  0  0  0
  5 16  1  0  0  0  0
  5  6  1  0  0  0  0
  6  7  1  0  0  0  0
  6 14  2  0  0  0  0
  7 13  1  0  0  0  0
  7  8  1  0  0  0  0
  8  9  1  0  0  0  0
  8 32  1  0  0  0  0
  8 33  1  0  0  0  0
  9 10  1  0  0  0  0
  9 34  1  0  0  0  0
  9 35  1  0  0  0  0
 10 11  1  0  0  0  0
 10 12  1  0  0  0  0
 10 36  1  0  0  0  0
 11 37  1  0  0  0  0
 11 38  1  0  0  0  0
 11 39  1  0  0  0  0
 12 13  1  0  0  0  0
 12 40  1  0  0  0  0
 12 41  1  0  0  0  0
 13 42  1  0  0  0  0
 13 43  1  0  0  0  0
 14 15  1  0  0  0  0
 15 22  1  0  0  0  0
 15 16  2  0  0  0  0
 16 17  1  0  0  0  0
 17 18  2  0  0  0  0
 17 19  1  0  0  0  0
 19 24  1  0  0  0  0
 19 20  1  0  0  0  0
 20 21  2  0  0  0  0
 20 22  1  0  0  0  0
 22 23  1  0  0  0  0
 23 44  1  0  0  0  0
 23 45  1  0  0  0  0
 23 46  1  0  0  0  0
M  END
> <s_m_source_file>
AV-unprocessed.smi

> <i_m_source_file_index>
542

> <i_lp_mmshare_version>
43012

> <i_f3d_flags>
0

> <s_epik_input>
W0NIM11uMWMoPU8pW25IXWMoPU8pYyhjMTIpbihbQ0gyXVtDSDJdT1tDSDNdKWMobjIpTjNbQ0gyXVtDSDJdW0NIXShbQ0gzXSlbQ0gyXVtDSDJdMw==

> <s_epik_cmdline>
J2VwaWtfcHl0aG9uJywgJy1waCcsICc3LjAnLCAnLXRuJywgJzgnLCAnLW1hJywgJzIwMCcsICctbWV0YWxfYmluZGluZycsICctaW1hZScsICc8aW5maWxlLm1hZT4nLCAnLW9tYWUnLCAnPG91dGZpbGUubWFlPic=

> <r_lp_tautomer_probability>
1

> <r_epik_Ionization_Penalty>
0.000855395

> <r_epik_Ionization_Penalty_Charging>
0.000124032

> <r_epik_Ionization_Penalty_Neutral>
0.000731363

> <r_epik_State_Penalty>
-0

> <r_epik_Charging_Adjusted_Penalty>
0.000124032

> <i_epik_Tot_Q>
0

> <i_epik_Tot_abs_Q>
0

> <r_epik_Metal_State_Penalty>
0.0946135

> <b_epik_Metal_Only>
0

> <s_lp_Force_Field>
OPLS_2005

> <r_lp_Energy>
39.151

> <b_lp_Chiralities_Consistent>
1

> <s_lp_Variant>
AV-unprocessed.smi:542-1

> <Gold.Version>
5.8.1

> <Gold.Id.Protein>
6NUR|6NUR_protein|mol2

> <Gold.PLP.Fitness>
49.5029

> <Gold.PLP.PLP>
-45.6099

> <Gold.PLP.part.hbond>
-3.0000

> <Gold.PLP.part.metal>
0.0000

> <Gold.PLP.part.buried>
-4.1247

> <Gold.PLP.part.nonpolar>
-40.6015

> <Gold.PLP.part.repulsive>
3.0798

> <Gold.PLP.ligand.clash>
0.0000

> <Gold.PLP.ligand.torsion>
1.1013

> <Gold.PLP.Chemscore.Hbond>
2.0000

> <Gold.PLP.Chemscore.CHOScore>
0.0000

> <Gold.PLP.Chemscore.Metal>
0.0000

> <Gold.Chemscore.Hbonds>
donor molecule, donor type, donor heavy atom, donor atom, acceptor molecule, acceptor atom, score
      L1  H    19    24       P1  7948  1.00

> <Gold.PLP.Chemscore.Internal.Correction>
0.0956

> <Gold.Rescore>
     Score         DG    S(hbond)    S(metal)    S(lipo)     H(rot)  DE(clash)    DE(int)     intcor
     15.51     -16.76       1.33        0.00      90.24       1.46       0.14       1.10       ----

> <Gold.Chemscore.Fitness>
15.5103

> <Gold.Chemscore.DG>
-16.7583

> <Gold.Chemscore.ZeroCoef>
-5.4800

> <Gold.Chemscore.Hbond>
1.3313

> <Gold.Chemscore.Metal>
0.0000

> <Gold.Chemscore.Lipo>
90.2444

> <Gold.Chemscore.Internal_Hbond>
0.0000

> <Gold.Chemscore.DEClash>
0.1430

> <Gold.Chemscore.DEInternal>
1.1050

> <Gold.Chemscore.Rot>
1.4557

> <Gold.Chemscore.Internal.Correction>
   9.000000E+99

> <Gold.Chemscore.Hbonds>
donor molecule, donor type, donor heavy atom, donor atom, acceptor molecule, acceptor atom, score
      L1  H    19    24       P1  7948  1.00
      P1  H  7997  8010       L1     2  0.01

> <Gold.Chemscore.Hbond.Weighted>
-4.4464

> <Gold.Chemscore.Metal.Weighted>
-0.0000

> <Gold.Chemscore.Lipo.Weighted>
-10.5586

> <Gold.Chemscore.Internal_Hbond.Weighted>
0.0000

> <Gold.Chemscore.DEClash.Weighted>
0.1430

> <Gold.Chemscore.DEInternal.Weighted>
1.1050

> <Gold.Chemscore.Rot.Weighted>
3.7267

> <Gold.Chemscore.Internal.Correction.Weighted>
   9.000000E+99

> <Gold.Protein.RotatedTorsions>
[ 6907 6896 6895 6894 ] final  -94.20 input  -60.11 | X-H torsion
[ 7974 7965 7964 7962 ] final -147.13 input  175.53 | X-H torsion
[ 8008 7997 7996 7995 ] final   30.26 input   59.86 | X-H torsion
[ 10167 10162 10161 10158 ] final  -14.63 input  -65.29 | X-H torsion
[ 10718 10713 10712 10709 ] final  138.84 input   66.30 | X-H torsion
[ 10763 10752 10751 10750 ] final  131.85 input  -60.55 | X-H torsion
[ 11005 11000 10999 10996 ] final   80.62 input  -57.11 | X-H torsion

> <Gold.Protein.ActiveResidues>
 VAL166  LYS551  ARG553  GLY616  TRP617  ASP618  TYR619  PRO620  LYS621  CYS622 
 ASP623  PHE694  ASN695  SER759  ASP760  ASP761  ALA762  ILE779  LEU786  VAL792 
 PHE793  MET794  SER795  GLU796  ALA797  LYS798  CYS799  TRP800  GLU811  SER814 

> <Gold.Protein.RotatedAtoms>
  150.6937  134.1849  159.4262 H   0  0  0  0  0  0  0  0  0  0  0  0  # atno 6907 bound_to 6896
  151.9822  135.0020  160.0567 H   0  0  0  0  0  0  0  0  0  0  0  0  # atno 6908 bound_to 6896
  152.1744  133.4630  159.4962 H   0  0  0  0  0  0  0  0  0  0  0  0  # atno 6909 bound_to 6896
  144.8114  140.5367  143.5640 H   0  0  0  0  0  0  0  0  0  0  0  0  # atno 7974 bound_to 7965
  155.0875  140.3216  155.4583 H   0  0  0  0  0  0  0  0  0  0  0  0  # atno 8008 bound_to 7997
  156.2751  140.2084  156.5949 H   0  0  0  0  0  0  0  0  0  0  0  0  # atno 8009 bound_to 7997
  154.6929  140.0514  157.0369 H   0  0  0  0  0  0  0  0  0  0  0  0  # atno 8010 bound_to 7997
  140.7204  143.5302  150.9529 H   0  0  0  0  0  0  0  0  0  0  0  0  # atno 10167 bound_to 10162
  157.4210  131.1038  151.0354 H   0  0  0  0  0  0  0  0  0  0  0  0  # atno 10718 bound_to 10713
  153.7811  135.3168  155.3366 H   0  0  0  0  0  0  0  0  0  0  0  0  # atno 10763 bound_to 10752
  154.8161  135.4635  154.0650 H   0  0  0  0  0  0  0  0  0  0  0  0  # atno 10764 bound_to 10752
  153.1939  135.6912  153.8402 H   0  0  0  0  0  0  0  0  0  0  0  0  # atno 10765 bound_to 10752
  139.9127  134.7934  156.1934 H   0  0  0  0  0  0  0  0  0  0  0  0  # atno 11005 bound_to 11000
  145.5316  139.1475  143.3496 LP  0  0  0  0  0  0  0  0  0  0  0  0  # atno 17320 bound_to 7965
  146.2413  140.5456  142.8933 LP  0  0  0  0  0  0  0  0  0  0  0  0  # atno 17321 bound_to 7965
  139.9022  143.6822  152.3129 LP  0  0  0  0  0  0  0  0  0  0  0  0  # atno 17342 bound_to 10162
  139.7176  144.7609  151.1009 LP  0  0  0  0  0  0  0  0  0  0  0  0  # atno 17343 bound_to 10162
  157.1284  130.6092  149.5523 LP  0  0  0  0  0  0  0  0  0  0  0  0  # atno 17370 bound_to 10713
  155.9880  130.4922  150.7153 LP  0  0  0  0  0  0  0  0  0  0  0  0  # atno 17371 bound_to 10713
  141.0570  133.6860  156.1879 LP  0  0  0  0  0  0  0  0  0  0  0  0  # atno 17394 bound_to 11000
  140.6721  134.4856  157.5587 LP  0  0  0  0  0  0  0  0  0  0  0  0  # atno 17395 bound_to 11000

$$$$
