AV-unprocessed.smi:1911|AV-procd|sdf|7738|dock5
  -GOLD-   22720 9473D 1   1.00000     0.00000
 Structure written by MMmdl.
 51 53  0  0  0  0  0  0  0  0  1 V2000
  142.8068  132.5883  148.8425 N   0  0  0  0  0  0  0  0  0  0  0  0
  143.9128  132.5219  149.5879 C   0  0  0  0  0  0  0  0  0  0  0  0
  144.9604  132.0367  149.1659 O   0  0  0  0  0  0  0  0  0  0  0  0
  143.8335  133.0867  151.0117 C   0  0  0  0  0  0  0  0  0  0  0  0
  144.8243  134.1463  151.3098 N   0  0  0  0  0  0  0  0  0  0  0  0
  144.7643  134.4747  152.7381 C   0  0  0  0  0  0  0  0  0  0  0  0
  145.8698  135.4767  153.1128 C   0  0  0  0  0  0  0  0  0  0  0  0
  145.7541  136.7647  152.2813 C   0  0  0  0  0  0  0  0  0  0  0  0
  146.8786  137.6581  152.5424 N   0  0  0  0  0  0  0  0  0  0  0  0
  147.2718  138.0720  153.7553 C   0  0  0  0  0  0  0  0  0  0  0  0
  146.7144  137.7377  154.8004 O   0  0  0  0  0  0  0  0  0  0  0  0
  148.3279  138.8985  153.6651 N   0  0  0  0  0  0  0  0  0  0  0  0
  149.0383  139.5493  154.7097 C   0  0  0  0  0  0  0  0  0  0  0  0
  149.1922  139.0313  156.0167 C   0  0  0  0  0  0  0  0  0  0  0  0
  149.9345  139.7681  156.9597 C   0  0  0  0  0  0  0  0  0  0  0  0
  150.5143  140.9996  156.5726 C   0  0  0  0  0  0  0  0  0  0  0  0
  151.2566  141.7712  157.4882 N   0  0  0  0  0  0  0  0  0  0  0  0
  151.5482  141.3005  158.8332 C   0  0  0  0  0  0  0  0  0  0  0  0
  152.2562  142.4746  159.5073 C   0  0  0  0  0  0  0  0  0  0  0  0
  151.6078  143.6936  158.8505 C   0  0  0  0  0  0  0  0  0  0  0  0
  151.2859  143.2260  157.4261 C   0  0  0  0  0  0  0  0  0  0  0  0
  150.3726  141.4891  155.3179 N   0  0  0  0  0  0  0  0  0  0  0  0
  149.6614  140.7788  154.4179 C   0  0  0  0  0  0  0  0  0  0  0  0
  145.7167  136.3939  150.7923 C   0  0  0  0  0  0  0  0  0  0  0  0
  144.6181  135.3565  150.5007 C   0  0  0  0  0  0  0  0  0  0  0  0
  142.8176  132.2279  147.8994 H   0  0  0  0  0  0  0  0  0  0  0  0
  141.9654  132.9975  149.2216 H   0  0  0  0  0  0  0  0  0  0  0  0
  142.8266  133.4622  151.2047 H   0  0  0  0  0  0  0  0  0  0  0  0
  143.9858  132.2482  151.6928 H   0  0  0  0  0  0  0  0  0  0  0  0
  143.7840  134.8807  152.9946 H   0  0  0  0  0  0  0  0  0  0  0  0
  144.8969  133.5691  153.3319 H   0  0  0  0  0  0  0  0  0  0  0  0
  145.8077  135.7084  154.1767 H   0  0  0  0  0  0  0  0  0  0  0  0
  146.8459  135.0157  152.9534 H   0  0  0  0  0  0  0  0  0  0  0  0
  144.8209  137.2725  152.5332 H   0  0  0  0  0  0  0  0  0  0  0  0
  147.3941  137.9844  151.7381 H   0  0  0  0  0  0  0  0  0  0  0  0
  148.6254  139.1353  152.7298 H   0  0  0  0  0  0  0  0  0  0  0  0
  148.7696  138.0843  156.3139 H   0  0  0  0  0  0  0  0  0  0  0  0
  150.0446  139.3813  157.9617 H   0  0  0  0  0  0  0  0  0  0  0  0
  150.6147  141.0668  159.3472 H   0  0  0  0  0  0  0  0  0  0  0  0
  152.1718  140.4059  158.8218 H   0  0  0  0  0  0  0  0  0  0  0  0
  152.1527  142.4666  160.5925 H   0  0  0  0  0  0  0  0  0  0  0  0
  153.3206  142.4507  159.2686 H   0  0  0  0  0  0  0  0  0  0  0  0
  150.6814  143.9367  159.3724 H   0  0  0  0  0  0  0  0  0  0  0  0
  152.2452  144.5780  158.8714 H   0  0  0  0  0  0  0  0  0  0  0  0
  152.0685  143.5332  156.7317 H   0  0  0  0  0  0  0  0  0  0  0  0
  150.3381  143.6435  157.0842 H   0  0  0  0  0  0  0  0  0  0  0  0
  149.5841  141.2122  153.4312 H   0  0  0  0  0  0  0  0  0  0  0  0
  145.5474  137.2873  150.1900 H   0  0  0  0  0  0  0  0  0  0  0  0
  146.6826  135.9916  150.4826 H   0  0  0  0  0  0  0  0  0  0  0  0
  144.6500  135.1246  149.4362 H   0  0  0  0  0  0  0  0  0  0  0  0
  143.6328  135.7805  150.7019 H   0  0  0  0  0  0  0  0  0  0  0  0
  1  2  1  0  0  0  0
  1 26  1  0  0  0  0
  1 27  1  0  0  0  0
  2  3  2  0  0  0  0
  2  4  1  0  0  0  0
  4  5  1  0  0  0  0
  4 28  1  0  0  0  0
  4 29  1  0  0  0  0
  5 25  1  0  0  0  0
  5  6  1  0  0  0  0
  6  7  1  0  0  0  0
  6 30  1  0  0  0  0
  6 31  1  0  0  0  0
  7  8  1  0  0  0  0
  7 32  1  0  0  0  0
  7 33  1  0  0  0  0
  8  9  1  0  0  0  0
  8 24  1  0  0  0  0
  8 34  1  0  0  0  0
  9 10  1  0  0  0  0
  9 35  1  0  0  0  0
 10 11  2  0  0  0  0
 10 12  1  0  0  0  0
 12 13  1  0  0  0  0
 12 36  1  0  0  0  0
 13 23  1  0  0  0  0
 13 14  2  0  0  0  0
 14 15  1  0  0  0  0
 14 37  1  0  0  0  0
 15 16  2  0  0  0  0
 15 38  1  0  0  0  0
 16 17  1  0  0  0  0
 16 22  1  0  0  0  0
 17 21  1  0  0  0  0
 17 18  1  0  0  0  0
 18 19  1  0  0  0  0
 18 39  1  0  0  0  0
 18 40  1  0  0  0  0
 19 20  1  0  0  0  0
 19 41  1  0  0  0  0
 19 42  1  0  0  0  0
 20 21  1  0  0  0  0
 20 43  1  0  0  0  0
 20 44  1  0  0  0  0
 21 45  1  0  0  0  0
 21 46  1  0  0  0  0
 22 23  2  0  0  0  0
 23 47  1  0  0  0  0
 24 25  1  0  0  0  0
 24 48  1  0  0  0  0
 24 49  1  0  0  0  0
 25 50  1  0  0  0  0
 25 51  1  0  0  0  0
M  END
> <s_m_source_file>
AV-unprocessed.smi

> <i_m_source_file_index>
1911

> <i_lp_mmshare_version>
43012

> <i_f3d_flags>
0

> <s_epik_input>
W05IMl1DKD1PKVtDSDJdTjFbQ0gyXVtDSDJdW0NIXShbQ0gyXVtDSDJdMSlbTkhdQyg9TylbTkhdYzJbY0hdW2NIXWMobltjSF0yKU4zW0NIMl1bQ0gyXVtDSDJdW0NIMl0z

> <s_epik_cmdline>
J2VwaWtfcHl0aG9uJywgJy1waCcsICc3LjAnLCAnLXRuJywgJzgnLCAnLW1hJywgJzIwMCcsICctbWV0YWxfYmluZGluZycsICctaW1hZScsICc8aW5maWxlLm1hZT4nLCAnLW9tYWUnLCAnPG91dGZpbGUubWFlPic=

> <r_lp_tautomer_probability>
1

> <r_epik_Ionization_Penalty>
0.268698

> <r_epik_Ionization_Penalty_Charging>
0

> <r_epik_Ionization_Penalty_Neutral>
0.268698

> <r_epik_State_Penalty>
0.247497

> <r_epik_Charging_Adjusted_Penalty>
0.247497

> <i_epik_Tot_Q>
0

> <i_epik_Tot_abs_Q>
0

> <r_epik_Metal_State_Penalty>
0.244803

> <b_epik_Metal_Only>
0

> <s_lp_Force_Field>
OPLS_2005

> <r_lp_Energy>
37.3051

> <b_lp_Chiralities_Consistent>
1

> <s_lp_Variant>
AV-unprocessed.smi:1911-1

> <Gold.Version>
5.8.1

> <Gold.Id.Protein>
6NUR|6NUR_protein|mol2

> <Gold.PLP.Fitness>
49.9642

> <Gold.PLP.PLP>
-41.8062

> <Gold.PLP.part.hbond>
-5.5456

> <Gold.PLP.part.metal>
0.0000

> <Gold.PLP.part.buried>
-2.1810

> <Gold.PLP.part.nonpolar>
-34.8471

> <Gold.PLP.part.repulsive>
0.7419

> <Gold.PLP.ligand.clash>
0.0000

> <Gold.PLP.ligand.torsion>
0.4686

> <Gold.PLP.Chemscore.Hbond>
1.9913

> <Gold.PLP.Chemscore.CHOScore>
0.9783

> <Gold.PLP.Chemscore.Metal>
0.0000

> <Gold.Chemscore.Hbonds>
donor molecule, donor type, donor heavy atom, donor atom, acceptor molecule, acceptor atom, score
      L1  H     1    27       P1 10186  0.99
      L1  H    12    36       P1  7957  0.94
      L1  C    23    47       P1  7957  0.95

> <Gold.PLP.Chemscore.Internal.Correction>
0.1866

> <Gold.Rescore>
     Score         DG    S(hbond)    S(metal)    S(lipo)     H(rot)  DE(clash)    DE(int)     intcor
     15.47     -17.93       1.97        0.00      91.56       1.89       0.64       1.82       ----

> <Gold.Chemscore.Fitness>
15.4683

> <Gold.Chemscore.DG>
-17.9341

> <Gold.Chemscore.ZeroCoef>
-5.4800

> <Gold.Chemscore.Hbond>
1.9670

> <Gold.Chemscore.Metal>
0.0000

> <Gold.Chemscore.Lipo>
91.5553

> <Gold.Chemscore.Internal_Hbond>
0.0000

> <Gold.Chemscore.DEClash>
0.6429

> <Gold.Chemscore.DEInternal>
1.8228

> <Gold.Chemscore.Rot>
1.8857

> <Gold.Chemscore.Internal.Correction>
   9.000000E+99

> <Gold.Chemscore.Hbonds>
donor molecule, donor type, donor heavy atom, donor atom, acceptor molecule, acceptor atom, score
      L1  H     1    27       P1 10186  0.94
      L1  H     9    35       P1  7948  0.01
      L1  H    12    36       P1  7957  0.90

> <Gold.Chemscore.Hbond.Weighted>
-6.5696

> <Gold.Chemscore.Metal.Weighted>
-0.0000

> <Gold.Chemscore.Lipo.Weighted>
-10.7120

> <Gold.Chemscore.Internal_Hbond.Weighted>
0.0000

> <Gold.Chemscore.DEClash.Weighted>
0.6429

> <Gold.Chemscore.DEInternal.Weighted>
1.8228

> <Gold.Chemscore.Rot.Weighted>
4.8275

> <Gold.Chemscore.Internal.Correction.Weighted>
   9.000000E+99

> <Gold.Protein.RotatedTorsions>
[ 6907 6896 6895 6894 ] final   62.61 input  -60.11 | X-H torsion
[ 7974 7965 7964 7962 ] final   65.72 input  175.53 | X-H torsion
[ 8008 7997 7996 7995 ] final  139.54 input   59.86 | X-H torsion
[ 10167 10162 10161 10158 ] final  151.91 input  -65.29 | X-H torsion
[ 10718 10713 10712 10709 ] final  145.17 input   66.30 | X-H torsion
[ 10763 10752 10751 10750 ] final   74.02 input  -60.55 | X-H torsion
[ 11005 11000 10999 10996 ] final -156.74 input  -57.11 | X-H torsion

> <Gold.Protein.ActiveResidues>
 VAL166  LYS551  ARG553  GLY616  TRP617  ASP618  TYR619  PRO620  LYS621  CYS622 
 ASP623  PHE694  ASN695  SER759  ASP760  ASP761  ALA762  ILE779  LEU786  VAL792 
 PHE793  MET794  SER795  GLU796  ALA797  LYS798  CYS799  TRP800  GLU811  SER814 

> <Gold.Protein.RotatedAtoms>
  152.4186  134.5997  159.9996 H   0  0  0  0  0  0  0  0  0  0  0  0  # atno 6907 bound_to 6896
  151.6153  133.3338  159.3084 H   0  0  0  0  0  0  0  0  0  0  0  0  # atno 6908 bound_to 6896
  150.8074  134.7246  159.6722 H   0  0  0  0  0  0  0  0  0  0  0  0  # atno 6909 bound_to 6896
  145.8351  139.3162  143.0965 H   0  0  0  0  0  0  0  0  0  0  0  0  # atno 7974 bound_to 7965
  156.2988  140.2365  156.4254 H   0  0  0  0  0  0  0  0  0  0  0  0  # atno 8008 bound_to 7997
  154.8318  140.0432  157.1502 H   0  0  0  0  0  0  0  0  0  0  0  0  # atno 8009 bound_to 7997
  154.9200  140.3002  155.5225 H   0  0  0  0  0  0  0  0  0  0  0  0  # atno 8010 bound_to 7997
  139.4837  144.5402  151.7578 H   0  0  0  0  0  0  0  0  0  0  0  0  # atno 10167 bound_to 10162
  157.3485  131.0947  151.1021 H   0  0  0  0  0  0  0  0  0  0  0  0  # atno 10718 bound_to 10713
  153.0559  135.5041  154.7980 H   0  0  0  0  0  0  0  0  0  0  0  0  # atno 10763 bound_to 10752
  154.6806  135.2967  154.9620 H   0  0  0  0  0  0  0  0  0  0  0  0  # atno 10764 bound_to 10752
  154.0408  135.6717  153.4842 H   0  0  0  0  0  0  0  0  0  0  0  0  # atno 10765 bound_to 10752
  140.6722  134.4235  157.5231 H   0  0  0  0  0  0  0  0  0  0  0  0  # atno 11005 bound_to 11000
  145.9528  140.8895  143.0250 LP  0  0  0  0  0  0  0  0  0  0  0  0  # atno 17320 bound_to 7965
  144.6737  140.1704  143.7415 LP  0  0  0  0  0  0  0  0  0  0  0  0  # atno 17321 bound_to 7965
  140.4940  144.1268  150.5956 LP  0  0  0  0  0  0  0  0  0  0  0  0  # atno 17342 bound_to 10162
  140.4138  143.2644  151.9799 LP  0  0  0  0  0  0  0  0  0  0  0  0  # atno 17343 bound_to 10162
  157.2205  130.6479  149.5809 LP  0  0  0  0  0  0  0  0  0  0  0  0  # atno 17370 bound_to 10713
  155.9718  130.4630  150.6168 LP  0  0  0  0  0  0  0  0  0  0  0  0  # atno 17371 bound_to 10713
  139.8978  134.8628  156.2029 LP  0  0  0  0  0  0  0  0  0  0  0  0  # atno 17394 bound_to 11000
  141.0383  133.6951  156.1552 LP  0  0  0  0  0  0  0  0  0  0  0  0  # atno 17395 bound_to 11000

$$$$
