AV-unprocessed.smi:3031|AV-procd|sdf|11555|dock10
  -GOLD-   2272016523D 1   1.00000     0.00000
 Structure written by MMmdl.
 46 47  0  0  0  0  0  0  0  0  1 V2000
  153.0919  142.9085  162.7963 C   0  0  0  0  0  0  0  0  0  0  0  0
  152.5629  143.4127  161.4847 C   0  0  0  0  0  0  0  0  0  0  0  0
  151.9765  144.6807  161.2100 C   0  0  0  0  0  0  0  0  0  0  0  0
  151.6111  144.8150  159.9460 N   0  0  0  0  0  0  0  0  0  0  0  0
  151.9573  143.6453  159.3666 N   0  0  0  0  0  0  0  0  0  0  0  0
  151.7023  143.4354  157.9497 C   0  0  0  0  0  0  0  0  0  0  0  0
  150.8439  142.1803  157.6478 C   0  0  2  0  0  0  0  0  0  0  0  0
  151.5326  140.8815  158.0957 C   0  0  0  0  0  0  0  0  0  0  0  0
  150.4730  142.0693  156.2329 N   0  0  0  0  0  0  0  0  0  0  0  0
  149.3705  141.1553  155.9348 C   0  0  0  0  0  0  0  0  0  0  0  0
  149.0910  141.1012  154.4244 C   0  0  1  0  0  0  0  0  0  0  0  0
  150.1155  140.3272  153.8353 O   0  0  0  0  0  0  0  0  0  0  0  0
  147.7388  140.4226  154.1103 C   0  0  0  0  0  0  0  0  0  0  0  0
  146.5536  141.2638  154.2839 N   0  0  0  0  0  0  0  0  0  0  0  0
  146.7158  142.5930  153.6966 C   0  0  0  0  0  0  0  0  0  0  0  0
  145.4742  143.4747  153.9171 C   0  0  0  0  0  0  0  0  0  0  0  0
  145.1897  143.5649  155.3094 O   0  0  0  0  0  0  0  0  0  0  0  0
  144.9796  142.2911  155.9093 C   0  0  0  0  0  0  0  0  0  0  0  0
  146.2241  141.4120  155.6977 C   0  0  0  0  0  0  0  0  0  0  0  0
  152.5262  142.7778  160.2753 C   0  0  0  0  0  0  0  0  0  0  0  0
  154.0000  143.4345  163.0909 H   0  0  0  0  0  0  0  0  0  0  0  0
  153.3342  141.8464  162.7561 H   0  0  0  0  0  0  0  0  0  0  0  0
  152.3675  143.0419  163.5999 H   0  0  0  0  0  0  0  0  0  0  0  0
  151.8053  145.5029  161.8891 H   0  0  0  0  0  0  0  0  0  0  0  0
  151.1918  144.3209  157.5694 H   0  0  0  0  0  0  0  0  0  0  0  0
  152.6545  143.4038  157.4199 H   0  0  0  0  0  0  0  0  0  0  0  0
  149.9290  142.2675  158.2354 H   0  0  0  0  0  0  0  0  0  0  0  0
  151.8201  140.9321  159.1463 H   0  0  0  0  0  0  0  0  0  0  0  0
  152.4312  140.6771  157.5128 H   0  0  0  0  0  0  0  0  0  0  0  0
  150.8656  140.0265  157.9808 H   0  0  0  0  0  0  0  0  0  0  0  0
  151.2871  141.8088  155.6854 H   0  0  0  0  0  0  0  0  0  0  0  0
  149.6268  140.1574  156.2933 H   0  0  0  0  0  0  0  0  0  0  0  0
  148.4608  141.4514  156.4563 H   0  0  0  0  0  0  0  0  0  0  0  0
  149.1466  142.1100  154.0172 H   0  0  0  0  0  0  0  0  0  0  0  0
  149.8366  140.0721  152.9692 H   0  0  0  0  0  0  0  0  0  0  0  0
  147.7759  140.0562  153.0829 H   0  0  0  0  0  0  0  0  0  0  0  0
  147.6280  139.5314  154.7301 H   0  0  0  0  0  0  0  0  0  0  0  0
  147.5876  143.0851  154.1305 H   0  0  0  0  0  0  0  0  0  0  0  0
  146.9002  142.5188  152.6258 H   0  0  0  0  0  0  0  0  0  0  0  0
  145.6461  144.4767  153.5233 H   0  0  0  0  0  0  0  0  0  0  0  0
  144.6114  143.0665  153.3882 H   0  0  0  0  0  0  0  0  0  0  0  0
  144.7857  142.4254  156.9735 H   0  0  0  0  0  0  0  0  0  0  0  0
  144.0951  141.8188  155.4788 H   0  0  0  0  0  0  0  0  0  0  0  0
  146.0490  140.4312  156.1416 H   0  0  0  0  0  0  0  0  0  0  0  0
  147.0695  141.8491  156.2318 H   0  0  0  0  0  0  0  0  0  0  0  0
  152.8603  141.7919  159.9869 H   0  0  0  0  0  0  0  0  0  0  0  0
  1  2  1  0  0  0  0
  1 21  1  0  0  0  0
  1 22  1  0  0  0  0
  1 23  1  0  0  0  0
  2 20  2  0  0  0  0
  2  3  1  0  0  0  0
  3  4  2  0  0  0  0
  3 24  1  0  0  0  0
  4  5  1  0  0  0  0
  5  6  1  0  0  0  0
  5 20  1  0  0  0  0
  6  7  1  0  0  0  0
  6 25  1  0  0  0  0
  6 26  1  0  0  0  0
  7  8  1  0  0  0  0
  7  9  1  0  0  0  0
  7 27  1  0  0  0  0
  8 28  1  0  0  0  0
  8 29  1  0  0  0  0
  8 30  1  0  0  0  0
  9 10  1  0  0  0  0
  9 31  1  0  0  0  0
 10 11  1  0  0  0  0
 10 32  1  0  0  0  0
 10 33  1  0  0  0  0
 11 12  1  0  0  0  0
 11 13  1  0  0  0  0
 11 34  1  0  0  0  0
 12 35  1  0  0  0  0
 13 14  1  0  0  0  0
 13 36  1  0  0  0  0
 13 37  1  0  0  0  0
 14 19  1  0  0  0  0
 14 15  1  0  0  0  0
 15 16  1  0  0  0  0
 15 38  1  0  0  0  0
 15 39  1  0  0  0  0
 16 17  1  0  0  0  0
 16 40  1  0  0  0  0
 16 41  1  0  0  0  0
 17 18  1  0  0  0  0
 18 19  1  0  0  0  0
 18 42  1  0  0  0  0
 18 43  1  0  0  0  0
 19 44  1  0  0  0  0
 19 45  1  0  0  0  0
 20 46  1  0  0  0  0
M  END
> <s_m_source_file>
AV-unprocessed.smi

> <i_m_source_file_index>
3031

> <i_lp_mmshare_version>
43012

> <i_f3d_flags>
0

> <s_epik_input>
W0NIM11jMVtjSF1ubihbY0hdMSlbQ0gyXVtDQEhdKFtDSDNdKVtOSF1bQ0gyXVtDQEhdKFtPSF0pW0NIMl1OMltDSDJdW0NIMl1PW0NIMl1bQ0gyXTI=

> <s_epik_cmdline>
J2VwaWtfcHl0aG9uJywgJy1waCcsICc3LjAnLCAnLXRuJywgJzgnLCAnLW1hJywgJzIwMCcsICctbWV0YWxfYmluZGluZycsICctaW1hZScsICc8aW5maWxlLm1hZT4nLCAnLW9tYWUnLCAnPG91dGZpbGUubWFlPic=

> <r_lp_tautomer_probability>
1

> <r_epik_Ionization_Penalty>
2.8101

> <r_epik_Ionization_Penalty_Charging>
0

> <r_epik_Ionization_Penalty_Neutral>
2.8101

> <r_epik_State_Penalty>
2.12351

> <r_epik_Charging_Adjusted_Penalty>
2.12351

> <i_epik_Tot_Q>
0

> <i_epik_Tot_abs_Q>
0

> <r_epik_Metal_State_Penalty>
2.12345

> <b_epik_Metal_Only>
0

> <s_lp_Force_Field>
OPLS_2005

> <r_lp_Energy>
32.0321

> <b_lp_Chiralities_Consistent>
1

> <s_lp_Variant>
AV-unprocessed.smi:3031-15

> <Gold.Version>
5.8.1

> <Gold.Id.Protein>
6NUR|6NUR_protein|mol2

> <Gold.PLP.Fitness>
50.9052

> <Gold.PLP.PLP>
-46.5505

> <Gold.PLP.part.hbond>
-2.0623

> <Gold.PLP.part.metal>
0.0000

> <Gold.PLP.part.buried>
-8.3971

> <Gold.PLP.part.nonpolar>
-35.3591

> <Gold.PLP.part.repulsive>
0.3849

> <Gold.PLP.ligand.clash>
0.0000

> <Gold.PLP.ligand.torsion>
0.5093

> <Gold.PLP.Chemscore.Hbond>
1.7360

> <Gold.PLP.Chemscore.CHOScore>
0.0000

> <Gold.PLP.Chemscore.Metal>
0.0000

> <Gold.Chemscore.Hbonds>
donor molecule, donor type, donor heavy atom, donor atom, acceptor molecule, acceptor atom, score
      L1  H    12    35       P1  7957  1.00
      P1  H  7989  7998       L1    12  0.71

> <Gold.PLP.Chemscore.Internal.Correction>
0.1653

> <Gold.Rescore>
     Score         DG    S(hbond)    S(metal)    S(lipo)     H(rot)  DE(clash)    DE(int)     intcor
     16.38     -16.98       1.48        0.00     111.48       2.53       0.12       0.48       ----

> <Gold.Chemscore.Fitness>
16.3835

> <Gold.Chemscore.DG>
-16.9839

> <Gold.Chemscore.ZeroCoef>
-5.4800

> <Gold.Chemscore.Hbond>
1.4809

> <Gold.Chemscore.Metal>
0.0000

> <Gold.Chemscore.Lipo>
111.4770

> <Gold.Chemscore.Internal_Hbond>
0.0000

> <Gold.Chemscore.DEClash>
0.1200

> <Gold.Chemscore.DEInternal>
0.4805

> <Gold.Chemscore.Rot>
2.5333

> <Gold.Chemscore.Internal.Correction>
   9.000000E+99

> <Gold.Chemscore.Hbonds>
donor molecule, donor type, donor heavy atom, donor atom, acceptor molecule, acceptor atom, score
      L1  H    12    35       P1  7957  1.00
      P1  H  7989  7998       L1    12  0.16

> <Gold.Chemscore.Hbond.Weighted>
-4.9462

> <Gold.Chemscore.Metal.Weighted>
-0.0000

> <Gold.Chemscore.Lipo.Weighted>
-13.0428

> <Gold.Chemscore.Internal_Hbond.Weighted>
0.0000

> <Gold.Chemscore.DEClash.Weighted>
0.1200

> <Gold.Chemscore.DEInternal.Weighted>
0.4805

> <Gold.Chemscore.Rot.Weighted>
6.4852

> <Gold.Chemscore.Internal.Correction.Weighted>
   9.000000E+99

> <Gold.Protein.RotatedTorsions>
[ 6907 6896 6895 6894 ] final  119.12 input  -60.11 | X-H torsion
[ 7974 7965 7964 7962 ] final -165.02 input  175.53 | X-H torsion
[ 8008 7997 7996 7995 ] final  100.26 input   59.86 | X-H torsion
[ 10167 10162 10161 10158 ] final   18.40 input  -65.29 | X-H torsion
[ 10718 10713 10712 10709 ] final -175.45 input   66.30 | X-H torsion
[ 10763 10752 10751 10750 ] final  130.59 input  -60.55 | X-H torsion
[ 11005 11000 10999 10996 ] final  -51.26 input  -57.11 | X-H torsion

> <Gold.Protein.ActiveResidues>
 VAL166  LYS551  ARG553  GLY616  TRP617  ASP618  TYR619  PRO620  LYS621  CYS622 
 ASP623  PHE694  ASN695  SER759  ASP760  ASP761  ALA762  ILE779  LEU786  VAL792 
 PHE793  MET794  SER795  GLU796  ALA797  LYS798  CYS799  TRP800  GLU811  SER814 

> <Gold.Protein.RotatedAtoms>
  152.4495  133.7601  159.6741 H   0  0  0  0  0  0  0  0  0  0  0  0  # atno 6907 bound_to 6896
  150.8403  133.7937  159.3069 H   0  0  0  0  0  0  0  0  0  0  0  0  # atno 6908 bound_to 6896
  151.5564  135.1069  160.0014 H   0  0  0  0  0  0  0  0  0  0  0  0  # atno 6909 bound_to 6896
  144.7281  140.2876  143.6226 H   0  0  0  0  0  0  0  0  0  0  0  0  # atno 7974 bound_to 7965
  156.1186  140.3216  155.8175 H   0  0  0  0  0  0  0  0  0  0  0  0  # atno 8008 bound_to 7997
  155.4546  140.0535  157.3015 H   0  0  0  0  0  0  0  0  0  0  0  0  # atno 8009 bound_to 7997
  154.4811  140.2053  155.9776 H   0  0  0  0  0  0  0  0  0  0  0  0  # atno 8010 bound_to 7997
  140.5656  143.9257  150.6674 H   0  0  0  0  0  0  0  0  0  0  0  0  # atno 10167 bound_to 10162
  156.8000  130.9549  151.3119 H   0  0  0  0  0  0  0  0  0  0  0  0  # atno 10718 bound_to 10713
  153.7605  135.3196  155.3336 H   0  0  0  0  0  0  0  0  0  0  0  0  # atno 10763 bound_to 10752
  154.8232  135.4589  154.0842 H   0  0  0  0  0  0  0  0  0  0  0  0  # atno 10764 bound_to 10752
  153.2072  135.6931  153.8242 H   0  0  0  0  0  0  0  0  0  0  0  0  # atno 10765 bound_to 10752
  141.0861  133.6642  156.3852 H   0  0  0  0  0  0  0  0  0  0  0  0  # atno 11005 bound_to 11000
  145.7888  139.1919  143.2115 LP  0  0  0  0  0  0  0  0  0  0  0  0  # atno 17320 bound_to 7965
  146.0773  140.7803  142.9658 LP  0  0  0  0  0  0  0  0  0  0  0  0  # atno 17321 bound_to 7965
  140.2719  143.3450  152.1230 LP  0  0  0  0  0  0  0  0  0  0  0  0  # atno 17342 bound_to 10162
  139.5091  144.6862  151.5882 LP  0  0  0  0  0  0  0  0  0  0  0  0  # atno 17343 bound_to 10162
  157.6558  130.8923  149.9726 LP  0  0  0  0  0  0  0  0  0  0  0  0  # atno 17370 bound_to 10713
  156.1107  130.3650  150.0055 LP  0  0  0  0  0  0  0  0  0  0  0  0  # atno 17371 bound_to 10713
  140.5359  134.6168  157.5364 LP  0  0  0  0  0  0  0  0  0  0  0  0  # atno 17394 bound_to 11000
  139.9680  134.7340  156.0099 LP  0  0  0  0  0  0  0  0  0  0  0  0  # atno 17395 bound_to 11000

$$$$
