#       Name:                AV-unprocessed.smi:193
#       Creating user name   scv26
#       Creation time:       Thu Mar 26 19:33:49 2020


#       File generated by GOLD software.
#

@<TRIPOS>MOLECULE
AV-unprocessed.smi:193
    70    74     1
SMALL
NO_CHARGES


@<TRIPOS>ATOM
      1 ****        -3.4741  -4.1628   0.1134 C.3            1 S1                 0.0000
      2 ****        -3.2461  -2.7624  -0.4758 C.3            1 S1                 0.0000
      3 ****        -1.8429  -2.2362  -0.1148 C.3            1 S1                 0.0000
      4 ****        -1.3286  -1.3222  -1.1338 N.3            1 S1                 0.0000
      5 ****         0.0198  -1.2939  -1.1644 C.ar           1 S1                 0.0000
      6 ****         0.6339  -1.8757  -2.2229 N.ar           1 S1                 0.0000
      7 ****         1.9688  -1.8821  -2.2958 C.ar           1 S1                 0.0000
      8 ****         2.8548  -1.3739  -1.4357 N.ar           1 S1                 0.0000
      9 ****         2.2355  -0.7878  -0.3708 C.ar           1 S1                 0.0000
     10 ****         0.8319  -0.7050  -0.1559 C.ar           1 S1                 0.0000
     11 ****         0.5693  -0.0426   1.0370 N.2            1 S1                 0.0000
     12 ****         1.7533   0.2562   1.4987 C.2            1 S1                 0.0000
     13 ****         2.8099  -0.1490   0.7141 N.pl3          1 S1                 0.0000
     14 ****         4.2244   0.0527   0.9881 C.3            1 S1                 0.0000
     15 ****         4.7745   1.4097   0.4837 C.3            1 S1                 0.0000
     16 ****         4.1004   2.4376   1.1899 O.3            1 S1                 0.0000
     17 ****         6.2828   1.5215   0.7836 C.3            1 S1                 0.0000
     18 ****         6.9109   2.7746   0.1481 C.3            1 S1                 0.0000
     19 ****         6.6613   2.7863  -1.2520 O.3            1 S1                 0.0000
     20 ****         5.2754   2.8635  -1.5623 C.3            1 S1                 0.0000
     21 ****         4.5415   1.6206  -1.0286 C.3            1 S1                 0.0000
     22 ****        -1.9178   0.0062  -1.2838 C.3            1 S1                 0.0000
     23 ****        -3.4413  -0.0141  -1.4794 C.3            1 S1                 0.0000
     24 ****        -4.1119  -0.3685  -0.2057 N.4            1 S1                 1.0000
     25 ****        -5.3111   0.4570   0.0697 C.3            1 S1                 0.0000
     26 ****        -4.9939   1.8662   0.5186 C.3            1 S1                 0.0000
     27 ****        -5.4996   0.8552   1.5237 C.3            1 S1                 0.0000
     28 ****        -4.5948   0.3879   2.6497 C.3            1 S1                 0.0000
     29 ****        -4.3922  -1.8186  -0.0427 C.3            1 S1                 0.0000
     30 ****        -3.4315  -4.1488   1.2030 H              1 S1                 0.0000
     31 ****        -2.7192  -4.8666  -0.2388 H              1 S1                 0.0000
     32 ****        -4.4479  -4.5575  -0.1776 H              1 S1                 0.0000
     33 ****        -3.2878  -2.8818  -1.5598 H              1 S1                 0.0000
     34 ****        -1.8498  -1.7517   0.8627 H              1 S1                 0.0000
     35 ****        -1.1570  -3.0817  -0.0324 H              1 S1                 0.0000
     36 ****         2.3872  -2.3630  -3.1678 H              1 S1                 0.0000
     37 ****         1.8916   0.7879   2.4291 H              1 S1                 0.0000
     38 ****         4.3798  -0.0428   2.0638 H              1 S1                 0.0000
     39 ****         4.7776  -0.7680   0.5296 H              1 S1                 0.0000
     40 ****         4.4415   3.2711   0.9034 H              1 S1                 0.0000
     41 ****         6.4612   1.5175   1.8599 H              1 S1                 0.0000
     42 ****         6.7941   0.6432   0.3871 H              1 S1                 0.0000
     43 ****         6.5243   3.6857   0.6069 H              1 S1                 0.0000
     44 ****         7.9887   2.7730   0.3110 H              1 S1                 0.0000
     45 ****         4.8492   3.7790  -1.1497 H              1 S1                 0.0000
     46 ****         5.1624   2.9243  -2.6449 H              1 S1                 0.0000
     47 ****         4.9035   0.7467  -1.5717 H              1 S1                 0.0000
     48 ****         3.4770   1.7009  -1.2522 H              1 S1                 0.0000
     49 ****        -1.6660   0.6274  -0.4232 H              1 S1                 0.0000
     50 ****        -1.4630   0.4848  -2.1528 H              1 S1                 0.0000
     51 ****        -3.7430   0.9894  -1.7819 H              1 S1                 0.0000
     52 ****        -3.7454  -0.6718  -2.2949 H              1 S1                 0.0000
     53 ****        -6.1697   0.2789  -0.5753 H              1 S1                 0.0000
     54 ****        -3.9481   2.1630   0.5804 H              1 S1                 0.0000
     55 ****        -5.6813   2.6554   0.2206 H              1 S1                 0.0000
     56 ****        -6.5347   0.9785   1.8367 H              1 S1                 0.0000
     57 ****        -3.5515   0.3496   2.3350 H              1 S1                 0.0000
     58 ****        -4.8964  -0.6034   2.9881 H              1 S1                 0.0000
     59 ****        -4.6697   1.0744   3.4933 H              1 S1                 0.0000
     60 ****        -5.2919  -2.0776  -0.6032 H              1 S1                 0.0000
     61 ****        -4.6285  -1.9904   1.0075 H              1 S1                 0.0000
     62 ****        -3.4480  -0.1273   0.5164 H              1 S1                 0.0000
     63 ****        -1.6817  -1.7629  -1.9591 LP             1 S1                 0.0000
     64 ****         0.0901  -2.2991  -2.9475 LP             1 S1                 0.0000
     65 ****         3.8465  -1.4174  -1.5568 LP             1 S1                 0.0000
     66 ****        -0.3204   0.1586   1.4468 LP             1 S1                 0.0000
     67 ****         4.2547   2.3295   2.1720 LP             1 S1                 0.0000
     68 ****         3.1198   2.3908   0.9994 LP             1 S1                 0.0000
     69 ****         7.0319   1.9471  -1.6500 LP             1 S1                 0.0000
     70 ****         7.1233   3.5775  -1.6527 LP             1 S1                 0.0000
@<TRIPOS>BOND
    1    1    2 1     
    2    1   30 1     
    3    1   31 1     
    4    1   32 1     
    5    2   29 1     
    6    2    3 1     
    7    2   33 1     
    8    3    4 1     
    9    3   34 1     
   10    3   35 1     
   11    4    5 1     
   12    4   22 1     
   13    5   10 ar    
   14    5    6 ar    
   15    6    7 ar    
   16    7    8 ar    
   17    7   36 1     
   18    8    9 ar    
   19    9   13 1     
   20    9   10 ar    
   21   10   11 1     
   22   11   12 2     
   23   12   13 1     
   24   12   37 1     
   25   13   14 1     
   26   14   15 1     
   27   14   38 1     
   28   14   39 1     
   29   15   21 1     
   30   15   16 1     
   31   15   17 1     
   32   16   40 1     
   33   17   18 1     
   34   17   41 1     
   35   17   42 1     
   36   18   19 1     
   37   18   43 1     
   38   18   44 1     
   39   19   20 1     
   40   20   21 1     
   41   20   45 1     
   42   20   46 1     
   43   21   47 1     
   44   21   48 1     
   45   22   23 1     
   46   22   49 1     
   47   22   50 1     
   48   23   24 1     
   49   23   51 1     
   50   23   52 1     
   51   24   25 1     
   52   24   29 1     
   53   24   62 1     
   54   25   27 1     
   55   25   26 1     
   56   25   53 1     
   57   26   27 1     
   58   26   54 1     
   59   26   55 1     
   60   27   28 1     
   61   27   56 1     
   62   28   57 1     
   63   28   58 1     
   64   28   59 1     
   65   29   60 1     
   66   29   61 1     
   67    4   63 1     
   68    6   64 1     
   69    8   65 1     
   70   11   66 1     
   71   16   67 1     
   72   16   68 1     
   73   19   69 1     
   74   19   70 1     
@<TRIPOS>SUBSTRUCTURE
      1 S1             1
@<TRIPOS>SET
LONE_PAIRS      STATIC     ATOMS    <user>   **** ""
8 63 64 65 66 67 68 69 70
DONOR_HYDROGENS      STATIC     ATOMS    <user>   **** ""
2 40 62
ATOM$BLUE        STATIC     ATOMS    COLORGROUP SYSTEM
8 63 64 65 66 67 68 69 70
ATOM$RED        STATIC     ATOMS    COLORGROUP SYSTEM
2 40 62
