#       Name:                AV-unprocessed.smi:413
#       Creating user name   scv26
#       Creation time:       Thu Mar 26 22:46:20 2020


#       File generated by GOLD software.
#

@<TRIPOS>MOLECULE
AV-unprocessed.smi:413
    46    48     1
SMALL
NO_CHARGES


@<TRIPOS>ATOM
      1 ****        -2.0610   4.0501   1.7820 C.3            1 S1                 0.0000
      2 ****        -1.6608   3.1067   0.7452 N.am           1 S1                 0.0000
      3 ****        -1.1248   1.8769   0.9240 C.2            1 S1                 0.0000
      4 ****        -0.8870   1.3396   2.0057 O.2            1 S1                 0.0000
      5 ****        -0.8923   1.3388  -0.2972 N.am           1 S1                 0.0000
      6 ****        -0.3316   0.0168  -0.5720 C.3            1 S1                 0.0000
      7 ****         1.1951  -0.0180  -0.3550 C.3            1 S1                 0.0000
      8 ****         1.8234   0.5746  -1.4739 O.3            1 S1                 0.0000
      9 ****         1.7301  -1.4532  -0.2360 C.3            1 S1                 0.0000
     10 ****         1.2289  -2.0313   0.9622 O.3            1 S1                 0.0000
     11 ****         1.5256  -3.3506   1.2262 C.ar           1 S1                 0.0000
     12 ****         0.9282  -3.9234   2.3680 C.ar           1 S1                 0.0000
     13 ****         1.1736  -5.2662   2.7134 C.ar           1 S1                 0.0000
     14 ****         2.0265  -6.0523   1.9170 C.ar           1 S1                 0.0000
     15 ****         2.2646  -7.3435   2.2481 F              1 S1                 0.0000
     16 ****         2.6315  -5.4932   0.7760 C.ar           1 S1                 0.0000
     17 ****         2.3845  -4.1502   0.4298 C.ar           1 S1                 0.0000
     18 ****        -1.2901   2.2523  -1.2846 C.ar           1 S1                 0.0000
     19 ****        -1.2528   2.1772  -2.6881 C.ar           1 S1                 0.0000
     20 ****        -1.7417   3.2923  -3.4085 C.ar           1 S1                 0.0000
     21 ****        -2.2446   4.4331  -2.7304 C.ar           1 S1                 0.0000
     22 ****        -2.2666   4.4844  -1.3169 C.ar           1 S1                 0.0000
     23 ****        -1.7751   3.3631  -0.6268 C.ar           1 S1                 0.0000
     24 ****        -1.9605   3.6278   2.7825 H              1 S1                 0.0000
     25 ****        -3.1023   4.3424   1.6446 H              1 S1                 0.0000
     26 ****        -1.4441   4.9475   1.7307 H              1 S1                 0.0000
     27 ****        -0.8158  -0.6867   0.1070 H              1 S1                 0.0000
     28 ****        -0.5928  -0.3237  -1.5745 H              1 S1                 0.0000
     29 ****         1.4760   0.5385   0.5400 H              1 S1                 0.0000
     30 ****         1.5359   1.4725  -1.5378 H              1 S1                 0.0000
     31 ****         1.4252  -2.0391  -1.1051 H              1 S1                 0.0000
     32 ****         2.8209  -1.4387  -0.2018 H              1 S1                 0.0000
     33 ****         0.2720  -3.3267   2.9848 H              1 S1                 0.0000
     34 ****         0.7072  -5.6923   3.5894 H              1 S1                 0.0000
     35 ****         3.2872  -6.0952   0.1644 H              1 S1                 0.0000
     36 ****         2.8684  -3.7557  -0.4507 H              1 S1                 0.0000
     37 ****        -0.8678   1.3086  -3.2014 H              1 S1                 0.0000
     38 ****        -1.7323   3.2748  -4.4883 H              1 S1                 0.0000
     39 ****        -2.6145   5.2728  -3.3003 H              1 S1                 0.0000
     40 ****        -2.6464   5.3492  -0.7931 H              1 S1                 0.0000
     41 ****        -1.0929   1.8197   2.8585 LP             1 S1                 0.0000
     42 ****        -0.4879   0.4231   2.0317 LP             1 S1                 0.0000
     43 ****         1.5701   0.0792  -2.3048 LP             1 S1                 0.0000
     44 ****         2.8162   0.5456  -1.3580 LP             1 S1                 0.0000
     45 ****         0.2324  -1.9520   0.9347 LP             1 S1                 0.0000
     46 ****         1.5854  -1.4898   1.7236 LP             1 S1                 0.0000
@<TRIPOS>BOND
    1    1    2 1     
    2    1   24 1     
    3    1   25 1     
    4    1   26 1     
    5    2   23 1     
    6    2    3 am    
    7    3    4 2     
    8    3    5 am    
    9    5    6 1     
   10    5   18 1     
   11    6    7 1     
   12    6   27 1     
   13    6   28 1     
   14    7    8 1     
   15    7    9 1     
   16    7   29 1     
   17    8   30 1     
   18    9   10 1     
   19    9   31 1     
   20    9   32 1     
   21   10   11 1     
   22   11   17 ar    
   23   11   12 ar    
   24   12   13 ar    
   25   12   33 1     
   26   13   14 ar    
   27   13   34 1     
   28   14   15 1     
   29   14   16 ar    
   30   16   17 ar    
   31   16   35 1     
   32   17   36 1     
   33   18   23 ar    
   34   18   19 ar    
   35   19   20 ar    
   36   19   37 1     
   37   20   21 ar    
   38   20   38 1     
   39   21   22 ar    
   40   21   39 1     
   41   22   23 ar    
   42   22   40 1     
   43    4   41 1     
   44    4   42 1     
   45    8   43 1     
   46    8   44 1     
   47   10   45 1     
   48   10   46 1     
@<TRIPOS>SUBSTRUCTURE
      1 S1             1
@<TRIPOS>SET
LONE_PAIRS      STATIC     ATOMS    <user>   **** ""
6 41 42 43 44 45 46
DONOR_HYDROGENS      STATIC     ATOMS    <user>   **** ""
1 30
ATOM$BLUE        STATIC     ATOMS    COLORGROUP SYSTEM
6 41 42 43 44 45 46
ATOM$RED        STATIC     ATOMS    COLORGROUP SYSTEM
1 30
