AV-unprocessed.smi:769|AV-procd|sdf|3678|dock4
  -GOLD-   22720 1 93D 1   1.00000     0.00000
 Structure written by MMmdl.
 50 52  0  0  0  0  0  0  0  0  4 V2000
  146.7936  132.3459  154.2850 O   0  0  0  0  0  0  0  0  0  0  0  0
  147.6971  132.8301  153.5934 C   0  0  0  0  0  0  0  0  0  0  0  0
  149.0372  132.7660  153.8194 N   0  5  0  0  0  0  0  0  0  0  0  0
  149.8260  133.8073  154.4763 C   0  0  0  0  0  0  0  0  0  0  0  0
  148.9187  134.9780  154.9025 C   0  0  0  0  0  0  0  0  0  0  0  0
  149.5125  136.2880  154.5280 N   0  3  0  0  0  0  0  0  0  0  0  0
  148.7427  137.4490  155.0495 C   0  0  0  0  0  0  0  0  0  0  0  0
  149.3582  138.7819  154.5848 C   0  0  0  0  0  0  0  0  0  0  0  0
  150.7689  138.8251  154.9840 N   0  0  0  0  0  0  0  0  0  0  0  0
  151.2498  139.7157  155.8861 C   0  0  0  0  0  0  0  0  0  0  0  0
  152.4201  139.6880  156.2687 O   0  0  0  0  0  0  0  0  0  0  0  0
  150.3130  140.8215  156.4195 C   0  0  0  0  0  0  0  0  0  0  0  0
  150.8635  142.2620  156.3930 C   0  0  0  0  0  0  0  0  0  0  0  0
  151.1762  142.1507  157.8883 C   0  0  0  0  0  0  0  0  0  0  0  0
  150.2691  140.9178  157.9546 C   0  0  0  0  0  0  0  0  0  0  0  0
  151.5342  137.7448  154.3520 C   0  0  0  0  0  0  0  0  0  0  0  0
  150.9711  136.3908  154.8187 C   0  0  0  0  0  0  0  0  0  0  0  0
  147.4066  133.4995  152.4633 N   0  0  0  0  0  0  0  0  0  0  0  0
  146.1403  133.7536  151.8708 C   0  0  0  0  0  0  0  0  0  0  0  0
  145.1823  132.7163  151.9050 C   0  0  0  0  0  0  0  0  0  0  0  0
  143.9187  132.9173  151.3137 C   0  0  0  0  0  0  0  0  0  0  0  0
  143.6380  134.0921  150.7097 N   0  3  0  0  0  0  0  0  0  0  0  0
  144.5278  135.1055  150.6354 C   0  0  0  0  0  0  0  0  0  0  0  0
  145.8077  134.9624  151.2084 C   0  0  0  0  0  0  0  0  0  0  0  0
  150.3622  133.4319  155.3490 H   0  0  0  0  0  0  0  0  0  0  0  0
  150.5979  134.1909  153.8085 H   0  0  0  0  0  0  0  0  0  0  0  0
  147.9505  134.8564  154.4134 H   0  0  0  0  0  0  0  0  0  0  0  0
  148.7182  134.9491  155.9749 H   0  0  0  0  0  0  0  0  0  0  0  0
  147.7094  137.3866  154.7056 H   0  0  0  0  0  0  0  0  0  0  0  0
  148.7204  137.4084  156.1398 H   0  0  0  0  0  0  0  0  0  0  0  0
  149.2915  138.8673  153.4991 H   0  0  0  0  0  0  0  0  0  0  0  0
  148.7745  139.6124  154.9836 H   0  0  0  0  0  0  0  0  0  0  0  0
  149.3257  140.7766  155.9583 H   0  0  0  0  0  0  0  0  0  0  0  0
  151.7401  142.4402  155.7692 H   0  0  0  0  0  0  0  0  0  0  0  0
  150.0853  142.9970  156.1825 H   0  0  0  0  0  0  0  0  0  0  0  0
  152.2232  141.9125  158.0818 H   0  0  0  0  0  0  0  0  0  0  0  0
  150.8369  142.9967  158.4865 H   0  0  0  0  0  0  0  0  0  0  0  0
  149.2699  141.1435  158.3298 H   0  0  0  0  0  0  0  0  0  0  0  0
  150.7112  140.0758  158.4894 H   0  0  0  0  0  0  0  0  0  0  0  0
  151.4366  137.8313  153.2687 H   0  0  0  0  0  0  0  0  0  0  0  0
  152.6044  137.7887  154.5461 H   0  0  0  0  0  0  0  0  0  0  0  0
  151.1377  136.2717  155.8908 H   0  0  0  0  0  0  0  0  0  0  0  0
  151.5087  135.5815  154.3235 H   0  0  0  0  0  0  0  0  0  0  0  0
  148.2069  133.7816  151.9164 H   0  0  0  0  0  0  0  0  0  0  0  0
  145.4098  131.7765  152.3872 H   0  0  0  0  0  0  0  0  0  0  0  0
  143.1309  132.1783  151.3045 H   0  0  0  0  0  0  0  0  0  0  0  0
  144.1942  135.9928  150.1176 H   0  0  0  0  0  0  0  0  0  0  0  0
  146.5139  135.7742  151.1208 H   0  0  0  0  0  0  0  0  0  0  0  0
  149.4222  136.3417  153.5231 H   0  0  0  0  0  0  0  0  0  0  0  0
  142.7179  134.2172  150.2870 H   0  0  0  0  0  0  0  0  0  0  0  0
  1  2  2  0  0  0  0
  2  3  1  0  0  0  0
  2 18  1  0  0  0  0
  3  4  1  0  0  0  0
  4  5  1  0  0  0  0
  4 25  1  0  0  0  0
  4 26  1  0  0  0  0
  5  6  1  0  0  0  0
  5 27  1  0  0  0  0
  5 28  1  0  0  0  0
  6 17  1  0  0  0  0
  6  7  1  0  0  0  0
  6 49  1  0  0  0  0
  7  8  1  0  0  0  0
  7 29  1  0  0  0  0
  7 30  1  0  0  0  0
  8  9  1  0  0  0  0
  8 31  1  0  0  0  0
  8 32  1  0  0  0  0
  9 10  1  0  0  0  0
  9 16  1  0  0  0  0
 10 11  2  0  0  0  0
 10 12  1  0  0  0  0
 12 15  1  0  0  0  0
 12 13  1  0  0  0  0
 12 33  1  0  0  0  0
 13 14  1  0  0  0  0
 13 34  1  0  0  0  0
 13 35  1  0  0  0  0
 14 15  1  0  0  0  0
 14 36  1  0  0  0  0
 14 37  1  0  0  0  0
 15 38  1  0  0  0  0
 15 39  1  0  0  0  0
 16 17  1  0  0  0  0
 16 40  1  0  0  0  0
 16 41  1  0  0  0  0
 17 42  1  0  0  0  0
 17 43  1  0  0  0  0
 18 19  1  0  0  0  0
 18 44  1  0  0  0  0
 19 24  1  0  0  0  0
 19 20  2  0  0  0  0
 20 21  1  0  0  0  0
 20 45  1  0  0  0  0
 21 22  2  0  0  0  0
 21 46  1  0  0  0  0
 22 23  1  0  0  0  0
 22 50  1  0  0  0  0
 23 24  2  0  0  0  0
 23 47  1  0  0  0  0
 24 48  1  0  0  0  0
M  CHG  1   3  -1
M  CHG  1   6   1
M  CHG  1  22   1
M  END
> <s_m_source_file>
AV-unprocessed.smi

> <i_m_source_file_index>
769

> <i_lp_mmshare_version>
43012

> <i_f3d_flags>
0

> <s_epik_input>
W2NIXTFbY0hdbltjSF1bY0hdYzFbTkhdQyg9TylbTkhdW0NIMl1bQ0gyXU4yW0NIMl1bQ0gyXU4oW0NIMl1bQ0gyXTIpQyg9TylbQ0hdM1tDSDJdW0NIMl1bQ0gyXTM=

> <s_epik_cmdline>
J2VwaWtfcHl0aG9uJywgJy1waCcsICc3LjAnLCAnLXRuJywgJzgnLCAnLW1hJywgJzIwMCcsICctbWV0YWxfYmluZGluZycsICctaW1hZScsICc8aW5maWxlLm1hZT4nLCAnLW9tYWUnLCAnPG91dGZpbGUubWFlPic=

> <r_epik_Ionization_Penalty>
8.38098

> <r_epik_Ionization_Penalty_Charging>
8.38098

> <r_epik_Ionization_Penalty_Neutral>
3.42309e-06

> <r_epik_State_Penalty>
8.4985

> <r_epik_Charging_Adjusted_Penalty>
16.8795

> <i_epik_Tot_Q>
1

> <i_epik_Tot_abs_Q>
3

> <r_epik_Metal_State_Penalty>
4.51015

> <b_epik_Metal_Only>
1

> <s_lp_Force_Field>
OPLS_2005

> <r_lp_Energy>
56.008

> <b_lp_Chiralities_Consistent>
1

> <s_lp_Variant>
AV-unprocessed.smi:769-5

> <Gold.Version>
5.8.1

> <Gold.Id.Protein>
6NUR|6NUR_protein|mol2

> <Gold.PLP.Fitness>
55.1026

> <Gold.PLP.PLP>
-42.7104

> <Gold.PLP.part.hbond>
-4.0000

> <Gold.PLP.part.metal>
0.0000

> <Gold.PLP.part.buried>
-5.6635

> <Gold.PLP.part.nonpolar>
-33.4026

> <Gold.PLP.part.repulsive>
0.2868

> <Gold.PLP.ligand.clash>
0.0000

> <Gold.PLP.ligand.torsion>
1.6208

> <Gold.PLP.Chemscore.Hbond>
5.0439

> <Gold.PLP.Chemscore.CHOScore>
0.0000

> <Gold.PLP.Chemscore.Metal>
0.0000

> <Gold.Chemscore.Hbonds>
donor molecule, donor type, donor heavy atom, donor atom, acceptor molecule, acceptor atom, score
      L1  H     6    49       P1  7948  2.00
      L1  H    22    50       P1 10186  2.00
      P1  H  7997  8008       L1    11  0.98

> <Gold.PLP.Chemscore.Internal.Correction>
0.5022

> <Gold.Rescore>
     Score         DG    S(hbond)    S(metal)    S(lipo)     H(rot)  DE(clash)    DE(int)     intcor
     17.67     -20.60       2.70        0.00      89.68       1.72       0.06       2.87       ----

> <Gold.Chemscore.Fitness>
17.6737

> <Gold.Chemscore.DG>
-20.6005

> <Gold.Chemscore.ZeroCoef>
-5.4800

> <Gold.Chemscore.Hbond>
2.7037

> <Gold.Chemscore.Metal>
0.0000

> <Gold.Chemscore.Lipo>
89.6753

> <Gold.Chemscore.Internal_Hbond>
0.0000

> <Gold.Chemscore.DEClash>
0.0559

> <Gold.Chemscore.DEInternal>
2.8708

> <Gold.Chemscore.Rot>
1.7195

> <Gold.Chemscore.Internal.Correction>
   9.000000E+99

> <Gold.Chemscore.Hbonds>
donor molecule, donor type, donor heavy atom, donor atom, acceptor molecule, acceptor atom, score
      L1  H     6    49       P1  7948  0.74
      L1  H    22    50       P1 10186  0.88
      P1  H  7997  8008       L1    11  0.89

> <Gold.Chemscore.Hbond.Weighted>
-9.0305

> <Gold.Chemscore.Metal.Weighted>
-0.0000

> <Gold.Chemscore.Lipo.Weighted>
-10.4920

> <Gold.Chemscore.Internal_Hbond.Weighted>
0.0000

> <Gold.Chemscore.DEClash.Weighted>
0.0559

> <Gold.Chemscore.DEInternal.Weighted>
2.8708

> <Gold.Chemscore.Rot.Weighted>
4.4020

> <Gold.Chemscore.Internal.Correction.Weighted>
   9.000000E+99

> <Gold.Protein.RotatedTorsions>
[ 6907 6896 6895 6894 ] final  111.35 input  -60.11 | X-H torsion
[ 7974 7965 7964 7962 ] final  123.21 input  175.53 | X-H torsion
[ 8008 7997 7996 7995 ] final  -62.51 input   59.86 | X-H torsion
[ 10167 10162 10161 10158 ] final   -8.68 input  -65.29 | X-H torsion
[ 10718 10713 10712 10709 ] final    4.25 input   66.30 | X-H torsion
[ 10763 10752 10751 10750 ] final -154.46 input  -60.55 | X-H torsion
[ 11005 11000 10999 10996 ] final  118.95 input  -57.11 | X-H torsion

> <Gold.Protein.ActiveResidues>
 VAL166  LYS551  ARG553  GLY616  TRP617  ASP618  TYR619  PRO620  LYS621  CYS622 
 ASP623  PHE694  ASN695  SER759  ASP760  ASP761  ALA762  ILE779  LEU786  VAL792 
 PHE793  MET794  SER795  GLU796  ALA797  LYS798  CYS799  TRP800  GLU811  SER814 

> <Gold.Protein.RotatedAtoms>
  152.4974  133.8671  159.7279 H   0  0  0  0  0  0  0  0  0  0  0  0  # atno 6907 bound_to 6896
  150.9167  133.6921  159.2848 H   0  0  0  0  0  0  0  0  0  0  0  0  # atno 6908 bound_to 6896
  151.4312  135.1014  159.9695 H   0  0  0  0  0  0  0  0  0  0  0  0  # atno 6909 bound_to 6896
  145.0985  139.3535  143.4824 H   0  0  0  0  0  0  0  0  0  0  0  0  # atno 7974 bound_to 7965
  154.4503  140.0994  156.6598 H   0  0  0  0  0  0  0  0  0  0  0  0  # atno 8008 bound_to 7997
  155.5306  140.3481  155.4407 H   0  0  0  0  0  0  0  0  0  0  0  0  # atno 8009 bound_to 7997
  156.0667  140.1339  156.9867 H   0  0  0  0  0  0  0  0  0  0  0  0  # atno 8010 bound_to 7997
  140.7066  143.5942  150.8863 H   0  0  0  0  0  0  0  0  0  0  0  0  # atno 10167 bound_to 10162
  156.8898  130.5683  149.5650 H   0  0  0  0  0  0  0  0  0  0  0  0  # atno 10718 bound_to 10713
  154.7857  135.3189  154.7891 H   0  0  0  0  0  0  0  0  0  0  0  0  # atno 10763 bound_to 10752
  153.8592  135.6855  153.4789 H   0  0  0  0  0  0  0  0  0  0  0  0  # atno 10764 bound_to 10752
  153.1508  135.4700  154.9572 H   0  0  0  0  0  0  0  0  0  0  0  0  # atno 10765 bound_to 10752
  139.9128  134.9624  156.7582 H   0  0  0  0  0  0  0  0  0  0  0  0  # atno 11005 bound_to 11000
  146.3530  140.0852  142.8615 LP  0  0  0  0  0  0  0  0  0  0  0  0  # atno 17320 bound_to 7965
  145.0983  140.9329  143.4728 LP  0  0  0  0  0  0  0  0  0  0  0  0  # atno 17321 bound_to 7965
  139.9667  143.6103  152.2986 LP  0  0  0  0  0  0  0  0  0  0  0  0  # atno 17342 bound_to 10162
  139.6675  144.7662  151.1846 LP  0  0  0  0  0  0  0  0  0  0  0  0  # atno 17343 bound_to 10162
  156.0635  130.5683  150.9241 LP  0  0  0  0  0  0  0  0  0  0  0  0  # atno 17370 bound_to 10713
  157.6090  131.0937  150.8828 LP  0  0  0  0  0  0  0  0  0  0  0  0  # atno 17371 bound_to 10713
  140.6719  133.9552  155.7861 LP  0  0  0  0  0  0  0  0  0  0  0  0  # atno 17394 bound_to 11000
  141.0571  134.0400  157.3707 LP  0  0  0  0  0  0  0  0  0  0  0  0  # atno 17395 bound_to 11000

$$$$
