AV-unprocessed.smi:3231|AV-procd|sdf|12335|dock6
  -GOLD-   2272018193D 1   1.00000     0.00000
 Structure written by MMmdl.
 42 43  0  0  0  0  0  0  0  0  3 V2000
  149.1752  139.6005  153.8369 O   0  0  0  0  0  0  0  0  0  0  0  0
  148.4107  140.7534  154.1343 C   0  0  2  0  0  0  0  0  0  0  0  0
  148.7366  141.1784  155.5779 C   0  0  0  0  0  0  0  0  0  0  0  0
  149.9925  141.9538  155.6442 N   0  3  0  0  0  0  0  0  0  0  0  0
  150.5336  142.1078  157.0084 C   0  0  0  0  0  0  0  0  0  0  0  0
  151.6544  143.1571  157.0407 C   0  0  0  0  0  0  0  0  0  0  0  0
  151.7298  143.8259  158.3253 N   0  0  0  0  0  0  0  0  0  0  0  0
  151.1903  145.0400  158.6958 C   0  0  0  0  0  0  0  0  0  0  0  0
  151.5306  145.2536  160.0009 C   0  0  0  0  0  0  0  0  0  0  0  0
  152.2910  144.1011  160.3454 C   0  0  0  0  0  0  0  0  0  0  0  0
  152.4091  143.2489  159.3399 N   0  0  0  0  0  0  0  0  0  0  0  0
  146.9130  140.4138  153.9689 C   0  0  0  0  0  0  0  0  0  0  0  0
  146.0136  141.5791  154.1785 N   0  3  0  0  0  0  0  0  0  0  0  0
  145.6715  141.7716  155.6087 C   0  0  0  0  0  0  0  0  0  0  0  0
  144.6992  142.9512  155.7805 C   0  0  0  0  0  0  0  0  0  0  0  0
  145.2756  144.1269  155.2268 O   0  0  0  0  0  0  0  0  0  0  0  0
  145.5247  143.9909  153.8338 C   0  0  0  0  0  0  0  0  0  0  0  0
  146.5245  142.8454  153.5955 C   0  0  0  0  0  0  0  0  0  0  0  0
  149.1894  139.4724  152.9004 H   0  0  0  0  0  0  0  0  0  0  0  0
  148.7005  141.5568  153.4578 H   0  0  0  0  0  0  0  0  0  0  0  0
  147.9310  141.8000  155.9710 H   0  0  0  0  0  0  0  0  0  0  0  0
  148.8083  140.3033  156.2260 H   0  0  0  0  0  0  0  0  0  0  0  0
  150.6848  141.4822  155.0791 H   0  0  0  0  0  0  0  0  0  0  0  0
  149.7297  142.3995  157.6858 H   0  0  0  0  0  0  0  0  0  0  0  0
  150.9113  141.1435  157.3514 H   0  0  0  0  0  0  0  0  0  0  0  0
  152.6205  142.6929  156.8365 H   0  0  0  0  0  0  0  0  0  0  0  0
  151.4938  143.9091  156.2669 H   0  0  0  0  0  0  0  0  0  0  0  0
  150.6157  145.6446  158.0092 H   0  0  0  0  0  0  0  0  0  0  0  0
  151.2770  146.1046  160.6157 H   0  0  0  0  0  0  0  0  0  0  0  0
  152.7576  143.8605  161.2893 H   0  0  0  0  0  0  0  0  0  0  0  0
  146.7587  140.0146  152.9648 H   0  0  0  0  0  0  0  0  0  0  0  0
  146.6260  139.6174  154.6575 H   0  0  0  0  0  0  0  0  0  0  0  0
  145.2163  140.8642  156.0071 H   0  0  0  0  0  0  0  0  0  0  0  0
  146.5820  141.9525  156.1826 H   0  0  0  0  0  0  0  0  0  0  0  0
  143.7405  142.7403  155.3038 H   0  0  0  0  0  0  0  0  0  0  0  0
  144.4977  143.1210  156.8383 H   0  0  0  0  0  0  0  0  0  0  0  0
  144.5899  143.8106  153.3003 H   0  0  0  0  0  0  0  0  0  0  0  0
  145.9307  144.9289  153.4548 H   0  0  0  0  0  0  0  0  0  0  0  0
  147.4870  143.0946  154.0451 H   0  0  0  0  0  0  0  0  0  0  0  0
  146.6903  142.7369  152.5245 H   0  0  0  0  0  0  0  0  0  0  0  0
  149.8291  142.8715  155.2556 H   0  0  0  0  0  0  0  0  0  0  0  0
  145.1445  141.3650  153.7106 H   0  0  0  0  0  0  0  0  0  0  0  0
  1  2  1  0  0  0  0
  1 19  1  0  0  0  0
  2  3  1  0  0  0  0
  2 12  1  0  0  0  0
  2 20  1  0  0  0  0
  3  4  1  0  0  0  0
  3 21  1  0  0  0  0
  3 22  1  0  0  0  0
  4  5  1  0  0  0  0
  4 23  1  0  0  0  0
  4 41  1  0  0  0  0
  5  6  1  0  0  0  0
  5 24  1  0  0  0  0
  5 25  1  0  0  0  0
  6  7  1  0  0  0  0
  6 26  1  0  0  0  0
  6 27  1  0  0  0  0
  7 11  1  0  0  0  0
  7  8  1  0  0  0  0
  8  9  2  0  0  0  0
  8 28  1  0  0  0  0
  9 10  1  0  0  0  0
  9 29  1  0  0  0  0
 10 11  2  0  0  0  0
 10 30  1  0  0  0  0
 12 13  1  0  0  0  0
 12 31  1  0  0  0  0
 12 32  1  0  0  0  0
 13 18  1  0  0  0  0
 13 14  1  0  0  0  0
 13 42  1  0  0  0  0
 14 15  1  0  0  0  0
 14 33  1  0  0  0  0
 14 34  1  0  0  0  0
 15 16  1  0  0  0  0
 15 35  1  0  0  0  0
 15 36  1  0  0  0  0
 16 17  1  0  0  0  0
 17 18  1  0  0  0  0
 17 37  1  0  0  0  0
 17 38  1  0  0  0  0
 18 39  1  0  0  0  0
 18 40  1  0  0  0  0
M  CHG  1   4   1
M  CHG  1  13   1
M  END
> <s_m_source_file>
AV-unprocessed.smi

> <i_m_source_file_index>
3231

> <i_lp_mmshare_version>
43012

> <i_f3d_flags>
0

> <s_epik_input>
W0NIMl0xW0NIMl1PW0NIMl1bQ0gyXU4xW0NIMl1bQ0BIXShbT0hdKVtDSDJdW05IXVtDSDJdW0NIMl1uMltjSF1bY0hdW2NIXW4y

> <s_epik_cmdline>
J2VwaWtfcHl0aG9uJywgJy1waCcsICc3LjAnLCAnLXRuJywgJzgnLCAnLW1hJywgJzIwMCcsICctbWV0YWxfYmluZGluZycsICctaW1hZScsICc8aW5maWxlLm1hZT4nLCAnLW9tYWUnLCAnPG91dGZpbGUubWFlPic=

> <r_lp_tautomer_probability>
1

> <r_epik_Ionization_Penalty>
2.09881

> <r_epik_Ionization_Penalty_Charging>
2.09628

> <r_epik_Ionization_Penalty_Neutral>
0.0025303

> <r_epik_State_Penalty>
1.58657

> <r_epik_Charging_Adjusted_Penalty>
3.68285

> <i_epik_Tot_Q>
2

> <i_epik_Tot_abs_Q>
2

> <r_epik_Metal_State_Penalty>
1.58685

> <b_epik_Metal_Only>
0

> <s_lp_Force_Field>
OPLS_2005

> <r_lp_Energy>
26.6316

> <b_lp_Chiralities_Consistent>
1

> <s_lp_Variant>
AV-unprocessed.smi:3231-5

> <Gold.Version>
5.8.1

> <Gold.Id.Protein>
6NUR|6NUR_protein|mol2

> <Gold.PLP.Fitness>
54.5614

> <Gold.PLP.PLP>
-38.4481

> <Gold.PLP.part.hbond>
-3.0000

> <Gold.PLP.part.metal>
0.0000

> <Gold.PLP.part.buried>
-7.4889

> <Gold.PLP.part.nonpolar>
-29.5908

> <Gold.PLP.part.repulsive>
0.3254

> <Gold.PLP.ligand.clash>
0.0000

> <Gold.PLP.ligand.torsion>
1.0511

> <Gold.PLP.Chemscore.Hbond>
5.0000

> <Gold.PLP.Chemscore.CHOScore>
0.9905

> <Gold.PLP.Chemscore.Metal>
0.0000

> <Gold.Chemscore.Hbonds>
donor molecule, donor type, donor heavy atom, donor atom, acceptor molecule, acceptor atom, score
      L1  H     1    19       P1  7957  1.00
      L1  H     4    41       P1  8028  1.40
      L1  H    13    42       P1 10175  1.69
      L1  C     8    28       P1  8029  0.24

> <Gold.PLP.Chemscore.Internal.Correction>
0.2439

> <Gold.Rescore>
     Score         DG    S(hbond)    S(metal)    S(lipo)     H(rot)  DE(clash)    DE(int)     intcor
     17.52     -18.13       2.83        0.00      91.72       2.94       0.08       0.53       ----

> <Gold.Chemscore.Fitness>
17.5180

> <Gold.Chemscore.DG>
-18.1315

> <Gold.Chemscore.ZeroCoef>
-5.4800

> <Gold.Chemscore.Hbond>
2.8313

> <Gold.Chemscore.Metal>
0.0000

> <Gold.Chemscore.Lipo>
91.7159

> <Gold.Chemscore.Internal_Hbond>
0.0000

> <Gold.Chemscore.DEClash>
0.0792

> <Gold.Chemscore.DEInternal>
0.5343

> <Gold.Chemscore.Rot>
2.9437

> <Gold.Chemscore.Internal.Correction>
   9.000000E+99

> <Gold.Chemscore.Hbonds>
donor molecule, donor type, donor heavy atom, donor atom, acceptor molecule, acceptor atom, score
      L1  H     1    19       P1  7957  0.96
      L1  H     4    41       P1  8028  0.67
      L1  H    13    42       P1 10175  0.25

> <Gold.Chemscore.Hbond.Weighted>
-9.4566

> <Gold.Chemscore.Metal.Weighted>
-0.0000

> <Gold.Chemscore.Lipo.Weighted>
-10.7308

> <Gold.Chemscore.Internal_Hbond.Weighted>
0.0000

> <Gold.Chemscore.DEClash.Weighted>
0.0792

> <Gold.Chemscore.DEInternal.Weighted>
0.5343

> <Gold.Chemscore.Rot.Weighted>
7.5359

> <Gold.Chemscore.Internal.Correction.Weighted>
   9.000000E+99

> <Gold.Protein.RotatedTorsions>
[ 6907 6896 6895 6894 ] final  -77.13 input  -60.11 | X-H torsion
[ 7974 7965 7964 7962 ] final   42.36 input  175.53 | X-H torsion
[ 8008 7997 7996 7995 ] final -175.18 input   59.86 | X-H torsion
[ 10167 10162 10161 10158 ] final  178.74 input  -65.29 | X-H torsion
[ 10718 10713 10712 10709 ] final  101.13 input   66.30 | X-H torsion
[ 10763 10752 10751 10750 ] final -121.42 input  -60.55 | X-H torsion
[ 11005 11000 10999 10996 ] final -122.50 input  -57.11 | X-H torsion

> <Gold.Protein.ActiveResidues>
 VAL166  LYS551  ARG553  GLY616  TRP617  ASP618  TYR619  PRO620  LYS621  CYS622 
 ASP623  PHE694  ASN695  SER759  ASP760  ASP761  ALA762  ILE779  LEU786  VAL792 
 PHE793  MET794  SER795  GLU796  ALA797  LYS798  CYS799  TRP800  GLU811  SER814 

> <Gold.Protein.RotatedAtoms>
  150.7007  134.4469  159.5317 H   0  0  0  0  0  0  0  0  0  0  0  0  # atno 6907 bound_to 6896
  152.2169  134.8447  160.0500 H   0  0  0  0  0  0  0  0  0  0  0  0  # atno 6908 bound_to 6896
  151.9312  133.3576  159.3968 H   0  0  0  0  0  0  0  0  0  0  0  0  # atno 6909 bound_to 6896
  146.0747  139.5309  142.9575 H   0  0  0  0  0  0  0  0  0  0  0  0  # atno 7974 bound_to 7965
  155.9794  140.1179  157.0740 H   0  0  0  0  0  0  0  0  0  0  0  0  # atno 8008 bound_to 7997
  154.4178  140.1147  156.5483 H   0  0  0  0  0  0  0  0  0  0  0  0  # atno 8009 bound_to 7997
  155.6491  140.3473  155.4744 H   0  0  0  0  0  0  0  0  0  0  0  0  # atno 8010 bound_to 7997
  139.5306  144.2645  152.0680 H   0  0  0  0  0  0  0  0  0  0  0  0  # atno 10167 bound_to 10162
  157.6837  131.0718  150.5206 H   0  0  0  0  0  0  0  0  0  0  0  0  # atno 10718 bound_to 10713
  154.8668  135.4168  154.2618 H   0  0  0  0  0  0  0  0  0  0  0  0  # atno 10763 bound_to 10752
  153.3544  135.7000  153.6768 H   0  0  0  0  0  0  0  0  0  0  0  0  # atno 10764 bound_to 10752
  153.5694  135.3594  155.2804 H   0  0  0  0  0  0  0  0  0  0  0  0  # atno 10765 bound_to 10752
  140.9990  134.0430  157.3561 H   0  0  0  0  0  0  0  0  0  0  0  0  # atno 11005 bound_to 11000
  145.6328  141.0300  143.1854 LP  0  0  0  0  0  0  0  0  0  0  0  0  # atno 17320 bound_to 7965
  144.7254  139.7894  143.7367 LP  0  0  0  0  0  0  0  0  0  0  0  0  # atno 17321 bound_to 7965
  140.2107  144.4565  150.6387 LP  0  0  0  0  0  0  0  0  0  0  0  0  # atno 17342 bound_to 10162
  140.6482  143.2218  151.6138 LP  0  0  0  0  0  0  0  0  0  0  0  0  # atno 17343 bound_to 10162
  156.5520  130.4234  149.6103 LP  0  0  0  0  0  0  0  0  0  0  0  0  # atno 17370 bound_to 10713
  156.2895  130.7116  151.1961 LP  0  0  0  0  0  0  0  0  0  0  0  0  # atno 17371 bound_to 10713
  139.9029  135.0171  156.7353 LP  0  0  0  0  0  0  0  0  0  0  0  0  # atno 17394 bound_to 11000
  140.6919  133.9382  155.7971 LP  0  0  0  0  0  0  0  0  0  0  0  0  # atno 17395 bound_to 11000

$$$$
