AV-unprocessed.smi:3058|AV-procd|sdf|11671|dock4
  -GOLD-   2272017 73D 1   1.00000     0.00000
 Structure written by MMmdl.
 38 40  0  0  0  0  0  0  0  0  1 V2000
  150.7792  140.4753  155.2561 O   0  0  0  0  0  0  0  0  0  0  0  0
  150.0669  141.4620  155.4470 C   0  0  0  0  0  0  0  0  0  0  0  0
  150.3184  142.3697  156.4026 N   0  0  0  0  0  0  0  0  0  0  0  0
  151.4455  142.3264  157.3260 C   0  0  0  0  0  0  0  0  0  0  0  0
  151.5859  143.6424  158.1079 C   0  0  0  0  0  0  0  0  0  0  0  0
  152.1902  143.4287  159.4816 C   0  0  0  0  0  0  0  0  0  0  0  0
  152.1477  144.4458  160.4575 C   0  0  0  0  0  0  0  0  0  0  0  0
  152.7201  144.1980  161.7201 C   0  0  0  0  0  0  0  0  0  0  0  0
  153.3113  142.9400  161.9534 C   0  0  0  0  0  0  0  0  0  0  0  0
  153.3566  141.9586  161.0268 N   0  0  0  0  0  0  0  0  0  0  0  0
  152.8059  142.2044  159.8185 C   0  0  0  0  0  0  0  0  0  0  0  0
  148.8010  141.7019  154.6050 C   0  0  2  0  0  0  0  0  0  0  0  0
  147.4886  141.7991  155.4220 C   0  0  0  0  0  0  0  0  0  0  0  0
  146.5716  140.7746  154.7270 C   0  0  2  0  0  0  0  0  0  0  0  0
  147.0345  139.3484  155.0782 C   0  0  0  0  0  0  0  0  0  0  0  0
  148.3177  139.1930  154.2418 C   0  0  0  0  0  0  0  0  0  0  0  0
  148.4655  140.5827  153.5835 C   0  0  1  0  0  0  0  0  0  0  0  0
  147.0061  140.9010  153.2711 C   0  0  0  0  0  0  0  0  0  0  0  0
  149.6796  143.1460  156.4984 H   0  0  0  0  0  0  0  0  0  0  0  0
  151.3382  141.4825  158.0101 H   0  0  0  0  0  0  0  0  0  0  0  0
  152.3491  142.1421  156.7442 H   0  0  0  0  0  0  0  0  0  0  0  0
  152.2113  144.3426  157.5526 H   0  0  0  0  0  0  0  0  0  0  0  0
  150.6130  144.1226  158.2206 H   0  0  0  0  0  0  0  0  0  0  0  0
  151.6841  145.3981  160.2445 H   0  0  0  0  0  0  0  0  0  0  0  0
  152.7061  144.9532  162.4919 H   0  0  0  0  0  0  0  0  0  0  0  0
  153.7590  142.7162  162.9104 H   0  0  0  0  0  0  0  0  0  0  0  0
  152.8566  141.3992  159.1001 H   0  0  0  0  0  0  0  0  0  0  0  0
  148.9304  142.6386  154.0589 H   0  0  0  0  0  0  0  0  0  0  0  0
  147.6023  141.5847  156.4855 H   0  0  0  0  0  0  0  0  0  0  0  0
  147.0693  142.8028  155.3401 H   0  0  0  0  0  0  0  0  0  0  0  0
  145.5102  140.9462  154.9085 H   0  0  0  0  0  0  0  0  0  0  0  0
  147.2176  139.2265  156.1462 H   0  0  0  0  0  0  0  0  0  0  0  0
  146.2898  138.6098  154.7789 H   0  0  0  0  0  0  0  0  0  0  0  0
  149.1792  138.8883  154.8345 H   0  0  0  0  0  0  0  0  0  0  0  0
  148.1743  138.4289  153.4767 H   0  0  0  0  0  0  0  0  0  0  0  0
  149.1184  140.5835  152.7101 H   0  0  0  0  0  0  0  0  0  0  0  0
  146.5322  140.1705  152.6128 H   0  0  0  0  0  0  0  0  0  0  0  0
  146.8565  141.9008  152.8595 H   0  0  0  0  0  0  0  0  0  0  0  0
  1  2  2  0  0  0  0
  2  3  1  0  0  0  0
  2 12  1  0  0  0  0
  3  4  1  0  0  0  0
  3 19  1  0  0  0  0
  4  5  1  0  0  0  0
  4 20  1  0  0  0  0
  4 21  1  0  0  0  0
  5  6  1  0  0  0  0
  5 22  1  0  0  0  0
  5 23  1  0  0  0  0
  6 11  1  0  0  0  0
  6  7  2  0  0  0  0
  7  8  1  0  0  0  0
  7 24  1  0  0  0  0
  8  9  2  0  0  0  0
  8 25  1  0  0  0  0
  9 10  1  0  0  0  0
  9 26  1  0  0  0  0
 10 11  2  0  0  0  0
 11 27  1  0  0  0  0
 12 17  1  0  0  0  0
 12 13  1  0  0  0  0
 12 28  1  0  0  0  0
 13 14  1  0  0  0  0
 13 29  1  0  0  0  0
 13 30  1  0  0  0  0
 14 18  1  0  0  0  0
 14 15  1  0  0  0  0
 14 31  1  0  0  0  0
 15 16  1  0  0  0  0
 15 32  1  0  0  0  0
 15 33  1  0  0  0  0
 16 17  1  0  0  0  0
 16 34  1  0  0  0  0
 16 35  1  0  0  0  0
 17 18  1  0  0  0  0
 17 36  1  0  0  0  0
 18 37  1  0  0  0  0
 18 38  1  0  0  0  0
M  END
> <s_m_source_file>
AV-unprocessed.smi

> <i_m_source_file_index>
3058

> <i_lp_mmshare_version>
43012

> <i_f3d_flags>
0

> <s_epik_input>
W0NIMl0xW0NIMl1bQ0BIXShbQ0gyXTIpW0NAQEhdKFtDSDJdW0NAQEhdMTIpQyg9TylbTkhdW0NIMl1bQ0gyXWMzW2NIXVtjSF1bY0hdbltjSF0z

> <s_epik_cmdline>
J2VwaWtfcHl0aG9uJywgJy1waCcsICc3LjAnLCAnLXRuJywgJzgnLCAnLW1hJywgJzIwMCcsICctbWV0YWxfYmluZGluZycsICctaW1hZScsICc8aW5maWxlLm1hZT4nLCAnLW9tYWUnLCAnPG91dGZpbGUubWFlPic=

> <r_epik_Ionization_Penalty>
0.0135821

> <r_epik_Ionization_Penalty_Charging>
0

> <r_epik_Ionization_Penalty_Neutral>
0.0135821

> <r_epik_State_Penalty>
0.0105782

> <r_epik_Charging_Adjusted_Penalty>
0.0105782

> <i_epik_Tot_Q>
0

> <i_epik_Tot_abs_Q>
0

> <r_epik_Metal_State_Penalty>
0.0103407

> <b_epik_Metal_Only>
0

> <s_lp_Force_Field>
OPLS_2005

> <r_lp_Energy>
46.6846

> <b_lp_Chiralities_Consistent>
1

> <s_lp_Variant>
AV-unprocessed.smi:3058-3

> <Gold.Version>
5.8.1

> <Gold.Id.Protein>
6NUR|6NUR_protein|mol2

> <Gold.PLP.Fitness>
45.6758

> <Gold.PLP.PLP>
-40.6913

> <Gold.PLP.part.hbond>
-2.0000

> <Gold.PLP.part.metal>
0.0000

> <Gold.PLP.part.buried>
-1.0959

> <Gold.PLP.part.nonpolar>
-36.2829

> <Gold.PLP.part.repulsive>
0.1343

> <Gold.PLP.ligand.clash>
0.0000

> <Gold.PLP.ligand.torsion>
0.4145

> <Gold.PLP.Chemscore.Hbond>
1.9280

> <Gold.PLP.Chemscore.CHOScore>
0.0000

> <Gold.PLP.Chemscore.Metal>
0.0000

> <Gold.Chemscore.Hbonds>
donor molecule, donor type, donor heavy atom, donor atom, acceptor molecule, acceptor atom, score
      L1  H     3    19       P1  8028  0.94
      P1  H  7989  7998       L1     1  1.00

> <Gold.PLP.Chemscore.Internal.Correction>
0.0296

> <Gold.Rescore>
     Score         DG    S(hbond)    S(metal)    S(lipo)     H(rot)  DE(clash)    DE(int)     intcor
     17.67     -20.77       1.46        0.00     118.82       1.37       1.47       1.62       ----

> <Gold.Chemscore.Fitness>
17.6698

> <Gold.Chemscore.DG>
-20.7657

> <Gold.Chemscore.ZeroCoef>
-5.4800

> <Gold.Chemscore.Hbond>
1.4609

> <Gold.Chemscore.Metal>
0.0000

> <Gold.Chemscore.Lipo>
118.8167

> <Gold.Chemscore.Internal_Hbond>
0.0000

> <Gold.Chemscore.DEClash>
1.4728

> <Gold.Chemscore.DEInternal>
1.6232

> <Gold.Chemscore.Rot>
1.3653

> <Gold.Chemscore.Internal.Correction>
   9.000000E+99

> <Gold.Chemscore.Hbonds>
donor molecule, donor type, donor heavy atom, donor atom, acceptor molecule, acceptor atom, score
      L1  H     3    19       P1  8028  0.90
      P1  H  7989  7998       L1     1  0.36

> <Gold.Chemscore.Hbond.Weighted>
-4.8793

> <Gold.Chemscore.Metal.Weighted>
-0.0000

> <Gold.Chemscore.Lipo.Weighted>
-13.9016

> <Gold.Chemscore.Internal_Hbond.Weighted>
0.0000

> <Gold.Chemscore.DEClash.Weighted>
1.4728

> <Gold.Chemscore.DEInternal.Weighted>
1.6232

> <Gold.Chemscore.Rot.Weighted>
3.4951

> <Gold.Chemscore.Internal.Correction.Weighted>
   9.000000E+99

> <Gold.Protein.RotatedTorsions>
[ 6907 6896 6895 6894 ] final  169.66 input  -60.11 | X-H torsion
[ 7974 7965 7964 7962 ] final -115.67 input  175.53 | X-H torsion
[ 8008 7997 7996 7995 ] final -157.85 input   59.86 | X-H torsion
[ 10167 10162 10161 10158 ] final   59.90 input  -65.29 | X-H torsion
[ 10718 10713 10712 10709 ] final    2.30 input   66.30 | X-H torsion
[ 10763 10752 10751 10750 ] final  -50.18 input  -60.55 | X-H torsion
[ 11005 11000 10999 10996 ] final  -63.72 input  -57.11 | X-H torsion

> <Gold.Protein.ActiveResidues>
 VAL166  LYS551  ARG553  GLY616  TRP617  ASP618  TYR619  PRO620  LYS621  CYS622 
 ASP623  PHE694  ASN695  SER759  ASP760  ASP761  ALA762  ILE779  LEU786  VAL792 
 PHE793  MET794  SER795  GLU796  ALA797  LYS798  CYS799  TRP800  GLU811  SER814 

> <Gold.Protein.RotatedAtoms>
  151.8284  133.3405  159.3605 H   0  0  0  0  0  0  0  0  0  0  0  0  # atno 6907 bound_to 6896
  150.7272  134.5506  159.5802 H   0  0  0  0  0  0  0  0  0  0  0  0  # atno 6908 bound_to 6896
  152.2954  134.7674  160.0420 H   0  0  0  0  0  0  0  0  0  0  0  0  # atno 6909 bound_to 6896
  145.1057  140.8580  143.3899 H   0  0  0  0  0  0  0  0  0  0  0  0  # atno 7974 bound_to 7965
  155.7387  140.0811  157.2256 H   0  0  0  0  0  0  0  0  0  0  0  0  # atno 8008 bound_to 7997
  154.4024  140.1582  156.2646 H   0  0  0  0  0  0  0  0  0  0  0  0  # atno 8009 bound_to 7997
  155.9041  140.3408  155.6051 H   0  0  0  0  0  0  0  0  0  0  0  0  # atno 8010 bound_to 7997
  140.1714  144.4273  150.6659 H   0  0  0  0  0  0  0  0  0  0  0  0  # atno 10167 bound_to 10162
  156.8610  130.5587  149.5663 H   0  0  0  0  0  0  0  0  0  0  0  0  # atno 10718 bound_to 10713
  154.1062  135.6556  153.4877 H   0  0  0  0  0  0  0  0  0  0  0  0  # atno 10763 bound_to 10752
  153.0272  135.5237  154.7237 H   0  0  0  0  0  0  0  0  0  0  0  0  # atno 10764 bound_to 10752
  154.6404  135.2987  155.0080 H   0  0  0  0  0  0  0  0  0  0  0  0  # atno 10765 bound_to 10752
  141.1402  133.6656  156.5724 H   0  0  0  0  0  0  0  0  0  0  0  0  # atno 11005 bound_to 11000
  145.0904  139.2894  143.5738 LP  0  0  0  0  0  0  0  0  0  0  0  0  # atno 17320 bound_to 7965
  146.3528  140.0439  142.8641 LP  0  0  0  0  0  0  0  0  0  0  0  0  # atno 17321 bound_to 7965
  140.6580  143.2243  151.5924 LP  0  0  0  0  0  0  0  0  0  0  0  0  # atno 17342 bound_to 10162
  139.5336  144.2844  152.1203 LP  0  0  0  0  0  0  0  0  0  0  0  0  # atno 17343 bound_to 10162
  156.0777  130.5795  150.9504 LP  0  0  0  0  0  0  0  0  0  0  0  0  # atno 17370 bound_to 10713
  157.6250  131.0926  150.8551 LP  0  0  0  0  0  0  0  0  0  0  0  0  # atno 17371 bound_to 10713
  140.3902  134.7446  157.4717 LP  0  0  0  0  0  0  0  0  0  0  0  0  # atno 17394 bound_to 11000
  140.0571  134.6047  155.8792 LP  0  0  0  0  0  0  0  0  0  0  0  0  # atno 17395 bound_to 11000

$$$$
