#       Name:                AV-unprocessed.smi:384
#       Creating user name   scv26
#       Creation time:       Thu Mar 26 22:40:55 2020


#       File generated by GOLD software.
#

@<TRIPOS>MOLECULE
AV-unprocessed.smi:384
    40    41     1
SMALL
NO_CHARGES


@<TRIPOS>ATOM
      1 ****        -2.9572  -1.6767  -1.9119 C.3            1 S1                 0.0000
      2 ****        -2.3335  -0.9637  -0.7075 C.3            1 S1                 0.0000
      3 ****        -0.7947  -0.9495  -0.7762 C.3            1 S1                 0.0000
      4 ****        -0.2520  -0.1813   0.3365 N.3            1 S1                 0.0000
      5 ****         1.1476  -0.2222   0.4089 C.ar           1 S1                 0.0000
      6 ****         1.7569  -0.8606   1.5082 C.ar           1 S1                 0.0000
      7 ****         3.1631  -0.8998   1.5748 C.ar           1 S1                 0.0000
      8 ****         3.9185  -0.3015   0.5418 C.ar           1 S1                 0.0000
      9 ****         5.4211  -0.3176   0.5673 C.2            1 S1                 0.0000
     10 ****         6.0465   0.2245  -0.3709 O.co2          1 S1                 0.0000
     11 ****         6.0012  -0.8731   1.5266 O.co2          1 S1                -1.0000
     12 ****         3.2096   0.3124  -0.5161 C.ar           1 S1                 0.0000
     13 ****         1.8613   0.3545  -0.5866 N.ar           1 S1                 0.0000
     14 ****        -0.7983   1.1683   0.3975 C.3            1 S1                 0.0000
     15 ****        -2.3368   1.1126   0.4455 C.3            1 S1                 0.0000
     16 ****        -2.9653   2.5097   0.4145 C.3            1 S1                 0.0000
     17 ****        -2.8112   0.3802  -0.6829 O.3            1 S1                 0.0000
     18 ****        -2.6285  -2.7147  -1.9664 H              1 S1                 0.0000
     19 ****        -2.6813  -1.1882  -2.8469 H              1 S1                 0.0000
     20 ****        -4.0453  -1.6764  -1.8442 H              1 S1                 0.0000
     21 ****        -2.6558  -1.4735   0.2022 H              1 S1                 0.0000
     22 ****        -0.4066  -1.9684  -0.7423 H              1 S1                 0.0000
     23 ****        -0.4678  -0.5105  -1.7202 H              1 S1                 0.0000
     24 ****         1.1612  -1.3125   2.2877 H              1 S1                 0.0000
     25 ****         3.6443  -1.3853   2.4115 H              1 S1                 0.0000
     26 ****         3.7285   0.7871  -1.3360 H              1 S1                 0.0000
     27 ****        -0.4119   1.6804   1.2796 H              1 S1                 0.0000
     28 ****        -0.4734   1.7372  -0.4750 H              1 S1                 0.0000
     29 ****        -2.6580   0.6085   1.3587 H              1 S1                 0.0000
     30 ****        -2.6394   3.1052   1.2676 H              1 S1                 0.0000
     31 ****        -4.0532   2.4484   0.4492 H              1 S1                 0.0000
     32 ****        -2.6905   3.0468  -0.4937 H              1 S1                 0.0000
     33 ****        -0.5634  -0.6403   1.1685 LP             1 S1                 0.0000
     34 ****         7.0465   0.2238  -0.3715 LP             1 S1                 0.0000
     35 ****         5.5464   0.6585  -1.1203 LP             1 S1                 0.0000
     36 ****         7.0004  -0.8946   1.5620 LP             1 S1                 0.0000
     37 ****         5.4657  -1.2956   2.2578 LP             1 S1                 0.0000
     38 ****         1.4019   0.8004  -1.3548 LP             1 S1                 0.0000
     39 ****        -3.8107   0.3640  -0.6566 LP             1 S1                 0.0000
     40 ****        -2.5071   0.8431  -1.5156 LP             1 S1                 0.0000
@<TRIPOS>BOND
    1    1    2 1     
    2    1   18 1     
    3    1   19 1     
    4    1   20 1     
    5    2   17 1     
    6    2    3 1     
    7    2   21 1     
    8    3    4 1     
    9    3   22 1     
   10    3   23 1     
   11    4    5 1     
   12    4   14 1     
   13    5   13 ar    
   14    5    6 ar    
   15    6    7 ar    
   16    6   24 1     
   17    7    8 ar    
   18    7   25 1     
   19    8    9 1     
   20    8   12 ar    
   21    9   10 ar    
   22    9   11 ar    
   23   12   13 ar    
   24   12   26 1     
   25   14   15 1     
   26   14   27 1     
   27   14   28 1     
   28   15   16 1     
   29   15   17 1     
   30   15   29 1     
   31   16   30 1     
   32   16   31 1     
   33   16   32 1     
   34    4   33 1     
   35   10   34 1     
   36   10   35 1     
   37   11   36 1     
   38   11   37 1     
   39   13   38 1     
   40   17   39 1     
   41   17   40 1     
@<TRIPOS>SUBSTRUCTURE
      1 S1             1
@<TRIPOS>SET
LONE_PAIRS      STATIC     ATOMS    <user>   **** ""
8 33 34 35 36 37 38 39 40
ATOM$BLUE        STATIC     ATOMS    COLORGROUP SYSTEM
8 33 34 35 36 37 38 39 40
