AV-unprocessed.smi:3099|AV-procd|sdf|11802|dock8
  -GOLD-   2272017173D 1   1.00000     0.00000
 Structure written by MMmdl.
 33 34  0  0  0  0  0  0  0  0  2 V2000
  153.0493  138.6793  155.2854 C   0  0  0  0  0  0  0  0  0  0  0  0
  151.6856  138.7485  154.7558 N   0  0  0  0  0  0  0  0  0  0  0  0
  151.2191  137.8561  153.8734 C   0  0  0  0  0  0  0  0  0  0  0  0
  149.9591  138.2028  153.6026 N   0  3  0  0  0  0  0  0  0  0  0  0
  149.6176  139.3203  154.3133 C   0  0  0  0  0  0  0  0  0  0  0  0
  150.7174  139.6797  155.0561 C   0  0  0  0  0  0  0  0  0  0  0  0
  150.9502  140.8080  156.0147 C   0  0  0  0  0  0  0  0  0  0  0  0
  150.8264  140.3767  157.4871 C   0  0  0  0  0  0  0  0  0  0  0  0
  151.3563  141.3925  158.3891 N   0  0  0  0  0  0  0  0  0  0  0  0
  152.5991  141.3993  158.8948 C   0  0  0  0  0  0  0  0  0  0  0  0
  153.4340  140.5305  158.6406 O   0  0  0  0  0  0  0  0  0  0  0  0
  152.9440  142.5664  159.8247 C   0  0  0  0  0  0  0  0  0  0  0  0
  151.8110  143.5684  159.9732 C   0  0  0  0  0  0  0  0  0  0  0  0
  151.5678  144.6259  158.9189 C   0  0  0  0  0  0  0  0  0  0  0  0
  152.0928  145.0227  160.2763 C   0  0  0  0  0  0  0  0  0  0  0  0
  153.5907  137.8509  154.8264 H   0  0  0  0  0  0  0  0  0  0  0  0
  153.0054  138.5293  156.3644 H   0  0  0  0  0  0  0  0  0  0  0  0
  153.5667  139.6137  155.0661 H   0  0  0  0  0  0  0  0  0  0  0  0
  151.7533  137.0194  153.4594 H   0  0  0  0  0  0  0  0  0  0  0  0
  148.6377  139.7690  154.2392 H   0  0  0  0  0  0  0  0  0  0  0  0
  151.9425  141.2223  155.8328 H   0  0  0  0  0  0  0  0  0  0  0  0
  150.2325  141.5995  155.7952 H   0  0  0  0  0  0  0  0  0  0  0  0
  149.7862  140.1644  157.7406 H   0  0  0  0  0  0  0  0  0  0  0  0
  151.3844  139.4553  157.6552 H   0  0  0  0  0  0  0  0  0  0  0  0
  150.7356  142.1464  158.6465 H   0  0  0  0  0  0  0  0  0  0  0  0
  153.2045  142.1763  160.8089 H   0  0  0  0  0  0  0  0  0  0  0  0
  153.8273  143.0806  159.4421 H   0  0  0  0  0  0  0  0  0  0  0  0
  150.9179  143.1519  160.4364 H   0  0  0  0  0  0  0  0  0  0  0  0
  152.2589  144.6732  158.0797 H   0  0  0  0  0  0  0  0  0  0  0  0
  150.5342  144.8733  158.6861 H   0  0  0  0  0  0  0  0  0  0  0  0
  151.4089  145.5354  160.9496 H   0  0  0  0  0  0  0  0  0  0  0  0
  153.1322  145.3391  160.3386 H   0  0  0  0  0  0  0  0  0  0  0  0
  149.3484  137.7093  152.9636 H   0  0  0  0  0  0  0  0  0  0  0  0
  1  2  1  0  0  0  0
  1 16  1  0  0  0  0
  1 17  1  0  0  0  0
  1 18  1  0  0  0  0
  2  6  1  0  0  0  0
  2  3  1  0  0  0  0
  3  4  2  0  0  0  0
  3 19  1  0  0  0  0
  4  5  1  0  0  0  0
  4 33  1  0  0  0  0
  5  6  2  0  0  0  0
  5 20  1  0  0  0  0
  6  7  1  0  0  0  0
  7  8  1  0  0  0  0
  7 21  1  0  0  0  0
  7 22  1  0  0  0  0
  8  9  1  0  0  0  0
  8 23  1  0  0  0  0
  8 24  1  0  0  0  0
  9 10  1  0  0  0  0
  9 25  1  0  0  0  0
 10 11  2  0  0  0  0
 10 12  1  0  0  0  0
 12 13  1  0  0  0  0
 12 26  1  0  0  0  0
 12 27  1  0  0  0  0
 13 15  1  0  0  0  0
 13 14  1  0  0  0  0
 13 28  1  0  0  0  0
 14 15  1  0  0  0  0
 14 29  1  0  0  0  0
 14 30  1  0  0  0  0
 15 31  1  0  0  0  0
 15 32  1  0  0  0  0
M  CHG  1   4   1
M  END
> <s_m_source_file>
AV-unprocessed.smi

> <i_m_source_file_index>
3099

> <i_lp_mmshare_version>
43012

> <i_f3d_flags>
0

> <s_epik_input>
W0NIM11uMVtjSF1uW2NIXWMxW0NIMl1bQ0gyXVtOSF1DKD1PKVtDSDJdW0NIXTJbQ0gyXVtDSDJdMg==

> <s_epik_cmdline>
J2VwaWtfcHl0aG9uJywgJy1waCcsICc3LjAnLCAnLXRuJywgJzgnLCAnLW1hJywgJzIwMCcsICctbWV0YWxfYmluZGluZycsICctaW1hZScsICc8aW5maWxlLm1hZT4nLCAnLW9tYWUnLCAnPG91dGZpbGUubWFlPic=

> <r_lp_tautomer_probability>
1

> <r_epik_Ionization_Penalty>
0.156092

> <r_epik_Ionization_Penalty_Charging>
0

> <r_epik_Ionization_Penalty_Neutral>
0.156092

> <r_epik_State_Penalty>
0.145389

> <r_epik_Charging_Adjusted_Penalty>
0.145389

> <i_epik_Tot_Q>
1

> <i_epik_Tot_abs_Q>
1

> <r_epik_Metal_State_Penalty>
0.466304

> <b_epik_Metal_Only>
0

> <s_lp_Force_Field>
OPLS_2005

> <r_lp_Energy>
10.1208

> <b_lp_Chiralities_Consistent>
1

> <s_lp_Variant>
AV-unprocessed.smi:3099-1

> <Gold.Version>
5.8.1

> <Gold.Id.Protein>
6NUR|6NUR_protein|mol2

> <Gold.PLP.Fitness>
45.7546

> <Gold.PLP.PLP>
-36.7394

> <Gold.PLP.part.hbond>
-3.0659

> <Gold.PLP.part.metal>
0.0000

> <Gold.PLP.part.buried>
0.6221

> <Gold.PLP.part.nonpolar>
-33.6299

> <Gold.PLP.part.repulsive>
0.1653

> <Gold.PLP.ligand.clash>
0.7392

> <Gold.PLP.ligand.torsion>
0.7710

> <Gold.PLP.Chemscore.Hbond>
2.7410

> <Gold.PLP.Chemscore.CHOScore>
0.8449

> <Gold.PLP.Chemscore.Metal>
0.0000

> <Gold.Chemscore.Hbonds>
donor molecule, donor type, donor heavy atom, donor atom, acceptor molecule, acceptor atom, score
      L1  H     4    33       P1  7948  2.00
      P1  H  7997  8008       L1    11  0.77
      L1  C     3    19       P1  7949  0.88

> <Gold.PLP.Chemscore.Internal.Correction>
0.5388

> <Gold.Rescore>
     Score         DG    S(hbond)    S(metal)    S(lipo)     H(rot)  DE(clash)    DE(int)     intcor
     14.22     -15.71       1.71        0.00      82.29       1.99       0.66       0.84       ----

> <Gold.Chemscore.Fitness>
14.2175

> <Gold.Chemscore.DG>
-15.7080

> <Gold.Chemscore.ZeroCoef>
-5.4800

> <Gold.Chemscore.Hbond>
1.7054

> <Gold.Chemscore.Metal>
0.0000

> <Gold.Chemscore.Lipo>
82.2868

> <Gold.Chemscore.Internal_Hbond>
0.0000

> <Gold.Chemscore.DEClash>
0.6552

> <Gold.Chemscore.DEInternal>
0.8352

> <Gold.Chemscore.Rot>
1.9905

> <Gold.Chemscore.Internal.Correction>
   9.000000E+99

> <Gold.Chemscore.Hbonds>
donor molecule, donor type, donor heavy atom, donor atom, acceptor molecule, acceptor atom, score
      L1  H     4    33       P1  7948  0.89
      P1  H  7997  8008       L1    11  0.73

> <Gold.Chemscore.Hbond.Weighted>
-5.6961

> <Gold.Chemscore.Metal.Weighted>
-0.0000

> <Gold.Chemscore.Lipo.Weighted>
-9.6276

> <Gold.Chemscore.Internal_Hbond.Weighted>
0.0000

> <Gold.Chemscore.DEClash.Weighted>
0.6552

> <Gold.Chemscore.DEInternal.Weighted>
0.8352

> <Gold.Chemscore.Rot.Weighted>
5.0957

> <Gold.Chemscore.Internal.Correction.Weighted>
   9.000000E+99

> <Gold.Protein.RotatedTorsions>
[ 6907 6896 6895 6894 ] final -178.27 input  -60.11 | X-H torsion
[ 7974 7965 7964 7962 ] final  -38.96 input  175.53 | X-H torsion
[ 8008 7997 7996 7995 ] final  -93.66 input   59.86 | X-H torsion
[ 10167 10162 10161 10158 ] final   77.49 input  -65.29 | X-H torsion
[ 10718 10713 10712 10709 ] final -132.25 input   66.30 | X-H torsion
[ 10763 10752 10751 10750 ] final  159.26 input  -60.55 | X-H torsion
[ 11005 11000 10999 10996 ] final -108.02 input  -57.11 | X-H torsion

> <Gold.Protein.ActiveResidues>
 VAL166  LYS551  ARG553  GLY616  TRP617  ASP618  TYR619  PRO620  LYS621  CYS622 
 ASP623  PHE694  ASN695  SER759  ASP760  ASP761  ALA762  ILE779  LEU786  VAL792 
 PHE793  MET794  SER795  GLU796  ALA797  LYS798  CYS799  TRP800  GLU811  SER814 

> <Gold.Protein.RotatedAtoms>
  151.6345  133.3330  159.3116 H   0  0  0  0  0  0  0  0  0  0  0  0  # atno 6907 bound_to 6896
  150.8039  134.7155  159.6638 H   0  0  0  0  0  0  0  0  0  0  0  0  # atno 6908 bound_to 6896
  152.4133  134.6090  160.0072 H   0  0  0  0  0  0  0  0  0  0  0  0  # atno 6909 bound_to 6896
  146.0440  140.6571  142.9074 H   0  0  0  0  0  0  0  0  0  0  0  0  # atno 7974 bound_to 7965
  154.7385  140.0496  157.0790 H   0  0  0  0  0  0  0  0  0  0  0  0  # atno 8008 bound_to 7997
  155.0209  140.3147  155.4775 H   0  0  0  0  0  0  0  0  0  0  0  0  # atno 8009 bound_to 7997
  156.2859  140.2167  156.5326 H   0  0  0  0  0  0  0  0  0  0  0  0  # atno 8010 bound_to 7997
  139.9810  144.5826  150.7901 H   0  0  0  0  0  0  0  0  0  0  0  0  # atno 10167 bound_to 10162
  156.2327  130.7047  151.0875 H   0  0  0  0  0  0  0  0  0  0  0  0  # atno 10718 bound_to 10713
  154.2290  135.2779  155.2897 H   0  0  0  0  0  0  0  0  0  0  0  0  # atno 10763 bound_to 10752
  154.5639  135.5639  153.7036 H   0  0  0  0  0  0  0  0  0  0  0  0  # atno 10764 bound_to 10752
  153.0024  135.6304  154.2432 H   0  0  0  0  0  0  0  0  0  0  0  0  # atno 10765 bound_to 10752
  141.0923  133.9032  157.2045 H   0  0  0  0  0  0  0  0  0  0  0  0  # atno 11005 bound_to 11000
  144.7088  140.3959  143.7097 LP  0  0  0  0  0  0  0  0  0  0  0  0  # atno 17320 bound_to 7965
  145.6837  139.1624  143.2686 LP  0  0  0  0  0  0  0  0  0  0  0  0  # atno 17321 bound_to 7965
  140.7489  143.2930  151.3280 LP  0  0  0  0  0  0  0  0  0  0  0  0  # atno 17342 bound_to 10162
  139.6410  144.0540  152.2554 LP  0  0  0  0  0  0  0  0  0  0  0  0  # atno 17343 bound_to 10162
  157.7140  131.0719  150.6395 LP  0  0  0  0  0  0  0  0  0  0  0  0  # atno 17370 bound_to 10713
  156.6464  130.4473  149.5734 LP  0  0  0  0  0  0  0  0  0  0  0  0  # atno 17371 bound_to 10713
  139.9752  135.0116  156.9613 LP  0  0  0  0  0  0  0  0  0  0  0  0  # atno 17394 bound_to 11000
  140.5222  134.0896  155.7295 LP  0  0  0  0  0  0  0  0  0  0  0  0  # atno 17395 bound_to 11000

$$$$
