AV-unprocessed.smi:2160|AV-procd|sdf|8797|dock2
  -GOLD-   2272011583D 1   1.00000     0.00000
 Structure written by MMmdl.
 43 45  0  0  0  0  0  0  0  0  1 V2000
  151.8162  145.2053  160.4558 C   0  0  0  0  0  0  0  0  0  0  0  0
  152.2621  143.8570  160.4635 O   0  0  0  0  0  0  0  0  0  0  0  0
  151.9818  143.0750  159.3635 C   0  0  0  0  0  0  0  0  0  0  0  0
  152.3856  141.7234  159.2230 C   0  0  0  0  0  0  0  0  0  0  0  0
  152.0556  140.9970  158.0621 C   0  0  0  0  0  0  0  0  0  0  0  0
  151.3137  141.6029  157.0284 C   0  0  0  0  0  0  0  0  0  0  0  0
  150.9806  140.8175  155.7734 C   0  0  0  0  0  0  0  0  0  0  0  0
  151.5696  139.5275  155.7785 O   0  0  0  0  0  0  0  0  0  0  0  0
  150.6855  138.5117  155.3353 C   0  0  0  0  0  0  0  0  0  0  0  0
  151.2268  137.1503  155.7939 C   0  0  2  0  0  0  0  0  0  0  0  0
  152.6378  137.2200  155.8543 O   0  0  0  0  0  0  0  0  0  0  0  0
  150.8009  136.0016  154.8589 C   0  0  0  0  0  0  0  0  0  0  0  0
  151.0135  134.6967  155.4576 N   0  0  0  0  0  0  0  0  0  0  0  0
  151.6801  134.4166  156.5940 C   0  0  0  0  0  0  0  0  0  0  0  0
  151.7518  133.1393  156.9592 N   0  0  0  0  0  0  0  0  0  0  0  0
  151.0491  132.5179  155.9408 C   0  0  0  0  0  0  0  0  0  0  0  0
  150.7539  131.1519  155.7293 C   0  0  0  0  0  0  0  0  0  0  0  0
  150.0102  130.7479  154.6006 C   0  0  0  0  0  0  0  0  0  0  0  0
  149.5511  131.7007  153.6679 C   0  0  0  0  0  0  0  0  0  0  0  0
  149.8326  133.0673  153.8573 C   0  0  0  0  0  0  0  0  0  0  0  0
  150.5747  133.4656  154.9846 C   0  0  0  0  0  0  0  0  0  0  0  0
  150.9178  142.9499  157.1592 C   0  0  0  0  0  0  0  0  0  0  0  0
  151.2482  143.6753  158.3199 C   0  0  0  0  0  0  0  0  0  0  0  0
  152.1145  145.6882  161.3862 H   0  0  0  0  0  0  0  0  0  0  0  0
  150.7292  145.2658  160.3875 H   0  0  0  0  0  0  0  0  0  0  0  0
  152.2624  145.7686  159.6351 H   0  0  0  0  0  0  0  0  0  0  0  0
  152.9519  141.2202  159.9918 H   0  0  0  0  0  0  0  0  0  0  0  0
  152.3750  139.9694  157.9691 H   0  0  0  0  0  0  0  0  0  0  0  0
  149.8953  140.7319  155.7019 H   0  0  0  0  0  0  0  0  0  0  0  0
  151.3238  141.3720  154.8983 H   0  0  0  0  0  0  0  0  0  0  0  0
  149.6814  138.6768  155.7300 H   0  0  0  0  0  0  0  0  0  0  0  0
  150.6209  138.5425  154.2462 H   0  0  0  0  0  0  0  0  0  0  0  0
  150.8662  136.9517  156.8042 H   0  0  0  0  0  0  0  0  0  0  0  0
  152.8808  138.0245  156.2863 H   0  0  0  0  0  0  0  0  0  0  0  0
  149.7421  136.0883  154.6114 H   0  0  0  0  0  0  0  0  0  0  0  0
  151.3454  136.0501  153.9147 H   0  0  0  0  0  0  0  0  0  0  0  0
  152.1370  135.1949  157.1877 H   0  0  0  0  0  0  0  0  0  0  0  0
  151.1000  130.4135  156.4369 H   0  0  0  0  0  0  0  0  0  0  0  0
  149.7908  129.7011  154.4500 H   0  0  0  0  0  0  0  0  0  0  0  0
  148.9821  131.3823  152.8066 H   0  0  0  0  0  0  0  0  0  0  0  0
  149.4826  133.8012  153.1467 H   0  0  0  0  0  0  0  0  0  0  0  0
  150.3594  143.4343  156.3717 H   0  0  0  0  0  0  0  0  0  0  0  0
  150.9364  144.7057  158.4092 H   0  0  0  0  0  0  0  0  0  0  0  0
  1  2  1  0  0  0  0
  1 24  1  0  0  0  0
  1 25  1  0  0  0  0
  1 26  1  0  0  0  0
  2  3  1  0  0  0  0
  3 23  1  0  0  0  0
  3  4  2  0  0  0  0
  4  5  1  0  0  0  0
  4 27  1  0  0  0  0
  5  6  2  0  0  0  0
  5 28  1  0  0  0  0
  6  7  1  0  0  0  0
  6 22  1  0  0  0  0
  7  8  1  0  0  0  0
  7 29  1  0  0  0  0
  7 30  1  0  0  0  0
  8  9  1  0  0  0  0
  9 10  1  0  0  0  0
  9 31  1  0  0  0  0
  9 32  1  0  0  0  0
 10 11  1  0  0  0  0
 10 12  1  0  0  0  0
 10 33  1  0  0  0  0
 11 34  1  0  0  0  0
 12 13  1  0  0  0  0
 12 35  1  0  0  0  0
 12 36  1  0  0  0  0
 13 21  1  0  0  0  0
 13 14  1  0  0  0  0
 14 15  2  0  0  0  0
 14 37  1  0  0  0  0
 15 16  1  0  0  0  0
 16 21  2  0  0  0  0
 16 17  1  0  0  0  0
 17 18  2  0  0  0  0
 17 38  1  0  0  0  0
 18 19  1  0  0  0  0
 18 39  1  0  0  0  0
 19 20  2  0  0  0  0
 19 40  1  0  0  0  0
 20 21  1  0  0  0  0
 20 41  1  0  0  0  0
 22 23  2  0  0  0  0
 22 42  1  0  0  0  0
 23 43  1  0  0  0  0
M  END
> <s_m_source_file>
AV-unprocessed.smi

> <i_m_source_file_index>
2160

> <i_lp_mmshare_version>
43012

> <i_f3d_flags>
0

> <s_epik_input>
W0NIM11PYzFbY0hdW2NIXWMoW2NIXVtjSF0xKVtDSDJdT1tDSDJdW0NASF0oW09IXSlbQ0gyXW4oW2NIXW4yKWMoYzIzKVtjSF1bY0hdW2NIXVtjSF0z

> <s_epik_cmdline>
J2VwaWtfcHl0aG9uJywgJy1waCcsICc3LjAnLCAnLXRuJywgJzgnLCAnLW1hJywgJzIwMCcsICctbWV0YWxfYmluZGluZycsICctaW1hZScsICc8aW5maWxlLm1hZT4nLCAnLW9tYWUnLCAnPG91dGZpbGUubWFlPic=

> <r_lp_tautomer_probability>
1

> <r_epik_Ionization_Penalty>
0.0713119

> <r_epik_Ionization_Penalty_Charging>
0

> <r_epik_Ionization_Penalty_Neutral>
0.0713119

> <r_epik_State_Penalty>
0.06259

> <r_epik_Charging_Adjusted_Penalty>
0.06259

> <i_epik_Tot_Q>
0

> <i_epik_Tot_abs_Q>
0

> <r_epik_Metal_State_Penalty>
6.60119e-05

> <b_epik_Metal_Only>
0

> <s_lp_Force_Field>
OPLS_2005

> <r_lp_Energy>
16.653

> <b_lp_Chiralities_Consistent>
1

> <s_lp_Variant>
AV-unprocessed.smi:2160-1

> <Gold.Version>
5.8.1

> <Gold.Id.Protein>
6NUR|6NUR_protein|mol2

> <Gold.PLP.Fitness>
44.3526

> <Gold.PLP.PLP>
-43.8411

> <Gold.PLP.part.hbond>
-2.0000

> <Gold.PLP.part.metal>
0.0000

> <Gold.PLP.part.buried>
-4.3716

> <Gold.PLP.part.nonpolar>
-38.6279

> <Gold.PLP.part.repulsive>
0.0630

> <Gold.PLP.ligand.clash>
2.2269

> <Gold.PLP.ligand.torsion>
0.9497

> <Gold.PLP.Chemscore.Hbond>
1.5080

> <Gold.PLP.Chemscore.CHOScore>
0.0000

> <Gold.PLP.Chemscore.Metal>
0.0000

> <Gold.Chemscore.Hbonds>
donor molecule, donor type, donor heavy atom, donor atom, acceptor molecule, acceptor atom, score
      P1  H  6896  6907       L1    15  0.23
      P1  H 10752 10765       L1    11  0.65

> <Gold.PLP.Chemscore.Internal.Correction>
0.1139

> <Gold.Rescore>
     Score         DG    S(hbond)    S(metal)    S(lipo)     H(rot)  DE(clash)    DE(int)     intcor
     14.78     -15.75       0.88        0.00     120.30       2.63       0.07       0.90       ----

> <Gold.Chemscore.Fitness>
14.7767

> <Gold.Chemscore.DG>
-15.7463

> <Gold.Chemscore.ZeroCoef>
-5.4800

> <Gold.Chemscore.Hbond>
0.8761

> <Gold.Chemscore.Metal>
0.0000

> <Gold.Chemscore.Lipo>
120.2968

> <Gold.Chemscore.Internal_Hbond>
0.0000

> <Gold.Chemscore.DEClash>
0.0657

> <Gold.Chemscore.DEInternal>
0.9039

> <Gold.Chemscore.Rot>
2.6308

> <Gold.Chemscore.Internal.Correction>
   9.000000E+99

> <Gold.Chemscore.Hbonds>
donor molecule, donor type, donor heavy atom, donor atom, acceptor molecule, acceptor atom, score
      P1  H  6896  6907       L1    15  0.05
      P1  H 10752 10765       L1    11  0.14

> <Gold.Chemscore.Hbond.Weighted>
-2.9263

> <Gold.Chemscore.Metal.Weighted>
-0.0000

> <Gold.Chemscore.Lipo.Weighted>
-14.0747

> <Gold.Chemscore.Internal_Hbond.Weighted>
0.0000

> <Gold.Chemscore.DEClash.Weighted>
0.0657

> <Gold.Chemscore.DEInternal.Weighted>
0.9039

> <Gold.Chemscore.Rot.Weighted>
6.7347

> <Gold.Chemscore.Internal.Correction.Weighted>
   9.000000E+99

> <Gold.Protein.RotatedTorsions>
[ 6907 6896 6895 6894 ] final -158.04 input  -60.11 | X-H torsion
[ 7974 7965 7964 7962 ] final  -64.87 input  175.53 | X-H torsion
[ 8008 7997 7996 7995 ] final  174.00 input   59.86 | X-H torsion
[ 10167 10162 10161 10158 ] final   93.50 input  -65.29 | X-H torsion
[ 10718 10713 10712 10709 ] final   32.54 input   66.30 | X-H torsion
[ 10763 10752 10751 10750 ] final -163.26 input  -60.55 | X-H torsion
[ 11005 11000 10999 10996 ] final  105.16 input  -57.11 | X-H torsion

> <Gold.Protein.ActiveResidues>
 VAL166  LYS551  ARG553  GLY616  TRP617  ASP618  TYR619  PRO620  LYS621  CYS622 
 ASP623  PHE694  ASN695  SER759  ASP760  ASP761  ALA762  ILE779  LEU786  VAL792 
 PHE793  MET794  SER795  GLU796  ALA797  LYS798  CYS799  TRP800  GLU811  SER814 

> <Gold.Protein.RotatedAtoms>
  151.3120  133.4076  159.2647 H   0  0  0  0  0  0  0  0  0  0  0  0  # atno 6907 bound_to 6896
  151.0106  134.9394  159.8015 H   0  0  0  0  0  0  0  0  0  0  0  0  # atno 6908 bound_to 6896
  152.5299  134.3085  159.9157 H   0  0  0  0  0  0  0  0  0  0  0  0  # atno 6909 bound_to 6896
  145.7613  140.8860  143.0428 H   0  0  0  0  0  0  0  0  0  0  0  0  # atno 7974 bound_to 7965
  156.1019  140.1446  156.9456 H   0  0  0  0  0  0  0  0  0  0  0  0  # atno 8008 bound_to 7997
  154.4708  140.0910  156.7184 H   0  0  0  0  0  0  0  0  0  0  0  0  # atno 8009 bound_to 7997
  155.4745  140.3443  155.4333 H   0  0  0  0  0  0  0  0  0  0  0  0  # atno 8010 bound_to 7997
  139.8174  144.6747  150.9563 H   0  0  0  0  0  0  0  0  0  0  0  0  # atno 10167 bound_to 10162
  157.2865  130.7281  149.6586 H   0  0  0  0  0  0  0  0  0  0  0  0  # atno 10718 bound_to 10713
  154.7139  135.3011  154.9155 H   0  0  0  0  0  0  0  0  0  0  0  0  # atno 10763 bound_to 10752
  154.0048  135.6702  153.4765 H   0  0  0  0  0  0  0  0  0  0  0  0  # atno 10764 bound_to 10752
  153.0777  135.5026  154.8353 H   0  0  0  0  0  0  0  0  0  0  0  0  # atno 10765 bound_to 10752
  139.8799  134.9326  156.5472 H   0  0  0  0  0  0  0  0  0  0  0  0  # atno 11005 bound_to 11000
  144.6830  139.9727  143.7482 LP  0  0  0  0  0  0  0  0  0  0  0  0  # atno 17320 bound_to 7965
  146.0261  139.3293  143.0783 LP  0  0  0  0  0  0  0  0  0  0  0  0  # atno 17321 bound_to 7965
  140.7815  143.4125  151.0969 LP  0  0  0  0  0  0  0  0  0  0  0  0  # atno 17342 bound_to 10162
  139.7788  143.8385  152.3134 LP  0  0  0  0  0  0  0  0  0  0  0  0  # atno 17343 bound_to 10162
  155.9665  130.4322  150.4953 LP  0  0  0  0  0  0  0  0  0  0  0  0  # atno 17370 bound_to 10713
  157.2907  131.0625  151.2135 LP  0  0  0  0  0  0  0  0  0  0  0  0  # atno 17371 bound_to 10713
  140.8267  133.8311  155.8946 LP  0  0  0  0  0  0  0  0  0  0  0  0  # atno 17394 bound_to 11000
  140.9367  134.1952  157.4826 LP  0  0  0  0  0  0  0  0  0  0  0  0  # atno 17395 bound_to 11000

$$$$
