AV-unprocessed.smi:1107|AV-procd|sdf|4785|dock3
  -GOLD-   22720 3333D 1   1.00000     0.00000
 Structure written by MMmdl.
 48 49  0  0  0  0  0  0  0  0  3 V2000
  153.0066  141.2751  158.7543 C   0  0  0  0  0  0  0  0  0  0  0  0
  152.3784  140.6242  157.5405 C   0  0  0  0  0  0  0  0  0  0  0  0
  151.4496  141.2402  156.9142 N   0  0  0  0  0  0  0  0  0  0  0  0
  150.8533  140.6388  155.7930 C   0  0  0  0  0  0  0  0  0  0  0  0
  149.7299  141.4241  155.1394 C   0  0  0  0  0  0  0  0  0  0  0  0
  151.2630  139.4160  155.3487 C   0  0  0  0  0  0  0  0  0  0  0  0
  150.6119  138.6750  154.1797 C   0  0  0  0  0  0  0  0  0  0  0  0
  149.0978  138.4898  154.3036 C   0  0  0  0  0  0  0  0  0  0  0  0
  148.5928  138.2538  155.4002 O   0  0  0  0  0  0  0  0  0  0  0  0
  148.3865  138.6465  153.1756 N   0  0  0  0  0  0  0  0  0  0  0  0
  146.9338  138.7417  153.0734 C   0  0  2  0  0  0  0  0  0  0  0  0
  146.4614  140.0482  153.7247 C   0  0  0  0  0  0  0  0  0  0  0  0
  146.2766  137.5055  153.7287 C   0  0  0  0  0  0  0  0  0  0  0  0
  146.2821  136.2956  152.8624 N   0  3  0  0  0  0  0  0  0  0  0  0
  146.1470  135.0427  153.6514 C   0  0  0  0  0  0  0  0  0  0  0  0
  146.2522  133.7940  152.7589 C   0  0  0  0  0  0  0  0  0  0  0  0
  145.2361  133.8423  151.6117 C   0  0  0  0  0  0  0  0  0  0  0  0
  145.3969  135.1501  150.8274 C   0  0  0  0  0  0  0  0  0  0  0  0
  145.2852  136.3658  151.7608 C   0  0  0  0  0  0  0  0  0  0  0  0
  152.3413  138.7435  156.0932 C   0  0  0  0  0  0  0  0  0  0  0  0
  152.7398  137.6353  155.7375 O   0  0  0  0  0  0  0  0  0  0  0  0
  152.8505  139.3810  157.1843 N   0  5  0  0  0  0  0  0  0  0  0  0
  152.9066  142.3603  158.7094 H   0  0  0  0  0  0  0  0  0  0  0  0
  154.0690  141.0356  158.8162 H   0  0  0  0  0  0  0  0  0  0  0  0
  152.5187  140.9214  159.6629 H   0  0  0  0  0  0  0  0  0  0  0  0
  148.8163  140.8309  155.0975 H   0  0  0  0  0  0  0  0  0  0  0  0
  150.0067  141.7085  154.1240 H   0  0  0  0  0  0  0  0  0  0  0  0
  149.5101  142.3365  155.6949 H   0  0  0  0  0  0  0  0  0  0  0  0
  150.8087  139.1979  153.2446 H   0  0  0  0  0  0  0  0  0  0  0  0
  151.0855  137.6992  154.0613 H   0  0  0  0  0  0  0  0  0  0  0  0
  148.9067  138.8147  152.3260 H   0  0  0  0  0  0  0  0  0  0  0  0
  146.6355  138.7854  152.0253 H   0  0  0  0  0  0  0  0  0  0  0  0
  145.3784  140.1529  153.6521 H   0  0  0  0  0  0  0  0  0  0  0  0
  146.9087  140.9142  153.2356 H   0  0  0  0  0  0  0  0  0  0  0  0
  146.7295  140.0873  154.7810 H   0  0  0  0  0  0  0  0  0  0  0  0
  146.8290  137.2785  154.6421 H   0  0  0  0  0  0  0  0  0  0  0  0
  145.2559  137.7319  154.0404 H   0  0  0  0  0  0  0  0  0  0  0  0
  146.9293  135.0022  154.4103 H   0  0  0  0  0  0  0  0  0  0  0  0
  145.1915  135.0470  154.1781 H   0  0  0  0  0  0  0  0  0  0  0  0
  147.2588  133.7172  152.3497 H   0  0  0  0  0  0  0  0  0  0  0  0
  146.0970  132.8954  153.3567 H   0  0  0  0  0  0  0  0  0  0  0  0
  145.3735  132.9863  150.9508 H   0  0  0  0  0  0  0  0  0  0  0  0
  144.2234  133.7720  152.0106 H   0  0  0  0  0  0  0  0  0  0  0  0
  146.3640  135.1620  150.3234 H   0  0  0  0  0  0  0  0  0  0  0  0
  144.6403  135.2104  150.0447 H   0  0  0  0  0  0  0  0  0  0  0  0
  144.2800  136.4234  152.1811 H   0  0  0  0  0  0  0  0  0  0  0  0
  145.4334  137.2712  151.1736 H   0  0  0  0  0  0  0  0  0  0  0  0
  147.1946  136.2557  152.4295 H   0  0  0  0  0  0  0  0  0  0  0  0
  1  2  1  0  0  0  0
  1 23  1  0  0  0  0
  1 24  1  0  0  0  0
  1 25  1  0  0  0  0
  2 22  1  0  0  0  0
  2  3  2  0  0  0  0
  3  4  1  0  0  0  0
  4  5  1  0  0  0  0
  4  6  2  0  0  0  0
  5 26  1  0  0  0  0
  5 27  1  0  0  0  0
  5 28  1  0  0  0  0
  6  7  1  0  0  0  0
  6 20  1  0  0  0  0
  7  8  1  0  0  0  0
  7 29  1  0  0  0  0
  7 30  1  0  0  0  0
  8  9  2  0  0  0  0
  8 10  1  0  0  0  0
 10 11  1  0  0  0  0
 10 31  1  0  0  0  0
 11 12  1  0  0  0  0
 11 13  1  0  0  0  0
 11 32  1  0  0  0  0
 12 33  1  0  0  0  0
 12 34  1  0  0  0  0
 12 35  1  0  0  0  0
 13 14  1  0  0  0  0
 13 36  1  0  0  0  0
 13 37  1  0  0  0  0
 14 19  1  0  0  0  0
 14 15  1  0  0  0  0
 14 48  1  0  0  0  0
 15 16  1  0  0  0  0
 15 38  1  0  0  0  0
 15 39  1  0  0  0  0
 16 17  1  0  0  0  0
 16 40  1  0  0  0  0
 16 41  1  0  0  0  0
 17 18  1  0  0  0  0
 17 42  1  0  0  0  0
 17 43  1  0  0  0  0
 18 19  1  0  0  0  0
 18 44  1  0  0  0  0
 18 45  1  0  0  0  0
 19 46  1  0  0  0  0
 19 47  1  0  0  0  0
 20 21  2  0  0  0  0
 20 22  1  0  0  0  0
M  CHG  1  14   1
M  CHG  1  22  -1
M  END
> <s_m_source_file>
AV-unprocessed.smi

> <i_m_source_file_index>
1107

> <i_lp_mmshare_version>
43012

> <i_f3d_flags>
0

> <s_epik_input>
W0NIM11jMW5jKFtDSDNdKWMoYyg9TylbbkhdMSlbQ0gyXUMoPU8pW05IXVtDQEhdKFtDSDNdKVtDSDJdTjJbQ0gyXVtDSDJdW0NIMl1bQ0gyXVtDSDJdMg==

> <s_epik_cmdline>
J2VwaWtfcHl0aG9uJywgJy1waCcsICc3LjAnLCAnLXRuJywgJzgnLCAnLW1hJywgJzIwMCcsICctbWV0YWxfYmluZGluZycsICctaW1hZScsICc8aW5maWxlLm1hZT4nLCAnLW9tYWUnLCAnPG91dGZpbGUubWFlPic=

> <r_lp_tautomer_probability>
0.839158

> <r_epik_Ionization_Penalty>
6.34615

> <r_epik_Ionization_Penalty_Charging>
0.00266072

> <r_epik_Ionization_Penalty_Neutral>
6.34348

> <r_epik_State_Penalty>
4.30851

> <r_epik_Charging_Adjusted_Penalty>
4.31117

> <i_epik_Tot_Q>
0

> <i_epik_Tot_abs_Q>
2

> <r_epik_Metal_State_Penalty>
0.75957

> <b_epik_Metal_Only>
1

> <s_lp_Force_Field>
OPLS_2005

> <r_lp_Energy>
18.3813

> <b_lp_Chiralities_Consistent>
1

> <s_lp_Variant>
AV-unprocessed.smi:1107-5

> <Gold.Version>
5.8.1

> <Gold.Id.Protein>
6NUR|6NUR_protein|mol2

> <Gold.PLP.Fitness>
48.7607

> <Gold.PLP.PLP>
-35.1351

> <Gold.PLP.part.hbond>
-4.4152

> <Gold.PLP.part.metal>
0.0000

> <Gold.PLP.part.buried>
-3.9858

> <Gold.PLP.part.nonpolar>
-27.7711

> <Gold.PLP.part.repulsive>
0.1612

> <Gold.PLP.ligand.clash>
0.0000

> <Gold.PLP.ligand.torsion>
0.7240

> <Gold.PLP.Chemscore.Hbond>
5.0000

> <Gold.PLP.Chemscore.CHOScore>
0.0000

> <Gold.PLP.Chemscore.Metal>
0.0000

> <Gold.Chemscore.Hbonds>
donor molecule, donor type, donor heavy atom, donor atom, acceptor molecule, acceptor atom, score
      L1  H    10    31       P1  7957  0.98
      L1  H    14    48       P1  7948  2.00
      P1  H  7997  8008       L1    22  1.10
      P1  H 10752 10763       L1    21  0.17

> <Gold.PLP.Chemscore.Internal.Correction>
0.0736

> <Gold.Rescore>
     Score         DG    S(hbond)    S(metal)    S(lipo)     H(rot)  DE(clash)    DE(int)     intcor
     15.73     -17.88       2.61        0.00      73.52       1.92       0.13       2.02       ----

> <Gold.Chemscore.Fitness>
15.7306

> <Gold.Chemscore.DG>
-17.8775

> <Gold.Chemscore.ZeroCoef>
-5.4800

> <Gold.Chemscore.Hbond>
2.6105

> <Gold.Chemscore.Metal>
0.0000

> <Gold.Chemscore.Lipo>
73.5225

> <Gold.Chemscore.Internal_Hbond>
0.0000

> <Gold.Chemscore.DEClash>
0.1257

> <Gold.Chemscore.DEInternal>
2.0212

> <Gold.Chemscore.Rot>
1.9233

> <Gold.Chemscore.Internal.Correction>
   9.000000E+99

> <Gold.Chemscore.Hbonds>
donor molecule, donor type, donor heavy atom, donor atom, acceptor molecule, acceptor atom, score
      L1  H    10    31       P1  7957  0.87
      L1  H    14    48       P1  7948  1.00
      P1  H  7997  8008       L1    22  0.02
      P1  H 10752 10763       L1    21  0.17

> <Gold.Chemscore.Hbond.Weighted>
-8.7191

> <Gold.Chemscore.Metal.Weighted>
-0.0000

> <Gold.Chemscore.Lipo.Weighted>
-8.6021

> <Gold.Chemscore.Internal_Hbond.Weighted>
0.0000

> <Gold.Chemscore.DEClash.Weighted>
0.1257

> <Gold.Chemscore.DEInternal.Weighted>
2.0212

> <Gold.Chemscore.Rot.Weighted>
4.9237

> <Gold.Chemscore.Internal.Correction.Weighted>
   9.000000E+99

> <Gold.Protein.RotatedTorsions>
[ 6907 6896 6895 6894 ] final   49.26 input  -60.11 | X-H torsion
[ 7974 7965 7964 7962 ] final  -64.46 input  175.53 | X-H torsion
[ 8008 7997 7996 7995 ] final  -61.48 input   59.86 | X-H torsion
[ 10167 10162 10161 10158 ] final  148.55 input  -65.29 | X-H torsion
[ 10718 10713 10712 10709 ] final  151.79 input   66.30 | X-H torsion
[ 10763 10752 10751 10750 ] final   67.96 input  -60.55 | X-H torsion
[ 11005 11000 10999 10996 ] final    4.82 input  -57.11 | X-H torsion

> <Gold.Protein.ActiveResidues>
 VAL166  LYS551  ARG553  GLY616  TRP617  ASP618  TYR619  PRO620  LYS621  CYS622 
 ASP623  PHE694  ASN695  SER759  ASP760  ASP761  ALA762  ILE779  LEU786  VAL792 
 PHE793  MET794  SER795  GLU796  ALA797  LYS798  CYS799  TRP800  GLU811  SER814 

> <Gold.Protein.RotatedAtoms>
  152.2888  134.7745  160.0381 H   0  0  0  0  0  0  0  0  0  0  0  0  # atno 6907 bound_to 6896
  151.8299  133.3402  159.3618 H   0  0  0  0  0  0  0  0  0  0  0  0  # atno 6908 bound_to 6896
  150.7221  134.5422  159.5797 H   0  0  0  0  0  0  0  0  0  0  0  0  # atno 6909 bound_to 6896
  145.7665  140.8835  143.0403 H   0  0  0  0  0  0  0  0  0  0  0  0  # atno 7974 bound_to 7965
  154.4450  140.1017  156.6437 H   0  0  0  0  0  0  0  0  0  0  0  0  # atno 8008 bound_to 7997
  155.5473  140.3485  155.4442 H   0  0  0  0  0  0  0  0  0  0  0  0  # atno 8009 bound_to 7997
  156.0554  140.1314  156.9992 H   0  0  0  0  0  0  0  0  0  0  0  0  # atno 8010 bound_to 7997
  139.4873  144.5670  151.7126 H   0  0  0  0  0  0  0  0  0  0  0  0  # atno 10167 bound_to 10162
  157.2662  131.0808  151.1632 H   0  0  0  0  0  0  0  0  0  0  0  0  # atno 10718 bound_to 10713
  153.0211  135.5265  154.7060 H   0  0  0  0  0  0  0  0  0  0  0  0  # atno 10763 bound_to 10752
  154.6156  135.2883  155.0386 H   0  0  0  0  0  0  0  0  0  0  0  0  # atno 10764 bound_to 10752
  154.1392  135.6581  153.4991 H   0  0  0  0  0  0  0  0  0  0  0  0  # atno 10765 bound_to 10752
  140.5776  134.0043  155.8034 H   0  0  0  0  0  0  0  0  0  0  0  0  # atno 11005 bound_to 11000
  144.6820  139.9795  143.7483 LP  0  0  0  0  0  0  0  0  0  0  0  0  # atno 17320 bound_to 7965
  146.0213  139.3253  143.0811 LP  0  0  0  0  0  0  0  0  0  0  0  0  # atno 17321 bound_to 7965
  140.5250  144.0819  150.6035 LP  0  0  0  0  0  0  0  0  0  0  0  0  # atno 17342 bound_to 10162
  140.3790  143.2813  152.0192 LP  0  0  0  0  0  0  0  0  0  0  0  0  # atno 17343 bound_to 10162
  157.3122  130.6895  149.6222 LP  0  0  0  0  0  0  0  0  0  0  0  0  # atno 17370 bound_to 10713
  155.9663  130.4360  150.5116 LP  0  0  0  0  0  0  0  0  0  0  0  0  # atno 17371 bound_to 10713
  141.1017  133.9758  157.3068 LP  0  0  0  0  0  0  0  0  0  0  0  0  # atno 17394 bound_to 11000
  139.9332  135.0198  156.8470 LP  0  0  0  0  0  0  0  0  0  0  0  0  # atno 17395 bound_to 11000

$$$$
