AV-unprocessed.smi:1047|AV-procd|sdf|4596|dock10
  -GOLD-   22720 3 83D 1   1.00000     0.00000
 Structure written by MMmdl.
 57 59  0  0  0  0  0  0  0  0  3 V2000
  148.6527  132.1204  158.2996 C   0  0  0  0  0  0  0  0  0  0  0  0
  149.6792  131.4699  157.3612 C   0  0  0  0  0  0  0  0  0  0  0  0
  149.9689  132.3006  156.1657 N   0  3  1  0  0  0  0  0  0  0  0  0
  148.8970  132.2096  155.1464 C   0  0  0  0  0  0  0  0  0  0  0  0
  149.2587  133.0460  153.9088 C   0  0  0  0  0  0  0  0  0  0  0  0
  149.4938  134.3919  154.3009 O   0  0  0  0  0  0  0  0  0  0  0  0
  150.5919  134.5085  155.2002 C   0  0  1  0  0  0  0  0  0  0  0  0
  150.8123  136.0005  155.4899 C   0  0  0  0  0  0  0  0  0  0  0  0
  151.3425  136.6906  154.3189 N   0  0  0  0  0  0  0  0  0  0  0  0
  151.1825  138.1417  154.3805 C   0  0  0  0  0  0  0  0  0  0  0  0
  152.2459  138.8074  155.2724 C   0  0  2  0  0  0  0  0  0  0  0  0
  153.3732  137.9602  155.3767 O   0  0  0  0  0  0  0  0  0  0  0  0
  151.7311  139.2265  156.6655 C   0  0  0  0  0  0  0  0  0  0  0  0
  151.2482  140.6131  156.6963 N   0  0  0  0  0  0  0  0  0  0  0  0
  150.4787  141.2923  155.8028 C   0  0  0  0  0  0  0  0  0  0  0  0
  150.3040  142.5530  156.2873 N   0  3  0  0  0  0  0  0  0  0  0  0
  150.9744  142.6813  157.5059 C   0  0  0  0  0  0  0  0  0  0  0  0
  151.0907  143.7612  158.3730 C   0  0  0  0  0  0  0  0  0  0  0  0
  151.8547  143.5668  159.5461 C   0  0  0  0  0  0  0  0  0  0  0  0
  152.0046  144.7278  160.5145 C   0  0  0  0  0  0  0  0  0  0  0  0
  152.4707  142.3175  159.8181 C   0  0  0  0  0  0  0  0  0  0  0  0
  153.2897  142.1201  161.0824 C   0  0  0  0  0  0  0  0  0  0  0  0
  152.3400  141.2311  158.9237 C   0  0  0  0  0  0  0  0  0  0  0  0
  151.5846  141.4404  157.7727 C   0  0  0  0  0  0  0  0  0  0  0  0
  150.2583  133.7215  156.4832 C   0  0  0  0  0  0  0  0  0  0  0  0
  148.5402  131.5305  159.2094 H   0  0  0  0  0  0  0  0  0  0  0  0
  147.6670  132.1946  157.8411 H   0  0  0  0  0  0  0  0  0  0  0  0
  148.9664  133.1227  158.5935 H   0  0  0  0  0  0  0  0  0  0  0  0
  150.6023  131.3271  157.9250 H   0  0  0  0  0  0  0  0  0  0  0  0
  149.3468  130.4765  157.0565 H   0  0  0  0  0  0  0  0  0  0  0  0
  148.7472  131.1696  154.8542 H   0  0  0  0  0  0  0  0  0  0  0  0
  147.9563  132.5625  155.5729 H   0  0  0  0  0  0  0  0  0  0  0  0
  150.1368  132.6402  153.4037 H   0  0  0  0  0  0  0  0  0  0  0  0
  148.4399  133.0260  153.1893 H   0  0  0  0  0  0  0  0  0  0  0  0
  151.4922  134.0911  154.7442 H   0  0  0  0  0  0  0  0  0  0  0  0
  149.8749  136.4563  155.8118 H   0  0  0  0  0  0  0  0  0  0  0  0
  151.5137  136.1100  156.3180 H   0  0  0  0  0  0  0  0  0  0  0  0
  150.8864  136.3396  153.4821 H   0  0  0  0  0  0  0  0  0  0  0  0
  151.2345  138.5679  153.3775 H   0  0  0  0  0  0  0  0  0  0  0  0
  150.1910  138.3830  154.7653 H   0  0  0  0  0  0  0  0  0  0  0  0
  152.5885  139.7011  154.7500 H   0  0  0  0  0  0  0  0  0  0  0  0
  153.2518  137.3913  156.1213 H   0  0  0  0  0  0  0  0  0  0  0  0
  150.9249  138.5712  156.9977 H   0  0  0  0  0  0  0  0  0  0  0  0
  152.5232  139.1452  157.4109 H   0  0  0  0  0  0  0  0  0  0  0  0
  150.0764  140.9012  154.8792 H   0  0  0  0  0  0  0  0  0  0  0  0
  150.6182  144.7090  158.1598 H   0  0  0  0  0  0  0  0  0  0  0  0
  153.0567  144.9775  160.6539 H   0  0  0  0  0  0  0  0  0  0  0  0
  151.5766  144.4750  161.4848 H   0  0  0  0  0  0  0  0  0  0  0  0
  151.4969  145.6209  160.1487 H   0  0  0  0  0  0  0  0  0  0  0  0
  153.6661  141.0997  161.1591 H   0  0  0  0  0  0  0  0  0  0  0  0
  152.6849  142.3185  161.9674 H   0  0  0  0  0  0  0  0  0  0  0  0
  154.1472  142.7931  161.0899 H   0  0  0  0  0  0  0  0  0  0  0  0
  152.8086  140.2800  159.1292 H   0  0  0  0  0  0  0  0  0  0  0  0
  149.3962  134.1662  156.9834 H   0  0  0  0  0  0  0  0  0  0  0  0
  151.0980  133.7893  157.1740 H   0  0  0  0  0  0  0  0  0  0  0  0
  150.8002  131.9167  155.7391 H   0  0  0  0  0  0  0  0  0  0  0  0
  149.7672  143.2711  155.8177 H   0  0  0  0  0  0  0  0  0  0  0  0
  1  2  1  0  0  0  0
  1 26  1  0  0  0  0
  1 27  1  0  0  0  0
  1 28  1  0  0  0  0
  2  3  1  0  0  0  0
  2 29  1  0  0  0  0
  2 30  1  0  0  0  0
  3 25  1  0  0  0  0
  3  4  1  0  0  0  0
  3 56  1  0  0  0  0
  4  5  1  0  0  0  0
  4 31  1  0  0  0  0
  4 32  1  0  0  0  0
  5  6  1  0  0  0  0
  5 33  1  0  0  0  0
  5 34  1  0  0  0  0
  6  7  1  0  0  0  0
  7  8  1  0  0  0  0
  7 25  1  0  0  0  0
  7 35  1  0  0  0  0
  8  9  1  0  0  0  0
  8 36  1  0  0  0  0
  8 37  1  0  0  0  0
  9 10  1  0  0  0  0
  9 38  1  0  0  0  0
 10 11  1  0  0  0  0
 10 39  1  0  0  0  0
 10 40  1  0  0  0  0
 11 12  1  0  0  0  0
 11 13  1  0  0  0  0
 11 41  1  0  0  0  0
 12 42  1  0  0  0  0
 13 14  1  0  0  0  0
 13 43  1  0  0  0  0
 13 44  1  0  0  0  0
 14 24  1  0  0  0  0
 14 15  1  0  0  0  0
 15 16  2  0  0  0  0
 15 45  1  0  0  0  0
 16 17  1  0  0  0  0
 16 57  1  0  0  0  0
 17 24  2  0  0  0  0
 17 18  1  0  0  0  0
 18 19  2  0  0  0  0
 18 46  1  0  0  0  0
 19 20  1  0  0  0  0
 19 21  1  0  0  0  0
 20 47  1  0  0  0  0
 20 48  1  0  0  0  0
 20 49  1  0  0  0  0
 21 22  1  0  0  0  0
 21 23  2  0  0  0  0
 22 50  1  0  0  0  0
 22 51  1  0  0  0  0
 22 52  1  0  0  0  0
 23 24  1  0  0  0  0
 23 53  1  0  0  0  0
 25 54  1  0  0  0  0
 25 55  1  0  0  0  0
M  CHG  1   3   1
M  CHG  1  16   1
M  END
> <s_m_source_file>
AV-unprocessed.smi

> <i_m_source_file_index>
1047

> <i_lp_mmshare_version>
43012

> <i_f3d_flags>
0

> <s_epik_input>
W0NIM11bQ0gyXU4xW0NIMl1bQ0gyXU9bQ0BIXShbQ0gyXTEpW0NIMl1bTkhdW0NIMl1bQ0BIXShbT0hdKVtDSDJdbihbY0hdbjIpYyhjMjMpW2NIXWMoW0NIM10pYyhbY0hdMylbQ0gzXQ==

> <s_epik_cmdline>
J2VwaWtfcHl0aG9uJywgJy1waCcsICc3LjAnLCAnLXRuJywgJzgnLCAnLW1hJywgJzIwMCcsICctbWV0YWxfYmluZGluZycsICctaW1hZScsICc8aW5maWxlLm1hZT4nLCAnLW9tYWUnLCAnPG91dGZpbGUubWFlPic=

> <r_epik_Ionization_Penalty>
2.03028

> <r_epik_Ionization_Penalty_Charging>
1.21256

> <r_epik_Ionization_Penalty_Neutral>
0.817715

> <r_epik_State_Penalty>
2.54959

> <r_epik_Charging_Adjusted_Penalty>
3.76215

> <i_epik_Tot_Q>
2

> <i_epik_Tot_abs_Q>
2

> <r_epik_Metal_State_Penalty>
6.52811

> <b_epik_Metal_Only>
0

> <s_lp_Force_Field>
OPLS_2005

> <r_lp_Energy>
37.5009

> <b_lp_Chiralities_Consistent>
1

> <s_lp_Variant>
AV-unprocessed.smi:1047-37

> <Gold.Version>
5.8.1

> <Gold.Id.Protein>
6NUR|6NUR_protein|mol2

> <Gold.PLP.Fitness>
60.6444

> <Gold.PLP.PLP>
-53.3223

> <Gold.PLP.part.hbond>
-4.1481

> <Gold.PLP.part.metal>
0.0000

> <Gold.PLP.part.buried>
-8.0857

> <Gold.PLP.part.nonpolar>
-42.4672

> <Gold.PLP.part.repulsive>
0.3207

> <Gold.PLP.ligand.clash>
0.0000

> <Gold.PLP.ligand.torsion>
1.5764

> <Gold.PLP.Chemscore.Hbond>
3.4528

> <Gold.PLP.Chemscore.CHOScore>
0.0000

> <Gold.PLP.Chemscore.Metal>
0.0000

> <Gold.Chemscore.Hbonds>
donor molecule, donor type, donor heavy atom, donor atom, acceptor molecule, acceptor atom, score
      L1  H     9    38       P1  7949  0.69
      L1  H    16    57       P1  8028  2.00
      P1  H 10752 10764       L1     9  0.70

> <Gold.PLP.Chemscore.Internal.Correction>
0.1166

> <Gold.Rescore>
     Score         DG    S(hbond)    S(metal)    S(lipo)     H(rot)  DE(clash)    DE(int)     intcor
     17.55     -18.92       1.46        0.00     132.40       2.71       0.02       1.35       ----

> <Gold.Chemscore.Fitness>
17.5467

> <Gold.Chemscore.DG>
-18.9165

> <Gold.Chemscore.ZeroCoef>
-5.4800

> <Gold.Chemscore.Hbond>
1.4612

> <Gold.Chemscore.Metal>
0.0000

> <Gold.Chemscore.Lipo>
132.3995

> <Gold.Chemscore.Internal_Hbond>
0.0000

> <Gold.Chemscore.DEClash>
0.0162

> <Gold.Chemscore.DEInternal>
1.3536

> <Gold.Chemscore.Rot>
2.7088

> <Gold.Chemscore.Internal.Correction>
   9.000000E+99

> <Gold.Chemscore.Hbonds>
donor molecule, donor type, donor heavy atom, donor atom, acceptor molecule, acceptor atom, score
      L1  H     9    38       P1  7949  0.09
      L1  H    16    57       P1  8028  0.99
      P1  H 10752 10764       L1     9  0.02

> <Gold.Chemscore.Hbond.Weighted>
-4.8804

> <Gold.Chemscore.Metal.Weighted>
-0.0000

> <Gold.Chemscore.Lipo.Weighted>
-15.4907

> <Gold.Chemscore.Internal_Hbond.Weighted>
0.0000

> <Gold.Chemscore.DEClash.Weighted>
0.0162

> <Gold.Chemscore.DEInternal.Weighted>
1.3536

> <Gold.Chemscore.Rot.Weighted>
6.9346

> <Gold.Chemscore.Internal.Correction.Weighted>
   9.000000E+99

> <Gold.Protein.RotatedTorsions>
[ 6907 6896 6895 6894 ] final -159.71 input  -60.11 | X-H torsion
[ 7974 7965 7964 7962 ] final -173.41 input  175.53 | X-H torsion
[ 8008 7997 7996 7995 ] final  102.84 input   59.86 | X-H torsion
[ 10167 10162 10161 10158 ] final  -12.35 input  -65.29 | X-H torsion
[ 10718 10713 10712 10709 ] final -146.80 input   66.30 | X-H torsion
[ 10763 10752 10751 10750 ] final  -96.35 input  -60.55 | X-H torsion
[ 11005 11000 10999 10996 ] final  103.24 input  -57.11 | X-H torsion

> <Gold.Protein.ActiveResidues>
 VAL166  LYS551  ARG553  GLY616  TRP617  ASP618  TYR619  PRO620  LYS621  CYS622 
 ASP623  PHE694  ASN695  SER759  ASP760  ASP761  ALA762  ILE779  LEU786  VAL792 
 PHE793  MET794  SER795  GLU796  ALA797  LYS798  CYS799  TRP800  GLU811  SER814 

> <Gold.Protein.RotatedAtoms>
  151.3377  133.3975  159.2668 H   0  0  0  0  0  0  0  0  0  0  0  0  # atno 6907 bound_to 6896
  150.9903  134.9240  159.7906 H   0  0  0  0  0  0  0  0  0  0  0  0  # atno 6908 bound_to 6896
  152.5245  134.3342  159.9246 H   0  0  0  0  0  0  0  0  0  0  0  0  # atno 6909 bound_to 6896
  144.7138  140.1626  143.6375 H   0  0  0  0  0  0  0  0  0  0  0  0  # atno 7974 bound_to 7965
  156.1430  140.3174  155.8525 H   0  0  0  0  0  0  0  0  0  0  0  0  # atno 8008 bound_to 7997
  155.4118  140.0506  157.3048 H   0  0  0  0  0  0  0  0  0  0  0  0  # atno 8009 bound_to 7997
  154.4992  140.2122  155.9394 H   0  0  0  0  0  0  0  0  0  0  0  0  # atno 8010 bound_to 7997
  140.7159  143.5541  150.9268 H   0  0  0  0  0  0  0  0  0  0  0  0  # atno 10167 bound_to 10162
  156.3995  130.7926  151.2136 H   0  0  0  0  0  0  0  0  0  0  0  0  # atno 10718 bound_to 10713
  154.7232  135.5086  153.8844 H   0  0  0  0  0  0  0  0  0  0  0  0  # atno 10763 bound_to 10752
  153.0881  135.6651  153.9918 H   0  0  0  0  0  0  0  0  0  0  0  0  # atno 10764 bound_to 10752
  153.9736  135.3036  155.3405 H   0  0  0  0  0  0  0  0  0  0  0  0  # atno 10765 bound_to 10752
  139.8782  134.9255  156.5179 H   0  0  0  0  0  0  0  0  0  0  0  0  # atno 11005 bound_to 11000
  145.9017  139.2434  143.1490 LP  0  0  0  0  0  0  0  0  0  0  0  0  # atno 17320 bound_to 7965
  145.9804  140.8687  143.0117 LP  0  0  0  0  0  0  0  0  0  0  0  0  # atno 17321 bound_to 7965
  139.9266  143.6543  152.3085 LP  0  0  0  0  0  0  0  0  0  0  0  0  # atno 17342 bound_to 10162
  139.6978  144.7639  151.1325 LP  0  0  0  0  0  0  0  0  0  0  0  0  # atno 17343 bound_to 10162
  157.7503  131.0291  150.4079 LP  0  0  0  0  0  0  0  0  0  0  0  0  # atno 17370 bound_to 10713
  156.4355  130.3981  149.6731 LP  0  0  0  0  0  0  0  0  0  0  0  0  # atno 17371 bound_to 10713
  140.8472  133.8160  155.9133 LP  0  0  0  0  0  0  0  0  0  0  0  0  # atno 17394 bound_to 11000
  140.9180  134.2178  157.4945 LP  0  0  0  0  0  0  0  0  0  0  0  0  # atno 17395 bound_to 11000

$$$$
