AV-unprocessed.smi:1874|AV-procd|sdf|7611|dock9
  -GOLD-   22720 9333D 1   1.00000     0.00000
 Structure written by MMmdl.
 45 46  0  0  0  0  0  0  0  0  1 V2000
  151.8789  141.0918  157.3678 C   0  0  0  0  0  0  0  0  0  0  0  0
  152.3861  141.5939  158.7216 C   0  0  0  0  0  0  0  0  0  0  0  0
  152.7611  140.7584  159.5443 O   0  0  0  0  0  0  0  0  0  0  0  0
  152.4035  142.9256  158.9705 N   0  0  0  0  0  0  0  0  0  0  0  0
  151.8952  143.9660  158.0679 C   0  0  0  0  0  0  0  0  0  0  0  0
  150.5992  144.5468  158.6609 C   0  0  0  0  0  0  0  0  0  0  0  0
  150.8252  145.0789  160.0952 C   0  0  0  0  0  0  0  0  0  0  0  0
  149.5534  145.4367  160.7151 N   0  0  0  0  0  0  0  0  0  0  0  0
  148.4212  144.7223  160.6302 C   0  0  0  0  0  0  0  0  0  0  0  0
  148.3330  143.6728  159.9907 O   0  0  0  0  0  0  0  0  0  0  0  0
  147.2079  145.2985  161.3759 C   0  0  0  0  0  0  0  0  0  0  0  0
  145.9267  145.0259  160.7076 N   0  0  0  0  0  0  0  0  0  0  0  0
  145.6885  145.8200  159.6026 N   0  0  0  0  0  0  0  0  0  0  0  0
  144.6198  145.6785  158.8898 C   0  0  0  0  0  0  0  0  0  0  0  0
  144.4706  146.5961  157.7063 C   0  0  0  0  0  0  0  0  0  0  0  0
  143.6368  144.6632  159.2541 C   0  0  0  0  0  0  0  0  0  0  0  0
  142.4003  144.5381  158.3745 C   0  0  0  0  0  0  0  0  0  0  0  0
  143.8748  143.8992  160.3495 C   0  0  0  0  0  0  0  0  0  0  0  0
  142.9686  142.8860  160.7848 C   0  0  0  0  0  0  0  0  0  0  0  0
  142.2408  142.0669  161.1581 N   0  0  0  0  0  0  0  0  0  0  0  0
  145.0823  144.0559  161.1635 C   0  0  0  0  0  0  0  0  0  0  0  0
  145.3288  143.3800  162.1638 O   0  0  0  0  0  0  0  0  0  0  0  0
  151.5551  144.0405  160.9740 C   0  0  0  0  0  0  0  0  0  0  0  0
  152.8040  143.4849  160.2665 C   0  0  0  0  0  0  0  0  0  0  0  0
  150.8484  141.4060  157.1994 H   0  0  0  0  0  0  0  0  0  0  0  0
  151.9048  140.0022  157.3286 H   0  0  0  0  0  0  0  0  0  0  0  0
  152.5033  141.4686  156.5574 H   0  0  0  0  0  0  0  0  0  0  0  0
  152.6442  144.7534  157.9713 H   0  0  0  0  0  0  0  0  0  0  0  0
  151.7135  143.6144  157.0536 H   0  0  0  0  0  0  0  0  0  0  0  0
  150.2239  145.3437  158.0178 H   0  0  0  0  0  0  0  0  0  0  0  0
  149.8320  143.7710  158.6700 H   0  0  0  0  0  0  0  0  0  0  0  0
  151.4597  145.9656  160.0379 H   0  0  0  0  0  0  0  0  0  0  0  0
  149.5354  146.2893  161.2558 H   0  0  0  0  0  0  0  0  0  0  0  0
  147.1886  144.9048  162.3940 H   0  0  0  0  0  0  0  0  0  0  0  0
  147.3560  146.3747  161.4820 H   0  0  0  0  0  0  0  0  0  0  0  0
  143.5218  147.1321  157.7460 H   0  0  0  0  0  0  0  0  0  0  0  0
  144.5020  146.0311  156.7744 H   0  0  0  0  0  0  0  0  0  0  0  0
  145.2669  147.3412  157.6671 H   0  0  0  0  0  0  0  0  0  0  0  0
  141.7756  143.6922  158.6594 H   0  0  0  0  0  0  0  0  0  0  0  0
  142.6815  144.3953  157.3306 H   0  0  0  0  0  0  0  0  0  0  0  0
  141.7902  145.4387  158.4466 H   0  0  0  0  0  0  0  0  0  0  0  0
  151.8364  144.4883  161.9278 H   0  0  0  0  0  0  0  0  0  0  0  0
  150.8820  143.2138  161.2073 H   0  0  0  0  0  0  0  0  0  0  0  0
  153.2997  142.7542  160.9070 H   0  0  0  0  0  0  0  0  0  0  0  0
  153.5320  144.2818  160.1081 H   0  0  0  0  0  0  0  0  0  0  0  0
  1  2  1  0  0  0  0
  1 25  1  0  0  0  0
  1 26  1  0  0  0  0
  1 27  1  0  0  0  0
  2  3  2  0  0  0  0
  2  4  1  0  0  0  0
  4 24  1  0  0  0  0
  4  5  1  0  0  0  0
  5  6  1  0  0  0  0
  5 28  1  0  0  0  0
  5 29  1  0  0  0  0
  6  7  1  0  0  0  0
  6 30  1  0  0  0  0
  6 31  1  0  0  0  0
  7  8  1  0  0  0  0
  7 23  1  0  0  0  0
  7 32  1  0  0  0  0
  8  9  1  0  0  0  0
  8 33  1  0  0  0  0
  9 10  2  0  0  0  0
  9 11  1  0  0  0  0
 11 12  1  0  0  0  0
 11 34  1  0  0  0  0
 11 35  1  0  0  0  0
 12 21  1  0  0  0  0
 12 13  1  0  0  0  0
 13 14  2  0  0  0  0
 14 15  1  0  0  0  0
 14 16  1  0  0  0  0
 15 36  1  0  0  0  0
 15 37  1  0  0  0  0
 15 38  1  0  0  0  0
 16 17  1  0  0  0  0
 16 18  2  0  0  0  0
 17 39  1  0  0  0  0
 17 40  1  0  0  0  0
 17 41  1  0  0  0  0
 18 19  1  0  0  0  0
 18 21  1  0  0  0  0
 19 20  3  0  0  0  0
 21 22  2  0  0  0  0
 23 24  1  0  0  0  0
 23 42  1  0  0  0  0
 23 43  1  0  0  0  0
 24 44  1  0  0  0  0
 24 45  1  0  0  0  0
M  END
> <s_m_source_file>
AV-unprocessed.smi

> <i_m_source_file_index>
1874

> <i_lp_mmshare_version>
43012

> <i_f3d_flags>
0

> <s_epik_input>
W0NIM11DKD1PKU4xW0NIMl1bQ0gyXVtDSF0oW0NIMl1bQ0gyXTEpW05IXUMoPU8pW0NIMl1uMm5jKFtDSDNdKWMoW0NIM10pYyhDI04pYzI9Tw==

> <s_epik_cmdline>
J2VwaWtfcHl0aG9uJywgJy1waCcsICc3LjAnLCAnLXRuJywgJzgnLCAnLW1hJywgJzIwMCcsICctbWV0YWxfYmluZGluZycsICctaW1hZScsICc8aW5maWxlLm1hZT4nLCAnLW9tYWUnLCAnPG91dGZpbGUubWFlPic=

> <r_lp_tautomer_probability>
1

> <r_epik_Ionization_Penalty>
1.12408e-06

> <r_epik_Ionization_Penalty_Charging>
2.25008e-11

> <r_epik_Ionization_Penalty_Neutral>
1.12405e-06

> <r_epik_State_Penalty>
-0

> <r_epik_Charging_Adjusted_Penalty>
2.25008e-11

> <i_epik_Tot_Q>
0

> <i_epik_Tot_abs_Q>
0

> <r_epik_Metal_State_Penalty>
-0

> <b_epik_Metal_Only>
0

> <s_lp_Force_Field>
OPLS_2005

> <r_lp_Energy>
36.4073

> <b_lp_Chiralities_Consistent>
1

> <s_lp_Variant>
AV-unprocessed.smi:1874-1

> <Gold.Version>
5.8.1

> <Gold.Id.Protein>
6NUR|6NUR_protein|mol2

> <Gold.PLP.Fitness>
44.4678

> <Gold.PLP.PLP>
-43.5846

> <Gold.PLP.part.hbond>
-3.0000

> <Gold.PLP.part.metal>
0.0000

> <Gold.PLP.part.buried>
-9.6250

> <Gold.PLP.part.nonpolar>
-33.7995

> <Gold.PLP.part.repulsive>
1.3241

> <Gold.PLP.ligand.clash>
0.0000

> <Gold.PLP.ligand.torsion>
0.8637

> <Gold.PLP.Chemscore.Hbond>
0.8640

> <Gold.PLP.Chemscore.CHOScore>
0.0000

> <Gold.PLP.Chemscore.Metal>
0.0000

> <Gold.Chemscore.Hbonds>
donor molecule, donor type, donor heavy atom, donor atom, acceptor molecule, acceptor atom, score
      P1  H  6933  6944       L1    10  0.86

> <Gold.PLP.Chemscore.Internal.Correction>
0.0186

> <Gold.Rescore>
     Score         DG    S(hbond)    S(metal)    S(lipo)     H(rot)  DE(clash)    DE(int)     intcor
     10.35     -13.54       0.71        0.00      83.23       1.58       1.14       2.05       ----

> <Gold.Chemscore.Fitness>
10.3546

> <Gold.Chemscore.DG>
-13.5417

> <Gold.Chemscore.ZeroCoef>
-5.4800

> <Gold.Chemscore.Hbond>
0.7097

> <Gold.Chemscore.Metal>
0.0000

> <Gold.Chemscore.Lipo>
83.2331

> <Gold.Chemscore.Internal_Hbond>
0.0000

> <Gold.Chemscore.DEClash>
1.1380

> <Gold.Chemscore.DEInternal>
2.0491

> <Gold.Chemscore.Rot>
1.5808

> <Gold.Chemscore.Internal.Correction>
   9.000000E+99

> <Gold.Chemscore.Hbonds>
donor molecule, donor type, donor heavy atom, donor atom, acceptor molecule, acceptor atom, score
      P1  H  6933  6944       L1    10  0.25

> <Gold.Chemscore.Hbond.Weighted>
-2.3704

> <Gold.Chemscore.Metal.Weighted>
-0.0000

> <Gold.Chemscore.Lipo.Weighted>
-9.7383

> <Gold.Chemscore.Internal_Hbond.Weighted>
0.0000

> <Gold.Chemscore.DEClash.Weighted>
1.1380

> <Gold.Chemscore.DEInternal.Weighted>
2.0491

> <Gold.Chemscore.Rot.Weighted>
4.0469

> <Gold.Chemscore.Internal.Correction.Weighted>
   9.000000E+99

> <Gold.Protein.RotatedTorsions>
[ 6907 6896 6895 6894 ] final   93.68 input  -60.11 | X-H torsion
[ 7974 7965 7964 7962 ] final -162.84 input  175.53 | X-H torsion
[ 8008 7997 7996 7995 ] final -167.62 input   59.86 | X-H torsion
[ 10167 10162 10161 10158 ] final   58.34 input  -65.29 | X-H torsion
[ 10718 10713 10712 10709 ] final  164.19 input   66.30 | X-H torsion
[ 10763 10752 10751 10750 ] final  -19.69 input  -60.55 | X-H torsion
[ 11005 11000 10999 10996 ] final   -6.94 input  -57.11 | X-H torsion

> <Gold.Protein.ActiveResidues>
 VAL166  LYS551  ARG553  GLY616  TRP617  ASP618  TYR619  PRO620  LYS621  CYS622 
 ASP623  PHE694  ASN695  SER759  ASP760  ASP761  ALA762  ILE779  LEU786  VAL792 
 PHE793  MET794  SER795  GLU796  ALA797  LYS798  CYS799  TRP800  GLU811  SER814 

> <Gold.Protein.RotatedAtoms>
  152.5452  134.1310  159.8438 H   0  0  0  0  0  0  0  0  0  0  0  0  # atno 6907 bound_to 6896
  151.1356  133.4999  159.2605 H   0  0  0  0  0  0  0  0  0  0  0  0  # atno 6908 bound_to 6896
  151.1628  135.0291  159.8772 H   0  0  0  0  0  0  0  0  0  0  0  0  # atno 6909 bound_to 6896
  144.7344  140.3194  143.6173 H   0  0  0  0  0  0  0  0  0  0  0  0  # atno 7974 bound_to 7965
  155.8802  140.1008  157.1490 H   0  0  0  0  0  0  0  0  0  0  0  0  # atno 8008 bound_to 7997
  154.4004  140.1330  156.4250 H   0  0  0  0  0  0  0  0  0  0  0  0  # atno 8009 bound_to 7997
  155.7651  140.3462  155.5220 H   0  0  0  0  0  0  0  0  0  0  0  0  # atno 8010 bound_to 7997
  140.1883  144.4112  150.6583 H   0  0  0  0  0  0  0  0  0  0  0  0  # atno 10167 bound_to 10162
  157.0978  131.0435  151.2510 H   0  0  0  0  0  0  0  0  0  0  0  0  # atno 10718 bound_to 10713
  153.6088  135.6997  153.5355 H   0  0  0  0  0  0  0  0  0  0  0  0  # atno 10763 bound_to 10752
  153.3034  135.4122  155.1272 H   0  0  0  0  0  0  0  0  0  0  0  0  # atno 10764 bound_to 10752
  154.8567  135.3654  154.5626 H   0  0  0  0  0  0  0  0  0  0  0  0  # atno 10765 bound_to 10752
  140.7074  133.8937  155.8726 H   0  0  0  0  0  0  0  0  0  0  0  0  # atno 11005 bound_to 11000
  145.7584  139.1816  143.2281 LP  0  0  0  0  0  0  0  0  0  0  0  0  # atno 17320 bound_to 7965
  146.1006  140.7549  142.9551 LP  0  0  0  0  0  0  0  0  0  0  0  0  # atno 17321 bound_to 7965
  140.6473  143.2216  151.6157 LP  0  0  0  0  0  0  0  0  0  0  0  0  # atno 17342 bound_to 10162
  139.5267  144.3039  152.1050 LP  0  0  0  0  0  0  0  0  0  0  0  0  # atno 17343 bound_to 10162
  157.4666  130.7684  149.7285 LP  0  0  0  0  0  0  0  0  0  0  0  0  # atno 17370 bound_to 10713
  155.9881  130.3961  150.3133 LP  0  0  0  0  0  0  0  0  0  0  0  0  # atno 17371 bound_to 10713
  141.0113  134.1017  157.4219 LP  0  0  0  0  0  0  0  0  0  0  0  0  # atno 17394 bound_to 11000
  139.8880  135.0094  156.6597 LP  0  0  0  0  0  0  0  0  0  0  0  0  # atno 17395 bound_to 11000

$$$$
