AV-unprocessed.smi:317|AV-procd|sdf|2326|dock1
  -GOLD-   2262022223D 1   1.00000     0.00000
 Structure written by MMmdl.
 39 40  0  0  0  0  0  0  0  0  1 V2000
  149.4247  139.6111  154.4955 C   0  0  0  0  0  0  0  0  0  0  0  0
  150.8075  139.2315  155.0509 C   0  0  2  0  0  0  0  0  0  0  0  0
  150.9414  137.7069  155.2160 C   0  0  0  0  0  0  0  0  0  0  0  0
  151.6742  137.1597  154.1401 O   0  0  0  0  0  0  0  0  0  0  0  0
  150.9999  139.8778  156.3465 N   0  0  0  0  0  0  0  0  0  0  0  0
  152.0433  139.6799  157.1641 C   0  0  0  0  0  0  0  0  0  0  0  0
  152.9825  138.9275  156.9042 O   0  0  0  0  0  0  0  0  0  0  0  0
  151.9331  140.4227  158.2776 N   0  0  0  0  0  0  0  0  0  0  0  0
  152.8584  140.5251  159.3535 C   0  0  0  0  0  0  0  0  0  0  0  0
  153.6623  139.4251  159.7396 C   0  0  0  0  0  0  0  0  0  0  0  0
  154.5090  139.5476  160.8544 C   0  0  0  0  0  0  0  0  0  0  0  0
  154.5106  140.7644  161.5567 C   0  0  0  0  0  0  0  0  0  0  0  0
  153.7425  141.8164  161.2097 N   0  0  0  0  0  0  0  0  0  0  0  0
  152.9311  141.7189  160.1275 C   0  0  0  0  0  0  0  0  0  0  0  0
  152.1629  142.8600  159.7998 N   0  0  0  0  0  0  0  0  0  0  0  0
  152.0055  143.9482  160.7590 C   0  0  0  0  0  0  0  0  0  0  0  0
  151.4830  145.1249  159.9400 C   0  0  0  0  0  0  0  0  0  0  0  0
  152.2053  144.9408  158.6093 C   0  0  0  0  0  0  0  0  0  0  0  0
  152.3019  143.4190  158.4579 C   0  0  0  0  0  0  0  0  0  0  0  0
  149.2540  139.1522  153.5214 H   0  0  0  0  0  0  0  0  0  0  0  0
  149.3312  140.6901  154.3672 H   0  0  0  0  0  0  0  0  0  0  0  0
  148.6253  139.2845  155.1615 H   0  0  0  0  0  0  0  0  0  0  0  0
  151.5616  139.5786  154.3414 H   0  0  0  0  0  0  0  0  0  0  0  0
  151.4073  137.4418  156.1659 H   0  0  0  0  0  0  0  0  0  0  0  0
  149.9572  137.2376  155.2029 H   0  0  0  0  0  0  0  0  0  0  0  0
  151.0732  136.9526  153.4410 H   0  0  0  0  0  0  0  0  0  0  0  0
  150.2762  140.5140  156.6472 H   0  0  0  0  0  0  0  0  0  0  0  0
  151.1584  141.0692  158.3093 H   0  0  0  0  0  0  0  0  0  0  0  0
  153.6246  138.4835  159.2130 H   0  0  0  0  0  0  0  0  0  0  0  0
  155.1312  138.7238  161.1707 H   0  0  0  0  0  0  0  0  0  0  0  0
  155.1409  140.8952  162.4238 H   0  0  0  0  0  0  0  0  0  0  0  0
  151.3183  143.6750  161.5600 H   0  0  0  0  0  0  0  0  0  0  0  0
  152.9646  144.2155  161.2046 H   0  0  0  0  0  0  0  0  0  0  0  0
  150.4058  145.0312  159.7957 H   0  0  0  0  0  0  0  0  0  0  0  0
  151.6823  146.0902  160.4062 H   0  0  0  0  0  0  0  0  0  0  0  0
  151.6915  145.4180  157.7747 H   0  0  0  0  0  0  0  0  0  0  0  0
  153.2072  145.3667  158.6755 H   0  0  0  0  0  0  0  0  0  0  0  0
  153.2389  143.1246  157.9832 H   0  0  0  0  0  0  0  0  0  0  0  0
  151.4809  143.0557  157.8396 H   0  0  0  0  0  0  0  0  0  0  0  0
  1  2  1  0  0  0  0
  1 20  1  0  0  0  0
  1 21  1  0  0  0  0
  1 22  1  0  0  0  0
  2  3  1  0  0  0  0
  2  5  1  0  0  0  0
  2 23  1  0  0  0  0
  3  4  1  0  0  0  0
  3 24  1  0  0  0  0
  3 25  1  0  0  0  0
  4 26  1  0  0  0  0
  5  6  1  0  0  0  0
  5 27  1  0  0  0  0
  6  7  2  0  0  0  0
  6  8  1  0  0  0  0
  8  9  1  0  0  0  0
  8 28  1  0  0  0  0
  9 14  1  0  0  0  0
  9 10  2  0  0  0  0
 10 11  1  0  0  0  0
 10 29  1  0  0  0  0
 11 12  2  0  0  0  0
 11 30  1  0  0  0  0
 12 13  1  0  0  0  0
 12 31  1  0  0  0  0
 13 14  2  0  0  0  0
 14 15  1  0  0  0  0
 15 19  1  0  0  0  0
 15 16  1  0  0  0  0
 16 17  1  0  0  0  0
 16 32  1  0  0  0  0
 16 33  1  0  0  0  0
 17 18  1  0  0  0  0
 17 34  1  0  0  0  0
 17 35  1  0  0  0  0
 18 19  1  0  0  0  0
 18 36  1  0  0  0  0
 18 37  1  0  0  0  0
 19 38  1  0  0  0  0
 19 39  1  0  0  0  0
M  END
> <s_m_source_file>
AV-unprocessed.smi

> <i_m_source_file_index>
317

> <i_lp_mmshare_version>
43012

> <i_f3d_flags>
0

> <s_epik_input>
W09IXVtDSDJdW0NAQEhdKFtDSDNdKVtOSF1DKD1PKVtOSF1jMVtjSF1bY0hdW2NIXW5jMU4yW0NIMl1bQ0gyXVtDSDJdW0NIMl0y

> <s_epik_cmdline>
J2VwaWtfcHl0aG9uJywgJy1waCcsICc3LjAnLCAnLXRuJywgJzgnLCAnLW1hJywgJzIwMCcsICctbWV0YWxfYmluZGluZycsICctaW1hZScsICc8aW5maWxlLm1hZT4nLCAnLW9tYWUnLCAnPG91dGZpbGUubWFlPic=

> <r_lp_tautomer_probability>
1

> <r_epik_Ionization_Penalty>
0.098371

> <r_epik_Ionization_Penalty_Charging>
0

> <r_epik_Ionization_Penalty_Neutral>
0.098371

> <r_epik_State_Penalty>
0.0879016

> <r_epik_Charging_Adjusted_Penalty>
0.0879016

> <i_epik_Tot_Q>
0

> <i_epik_Tot_abs_Q>
0

> <r_epik_Metal_State_Penalty>
0.0753294

> <b_epik_Metal_Only>
0

> <s_lp_Force_Field>
OPLS_2005

> <r_lp_Energy>
32.6275

> <b_lp_Chiralities_Consistent>
1

> <s_lp_Variant>
AV-unprocessed.smi:317-1

> <Gold.Version>
5.8.1

> <Gold.Id.Protein>
6NUR|6NUR_protein|mol2

> <Gold.PLP.Fitness>
49.7733

> <Gold.PLP.PLP>
-43.2654

> <Gold.PLP.part.hbond>
-3.0000

> <Gold.PLP.part.metal>
0.0000

> <Gold.PLP.part.buried>
-5.6919

> <Gold.PLP.part.nonpolar>
-34.6819

> <Gold.PLP.part.repulsive>
0.2006

> <Gold.PLP.ligand.clash>
0.0000

> <Gold.PLP.ligand.torsion>
1.0096

> <Gold.PLP.Chemscore.Hbond>
2.7262

> <Gold.PLP.Chemscore.CHOScore>
0.0000

> <Gold.PLP.Chemscore.Metal>
0.0000

> <Gold.Chemscore.Hbonds>
donor molecule, donor type, donor heavy atom, donor atom, acceptor molecule, acceptor atom, score
      L1  H     4    26       P1  7949  0.47
      P1  H  7997  8010       L1     7  1.00
      P1  H 10752 10763       L1     4  1.00

> <Gold.PLP.Chemscore.Internal.Correction>
0.3484

> <Gold.Rescore>
     Score         DG    S(hbond)    S(metal)    S(lipo)     H(rot)  DE(clash)    DE(int)     intcor
     14.63     -17.78       1.81        0.00      98.94       2.08       0.01       3.13       ----

> <Gold.Chemscore.Fitness>
14.6312

> <Gold.Chemscore.DG>
-17.7780

> <Gold.Chemscore.ZeroCoef>
-5.4800

> <Gold.Chemscore.Hbond>
1.8082

> <Gold.Chemscore.Metal>
0.0000

> <Gold.Chemscore.Lipo>
98.9431

> <Gold.Chemscore.Internal_Hbond>
0.0000

> <Gold.Chemscore.DEClash>
0.0129

> <Gold.Chemscore.DEInternal>
3.1340

> <Gold.Chemscore.Rot>
2.0773

> <Gold.Chemscore.Internal.Correction>
   9.000000E+99

> <Gold.Chemscore.Hbonds>
donor molecule, donor type, donor heavy atom, donor atom, acceptor molecule, acceptor atom, score
      L1  H     4    26       P1  7949  0.18
      P1  H  7997  8010       L1     7  0.45
      P1  H 10752 10763       L1     4  0.43

> <Gold.Chemscore.Hbond.Weighted>
-6.0395

> <Gold.Chemscore.Metal.Weighted>
-0.0000

> <Gold.Chemscore.Lipo.Weighted>
-11.5763

> <Gold.Chemscore.Internal_Hbond.Weighted>
0.0000

> <Gold.Chemscore.DEClash.Weighted>
0.0129

> <Gold.Chemscore.DEInternal.Weighted>
3.1340

> <Gold.Chemscore.Rot.Weighted>
5.3178

> <Gold.Chemscore.Internal.Correction.Weighted>
   9.000000E+99

> <Gold.Protein.RotatedTorsions>
[ 6907 6896 6895 6894 ] final  120.96 input  -60.11 | X-H torsion
[ 7974 7965 7964 7962 ] final   99.63 input  175.53 | X-H torsion
[ 8008 7997 7996 7995 ] final   62.60 input   59.86 | X-H torsion
[ 10167 10162 10161 10158 ] final   19.88 input  -65.29 | X-H torsion
[ 10718 10713 10712 10709 ] final  -37.56 input   66.30 | X-H torsion
[ 10763 10752 10751 10750 ] final   28.44 input  -60.55 | X-H torsion
[ 11005 11000 10999 10996 ] final  -18.31 input  -57.11 | X-H torsion

> <Gold.Protein.ActiveResidues>
 VAL166  LYS551  ARG553  GLY616  TRP617  ASP618  TYR619  PRO620  LYS621  CYS622 
 ASP623  PHE694  ASN695  SER759  ASP760  ASP761  ALA762  ILE779  LEU786  VAL792 
 PHE793  MET794  SER795  GLU796  ALA797  LYS798  CYS799  TRP800  GLU811  SER814 

> <Gold.Protein.RotatedAtoms>
  152.4358  133.7359  159.6613 H   0  0  0  0  0  0  0  0  0  0  0  0  # atno 6907 bound_to 6896
  150.8242  133.8190  159.3132 H   0  0  0  0  0  0  0  0  0  0  0  0  # atno 6908 bound_to 6896
  151.5863  135.1058  160.0080 H   0  0  0  0  0  0  0  0  0  0  0  0  # atno 6909 bound_to 6896
  145.3963  139.2355  143.3324 H   0  0  0  0  0  0  0  0  0  0  0  0  # atno 7974 bound_to 7965
  155.6170  140.3495  155.4640 H   0  0  0  0  0  0  0  0  0  0  0  0  # atno 8008 bound_to 7997
  156.0110  140.1233  157.0478 H   0  0  0  0  0  0  0  0  0  0  0  0  # atno 8009 bound_to 7997
  154.4280  140.1081  156.5815 H   0  0  0  0  0  0  0  0  0  0  0  0  # atno 8010 bound_to 7997
  140.5546  143.9448  150.6600 H   0  0  0  0  0  0  0  0  0  0  0  0  # atno 10167 bound_to 10162
  156.3138  130.4256  149.8025 H   0  0  0  0  0  0  0  0  0  0  0  0  # atno 10718 bound_to 10713
  153.0492  135.6513  154.0738 H   0  0  0  0  0  0  0  0  0  0  0  0  # atno 10763 bound_to 10752
  154.0429  135.2902  155.3354 H   0  0  0  0  0  0  0  0  0  0  0  0  # atno 10764 bound_to 10752
  154.6770  135.5334  153.8278 H   0  0  0  0  0  0  0  0  0  0  0  0  # atno 10765 bound_to 10752
  140.8255  133.8036  155.9704 H   0  0  0  0  0  0  0  0  0  0  0  0  # atno 11005 bound_to 11000
  146.2773  140.4654  142.8790 LP  0  0  0  0  0  0  0  0  0  0  0  0  # atno 17320 bound_to 7965
  144.8405  140.6849  143.6232 LP  0  0  0  0  0  0  0  0  0  0  0  0  # atno 17321 bound_to 7965
  140.2882  143.3342  152.1087 LP  0  0  0  0  0  0  0  0  0  0  0  0  # atno 17342 bound_to 10162
  139.5042  144.6771  151.6101 LP  0  0  0  0  0  0  0  0  0  0  0  0  # atno 17343 bound_to 10162
  156.5359  130.8278  151.3253 LP  0  0  0  0  0  0  0  0  0  0  0  0  # atno 17370 bound_to 10713
  157.7397  130.9836  150.2329 LP  0  0  0  0  0  0  0  0  0  0  0  0  # atno 17371 bound_to 10713
  140.9053  134.2327  157.5018 LP  0  0  0  0  0  0  0  0  0  0  0  0  # atno 17394 bound_to 11000
  139.8706  134.9725  156.4777 LP  0  0  0  0  0  0  0  0  0  0  0  0  # atno 17395 bound_to 11000

$$$$
