AV-unprocessed.smi:160|AV-procd|sdf|1369|dock10
  -GOLD-   2262019 83D 1   1.00000     0.00000
 Structure written by MMmdl.
 28 29  0  0  0  0  0  0  0  0  2 V2000
  152.3173  137.4658  153.5612 N   0  5  0  0  0  0  0  0  0  0  0  0
  152.8146  138.5579  154.1814 C   0  0  0  0  0  0  0  0  0  0  0  0
  153.9865  138.9331  154.1653 O   0  0  0  0  0  0  0  0  0  0  0  0
  151.7932  139.3617  154.9508 C   0  0  0  0  0  0  0  0  0  0  0  0
  152.1335  139.9838  156.1205 N   0  0  0  0  0  0  0  0  0  0  0  0
  150.9659  140.5406  156.4123 C   0  0  0  0  0  0  0  0  0  0  0  0
  150.0028  140.2975  155.5189 N   0  0  0  0  0  0  0  0  0  0  0  0
  148.5718  140.7486  155.5096 C   0  0  2  0  0  0  0  0  0  0  0  0
  147.7531  139.6280  155.6624 O   0  0  0  0  0  0  0  0  0  0  0  0
  147.1964  139.2639  154.4039 C   0  0  1  0  0  0  0  0  0  0  0  0
  145.9465  138.3832  154.5802 C   0  0  0  0  0  0  0  0  0  0  0  0
  145.3102  138.1844  153.3360 O   0  0  0  0  0  0  0  0  0  0  0  0
  146.9576  140.6270  153.7381 C   0  0  1  0  0  0  0  0  0  0  0  0
  145.7489  141.2103  154.1921 O   0  0  0  0  0  0  0  0  0  0  0  0
  148.1507  141.4586  154.1988 C   0  0  2  0  0  0  0  0  0  0  0  0
  149.1480  141.4824  153.1925 O   0  0  0  0  0  0  0  0  0  0  0  0
  150.5281  139.5116  154.5458 N   0  0  0  0  0  0  0  0  0  0  0  0
  148.4861  141.3878  156.3890 H   0  0  0  0  0  0  0  0  0  0  0  0
  147.9471  138.7280  153.8203 H   0  0  0  0  0  0  0  0  0  0  0  0
  146.8995  140.5400  152.6521 H   0  0  0  0  0  0  0  0  0  0  0  0
  147.8702  142.4891  154.4209 H   0  0  0  0  0  0  0  0  0  0  0  0
  151.9869  137.5617  152.5934 H   0  0  0  0  0  0  0  0  0  0  0  0
  150.8100  141.1423  157.2956 H   0  0  0  0  0  0  0  0  0  0  0  0
  146.1960  137.4232  155.0332 H   0  0  0  0  0  0  0  0  0  0  0  0
  145.2290  138.8773  155.2358 H   0  0  0  0  0  0  0  0  0  0  0  0
  144.6899  138.8837  153.1989 H   0  0  0  0  0  0  0  0  0  0  0  0
  145.0264  140.7178  153.8339 H   0  0  0  0  0  0  0  0  0  0  0  0
  148.9325  140.8358  152.5382 H   0  0  0  0  0  0  0  0  0  0  0  0
  1  2  1  0  0  0  0
  1 22  1  0  0  0  0
  2  3  2  0  0  0  0
  2  4  1  0  0  0  0
  4 17  2  0  0  0  0
  4  5  1  0  0  0  0
  5  6  2  0  0  0  0
  6  7  1  0  0  0  0
  6 23  1  0  0  0  0
  7  8  1  0  0  0  0
  7 17  1  0  0  0  0
  8 18  1  0  0  0  0
  8 15  1  0  0  0  0
  8  9  1  0  0  0  0
  9 10  1  0  0  0  0
 10 19  1  0  0  0  0
 10 11  1  0  0  0  0
 10 13  1  0  0  0  0
 11 12  1  0  0  0  0
 11 24  1  0  0  0  0
 11 25  1  0  0  0  0
 12 26  1  0  0  0  0
 13 20  1  0  0  0  0
 13 14  1  0  0  0  0
 13 15  1  0  0  0  0
 14 27  1  0  0  0  0
 15 21  1  0  0  0  0
 15 16  1  0  0  0  0
 16 28  1  0  0  0  0
M  CHG  1   1  -1
M  END
> <s_m_source_file>
AV-unprocessed.smi

> <i_m_source_file_index>
160

> <i_lp_mmshare_version>
43012

> <i_f3d_flags>
0

> <s_epik_input>
W05IMl1DKD1PKWMxbltjSF1uKG4xKVtDQEBIXTJPW0NASF0oW0NIMl1bT0hdKVtDQEBIXShbT0hdKVtDQEhdMltPSF0=

> <s_epik_cmdline>
J2VwaWtfcHl0aG9uJywgJy1waCcsICc3LjAnLCAnLXRuJywgJzgnLCAnLW1hJywgJzIwMCcsICctbWV0YWxfYmluZGluZycsICctaW1hZScsICc8aW5maWxlLm1hZT4nLCAnLW9tYWUnLCAnPG91dGZpbGUubWFlPic=

> <r_lp_tautomer_probability>
1

> <r_epik_Ionization_Penalty>
6.6993

> <r_epik_Ionization_Penalty_Charging>
6.6993

> <r_epik_Ionization_Penalty_Neutral>
6.01698e-06

> <r_epik_State_Penalty>
6.69929

> <r_epik_Charging_Adjusted_Penalty>
13.3986

> <i_epik_Tot_Q>
-1

> <i_epik_Tot_abs_Q>
1

> <r_epik_Metal_State_Penalty>
2.62798

> <b_epik_Metal_Only>
1

> <s_epik_Chemistry_Notes>
This compound contains an acetal/aminal-like group ( X-CH(R)-Y where X, Y are N, S, or O) that may be acid/base labile, releasing an aldehyde.

> <s_lp_Force_Field>
OPLS_2005

> <r_lp_Energy>
46.3304

> <b_lp_Chiralities_Consistent>
1

> <s_lp_Variant>
AV-unprocessed.smi:160-27

> <Gold.Version>
5.8.1

> <Gold.Id.Protein>
6NUR|6NUR_protein|mol2

> <Gold.PLP.Fitness>
47.0548

> <Gold.PLP.PLP>
-27.0874

> <Gold.PLP.part.hbond>
-7.7302

> <Gold.PLP.part.metal>
0.0000

> <Gold.PLP.part.buried>
-4.6187

> <Gold.PLP.part.nonpolar>
-15.6120

> <Gold.PLP.part.repulsive>
0.1075

> <Gold.PLP.ligand.clash>
0.0000

> <Gold.PLP.ligand.torsion>
0.5938

> <Gold.PLP.Chemscore.Hbond>
7.0496

> <Gold.PLP.Chemscore.CHOScore>
0.0000

> <Gold.PLP.Chemscore.Metal>
0.0000

> <Gold.Chemscore.Hbonds>
donor molecule, donor type, donor heavy atom, donor atom, acceptor molecule, acceptor atom, score
      L1  H     1    22       P1  7949  0.43
      L1  H    12    26       P1 10175  1.00
      L1  H    14    27       P1 10175  0.99
      L1  H    16    28       P1  7957  0.82
      P1  H  7997  8009       L1     3  0.89
      P1  H  8011  8017       L1    16  0.62
      P1  H 10752 10764       L1     1  1.82

> <Gold.PLP.Chemscore.Internal.Correction>
0.0063

> <Gold.Rescore>
     Score         DG    S(hbond)    S(metal)    S(lipo)     H(rot)  DE(clash)    DE(int)     intcor
     12.10     -13.60       4.90        0.00      18.00       4.04       0.02       1.48       ----

> <Gold.Chemscore.Fitness>
12.0983

> <Gold.Chemscore.DG>
-13.6043

> <Gold.Chemscore.ZeroCoef>
-5.4800

> <Gold.Chemscore.Hbond>
4.8985

> <Gold.Chemscore.Metal>
0.0000

> <Gold.Chemscore.Lipo>
18.0043

> <Gold.Chemscore.Internal_Hbond>
0.0000

> <Gold.Chemscore.DEClash>
0.0239

> <Gold.Chemscore.DEInternal>
1.4821

> <Gold.Chemscore.Rot>
4.0403

> <Gold.Chemscore.Internal.Correction>
   9.000000E+99

> <Gold.Chemscore.Hbonds>
donor molecule, donor type, donor heavy atom, donor atom, acceptor molecule, acceptor atom, score
      L1  H     1    22       P1  7949  0.41
      L1  H    12    26       P1 10175  0.95
      L1  H    14    27       P1 10175  0.91
      L1  H    16    28       P1  7957  0.81
      P1  H  7997  8009       L1     3  0.81
      P1  H  8011  8017       L1    16  0.10
      P1  H 10752 10764       L1     1  0.76

> <Gold.Chemscore.Hbond.Weighted>
-16.3608

> <Gold.Chemscore.Metal.Weighted>
-0.0000

> <Gold.Chemscore.Lipo.Weighted>
-2.1065

> <Gold.Chemscore.Internal_Hbond.Weighted>
0.0000

> <Gold.Chemscore.DEClash.Weighted>
0.0239

> <Gold.Chemscore.DEInternal.Weighted>
1.4821

> <Gold.Chemscore.Rot.Weighted>
10.3431

> <Gold.Chemscore.Internal.Correction.Weighted>
   9.000000E+99

> <Gold.Protein.RotatedTorsions>
[ 6907 6896 6895 6894 ] final  127.95 input  -60.11 | X-H torsion
[ 7974 7965 7964 7962 ] final   -9.40 input  175.53 | X-H torsion
[ 8008 7997 7996 7995 ] final -119.02 input   59.86 | X-H torsion
[ 10167 10162 10161 10158 ] final  118.27 input  -65.29 | X-H torsion
[ 10718 10713 10712 10709 ] final  -12.72 input   66.30 | X-H torsion
[ 10763 10752 10751 10750 ] final  -97.11 input  -60.55 | X-H torsion
[ 11005 11000 10999 10996 ] final -109.85 input  -57.11 | X-H torsion

> <Gold.Protein.ActiveResidues>
 VAL166  LYS551  ARG553  GLY616  TRP617  ASP618  TYR619  PRO620  LYS621  CYS622 
 ASP623  PHE694  ASN695  SER759  ASP760  ASP761  ALA762  ILE779  LEU786  VAL792 
 PHE793  MET794  SER795  GLU796  ALA797  LYS798  CYS799  TRP800  GLU811  SER814 

> <Gold.Protein.RotatedAtoms>
  152.3765  133.6488  159.6127 H   0  0  0  0  0  0  0  0  0  0  0  0  # atno 6907 bound_to 6896
  150.7708  133.9185  159.3399 H   0  0  0  0  0  0  0  0  0  0  0  0  # atno 6908 bound_to 6896
  151.6998  135.0933  160.0300 H   0  0  0  0  0  0  0  0  0  0  0  0  # atno 6909 bound_to 6896
  146.2253  140.2611  142.8352 H   0  0  0  0  0  0  0  0  0  0  0  0  # atno 7974 bound_to 7965
  155.1090  140.0397  157.2718 H   0  0  0  0  0  0  0  0  0  0  0  0  # atno 8008 bound_to 7997
  154.6700  140.2610  155.6992 H   0  0  0  0  0  0  0  0  0  0  0  0  # atno 8009 bound_to 7997
  156.2654  140.2799  156.1205 H   0  0  0  0  0  0  0  0  0  0  0  0  # atno 8010 bound_to 7997
  139.6123  144.7084  151.2817 H   0  0  0  0  0  0  0  0  0  0  0  0  # atno 10167 bound_to 10162
  156.6405  130.4926  149.6096 H   0  0  0  0  0  0  0  0  0  0  0  0  # atno 10718 bound_to 10713
  154.7299  135.5058  153.8947 H   0  0  0  0  0  0  0  0  0  0  0  0  # atno 10763 bound_to 10752
  153.0940  135.6667  153.9807 H   0  0  0  0  0  0  0  0  0  0  0  0  # atno 10764 bound_to 10752
  153.9611  135.3048  155.3412 H   0  0  0  0  0  0  0  0  0  0  0  0  # atno 10765 bound_to 10752
  141.0825  133.9196  157.2258 H   0  0  0  0  0  0  0  0  0  0  0  0  # atno 11005 bound_to 11000
  144.9339  140.8005  143.5672 LP  0  0  0  0  0  0  0  0  0  0  0  0  # atno 17320 bound_to 7965
  145.2557  139.2013  143.4919 LP  0  0  0  0  0  0  0  0  0  0  0  0  # atno 17321 bound_to 7965
  140.7327  143.6815  150.7997 LP  0  0  0  0  0  0  0  0  0  0  0  0  # atno 17342 bound_to 10162
  140.0412  143.5344  152.2717 LP  0  0  0  0  0  0  0  0  0  0  0  0  # atno 17343 bound_to 10162
  156.2163  130.6709  151.1322 LP  0  0  0  0  0  0  0  0  0  0  0  0  # atno 17370 bound_to 10713
  157.7172  131.0703  150.6279 LP  0  0  0  0  0  0  0  0  0  0  0  0  # atno 17371 bound_to 10713
  139.9640  135.0147  156.9337 LP  0  0  0  0  0  0  0  0  0  0  0  0  # atno 17394 bound_to 11000
  140.5437  134.0695  155.7349 LP  0  0  0  0  0  0  0  0  0  0  0  0  # atno 17395 bound_to 11000

$$$$
