AV-unprocessed.smi:2252|AV-procd|sdf|9113|dock8
  -GOLD-   2272012313D 1   1.00000     0.00000
 Structure written by MMmdl.
 44 46  0  0  0  0  0  0  0  0  1 V2000
  149.5216  135.5770  164.2843 C   0  0  0  0  0  0  0  0  0  0  0  0
  148.6190  136.0310  163.2437 N   0  0  0  0  0  0  0  0  0  0  0  0
  147.2856  135.6689  163.1050 C   0  0  0  0  0  0  0  0  0  0  0  0
  146.8105  136.3318  161.9992 C   0  0  0  0  0  0  0  0  0  0  0  0
  147.8308  137.0993  161.4473 N   0  0  0  0  0  0  0  0  0  0  0  0
  148.8845  136.8730  162.2262 C   0  0  0  0  0  0  0  0  0  0  0  0
  150.2227  137.5113  162.0209 C   0  0  0  0  0  0  0  0  0  0  0  0
  150.1495  139.0471  162.0353 C   0  0  0  0  0  0  0  0  0  0  0  0
  150.6433  139.6160  160.7874 N   0  0  0  0  0  0  0  0  0  0  0  0
  150.8238  140.9267  160.5609 C   0  0  0  0  0  0  0  0  0  0  0  0
  150.5652  141.7963  161.3941 O   0  0  0  0  0  0  0  0  0  0  0  0
  151.3727  141.3195  159.1776 C   0  0  2  0  0  0  0  0  0  0  0  0
  152.7008  142.0884  159.3512 C   0  0  0  0  0  0  0  0  0  0  0  0
  154.0076  141.3499  159.5519 C   0  0  0  0  0  0  0  0  0  0  0  0
  153.4050  142.1229  160.6935 C   0  0  0  0  0  0  0  0  0  0  0  0
  150.4038  142.1096  158.3783 N   0  0  0  0  0  0  0  0  0  0  0  0
  150.9338  142.6584  157.1308 C   0  0  0  0  0  0  0  0  0  0  0  0
  149.8903  143.6943  156.7086 C   0  0  0  0  0  0  0  0  0  0  0  0
  149.1748  144.0763  158.0008 C   0  0  0  0  0  0  0  0  0  0  0  0
  149.8902  143.2766  159.0889 C   0  0  0  0  0  0  0  0  0  0  0  0
  148.9686  135.0318  165.0496 H   0  0  0  0  0  0  0  0  0  0  0  0
  150.0153  136.4309  164.7489 H   0  0  0  0  0  0  0  0  0  0  0  0
  150.2752  134.9166  163.8549 H   0  0  0  0  0  0  0  0  0  0  0  0
  146.7966  134.9898  163.7878 H   0  0  0  0  0  0  0  0  0  0  0  0
  145.8231  136.3162  161.5622 H   0  0  0  0  0  0  0  0  0  0  0  0
  150.9146  137.1509  162.7827 H   0  0  0  0  0  0  0  0  0  0  0  0
  150.6241  137.1710  161.0654 H   0  0  0  0  0  0  0  0  0  0  0  0
  149.1167  139.3687  162.1729 H   0  0  0  0  0  0  0  0  0  0  0  0
  150.7149  139.4513  162.8770 H   0  0  0  0  0  0  0  0  0  0  0  0
  150.8740  138.9685  160.0476 H   0  0  0  0  0  0  0  0  0  0  0  0
  151.5813  140.3922  158.6398 H   0  0  0  0  0  0  0  0  0  0  0  0
  152.7510  143.0159  158.7828 H   0  0  0  0  0  0  0  0  0  0  0  0
  153.9738  140.2637  159.6084 H   0  0  0  0  0  0  0  0  0  0  0  0
  154.8937  141.7635  159.0749 H   0  0  0  0  0  0  0  0  0  0  0  0
  153.8865  143.0551  160.9818 H   0  0  0  0  0  0  0  0  0  0  0  0
  152.9749  141.5487  161.5120 H   0  0  0  0  0  0  0  0  0  0  0  0
  151.8920  143.1480  157.3149 H   0  0  0  0  0  0  0  0  0  0  0  0
  151.0815  141.8960  156.3651 H   0  0  0  0  0  0  0  0  0  0  0  0
  150.3557  144.5542  156.2261 H   0  0  0  0  0  0  0  0  0  0  0  0
  149.1818  143.2600  156.0021 H   0  0  0  0  0  0  0  0  0  0  0  0
  149.2132  145.1484  158.1963 H   0  0  0  0  0  0  0  0  0  0  0  0
  148.1247  143.7858  157.9454 H   0  0  0  0  0  0  0  0  0  0  0  0
  149.2195  143.0056  159.9050 H   0  0  0  0  0  0  0  0  0  0  0  0
  150.7136  143.8617  159.5031 H   0  0  0  0  0  0  0  0  0  0  0  0
  1  2  1  0  0  0  0
  1 21  1  0  0  0  0
  1 22  1  0  0  0  0
  1 23  1  0  0  0  0
  2  6  1  0  0  0  0
  2  3  1  0  0  0  0
  3  4  2  0  0  0  0
  3 24  1  0  0  0  0
  4  5  1  0  0  0  0
  4 25  1  0  0  0  0
  5  6  2  0  0  0  0
  6  7  1  0  0  0  0
  7  8  1  0  0  0  0
  7 26  1  0  0  0  0
  7 27  1  0  0  0  0
  8  9  1  0  0  0  0
  8 28  1  0  0  0  0
  8 29  1  0  0  0  0
  9 10  1  0  0  0  0
  9 30  1  0  0  0  0
 10 11  2  0  0  0  0
 10 12  1  0  0  0  0
 12 13  1  0  0  0  0
 12 16  1  0  0  0  0
 12 31  1  0  0  0  0
 13 15  1  0  0  0  0
 13 14  1  0  0  0  0
 13 32  1  0  0  0  0
 14 15  1  0  0  0  0
 14 33  1  0  0  0  0
 14 34  1  0  0  0  0
 15 35  1  0  0  0  0
 15 36  1  0  0  0  0
 16 20  1  0  0  0  0
 16 17  1  0  0  0  0
 17 18  1  0  0  0  0
 17 37  1  0  0  0  0
 17 38  1  0  0  0  0
 18 19  1  0  0  0  0
 18 39  1  0  0  0  0
 18 40  1  0  0  0  0
 19 20  1  0  0  0  0
 19 41  1  0  0  0  0
 19 42  1  0  0  0  0
 20 43  1  0  0  0  0
 20 44  1  0  0  0  0
M  END
> <s_m_source_file>
AV-unprocessed.smi

> <i_m_source_file_index>
2252

> <i_lp_mmshare_version>
43012

> <i_f3d_flags>
0

> <s_epik_input>
W0NIM11uMVtjSF1bY0hdbmMxW0NIMl1bQ0gyXVtOSF1DKD1PKVtDQEhdKFtDSF0yW0NIMl1bQ0gyXTIpTjNbQ0gyXVtDSDJdW0NIMl1bQ0gyXTM=

> <s_epik_cmdline>
J2VwaWtfcHl0aG9uJywgJy1waCcsICc3LjAnLCAnLXRuJywgJzgnLCAnLW1hJywgJzIwMCcsICctbWV0YWxfYmluZGluZycsICctaW1hZScsICc8aW5maWxlLm1hZT4nLCAnLW9tYWUnLCAnPG91dGZpbGUubWFlPic=

> <r_epik_Ionization_Penalty>
3.7689

> <r_epik_Ionization_Penalty_Charging>
1.29411

> <r_epik_Ionization_Penalty_Neutral>
2.4748

> <r_epik_State_Penalty>
3.85943

> <r_epik_Charging_Adjusted_Penalty>
5.15353

> <i_epik_Tot_Q>
0

> <i_epik_Tot_abs_Q>
0

> <r_epik_Metal_State_Penalty>
2.88358

> <b_epik_Metal_Only>
1

> <s_lp_Force_Field>
OPLS_2005

> <r_lp_Energy>
30.6984

> <b_lp_Chiralities_Consistent>
1

> <s_lp_Variant>
AV-unprocessed.smi:2252-11

> <Gold.Version>
5.8.1

> <Gold.Id.Protein>
6NUR|6NUR_protein|mol2

> <Gold.PLP.Fitness>
46.4109

> <Gold.PLP.PLP>
-42.9847

> <Gold.PLP.part.hbond>
-2.0000

> <Gold.PLP.part.metal>
0.0000

> <Gold.PLP.part.buried>
-4.9111

> <Gold.PLP.part.nonpolar>
-37.2082

> <Gold.PLP.part.repulsive>
0.1874

> <Gold.PLP.ligand.clash>
0.0000

> <Gold.PLP.ligand.torsion>
1.4345

> <Gold.PLP.Chemscore.Hbond>
1.7040

> <Gold.PLP.Chemscore.CHOScore>
0.0000

> <Gold.PLP.Chemscore.Metal>
0.0000

> <Gold.Chemscore.Hbonds>
donor molecule, donor type, donor heavy atom, donor atom, acceptor molecule, acceptor atom, score
      P1  H  6934  6947       L1     5  0.65

> <Gold.PLP.Chemscore.Internal.Correction>
1.1831

> <Gold.Rescore>
     Score         DG    S(hbond)    S(metal)    S(lipo)     H(rot)  DE(clash)    DE(int)     intcor
     15.02     -17.84       1.61        0.00     100.41       1.86       0.07       2.75       ----

> <Gold.Chemscore.Fitness>
15.0213

> <Gold.Chemscore.DG>
-17.8448

> <Gold.Chemscore.ZeroCoef>
-5.4800

> <Gold.Chemscore.Hbond>
1.6118

> <Gold.Chemscore.Metal>
0.0000

> <Gold.Chemscore.Lipo>
100.4111

> <Gold.Chemscore.Internal_Hbond>
0.0000

> <Gold.Chemscore.DEClash>
0.0750

> <Gold.Chemscore.DEInternal>
2.7486

> <Gold.Chemscore.Rot>
1.8619

> <Gold.Chemscore.Internal.Correction>
   9.000000E+99

> <Gold.Chemscore.Hbonds>
donor molecule, donor type, donor heavy atom, donor atom, acceptor molecule, acceptor atom, score
      P1  H  6934  6947       L1     5  0.52

> <Gold.Chemscore.Hbond.Weighted>
-5.3833

> <Gold.Chemscore.Metal.Weighted>
-0.0000

> <Gold.Chemscore.Lipo.Weighted>
-11.7481

> <Gold.Chemscore.Internal_Hbond.Weighted>
0.0000

> <Gold.Chemscore.DEClash.Weighted>
0.0750

> <Gold.Chemscore.DEInternal.Weighted>
2.7486

> <Gold.Chemscore.Rot.Weighted>
4.7665

> <Gold.Chemscore.Internal.Correction.Weighted>
   9.000000E+99

> <Gold.Protein.RotatedTorsions>
[ 6907 6896 6895 6894 ] final  -53.62 input  -60.11 | X-H torsion
[ 7974 7965 7964 7962 ] final   52.87 input  175.53 | X-H torsion
[ 8008 7997 7996 7995 ] final  134.67 input   59.86 | X-H torsion
[ 10167 10162 10161 10158 ] final  -91.71 input  -65.29 | X-H torsion
[ 10718 10713 10712 10709 ] final   46.83 input   66.30 | X-H torsion
[ 10763 10752 10751 10750 ] final  -49.80 input  -60.55 | X-H torsion
[ 11005 11000 10999 10996 ] final  -73.97 input  -57.11 | X-H torsion

> <Gold.Protein.ActiveResidues>
 VAL166  LYS551  ARG553  GLY616  TRP617  ASP618  TYR619  PRO620  LYS621  CYS622 
 ASP623  PHE694  ASN695  SER759  ASP760  ASP761  ALA762  ILE779  LEU786  VAL792 
 PHE793  MET794  SER795  GLU796  ALA797  LYS798  CYS799  TRP800  GLU811  SER814 

> <Gold.Protein.RotatedAtoms>
  150.8411  134.7703  159.6932 H   0  0  0  0  0  0  0  0  0  0  0  0  # atno 6907 bound_to 6896
  152.4498  134.5415  159.9850 H   0  0  0  0  0  0  0  0  0  0  0  0  # atno 6908 bound_to 6896
  151.5555  133.3373  159.2997 H   0  0  0  0  0  0  0  0  0  0  0  0  # atno 6909 bound_to 6896
  145.9769  139.4204  143.0156 H   0  0  0  0  0  0  0  0  0  0  0  0  # atno 7974 bound_to 7965
  156.3000  140.2490  156.3455 H   0  0  0  0  0  0  0  0  0  0  0  0  # atno 8008 bound_to 7997
  154.9015  140.0406  157.1915 H   0  0  0  0  0  0  0  0  0  0  0  0  # atno 8009 bound_to 7997
  154.8496  140.2904  155.5611 H   0  0  0  0  0  0  0  0  0  0  0  0  # atno 8010 bound_to 7997
  140.3422  143.2936  151.9822 H   0  0  0  0  0  0  0  0  0  0  0  0  # atno 10167 bound_to 10162
  157.4522  130.8145  149.7800 H   0  0  0  0  0  0  0  0  0  0  0  0  # atno 10718 bound_to 10713
  154.1000  135.6564  153.4866 H   0  0  0  0  0  0  0  0  0  0  0  0  # atno 10763 bound_to 10752
  153.0292  135.5223  154.7295 H   0  0  0  0  0  0  0  0  0  0  0  0  # atno 10764 bound_to 10752
  154.6445  135.2993  155.0032 H   0  0  0  0  0  0  0  0  0  0  0  0  # atno 10765 bound_to 10752
  141.1629  133.6896  156.7293 H   0  0  0  0  0  0  0  0  0  0  0  0  # atno 11005 bound_to 11000
  145.7826  140.9850  143.1091 LP  0  0  0  0  0  0  0  0  0  0  0  0  # atno 17320 bound_to 7965
  144.6851  139.9583  143.7479 LP  0  0  0  0  0  0  0  0  0  0  0  0  # atno 17321 bound_to 7965
  139.4839  144.6147  151.7368 LP  0  0  0  0  0  0  0  0  0  0  0  0  # atno 17342 bound_to 10162
  140.5298  144.0748  150.6050 LP  0  0  0  0  0  0  0  0  0  0  0  0  # atno 17343 bound_to 10162
  155.9992  130.3890  150.2673 LP  0  0  0  0  0  0  0  0  0  0  0  0  # atno 17370 bound_to 10713
  157.0846  131.0153  151.3144 LP  0  0  0  0  0  0  0  0  0  0  0  0  # atno 17371 bound_to 10713
  140.2757  134.8356  157.3888 LP  0  0  0  0  0  0  0  0  0  0  0  0  # atno 17394 bound_to 11000
  140.1479  134.4887  155.7982 LP  0  0  0  0  0  0  0  0  0  0  0  0  # atno 17395 bound_to 11000

$$$$
