AV-unprocessed.smi:21|AV-procd|sdf|167|dock1
  -GOLD-   2262015413D 1   1.00000     0.00000
 Structure written by MMmdl.
 61 64  0  0  0  0  0  0  0  0  1 V2000
  152.7071  142.8301  162.1540 C   0  0  0  0  0  0  0  0  0  0  0  0
  153.7006  142.0685  161.4871 O   0  0  0  0  0  0  0  0  0  0  0  0
  153.5325  142.0314  160.0770 C   0  0  1  0  0  0  0  0  0  0  0  0
  152.2432  141.2791  159.7123 C   0  0  0  0  0  0  0  0  0  0  0  0
  151.3693  142.3247  159.0005 C   0  0  2  0  0  0  0  0  0  0  0  0
  150.3897  141.7146  157.9753 C   0  0  0  0  0  0  0  0  0  0  0  0
  151.0076  140.6561  157.1724 N   0  0  0  0  0  0  0  0  0  0  0  0
  151.4430  140.9918  155.8225 C   0  0  0  0  0  0  0  0  0  0  0  0
  150.8977  139.3497  157.5494 C   0  0  0  0  0  0  0  0  0  0  0  0
  152.0399  138.6293  157.7083 N   0  0  0  0  0  0  0  0  0  0  0  0
  151.9986  137.3471  158.0776 C   0  0  0  0  0  0  0  0  0  0  0  0
  150.9334  136.5894  158.3345 N   0  0  0  0  0  0  0  0  0  0  0  0
  149.7781  137.2942  158.1759 C   0  0  0  0  0  0  0  0  0  0  0  0
  149.6665  138.6640  157.7937 C   0  0  0  0  0  0  0  0  0  0  0  0
  148.3219  139.0226  157.7639 N   0  0  0  0  0  0  0  0  0  0  0  0
  147.6830  137.9367  158.0999 C   0  0  0  0  0  0  0  0  0  0  0  0
  148.4799  136.8425  158.3418 N   0  0  0  0  0  0  0  0  0  0  0  0
  148.0330  135.5186  158.7403 C   0  0  0  0  0  0  0  0  0  0  0  0
  147.8198  135.3249  160.2685 C   0  0  1  0  0  0  0  0  0  0  0  0
  146.7520  136.3321  160.7613 C   0  0  0  0  0  0  0  0  0  0  0  0
  147.2847  137.2214  161.7214 O   0  0  0  0  0  0  0  0  0  0  0  0
  147.4430  133.8641  160.6614 C   0  0  1  0  0  0  0  0  0  0  0  0
  146.8881  133.6750  162.0682 C   0  0  0  0  0  0  0  0  0  0  0  0
  146.0972  132.3702  161.9858 C   0  0  0  0  0  0  0  0  0  0  0  0
  145.8488  132.1400  160.6055 O   0  0  0  0  0  0  0  0  0  0  0  0
  146.2878  133.2610  159.8545 C   0  0  0  0  0  0  0  0  0  0  0  0
  152.3186  143.2741  158.4414 N   0  0  0  0  0  0  0  0  0  0  0  0
  151.7225  144.5465  158.0557 C   0  0  0  0  0  0  0  0  0  0  0  0
  153.3092  143.4309  159.4882 C   0  0  0  0  0  0  0  0  0  0  0  0
  154.3802  141.5384  159.5975 H   0  0  0  0  0  0  0  0  0  0  0  0
  150.7886  142.8408  159.7675 H   0  0  0  0  0  0  0  0  0  0  0  0
  152.9053  142.8283  163.2257 H   0  0  0  0  0  0  0  0  0  0  0  0
  151.7106  142.4153  161.9981 H   0  0  0  0  0  0  0  0  0  0  0  0
  152.7116  143.8664  161.8144 H   0  0  0  0  0  0  0  0  0  0  0  0
  152.4858  140.4550  159.0404 H   0  0  0  0  0  0  0  0  0  0  0  0
  151.7393  140.8561  160.5823 H   0  0  0  0  0  0  0  0  0  0  0  0
  149.5462  141.2650  158.4987 H   0  0  0  0  0  0  0  0  0  0  0  0
  149.9509  142.5001  157.3603 H   0  0  0  0  0  0  0  0  0  0  0  0
  152.3474  140.4435  155.5574 H   0  0  0  0  0  0  0  0  0  0  0  0
  151.6683  142.0553  155.7419 H   0  0  0  0  0  0  0  0  0  0  0  0
  150.6624  140.7611  155.0972 H   0  0  0  0  0  0  0  0  0  0  0  0
  152.9561  136.8581  158.1794 H   0  0  0  0  0  0  0  0  0  0  0  0
  146.6055  137.9027  158.1690 H   0  0  0  0  0  0  0  0  0  0  0  0
  147.1065  135.3290  158.1980 H   0  0  0  0  0  0  0  0  0  0  0  0
  148.7527  134.7854  158.3738 H   0  0  0  0  0  0  0  0  0  0  0  0
  148.7477  135.5740  160.7844 H   0  0  0  0  0  0  0  0  0  0  0  0
  146.3430  136.9028  159.9272 H   0  0  0  0  0  0  0  0  0  0  0  0
  145.9169  135.8268  161.2442 H   0  0  0  0  0  0  0  0  0  0  0  0
  147.0867  136.8879  162.5833 H   0  0  0  0  0  0  0  0  0  0  0  0
  148.3156  133.2206  160.5392 H   0  0  0  0  0  0  0  0  0  0  0  0
  147.6590  133.6159  162.8344 H   0  0  0  0  0  0  0  0  0  0  0  0
  146.2172  134.4960  162.3248 H   0  0  0  0  0  0  0  0  0  0  0  0
  146.6761  131.5351  162.3807 H   0  0  0  0  0  0  0  0  0  0  0  0
  145.1638  132.4300  162.5461 H   0  0  0  0  0  0  0  0  0  0  0  0
  145.4634  133.9704  159.7648 H   0  0  0  0  0  0  0  0  0  0  0  0
  146.5842  132.9509  158.8522 H   0  0  0  0  0  0  0  0  0  0  0  0
  152.4890  145.2360  157.7012 H   0  0  0  0  0  0  0  0  0  0  0  0
  151.2084  145.0151  158.8961 H   0  0  0  0  0  0  0  0  0  0  0  0
  151.0032  144.4138  157.2480 H   0  0  0  0  0  0  0  0  0  0  0  0
  152.9218  144.0918  160.2657 H   0  0  0  0  0  0  0  0  0  0  0  0
  154.2302  143.8732  159.1076 H   0  0  0  0  0  0  0  0  0  0  0  0
  1  2  1  0  0  0  0
  1 32  1  0  0  0  0
  1 33  1  0  0  0  0
  1 34  1  0  0  0  0
  2  3  1  0  0  0  0
  3 30  1  0  0  0  0
  3 29  1  0  0  0  0
  3  4  1  0  0  0  0
  4  5  1  0  0  0  0
  4 35  1  0  0  0  0
  4 36  1  0  0  0  0
  5 31  1  0  0  0  0
  5  6  1  0  0  0  0
  5 27  1  0  0  0  0
  6  7  1  0  0  0  0
  6 37  1  0  0  0  0
  6 38  1  0  0  0  0
  7  8  1  0  0  0  0
  7  9  1  0  0  0  0
  8 39  1  0  0  0  0
  8 40  1  0  0  0  0
  8 41  1  0  0  0  0
  9 14  1  0  0  0  0
  9 10  2  0  0  0  0
 10 11  1  0  0  0  0
 11 12  2  0  0  0  0
 11 42  1  0  0  0  0
 12 13  1  0  0  0  0
 13 17  1  0  0  0  0
 13 14  2  0  0  0  0
 14 15  1  0  0  0  0
 15 16  2  0  0  0  0
 16 17  1  0  0  0  0
 16 43  1  0  0  0  0
 17 18  1  0  0  0  0
 18 19  1  0  0  0  0
 18 44  1  0  0  0  0
 18 45  1  0  0  0  0
 19 20  1  0  0  0  0
 19 22  1  0  0  0  0
 19 46  1  0  0  0  0
 20 21  1  0  0  0  0
 20 47  1  0  0  0  0
 20 48  1  0  0  0  0
 21 49  1  0  0  0  0
 22 26  1  0  0  0  0
 22 23  1  0  0  0  0
 22 50  1  0  0  0  0
 23 24  1  0  0  0  0
 23 51  1  0  0  0  0
 23 52  1  0  0  0  0
 24 25  1  0  0  0  0
 24 53  1  0  0  0  0
 24 54  1  0  0  0  0
 25 26  1  0  0  0  0
 26 55  1  0  0  0  0
 26 56  1  0  0  0  0
 27 28  1  0  0  0  0
 27 29  1  0  0  0  0
 28 57  1  0  0  0  0
 28 58  1  0  0  0  0
 28 59  1  0  0  0  0
 29 60  1  0  0  0  0
 29 61  1  0  0  0  0
M  END
> <s_m_source_file>
AV-unprocessed.smi

> <i_m_source_file_index>
21

> <i_lp_mmshare_version>
43012

> <i_f3d_flags>
0

> <s_epik_input>
W0NIM11PW0NASF0xW0NIMl1bQ0BIXShOKFtDSDNdKVtDSDJdMSlbQ0gyXU4oW0NIM10pYyhuW2NIXW4yKWMoYzIzKW5bY0hdbjNbQ0gyXVtDQEhdKFtDSDJdW09IXSlbQ0BASF00W0NIMl1bQ0gyXU9bQ0gyXTQ=

> <s_epik_cmdline>
J2VwaWtfcHl0aG9uJywgJy1waCcsICc3LjAnLCAnLXRuJywgJzgnLCAnLW1hJywgJzIwMCcsICctbWV0YWxfYmluZGluZycsICctaW1hZScsICc8aW5maWxlLm1hZT4nLCAnLW9tYWUnLCAnPG91dGZpbGUubWFlPic=

> <r_lp_tautomer_probability>
1

> <r_epik_Ionization_Penalty>
2.17574

> <r_epik_Ionization_Penalty_Charging>
0

> <r_epik_Ionization_Penalty_Neutral>
2.17574

> <r_epik_State_Penalty>
2.31336

> <r_epik_Charging_Adjusted_Penalty>
2.31336

> <i_epik_Tot_Q>
0

> <i_epik_Tot_abs_Q>
0

> <r_epik_Metal_State_Penalty>
2.31025

> <b_epik_Metal_Only>
0

> <s_lp_Force_Field>
OPLS_2005

> <r_lp_Energy>
70.7714

> <b_lp_Chiralities_Consistent>
1

> <s_lp_Variant>
AV-unprocessed.smi:21-47

> <Gold.Version>
5.8.1

> <Gold.Id.Protein>
6NUR|6NUR_protein|mol2

> <Gold.PLP.Fitness>
52.2294

> <Gold.PLP.PLP>
-49.9520

> <Gold.PLP.part.hbond>
-3.5893

> <Gold.PLP.part.metal>
0.0000

> <Gold.PLP.part.buried>
-5.9533

> <Gold.PLP.part.nonpolar>
-38.5079

> <Gold.PLP.part.repulsive>
0.0624

> <Gold.PLP.ligand.clash>
0.0000

> <Gold.PLP.ligand.torsion>
2.9832

> <Gold.PLP.Chemscore.Hbond>
2.3520

> <Gold.PLP.Chemscore.CHOScore>
0.0000

> <Gold.PLP.Chemscore.Metal>
0.0000

> <Gold.Chemscore.Hbonds>
donor molecule, donor type, donor heavy atom, donor atom, acceptor molecule, acceptor atom, score
      P1  H  6896  6908       L1    12  0.59
      P1  H  6931  6943       L1    21  0.86
      P1  H  6934  6947       L1    21  0.85

> <Gold.PLP.Chemscore.Internal.Correction>
1.1879

> <Gold.Rescore>
     Score         DG    S(hbond)    S(metal)    S(lipo)     H(rot)  DE(clash)    DE(int)     intcor
     15.09     -18.08       1.87        0.00     119.96       3.00       0.11       2.87       ----

> <Gold.Chemscore.Fitness>
15.0923

> <Gold.Chemscore.DG>
-18.0768

> <Gold.Chemscore.ZeroCoef>
-5.4800

> <Gold.Chemscore.Hbond>
1.8712

> <Gold.Chemscore.Metal>
0.0000

> <Gold.Chemscore.Lipo>
119.9556

> <Gold.Chemscore.Internal_Hbond>
0.0000

> <Gold.Chemscore.DEClash>
0.1147

> <Gold.Chemscore.DEInternal>
2.8698

> <Gold.Chemscore.Rot>
3.0031

> <Gold.Chemscore.Internal.Correction>
   9.000000E+99

> <Gold.Chemscore.Hbonds>
donor molecule, donor type, donor heavy atom, donor atom, acceptor molecule, acceptor atom, score
      P1  H  6896  6908       L1    12  0.55
      P1  H  6931  6943       L1    21  0.44
      P1  H  6934  6947       L1    21  0.49

> <Gold.Chemscore.Hbond.Weighted>
-6.2499

> <Gold.Chemscore.Metal.Weighted>
-0.0000

> <Gold.Chemscore.Lipo.Weighted>
-14.0348

> <Gold.Chemscore.Internal_Hbond.Weighted>
0.0000

> <Gold.Chemscore.DEClash.Weighted>
0.1147

> <Gold.Chemscore.DEInternal.Weighted>
2.8698

> <Gold.Chemscore.Rot.Weighted>
7.6880

> <Gold.Chemscore.Internal.Correction.Weighted>
   9.000000E+99

> <Gold.Protein.RotatedTorsions>
[ 6907 6896 6895 6894 ] final -151.50 input  -60.11 | X-H torsion
[ 7974 7965 7964 7962 ] final  -19.73 input  175.53 | X-H torsion
[ 8008 7997 7996 7995 ] final  139.05 input   59.86 | X-H torsion
[ 10167 10162 10161 10158 ] final  -33.08 input  -65.29 | X-H torsion
[ 10718 10713 10712 10709 ] final  157.35 input   66.30 | X-H torsion
[ 10763 10752 10751 10750 ] final  158.88 input  -60.55 | X-H torsion
[ 11005 11000 10999 10996 ] final  109.08 input  -57.11 | X-H torsion

> <Gold.Protein.ActiveResidues>
 VAL166  LYS551  ARG553  GLY616  TRP617  ASP618  TYR619  PRO620  LYS621  CYS622 
 ASP623  PHE694  ASN695  SER759  ASP760  ASP761  ALA762  ILE779  LEU786  VAL792 
 PHE793  MET794  SER795  GLU796  ALA797  LYS798  CYS799  TRP800  GLU811  SER814 

> <Gold.Protein.RotatedAtoms>
  151.2140  133.4540  159.2598 H   0  0  0  0  0  0  0  0  0  0  0  0  # atno 6907 bound_to 6896
  151.0949  134.9938  159.8431 H   0  0  0  0  0  0  0  0  0  0  0  0  # atno 6908 bound_to 6896
  152.5438  134.2070  159.8788 H   0  0  0  0  0  0  0  0  0  0  0  0  # atno 6909 bound_to 6896
  146.1826  140.4103  142.8489 H   0  0  0  0  0  0  0  0  0  0  0  0  # atno 7974 bound_to 7965
  156.2993  140.2377  156.4174 H   0  0  0  0  0  0  0  0  0  0  0  0  # atno 8008 bound_to 7997
  154.8387  140.0429  157.1546 H   0  0  0  0  0  0  0  0  0  0  0  0  # atno 8009 bound_to 7997
  154.9127  140.2992  155.5261 H   0  0  0  0  0  0  0  0  0  0  0  0  # atno 8010 bound_to 7997
  140.7210  143.3646  151.1895 H   0  0  0  0  0  0  0  0  0  0  0  0  # atno 10167 bound_to 10162
  157.1926  131.0658  151.2071 H   0  0  0  0  0  0  0  0  0  0  0  0  # atno 10718 bound_to 10713
  154.2230  135.2781  155.2917 H   0  0  0  0  0  0  0  0  0  0  0  0  # atno 10763 bound_to 10752
  154.5686  135.5625  153.7077 H   0  0  0  0  0  0  0  0  0  0  0  0  # atno 10764 bound_to 10752
  153.0037  135.6315  154.2371 H   0  0  0  0  0  0  0  0  0  0  0  0  # atno 10765 bound_to 10752
  139.8855  134.9448  156.6070 H   0  0  0  0  0  0  0  0  0  0  0  0  # atno 11005 bound_to 11000
  144.8341  140.6753  143.6272 LP  0  0  0  0  0  0  0  0  0  0  0  0  # atno 17320 bound_to 7965
  145.4033  139.1593  143.4165 LP  0  0  0  0  0  0  0  0  0  0  0  0  # atno 17321 bound_to 7965
  139.7205  143.9230  152.2983 LP  0  0  0  0  0  0  0  0  0  0  0  0  # atno 17342 bound_to 10162
  139.8986  144.6925  150.8691 LP  0  0  0  0  0  0  0  0  0  0  0  0  # atno 17343 bound_to 10162
  157.3846  130.7249  149.6654 LP  0  0  0  0  0  0  0  0  0  0  0  0  # atno 17370 bound_to 10713
  155.9710  130.4163  150.4224 LP  0  0  0  0  0  0  0  0  0  0  0  0  # atno 17371 bound_to 10713
  140.7840  133.8636  155.8591 LP  0  0  0  0  0  0  0  0  0  0  0  0  # atno 17394 bound_to 11000
  140.9735  134.1499  157.4556 LP  0  0  0  0  0  0  0  0  0  0  0  0  # atno 17395 bound_to 11000

$$$$
