AV-unprocessed.smi:744|AV-procd|sdf|3570|dock4
  -GOLD-   22720 0563D 1   1.00000     0.00000
 Structure written by MMmdl.
 34 35  0  0  0  0  0  0  0  0  1 V2000
  144.6652  136.8834  152.0417 O   0  0  0  0  0  0  0  0  0  0  0  0
  145.8750  136.7749  151.8411 C   0  0  0  0  0  0  0  0  0  0  0  0
  146.7350  137.8000  151.9325 N   0  0  0  0  0  0  0  0  0  0  0  0
  146.3828  139.1758  152.2721 C   0  0  0  0  0  0  0  0  0  0  0  0
  147.0786  139.6450  153.5667 C   0  0  2  0  0  0  0  0  0  0  0  0
  147.6217  141.0772  153.5040 C   0  0  0  0  0  0  0  0  0  0  0  0
  148.6774  141.1698  154.6163 C   0  0  0  0  0  0  0  0  0  0  0  0
  148.9531  139.7299  155.0790 C   0  0  0  0  0  0  0  0  0  0  0  0
  148.2832  138.8177  154.0456 C   0  0  2  0  0  0  0  0  0  0  0  0
  149.1978  138.5753  152.9927 O   0  0  0  0  0  0  0  0  0  0  0  0
  146.5075  135.6377  151.5018 N   0  0  0  0  0  0  0  0  0  0  0  0
  145.9461  134.3483  151.3007 C   0  0  0  0  0  0  0  0  0  0  0  0
  144.5628  134.3355  151.0112 C   0  0  0  0  0  0  0  0  0  0  0  0
  143.9113  133.1057  150.7952 C   0  0  0  0  0  0  0  0  0  0  0  0
  144.6611  131.9184  150.8734 C   0  0  0  0  0  0  0  0  0  0  0  0
  146.0334  132.0190  151.1666 C   0  0  0  0  0  0  0  0  0  0  0  0
  146.6595  133.1966  151.3747 N   0  0  0  0  0  0  0  0  0  0  0  0
  147.7110  137.6162  151.7522 H   0  0  0  0  0  0  0  0  0  0  0  0
  146.5966  139.8550  151.4450 H   0  0  0  0  0  0  0  0  0  0  0  0
  145.3023  139.2102  152.4130 H   0  0  0  0  0  0  0  0  0  0  0  0
  146.3365  139.6223  154.3671 H   0  0  0  0  0  0  0  0  0  0  0  0
  148.0982  141.2525  152.5383 H   0  0  0  0  0  0  0  0  0  0  0  0
  146.8334  141.8217  153.6183 H   0  0  0  0  0  0  0  0  0  0  0  0
  149.5855  141.6409  154.2383 H   0  0  0  0  0  0  0  0  0  0  0  0
  148.3194  141.7751  155.4496 H   0  0  0  0  0  0  0  0  0  0  0  0
  150.0171  139.5240  155.2037 H   0  0  0  0  0  0  0  0  0  0  0  0
  148.4816  139.5738  156.0501 H   0  0  0  0  0  0  0  0  0  0  0  0
  147.9830  137.8636  154.4801 H   0  0  0  0  0  0  0  0  0  0  0  0
  148.9248  137.7955  152.5315 H   0  0  0  0  0  0  0  0  0  0  0  0
  147.5059  135.7017  151.3688 H   0  0  0  0  0  0  0  0  0  0  0  0
  144.0014  135.2572  150.9540 H   0  0  0  0  0  0  0  0  0  0  0  0
  142.8547  133.0749  150.5737 H   0  0  0  0  0  0  0  0  0  0  0  0
  144.1975  130.9564  150.7132 H   0  0  0  0  0  0  0  0  0  0  0  0
  146.6451  131.1316  151.2356 H   0  0  0  0  0  0  0  0  0  0  0  0
  1  2  2  0  0  0  0
  2  3  1  0  0  0  0
  2 11  1  0  0  0  0
  3  4  1  0  0  0  0
  3 18  1  0  0  0  0
  4  5  1  0  0  0  0
  4 19  1  0  0  0  0
  4 20  1  0  0  0  0
  5  9  1  0  0  0  0
  5  6  1  0  0  0  0
  5 21  1  0  0  0  0
  6  7  1  0  0  0  0
  6 22  1  0  0  0  0
  6 23  1  0  0  0  0
  7  8  1  0  0  0  0
  7 24  1  0  0  0  0
  7 25  1  0  0  0  0
  8  9  1  0  0  0  0
  8 26  1  0  0  0  0
  8 27  1  0  0  0  0
  9 10  1  0  0  0  0
  9 28  1  0  0  0  0
 10 29  1  0  0  0  0
 11 12  1  0  0  0  0
 11 30  1  0  0  0  0
 12 17  1  0  0  0  0
 12 13  2  0  0  0  0
 13 14  1  0  0  0  0
 13 31  1  0  0  0  0
 14 15  2  0  0  0  0
 14 32  1  0  0  0  0
 15 16  1  0  0  0  0
 15 33  1  0  0  0  0
 16 17  2  0  0  0  0
 16 34  1  0  0  0  0
M  END
> <s_m_source_file>
AV-unprocessed.smi

> <i_m_source_file_index>
744

> <i_lp_mmshare_version>
43012

> <i_f3d_flags>
0

> <s_epik_input>
bjFbY0hdW2NIXVtjSF1bY0hdYzFbTkhdQyg9TylbTkhdW0NIMl1bQ0BASF0yW0NIMl1bQ0gyXVtDSDJdW0NASF0yW09IXQ==

> <s_epik_cmdline>
J2VwaWtfcHl0aG9uJywgJy1waCcsICc3LjAnLCAnLXRuJywgJzgnLCAnLW1hJywgJzIwMCcsICctbWV0YWxfYmluZGluZycsICctaW1hZScsICc8aW5maWxlLm1hZT4nLCAnLW9tYWUnLCAnPG91dGZpbGUubWFlPic=

> <r_lp_tautomer_probability>
1

> <r_epik_Ionization_Penalty>
5.04769e-05

> <r_epik_Ionization_Penalty_Charging>
0

> <r_epik_Ionization_Penalty_Neutral>
5.04769e-05

> <r_epik_State_Penalty>
-0

> <r_epik_Charging_Adjusted_Penalty>
0

> <i_epik_Tot_Q>
0

> <i_epik_Tot_abs_Q>
0

> <r_epik_Metal_State_Penalty>
-0

> <b_epik_Metal_Only>
0

> <s_lp_Force_Field>
OPLS_2005

> <r_lp_Energy>
26.8719

> <b_lp_Chiralities_Consistent>
1

> <s_lp_Variant>
AV-unprocessed.smi:744-3

> <Gold.Version>
5.8.1

> <Gold.Id.Protein>
6NUR|6NUR_protein|mol2

> <Gold.PLP.Fitness>
39.2071

> <Gold.PLP.PLP>
-29.3376

> <Gold.PLP.part.hbond>
-3.3412

> <Gold.PLP.part.metal>
0.0000

> <Gold.PLP.part.buried>
-2.5089

> <Gold.PLP.part.nonpolar>
-25.2627

> <Gold.PLP.part.repulsive>
1.8045

> <Gold.PLP.ligand.clash>
0.0000

> <Gold.PLP.ligand.torsion>
0.7009

> <Gold.PLP.Chemscore.Hbond>
2.8320

> <Gold.PLP.Chemscore.CHOScore>
0.9247

> <Gold.PLP.Chemscore.Metal>
0.0000

> <Gold.Chemscore.Hbonds>
donor molecule, donor type, donor heavy atom, donor atom, acceptor molecule, acceptor atom, score
      L1  H     3    18       P1  7948  0.83
      L1  H    10    29       P1  7948  1.00
      L1  H    11    30       P1  7948  1.00
      L1  C    16    34       P1 10747  0.91

> <Gold.PLP.Chemscore.Internal.Correction>
0.0013

> <Gold.Rescore>
     Score         DG    S(hbond)    S(metal)    S(lipo)     H(rot)  DE(clash)    DE(int)     intcor
     14.37     -18.35       2.81        0.00      69.26       1.81       0.61       3.38       ----

> <Gold.Chemscore.Fitness>
14.3688

> <Gold.Chemscore.DG>
-18.3503

> <Gold.Chemscore.ZeroCoef>
-5.4800

> <Gold.Chemscore.Hbond>
2.8109

> <Gold.Chemscore.Metal>
0.0000

> <Gold.Chemscore.Lipo>
69.2584

> <Gold.Chemscore.Internal_Hbond>
0.0000

> <Gold.Chemscore.DEClash>
0.6055

> <Gold.Chemscore.DEInternal>
3.3761

> <Gold.Chemscore.Rot>
1.8052

> <Gold.Chemscore.Internal.Correction>
   9.000000E+99

> <Gold.Chemscore.Hbonds>
donor molecule, donor type, donor heavy atom, donor atom, acceptor molecule, acceptor atom, score
      L1  H     3    18       P1  7948  0.81
      L1  H    10    29       P1  7948  0.99
      L1  H    11    30       P1  7948  0.88

> <Gold.Chemscore.Hbond.Weighted>
-9.3883

> <Gold.Chemscore.Metal.Weighted>
-0.0000

> <Gold.Chemscore.Lipo.Weighted>
-8.1032

> <Gold.Chemscore.Internal_Hbond.Weighted>
0.0000

> <Gold.Chemscore.DEClash.Weighted>
0.6055

> <Gold.Chemscore.DEInternal.Weighted>
3.3761

> <Gold.Chemscore.Rot.Weighted>
4.6212

> <Gold.Chemscore.Internal.Correction.Weighted>
   9.000000E+99

> <Gold.Protein.RotatedTorsions>
[ 6907 6896 6895 6894 ] final -138.49 input  -60.11 | X-H torsion
[ 7974 7965 7964 7962 ] final  -17.97 input  175.53 | X-H torsion
[ 8008 7997 7996 7995 ] final    8.51 input   59.86 | X-H torsion
[ 10167 10162 10161 10158 ] final -121.83 input  -65.29 | X-H torsion
[ 10718 10713 10712 10709 ] final  104.26 input   66.30 | X-H torsion
[ 10763 10752 10751 10750 ] final  170.98 input  -60.55 | X-H torsion
[ 11005 11000 10999 10996 ] final -134.24 input  -57.11 | X-H torsion

> <Gold.Protein.ActiveResidues>
 VAL166  LYS551  ARG553  GLY616  TRP617  ASP618  TYR619  PRO620  LYS621  CYS622 
 ASP623  PHE694  ASN695  SER759  ASP760  ASP761  ALA762  ILE779  LEU786  VAL792 
 PHE793  MET794  SER795  GLU796  ALA797  LYS798  CYS799  TRP800  GLU811  SER814 

> <Gold.Protein.RotatedAtoms>
  151.0356  133.5751  159.2655 H   0  0  0  0  0  0  0  0  0  0  0  0  # atno 6907 bound_to 6896
  151.2816  135.0715  159.9181 H   0  0  0  0  0  0  0  0  0  0  0  0  # atno 6908 bound_to 6896
  152.5354  134.0070  159.7975 H   0  0  0  0  0  0  0  0  0  0  0  0  # atno 6909 bound_to 6896
  146.1915  140.3854  142.8456 H   0  0  0  0  0  0  0  0  0  0  0  0  # atno 7974 bound_to 7965
  154.7677  140.2796  155.6162 H   0  0  0  0  0  0  0  0  0  0  0  0  # atno 8008 bound_to 7997
  156.2928  140.2647  156.2400 H   0  0  0  0  0  0  0  0  0  0  0  0  # atno 8009 bound_to 7997
  154.9938  140.0373  157.2320 H   0  0  0  0  0  0  0  0  0  0  0  0  # atno 8010 bound_to 7997
  140.0208  143.5346  152.2221 H   0  0  0  0  0  0  0  0  0  0  0  0  # atno 10167 bound_to 10162
  157.6746  131.0799  150.5679 H   0  0  0  0  0  0  0  0  0  0  0  0  # atno 10718 bound_to 10713
  154.4054  135.2755  155.2070 H   0  0  0  0  0  0  0  0  0  0  0  0  # atno 10763 bound_to 10752
  154.4078  135.6029  153.5938 H   0  0  0  0  0  0  0  0  0  0  0  0  # atno 10764 bound_to 10752
  152.9831  135.5942  154.4328 H   0  0  0  0  0  0  0  0  0  0  0  0  # atno 10765 bound_to 10752
  140.9008  134.1693  157.4462 H   0  0  0  0  0  0  0  0  0  0  0  0  # atno 11005 bound_to 11000
  144.8496  140.6982  143.6176 LP  0  0  0  0  0  0  0  0  0  0  0  0  # atno 17320 bound_to 7965
  145.3777  139.1644  143.4298 LP  0  0  0  0  0  0  0  0  0  0  0  0  # atno 17321 bound_to 7965
  139.6141  144.7615  151.2885 LP  0  0  0  0  0  0  0  0  0  0  0  0  # atno 17342 bound_to 10162
  140.7343  143.6769  150.8034 LP  0  0  0  0  0  0  0  0  0  0  0  0  # atno 17343 bound_to 10162
  156.5981  130.4347  149.5908 LP  0  0  0  0  0  0  0  0  0  0  0  0  # atno 17370 bound_to 10713
  156.2528  130.6917  151.1660 LP  0  0  0  0  0  0  0  0  0  0  0  0  # atno 17371 bound_to 10713
  139.8742  134.9897  156.5469 LP  0  0  0  0  0  0  0  0  0  0  0  0  # atno 17394 bound_to 11000
  140.8232  133.8337  155.8915 LP  0  0  0  0  0  0  0  0  0  0  0  0  # atno 17395 bound_to 11000

$$$$
