AV-unprocessed.smi:2849|AV-procd|sdf|10961|dock3
  -GOLD-   2272015413D 1   1.00000     0.00000
 Structure written by MMmdl.
 56 59  0  0  0  0  0  0  0  0  3 V2000
  143.3887  133.7949  151.9947 C   0  0  0  0  0  0  0  0  0  0  0  0
  144.1051  135.0868  151.8686 N   0  3  2  0  0  0  0  0  0  0  0  0
  145.3814  135.0212  151.1169 C   0  0  2  0  0  0  0  0  0  0  0  0
  146.4685  134.2571  151.9134 C   0  0  0  0  0  0  0  0  0  0  0  0
  146.6642  134.7613  153.3545 C   0  0  0  0  0  0  0  0  0  0  0  0
  145.3337  135.0943  154.0526 C   0  0  0  0  0  0  0  0  0  0  0  0
  144.3041  135.8133  153.1453 C   0  0  1  0  0  0  0  0  0  0  0  0
  144.6191  137.2954  152.8384 C   0  0  0  0  0  0  0  0  0  0  0  0
  145.7071  137.5457  151.7569 C   0  0  1  0  0  0  0  0  0  0  0  0
  147.0243  137.8339  152.3228 N   0  0  0  0  0  0  0  0  0  0  0  0
  147.3181  138.8602  153.1356 C   0  0  0  0  0  0  0  0  0  0  0  0
  146.4949  139.7088  153.4761 O   0  0  0  0  0  0  0  0  0  0  0  0
  148.6095  138.8328  153.5095 N   0  0  0  0  0  0  0  0  0  0  0  0
  149.2902  139.6751  154.4325 C   0  0  0  0  0  0  0  0  0  0  0  0
  150.4753  139.1799  155.0190 C   0  0  0  0  0  0  0  0  0  0  0  0
  151.1782  139.9666  155.9548 C   0  0  0  0  0  0  0  0  0  0  0  0
  150.6810  141.2451  156.2981 C   0  0  0  0  0  0  0  0  0  0  0  0
  151.2956  142.1028  157.2211 N   0  0  0  0  0  0  0  0  0  0  0  0
  150.5489  142.3387  158.4457 C   0  0  0  0  0  0  0  0  0  0  0  0
  151.1799  143.5826  159.0781 C   0  0  0  0  0  0  0  0  0  0  0  0
  151.9083  144.2854  157.9260 C   0  0  0  0  0  0  0  0  0  0  0  0
  151.6285  143.4166  156.6974 C   0  0  0  0  0  0  0  0  0  0  0  0
  149.5395  141.6805  155.7229 N   0  3  0  0  0  0  0  0  0  0  0  0
  148.8371  140.9600  154.8219 C   0  0  0  0  0  0  0  0  0  0  0  0
  145.7775  136.4470  150.6648 C   0  0  0  0  0  0  0  0  0  0  0  0
  143.9477  133.0660  152.5809 H   0  0  0  0  0  0  0  0  0  0  0  0
  143.2034  133.3649  151.0101 H   0  0  0  0  0  0  0  0  0  0  0  0
  142.4215  133.9431  152.4760 H   0  0  0  0  0  0  0  0  0  0  0  0
  145.1984  134.4523  150.2039 H   0  0  0  0  0  0  0  0  0  0  0  0
  146.1958  133.2022  151.9537 H   0  0  0  0  0  0  0  0  0  0  0  0
  147.4185  134.2892  151.3791 H   0  0  0  0  0  0  0  0  0  0  0  0
  147.1987  134.0072  153.9332 H   0  0  0  0  0  0  0  0  0  0  0  0
  147.3213  135.6238  153.3672 H   0  0  0  0  0  0  0  0  0  0  0  0
  144.8935  134.1636  154.4117 H   0  0  0  0  0  0  0  0  0  0  0  0
  145.5246  135.6869  154.9480 H   0  0  0  0  0  0  0  0  0  0  0  0
  143.3533  135.8097  153.6802 H   0  0  0  0  0  0  0  0  0  0  0  0
  143.6959  137.7447  152.4694 H   0  0  0  0  0  0  0  0  0  0  0  0
  144.8406  137.8330  153.7611 H   0  0  0  0  0  0  0  0  0  0  0  0
  145.4266  138.4635  151.2356 H   0  0  0  0  0  0  0  0  0  0  0  0
  147.7669  137.1919  152.0866 H   0  0  0  0  0  0  0  0  0  0  0  0
  149.1771  138.1148  153.0835 H   0  0  0  0  0  0  0  0  0  0  0  0
  150.8484  138.2007  154.7561 H   0  0  0  0  0  0  0  0  0  0  0  0
  152.0837  139.5852  156.4033 H   0  0  0  0  0  0  0  0  0  0  0  0
  149.4966  142.5241  158.2274 H   0  0  0  0  0  0  0  0  0  0  0  0
  150.6071  141.4775  159.1120 H   0  0  0  0  0  0  0  0  0  0  0  0
  150.4273  144.2200  159.5433 H   0  0  0  0  0  0  0  0  0  0  0  0
  151.8953  143.2960  159.8500 H   0  0  0  0  0  0  0  0  0  0  0  0
  151.5675  145.3111  157.7806 H   0  0  0  0  0  0  0  0  0  0  0  0
  152.9793  144.3172  158.1305 H   0  0  0  0  0  0  0  0  0  0  0  0
  152.4926  143.3693  156.0337 H   0  0  0  0  0  0  0  0  0  0  0  0
  150.7901  143.8247  156.1313 H   0  0  0  0  0  0  0  0  0  0  0  0
  147.9402  141.4432  154.4667 H   0  0  0  0  0  0  0  0  0  0  0  0
  146.7553  136.4385  150.1813 H   0  0  0  0  0  0  0  0  0  0  0  0
  145.0780  136.7336  149.8777 H   0  0  0  0  0  0  0  0  0  0  0  0
  143.4899  135.6668  151.3159 H   0  0  0  0  0  0  0  0  0  0  0  0
  149.1870  142.6016  155.9840 H   0  0  0  0  0  0  0  0  0  0  0  0
  1  2  1  0  0  0  0
  1 26  1  0  0  0  0
  1 27  1  0  0  0  0
  1 28  1  0  0  0  0
  2  7  1  0  0  0  0
  2  3  1  0  0  0  0
  2 55  1  0  0  0  0
  3 25  1  0  0  0  0
  3  4  1  0  0  0  0
  3 29  1  0  0  0  0
  4  5  1  0  0  0  0
  4 30  1  0  0  0  0
  4 31  1  0  0  0  0
  5  6  1  0  0  0  0
  5 32  1  0  0  0  0
  5 33  1  0  0  0  0
  6  7  1  0  0  0  0
  6 34  1  0  0  0  0
  6 35  1  0  0  0  0
  7  8  1  0  0  0  0
  7 36  1  0  0  0  0
  8  9  1  0  0  0  0
  8 37  1  0  0  0  0
  8 38  1  0  0  0  0
  9 10  1  0  0  0  0
  9 25  1  0  0  0  0
  9 39  1  0  0  0  0
 10 11  1  0  0  0  0
 10 40  1  0  0  0  0
 11 12  2  0  0  0  0
 11 13  1  0  0  0  0
 13 14  1  0  0  0  0
 13 41  1  0  0  0  0
 14 24  1  0  0  0  0
 14 15  2  0  0  0  0
 15 16  1  0  0  0  0
 15 42  1  0  0  0  0
 16 17  2  0  0  0  0
 16 43  1  0  0  0  0
 17 18  1  0  0  0  0
 17 23  1  0  0  0  0
 18 22  1  0  0  0  0
 18 19  1  0  0  0  0
 19 20  1  0  0  0  0
 19 44  1  0  0  0  0
 19 45  1  0  0  0  0
 20 21  1  0  0  0  0
 20 46  1  0  0  0  0
 20 47  1  0  0  0  0
 21 22  1  0  0  0  0
 21 48  1  0  0  0  0
 21 49  1  0  0  0  0
 22 50  1  0  0  0  0
 22 51  1  0  0  0  0
 23 24  2  0  0  0  0
 23 56  1  0  0  0  0
 24 52  1  0  0  0  0
 25 53  1  0  0  0  0
 25 54  1  0  0  0  0
M  CHG  1   2   1
M  CHG  1  23   1
M  END
> <s_m_source_file>
AV-unprocessed.smi

> <i_m_source_file_index>
2849

> <i_lp_mmshare_version>
43012

> <i_f3d_flags>
0

> <s_epik_input>
W0NIMl0xW0NIMl1bQ0gyXVtDQEhdKE4oW0NIM10pW0NIXTEyKVtDSDJdW0NASF0oW0NIMl0yKVtOSF1DKD1PKVtOSF1jM1tjSF1bY0hdYyhuW2NIXTMpTjRbQ0gyXVtDSDJdW0NIMl1bQ0gyXTQ=

> <s_epik_cmdline>
J2VwaWtfcHl0aG9uJywgJy1waCcsICc3LjAnLCAnLXRuJywgJzgnLCAnLW1hJywgJzIwMCcsICctbWV0YWxfYmluZGluZycsICctaW1hZScsICc8aW5maWxlLm1hZT4nLCAnLW9tYWUnLCAnPG91dGZpbGUubWFlPic=

> <r_lp_tautomer_probability>
0.999994

> <r_epik_Ionization_Penalty>
1.2404

> <r_epik_Ionization_Penalty_Charging>
1.24038

> <r_epik_Ionization_Penalty_Neutral>
1.86921e-05

> <r_epik_State_Penalty>
1.30821

> <r_epik_Charging_Adjusted_Penalty>
2.54859

> <i_epik_Tot_Q>
2

> <i_epik_Tot_abs_Q>
2

> <r_epik_Metal_State_Penalty>
1.37823

> <b_epik_Metal_Only>
0

> <s_lp_Force_Field>
OPLS_2005

> <r_lp_Energy>
74.5028

> <b_lp_Chiralities_Consistent>
1

> <s_lp_Variant>
AV-unprocessed.smi:2849-5

> <Gold.Version>
5.8.1

> <Gold.Id.Protein>
6NUR|6NUR_protein|mol2

> <Gold.PLP.Fitness>
48.8277

> <Gold.PLP.PLP>
-38.9655

> <Gold.PLP.part.hbond>
-3.8255

> <Gold.PLP.part.metal>
0.0000

> <Gold.PLP.part.buried>
2.6088

> <Gold.PLP.part.nonpolar>
-38.6572

> <Gold.PLP.part.repulsive>
1.1215

> <Gold.PLP.ligand.clash>
0.0000

> <Gold.PLP.ligand.torsion>
0.2058

> <Gold.PLP.Chemscore.Hbond>
3.4016

> <Gold.PLP.Chemscore.CHOScore>
0.0000

> <Gold.PLP.Chemscore.Metal>
0.0000

> <Gold.Chemscore.Hbonds>
donor molecule, donor type, donor heavy atom, donor atom, acceptor molecule, acceptor atom, score
      L1  H    10    40       P1  7948  0.99
      L1  H    13    41       P1  7948  0.42
      L1  H    23    56       P1  8028  1.33

> <Gold.PLP.Chemscore.Internal.Correction>
0.0690

> <Gold.Rescore>
     Score         DG    S(hbond)    S(metal)    S(lipo)     H(rot)  DE(clash)    DE(int)     intcor
     18.29     -21.35       1.97        0.00     105.33       1.19       0.58       2.48       ----

> <Gold.Chemscore.Fitness>
18.2902

> <Gold.Chemscore.DG>
-21.3475

> <Gold.Chemscore.ZeroCoef>
-5.4800

> <Gold.Chemscore.Hbond>
1.9714

> <Gold.Chemscore.Metal>
0.0000

> <Gold.Chemscore.Lipo>
105.3347

> <Gold.Chemscore.Internal_Hbond>
0.0000

> <Gold.Chemscore.DEClash>
0.5756

> <Gold.Chemscore.DEInternal>
2.4817

> <Gold.Chemscore.Rot>
1.1879

> <Gold.Chemscore.Internal.Correction>
   9.000000E+99

> <Gold.Chemscore.Hbonds>
donor molecule, donor type, donor heavy atom, donor atom, acceptor molecule, acceptor atom, score
      L1  H    10    40       P1  7948  0.92
      L1  H    13    41       P1  7948  0.42
      L1  H    23    56       P1  8028  0.65

> <Gold.Chemscore.Hbond.Weighted>
-6.5844

> <Gold.Chemscore.Metal.Weighted>
-0.0000

> <Gold.Chemscore.Lipo.Weighted>
-12.3242

> <Gold.Chemscore.Internal_Hbond.Weighted>
0.0000

> <Gold.Chemscore.DEClash.Weighted>
0.5756

> <Gold.Chemscore.DEInternal.Weighted>
2.4817

> <Gold.Chemscore.Rot.Weighted>
3.0410

> <Gold.Chemscore.Internal.Correction.Weighted>
   9.000000E+99

> <Gold.Protein.RotatedTorsions>
[ 6907 6896 6895 6894 ] final  135.34 input  -60.11 | X-H torsion
[ 7974 7965 7964 7962 ] final  -27.99 input  175.53 | X-H torsion
[ 8008 7997 7996 7995 ] final  172.09 input   59.86 | X-H torsion
[ 10167 10162 10161 10158 ] final -120.73 input  -65.29 | X-H torsion
[ 10718 10713 10712 10709 ] final  177.70 input   66.30 | X-H torsion
[ 10763 10752 10751 10750 ] final  108.58 input  -60.55 | X-H torsion
[ 11005 11000 10999 10996 ] final  131.76 input  -57.11 | X-H torsion

> <Gold.Protein.ActiveResidues>
 VAL166  LYS551  ARG553  GLY616  TRP617  ASP618  TYR619  PRO620  LYS621  CYS622 
 ASP623  PHE694  ASN695  SER759  ASP760  ASP761  ALA762  ILE779  LEU786  VAL792 
 PHE793  MET794  SER795  GLU796  ALA797  LYS798  CYS799  TRP800  GLU811  SER814 

> <Gold.Protein.RotatedAtoms>
  152.3015  133.5660  159.5621 H   0  0  0  0  0  0  0  0  0  0  0  0  # atno 6907 bound_to 6896
  150.7280  134.0284  159.3734 H   0  0  0  0  0  0  0  0  0  0  0  0  # atno 6908 bound_to 6896
  151.8184  135.0660  160.0473 H   0  0  0  0  0  0  0  0  0  0  0  0  # atno 6909 bound_to 6896
  146.1319  140.5225  142.8689 H   0  0  0  0  0  0  0  0  0  0  0  0  # atno 7974 bound_to 7965
  156.1208  140.1495  156.9207 H   0  0  0  0  0  0  0  0  0  0  0  0  # atno 8008 bound_to 7997
  154.4834  140.0872  156.7473 H   0  0  0  0  0  0  0  0  0  0  0  0  # atno 8009 bound_to 7997
  155.4431  140.3432  155.4294 H   0  0  0  0  0  0  0  0  0  0  0  0  # atno 8010 bound_to 7997
  140.0327  143.5232  152.2169 H   0  0  0  0  0  0  0  0  0  0  0  0  # atno 10167 bound_to 10162
  156.9015  130.9880  151.3035 H   0  0  0  0  0  0  0  0  0  0  0  0  # atno 10718 bound_to 10713
  153.4226  135.3807  155.2121 H   0  0  0  0  0  0  0  0  0  0  0  0  # atno 10763 bound_to 10752
  154.8745  135.3821  154.4365 H   0  0  0  0  0  0  0  0  0  0  0  0  # atno 10764 bound_to 10752
  153.4887  135.7088  153.5959 H   0  0  0  0  0  0  0  0  0  0  0  0  # atno 10765 bound_to 10752
  139.9749  134.9566  156.9485 H   0  0  0  0  0  0  0  0  0  0  0  0  # atno 11005 bound_to 11000
  144.7699  140.5615  143.6677 LP  0  0  0  0  0  0  0  0  0  0  0  0  # atno 17320 bound_to 7965
  145.5241  139.1476  143.3536 LP  0  0  0  0  0  0  0  0  0  0  0  0  # atno 17321 bound_to 7965
  139.6066  144.7598  151.3049 LP  0  0  0  0  0  0  0  0  0  0  0  0  # atno 17342 bound_to 10162
  140.7295  143.6906  150.7925 LP  0  0  0  0  0  0  0  0  0  0  0  0  # atno 17343 bound_to 10162
  157.6023  130.8521  149.8821 LP  0  0  0  0  0  0  0  0  0  0  0  0  # atno 17370 bound_to 10713
  156.0579  130.3705  150.1048 LP  0  0  0  0  0  0  0  0  0  0  0  0  # atno 17371 bound_to 10713
  140.5215  134.0903  155.7293 LP  0  0  0  0  0  0  0  0  0  0  0  0  # atno 17394 bound_to 11000
  141.1427  133.9110  157.2288 LP  0  0  0  0  0  0  0  0  0  0  0  0  # atno 17395 bound_to 11000

$$$$
