AV-unprocessed.smi:3208|AV-procd|sdf|12265|dock8
  -GOLD-   2272018103D 1   1.00000     0.00000
 Structure written by MMmdl.
 29 29  0  0  0  0  0  0  0  0  2 V2000
  146.6592  141.0722  154.1949 C   0  0  0  0  0  0  0  0  0  0  0  0
  147.8469  140.4919  154.4236 C   0  0  0  0  0  0  0  0  0  0  0  0
  149.1162  141.2413  154.7624 C   0  0  0  0  0  0  0  0  0  0  0  0
  150.2339  140.3641  154.7127 O   0  0  0  0  0  0  0  0  0  0  0  0
  150.6401  139.8221  155.9680 C   0  0  1  0  0  0  0  0  0  0  0  0
  151.7192  138.7679  155.6862 C   0  0  0  0  0  0  0  0  0  0  0  0
  151.1961  140.9299  156.8894 C   0  0  0  0  0  0  0  0  0  0  0  0
  150.7001  142.0559  156.8629 O   0  0  0  0  0  0  0  0  0  0  0  0
  152.3222  140.5801  157.6180 N   0  0  0  0  0  0  0  0  0  0  0  0
  152.5928  141.1925  158.7380 C   0  0  0  0  0  0  0  0  0  0  0  0
  151.8225  142.2684  159.2196 N   0  0  0  0  0  0  0  0  0  0  0  0
  152.0979  142.9160  160.4049 C   0  0  0  0  0  0  0  0  0  0  0  0
  153.1322  142.5613  161.1696 C   0  0  0  0  0  0  0  0  0  0  0  0
  153.9825  141.4707  160.7371 C   0  0  0  0  0  0  0  0  0  0  0  0
  153.7517  140.7730  159.5455 C   0  0  0  0  0  0  0  0  0  0  0  0
  154.5113  139.8352  159.2100 O   0  5  0  0  0  0  0  0  0  0  0  0
  146.5403  142.1450  154.2413 H   0  0  0  0  0  0  0  0  0  0  0  0
  145.7884  140.4791  153.9573 H   0  0  0  0  0  0  0  0  0  0  0  0
  147.9290  139.4162  154.3677 H   0  0  0  0  0  0  0  0  0  0  0  0
  149.2406  142.0745  154.0698 H   0  0  0  0  0  0  0  0  0  0  0  0
  149.0116  141.6589  155.7644 H   0  0  0  0  0  0  0  0  0  0  0  0
  149.7895  139.3197  156.4313 H   0  0  0  0  0  0  0  0  0  0  0  0
  152.0598  138.2934  156.6072 H   0  0  0  0  0  0  0  0  0  0  0  0
  152.5876  139.2070  155.1937 H   0  0  0  0  0  0  0  0  0  0  0  0
  151.3324  137.9828  155.0363 H   0  0  0  0  0  0  0  0  0  0  0  0
  151.4173  143.7169  160.6527 H   0  0  0  0  0  0  0  0  0  0  0  0
  153.3338  143.0792  162.0956 H   0  0  0  0  0  0  0  0  0  0  0  0
  154.8197  141.1964  161.3628 H   0  0  0  0  0  0  0  0  0  0  0  0
  151.0268  142.6087  158.7015 H   0  0  0  0  0  0  0  0  0  0  0  0
  1  2  2  0  0  0  0
  1 17  1  0  0  0  0
  1 18  1  0  0  0  0
  2  3  1  0  0  0  0
  2 19  1  0  0  0  0
  3  4  1  0  0  0  0
  3 20  1  0  0  0  0
  3 21  1  0  0  0  0
  4  5  1  0  0  0  0
  5  6  1  0  0  0  0
  5  7  1  0  0  0  0
  5 22  1  0  0  0  0
  6 23  1  0  0  0  0
  6 24  1  0  0  0  0
  6 25  1  0  0  0  0
  7  8  2  0  0  0  0
  7  9  1  0  0  0  0
  9 10  2  0  0  0  0
 10 15  1  0  0  0  0
 10 11  1  0  0  0  0
 11 29  1  0  0  0  0
 11 12  1  0  0  0  0
 12 26  1  0  0  0  0
 12 13  2  0  0  0  0
 13 27  1  0  0  0  0
 13 14  1  0  0  0  0
 14 15  2  0  0  0  0
 14 28  1  0  0  0  0
 15 16  1  0  0  0  0
M  CHG  1  16  -1
M  END
> <s_m_source_file>
AV-unprocessed.smi

> <i_m_source_file_index>
3208

> <i_lp_mmshare_version>
43012

> <i_f3d_flags>
0

> <s_epik_input>
W0NIMl09W0NIXVtDSDJdT1tDQEhdKFtDSDNdKUMoPU8pW05IXWMxbltjSF1bY0hdW2NIXWMxW09IXQ==

> <s_epik_cmdline>
J2VwaWtfcHl0aG9uJywgJy1waCcsICc3LjAnLCAnLXRuJywgJzgnLCAnLW1hJywgJzIwMCcsICctbWV0YWxfYmluZGluZycsICctaW1hZScsICc8aW5maWxlLm1hZT4nLCAnLW9tYWUnLCAnPG91dGZpbGUubWFlPic=

> <r_epik_Ionization_Penalty>
0.613767

> <r_epik_Ionization_Penalty_Charging>
0.613767

> <r_epik_Ionization_Penalty_Neutral>
1.14324e-13

> <r_epik_State_Penalty>
1.22258

> <r_epik_Charging_Adjusted_Penalty>
1.83635

> <i_epik_Tot_Q>
-1

> <i_epik_Tot_abs_Q>
1

> <r_epik_Metal_State_Penalty>
1.18528

> <b_epik_Metal_Only>
0

> <s_lp_Force_Field>
OPLS_2005

> <r_lp_Energy>
40.4661

> <b_lp_Chiralities_Consistent>
1

> <s_lp_Variant>
AV-unprocessed.smi:3208-6

> <Gold.Version>
5.8.1

> <Gold.Id.Protein>
6NUR|6NUR_protein|mol2

> <Gold.PLP.Fitness>
40.0945

> <Gold.PLP.PLP>
-33.2933

> <Gold.PLP.part.hbond>
-2.8348

> <Gold.PLP.part.metal>
0.0000

> <Gold.PLP.part.buried>
-2.4223

> <Gold.PLP.part.nonpolar>
-27.2549

> <Gold.PLP.part.repulsive>
0.2768

> <Gold.PLP.ligand.clash>
0.0000

> <Gold.PLP.ligand.torsion>
1.1125

> <Gold.PLP.Chemscore.Hbond>
2.9920

> <Gold.PLP.Chemscore.CHOScore>
0.0000

> <Gold.PLP.Chemscore.Metal>
0.0000

> <Gold.Chemscore.Hbonds>
donor molecule, donor type, donor heavy atom, donor atom, acceptor molecule, acceptor atom, score
      P1  H  7989  7998       L1     4  1.00
      P1  H  7997  8008       L1    16  2.00

> <Gold.PLP.Chemscore.Internal.Correction>
0.0502

> <Gold.Rescore>
     Score         DG    S(hbond)    S(metal)    S(lipo)     H(rot)  DE(clash)    DE(int)     intcor
     13.71     -15.70       1.78        0.00      72.76       1.65       0.01       1.98       ----

> <Gold.Chemscore.Fitness>
13.7147

> <Gold.Chemscore.DG>
-15.6998

> <Gold.Chemscore.ZeroCoef>
-5.4800

> <Gold.Chemscore.Hbond>
1.7783

> <Gold.Chemscore.Metal>
0.0000

> <Gold.Chemscore.Lipo>
72.7581

> <Gold.Chemscore.Internal_Hbond>
0.0000

> <Gold.Chemscore.DEClash>
0.0093

> <Gold.Chemscore.DEInternal>
1.9758

> <Gold.Chemscore.Rot>
1.6533

> <Gold.Chemscore.Internal.Correction>
   9.000000E+99

> <Gold.Chemscore.Hbonds>
donor molecule, donor type, donor heavy atom, donor atom, acceptor molecule, acceptor atom, score
      P1  H  7989  7998       L1     4  0.81
      P1  H  7997  8008       L1    16  0.72

> <Gold.Chemscore.Hbond.Weighted>
-5.9394

> <Gold.Chemscore.Metal.Weighted>
-0.0000

> <Gold.Chemscore.Lipo.Weighted>
-8.5127

> <Gold.Chemscore.Internal_Hbond.Weighted>
0.0000

> <Gold.Chemscore.DEClash.Weighted>
0.0093

> <Gold.Chemscore.DEInternal.Weighted>
1.9758

> <Gold.Chemscore.Rot.Weighted>
4.2324

> <Gold.Chemscore.Internal.Correction.Weighted>
   9.000000E+99

> <Gold.Protein.RotatedTorsions>
[ 6907 6896 6895 6894 ] final  -97.16 input  -60.11 | X-H torsion
[ 7974 7965 7964 7962 ] final  103.72 input  175.53 | X-H torsion
[ 8008 7997 7996 7995 ] final -114.12 input   59.86 | X-H torsion
[ 10167 10162 10161 10158 ] final  -54.66 input  -65.29 | X-H torsion
[ 10718 10713 10712 10709 ] final   44.58 input   66.30 | X-H torsion
[ 10763 10752 10751 10750 ] final -108.63 input  -60.55 | X-H torsion
[ 11005 11000 10999 10996 ] final   34.29 input  -57.11 | X-H torsion

> <Gold.Protein.ActiveResidues>
 VAL166  LYS551  ARG553  GLY616  TRP617  ASP618  TYR619  PRO620  LYS621  CYS622 
 ASP623  PHE694  ASN695  SER759  ASP760  ASP761  ALA762  ILE779  LEU786  VAL792 
 PHE793  MET794  SER795  GLU796  ALA797  LYS798  CYS799  TRP800  GLU811  SER814 

> <Gold.Protein.RotatedAtoms>
  150.7008  134.1391  159.4098 H   0  0  0  0  0  0  0  0  0  0  0  0  # atno 6907 bound_to 6896
  151.9376  135.0226  160.0543 H   0  0  0  0  0  0  0  0  0  0  0  0  # atno 6908 bound_to 6896
  152.2122  133.4884  159.5153 H   0  0  0  0  0  0  0  0  0  0  0  0  # atno 6909 bound_to 6896
  145.3421  139.2459  143.3603 H   0  0  0  0  0  0  0  0  0  0  0  0  # atno 7974 bound_to 7965
  155.0313  140.0393  157.2475 H   0  0  0  0  0  0  0  0  0  0  0  0  # atno 8008 bound_to 7997
  154.7294  140.2727  155.6446 H   0  0  0  0  0  0  0  0  0  0  0  0  # atno 8009 bound_to 7997
  156.2837  140.2687  156.1989 H   0  0  0  0  0  0  0  0  0  0  0  0  # atno 8010 bound_to 7997
  140.6418  143.2512  151.4969 H   0  0  0  0  0  0  0  0  0  0  0  0  # atno 10167 bound_to 10162
  157.4283  130.8010  149.7579 H   0  0  0  0  0  0  0  0  0  0  0  0  # atno 10718 bound_to 10713
  154.8147  135.4631  154.0610 H   0  0  0  0  0  0  0  0  0  0  0  0  # atno 10763 bound_to 10752
  153.2013  135.6869  153.8235 H   0  0  0  0  0  0  0  0  0  0  0  0  # atno 10764 bound_to 10752
  153.7718  135.3269  155.3330 H   0  0  0  0  0  0  0  0  0  0  0  0  # atno 10765 bound_to 10752
  140.2544  134.3266  155.7879 H   0  0  0  0  0  0  0  0  0  0  0  0  # atno 11005 bound_to 11000
  146.3003  140.4021  142.8706 LP  0  0  0  0  0  0  0  0  0  0  0  0  # atno 17320 bound_to 7965
  144.8782  140.7365  143.6003 LP  0  0  0  0  0  0  0  0  0  0  0  0  # atno 17321 bound_to 7965
  139.5627  144.2117  152.1717 LP  0  0  0  0  0  0  0  0  0  0  0  0  # atno 17342 bound_to 10162
  140.1389  144.5220  150.6756 LP  0  0  0  0  0  0  0  0  0  0  0  0  # atno 17343 bound_to 10162
  155.9904  130.3945  150.3029 LP  0  0  0  0  0  0  0  0  0  0  0  0  # atno 17370 bound_to 10713
  157.1184  131.0240  151.3019 LP  0  0  0  0  0  0  0  0  0  0  0  0  # atno 17371 bound_to 10713
  141.2198  133.7372  156.9087 LP  0  0  0  0  0  0  0  0  0  0  0  0  # atno 17394 bound_to 11000
  140.1526  134.9219  157.2613 LP  0  0  0  0  0  0  0  0  0  0  0  0  # atno 17395 bound_to 11000

$$$$
