#       Name:                AV-unprocessed.smi:1102
#       Creating user name   scv26
#       Creation time:       Fri Mar 27 03:30:44 2020


#       File generated by GOLD software.
#

@<TRIPOS>MOLECULE
AV-unprocessed.smi:1102
    45    46     1
SMALL
NO_CHARGES


@<TRIPOS>ATOM
      1 ****        -5.6034  -1.4517  -1.7685 C.3            1 S1                 0.0000
      2 ****        -4.9424  -0.2180  -2.1666 N.3            1 S1                 0.0000
      3 ****        -5.5564   1.0156  -1.6984 C.3            1 S1                 0.0000
      4 ****        -3.5568  -0.2543  -1.9589 C.ar           1 S1                 0.0000
      5 ****        -2.6546  -0.2853  -3.0422 C.ar           1 S1                 0.0000
      6 ****        -1.2686  -0.3217  -2.7867 C.ar           1 S1                 0.0000
      7 ****        -0.8007  -0.3381  -1.4549 C.ar           1 S1                 0.0000
      8 ****         0.6051  -0.3625  -1.2483 N.am           1 S1                 0.0000
      9 ****         1.2822  -0.7063  -0.1393 C.2            1 S1                 0.0000
     10 ****         0.7739  -1.0990   0.9104 O.2            1 S1                 0.0000
     11 ****         2.6043  -0.5846  -0.3223 N.am           1 S1                 0.0000
     12 ****         3.6192  -0.8627   0.6877 C.3            1 S1                 0.0000
     13 ****         3.9562   0.3942   1.5066 C.3            1 S1                 0.0000
     14 ****         5.0971   0.1911   2.5084 C.3            1 S1                 0.0000
     15 ****         4.7261   1.0787   3.6896 C.3            1 S1                 0.0000
     16 ****         3.3810   1.6852   3.2933 C.3            1 S1                 0.0000
     17 ****         2.8675   0.7763   2.3339 O.3            1 S1                 0.0000
     18 ****        -1.7529  -0.2957  -0.4065 C.ar           1 S1                 0.0000
     19 ****        -3.0721  -0.2586  -0.6946 N.pl3          1 S1                 1.0000
     20 ****        -5.0809  -2.3208  -2.1705 H              1 S1                 0.0000
     21 ****        -6.6262  -1.4700  -2.1461 H              1 S1                 0.0000
     22 ****        -5.6390  -1.5427  -0.6823 H              1 S1                 0.0000
     23 ****        -5.0160   1.8847  -2.0760 H              1 S1                 0.0000
     24 ****        -5.5649   1.0607  -0.6086 H              1 S1                 0.0000
     25 ****        -6.5864   1.0811  -2.0503 H              1 S1                 0.0000
     26 ****        -3.0182  -0.2799  -4.0596 H              1 S1                 0.0000
     27 ****        -0.5713  -0.3422  -3.6117 H              1 S1                 0.0000
     28 ****         1.1667  -0.1316  -2.0547 H              1 S1                 0.0000
     29 ****         2.9349  -0.2618  -1.2198 H              1 S1                 0.0000
     30 ****         3.3075  -1.6787   1.3418 H              1 S1                 0.0000
     31 ****         4.5129  -1.2090   0.1681 H              1 S1                 0.0000
     32 ****         4.1988   1.2262   0.8423 H              1 S1                 0.0000
     33 ****         5.1486  -0.8483   2.8350 H              1 S1                 0.0000
     34 ****         6.0640   0.4517   2.0772 H              1 S1                 0.0000
     35 ****         4.6216   0.4737   4.5910 H              1 S1                 0.0000
     36 ****         5.4731   1.8483   3.8865 H              1 S1                 0.0000
     37 ****         2.7049   1.8020   4.1403 H              1 S1                 0.0000
     38 ****         3.5188   2.6620   2.8271 H              1 S1                 0.0000
     39 ****        -1.5201  -0.2776   0.6475 H              1 S1                 0.0000
     40 ****        -3.7348  -0.2307   0.0806 H              1 S1                 0.0000
     41 ****        -5.0918  -0.1833  -3.1548 LP             1 S1                 0.0000
     42 ****        -0.2198  -1.1826   0.9841 LP             1 S1                 0.0000
     43 ****         1.3547  -1.3344   1.6897 LP             1 S1                 0.0000
     44 ****         2.4841  -0.0263   2.7908 LP             1 S1                 0.0000
     45 ****         2.1576   1.2188   1.7860 LP             1 S1                 0.0000
@<TRIPOS>BOND
    1    1    2 1     
    2    1   20 1     
    3    1   21 1     
    4    1   22 1     
    5    2    3 1     
    6    2    4 1     
    7    3   23 1     
    8    3   24 1     
    9    3   25 1     
   10    4   19 ar    
   11    4    5 ar    
   12    5    6 ar    
   13    5   26 1     
   14    6    7 ar    
   15    6   27 1     
   16    7    8 1     
   17    7   18 ar    
   18    8    9 am    
   19    8   28 1     
   20    9   10 2     
   21    9   11 am    
   22   11   12 1     
   23   11   29 1     
   24   12   13 1     
   25   12   30 1     
   26   12   31 1     
   27   13   17 1     
   28   13   14 1     
   29   13   32 1     
   30   14   15 1     
   31   14   33 1     
   32   14   34 1     
   33   15   16 1     
   34   15   35 1     
   35   15   36 1     
   36   16   17 1     
   37   16   37 1     
   38   16   38 1     
   39   18   19 ar    
   40   18   39 1     
   41   19   40 1     
   42    2   41 1     
   43   10   42 1     
   44   10   43 1     
   45   17   44 1     
   46   17   45 1     
@<TRIPOS>SUBSTRUCTURE
      1 S1             1
@<TRIPOS>SET
LONE_PAIRS      STATIC     ATOMS    <user>   **** ""
5 41 42 43 44 45
DONOR_HYDROGENS      STATIC     ATOMS    <user>   **** ""
3 28 29 40
ATOM$BLUE        STATIC     ATOMS    COLORGROUP SYSTEM
5 41 42 43 44 45
ATOM$RED        STATIC     ATOMS    COLORGROUP SYSTEM
3 28 29 40
