AV-unprocessed.smi:2956|AV-procd|sdf|11305|dock7
  -GOLD-   2272016203D 1   1.00000     0.00000
 Structure written by MMmdl.
 25 26  0  0  0  0  0  0  0  0  1 V2000
  151.0215  139.7938  154.4294 O   0  0  0  0  0  0  0  0  0  0  0  0
  150.3381  140.0184  155.4297 C   0  0  0  0  0  0  0  0  0  0  0  0
  150.9000  139.7826  156.8402 C   0  0  0  0  0  0  0  0  0  0  0  0
  151.3144  141.0168  157.5247 N   0  0  0  0  0  0  0  0  0  0  0  0
  150.9149  142.1772  156.8848 N   0  0  0  0  0  0  0  0  0  0  0  0
  151.2062  143.3201  157.4032 C   0  0  0  0  0  0  0  0  0  0  0  0
  151.9464  143.4390  158.6398 C   0  0  0  0  0  0  0  0  0  0  0  0
  152.3068  145.0005  159.2876 Cl  0  0  0  0  0  0  0  0  0  0  0  0
  152.3388  142.2957  159.2560 C   0  0  0  0  0  0  0  0  0  0  0  0
  153.2282  142.3573  160.7390 Cl  0  0  0  0  0  0  0  0  0  0  0  0
  152.0255  140.9747  158.6936 C   0  0  0  0  0  0  0  0  0  0  0  0
  152.3661  139.9146  159.2202 O   0  0  0  0  0  0  0  0  0  0  0  0
  149.0733  140.4599  155.3731 N   0  0  0  0  0  0  0  0  0  0  0  0
  148.3493  140.7507  154.1782 C   0  0  0  0  0  0  0  0  0  0  0  0
  147.6511  142.0909  154.0924 C   0  0  0  0  0  0  0  0  0  0  0  0
  146.8412  140.8361  154.2691 C   0  0  0  0  0  0  0  0  0  0  0  0
  150.1563  139.2546  157.4403 H   0  0  0  0  0  0  0  0  0  0  0  0
  151.7458  139.0977  156.7568 H   0  0  0  0  0  0  0  0  0  0  0  0
  150.9102  144.2597  156.9366 H   0  0  0  0  0  0  0  0  0  0  0  0
  148.5872  140.6108  156.2453 H   0  0  0  0  0  0  0  0  0  0  0  0
  148.7532  140.3659  153.2426 H   0  0  0  0  0  0  0  0  0  0  0  0
  147.7281  142.7619  154.9460 H   0  0  0  0  0  0  0  0  0  0  0  0
  147.6160  142.5778  153.1201 H   0  0  0  0  0  0  0  0  0  0  0  0
  146.2678  140.4834  153.4141 H   0  0  0  0  0  0  0  0  0  0  0  0
  146.3792  140.6682  155.2401 H   0  0  0  0  0  0  0  0  0  0  0  0
  1  2  2  0  0  0  0
  2  3  1  0  0  0  0
  2 13  1  0  0  0  0
  3  4  1  0  0  0  0
  3 17  1  0  0  0  0
  3 18  1  0  0  0  0
  4 11  1  0  0  0  0
  4  5  1  0  0  0  0
  5  6  2  0  0  0  0
  6  7  1  0  0  0  0
  6 19  1  0  0  0  0
  7  8  1  0  0  0  0
  7  9  2  0  0  0  0
  9 10  1  0  0  0  0
  9 11  1  0  0  0  0
 11 12  2  0  0  0  0
 13 14  1  0  0  0  0
 13 20  1  0  0  0  0
 14 16  1  0  0  0  0
 14 15  1  0  0  0  0
 14 21  1  0  0  0  0
 15 16  1  0  0  0  0
 15 22  1  0  0  0  0
 15 23  1  0  0  0  0
 16 24  1  0  0  0  0
 16 25  1  0  0  0  0
M  END
> <s_m_source_file>
AV-unprocessed.smi

> <i_m_source_file_index>
2956

> <i_lp_mmshare_version>
43012

> <i_f3d_flags>
0

> <s_epik_input>
W0NIMl0xW0NIMl1bQ0hdMVtOSF1DKD1PKVtDSDJdbjJuW2NIXWMoQ2wpYyhDbCljMj1P

> <s_epik_cmdline>
J2VwaWtfcHl0aG9uJywgJy1waCcsICc3LjAnLCAnLXRuJywgJzgnLCAnLW1hJywgJzIwMCcsICctbWV0YWxfYmluZGluZycsICctaW1hZScsICc8aW5maWxlLm1hZT4nLCAnLW9tYWUnLCAnPG91dGZpbGUubWFlPic=

> <r_lp_tautomer_probability>
1

> <r_epik_Ionization_Penalty>
2.06989e-08

> <r_epik_Ionization_Penalty_Charging>
2.85155e-11

> <r_epik_Ionization_Penalty_Neutral>
2.06703e-08

> <r_epik_State_Penalty>
-0

> <r_epik_Charging_Adjusted_Penalty>
2.85155e-11

> <i_epik_Tot_Q>
0

> <i_epik_Tot_abs_Q>
0

> <r_epik_Metal_State_Penalty>
-0

> <b_epik_Metal_Only>
0

> <s_lp_Force_Field>
OPLS_2005

> <r_lp_Energy>
29.5671

> <b_lp_Chiralities_Consistent>
1

> <s_lp_Variant>
AV-unprocessed.smi:2956-1

> <Gold.Version>
5.8.1

> <Gold.Id.Protein>
6NUR|6NUR_protein|mol2

> <Gold.PLP.Fitness>
39.4268

> <Gold.PLP.PLP>
-34.4177

> <Gold.PLP.part.hbond>
-1.0000

> <Gold.PLP.part.metal>
0.0000

> <Gold.PLP.part.buried>
-4.6005

> <Gold.PLP.part.nonpolar>
-29.9734

> <Gold.PLP.part.repulsive>
0.2747

> <Gold.PLP.ligand.clash>
0.0000

> <Gold.PLP.ligand.torsion>
0.5132

> <Gold.PLP.Chemscore.Hbond>
1.0000

> <Gold.PLP.Chemscore.CHOScore>
1.0000

> <Gold.PLP.Chemscore.Metal>
0.0000

> <Gold.Chemscore.Hbonds>
donor molecule, donor type, donor heavy atom, donor atom, acceptor molecule, acceptor atom, score
      P1  H  7989  7998       L1     1  1.00
      L1  C     6    19       P1  8028  0.98

> <Gold.PLP.Chemscore.Internal.Correction>
0.0354

> <Gold.Rescore>
     Score         DG    S(hbond)    S(metal)    S(lipo)     H(rot)  DE(clash)    DE(int)     intcor
     13.82     -14.31       1.00        0.00      81.75       1.59       0.06       0.43       ----

> <Gold.Chemscore.Fitness>
13.8179

> <Gold.Chemscore.DG>
-14.3062

> <Gold.Chemscore.ZeroCoef>
-5.4800

> <Gold.Chemscore.Hbond>
0.9997

> <Gold.Chemscore.Metal>
0.0000

> <Gold.Chemscore.Lipo>
81.7484

> <Gold.Chemscore.Internal_Hbond>
0.0000

> <Gold.Chemscore.DEClash>
0.0555

> <Gold.Chemscore.DEInternal>
0.4328

> <Gold.Chemscore.Rot>
1.5928

> <Gold.Chemscore.Internal.Correction>
   9.000000E+99

> <Gold.Chemscore.Hbonds>
donor molecule, donor type, donor heavy atom, donor atom, acceptor molecule, acceptor atom, score
      P1  H  7989  7998       L1     1  0.94

> <Gold.Chemscore.Hbond.Weighted>
-3.3391

> <Gold.Chemscore.Metal.Weighted>
-0.0000

> <Gold.Chemscore.Lipo.Weighted>
-9.5646

> <Gold.Chemscore.Internal_Hbond.Weighted>
0.0000

> <Gold.Chemscore.DEClash.Weighted>
0.0555

> <Gold.Chemscore.DEInternal.Weighted>
0.4328

> <Gold.Chemscore.Rot.Weighted>
4.0775

> <Gold.Chemscore.Internal.Correction.Weighted>
   9.000000E+99

> <Gold.Protein.RotatedTorsions>
[ 6907 6896 6895 6894 ] final -100.79 input  -60.11 | X-H torsion
[ 7974 7965 7964 7962 ] final  143.37 input  175.53 | X-H torsion
[ 8008 7997 7996 7995 ] final  -78.97 input   59.86 | X-H torsion
[ 10167 10162 10161 10158 ] final   36.17 input  -65.29 | X-H torsion
[ 10718 10713 10712 10709 ] final  -86.68 input   66.30 | X-H torsion
[ 10763 10752 10751 10750 ] final  103.88 input  -60.55 | X-H torsion
[ 11005 11000 10999 10996 ] final -141.04 input  -57.11 | X-H torsion

> <Gold.Protein.ActiveResidues>
 VAL166  LYS551  ARG553  GLY616  TRP617  ASP618  TYR619  PRO620  LYS621  CYS622 
 ASP623  PHE694  ASN695  SER759  ASP760  ASP761  ALA762  ILE779  LEU786  VAL792 
 PHE793  MET794  SER795  GLU796  ALA797  LYS798  CYS799  TRP800  GLU811  SER814 

> <Gold.Protein.RotatedAtoms>
  150.7129  134.0833  159.3905 H   0  0  0  0  0  0  0  0  0  0  0  0  # atno 6907 bound_to 6896
  151.8817  135.0448  160.0498 H   0  0  0  0  0  0  0  0  0  0  0  0  # atno 6908 bound_to 6896
  152.2562  133.5222  159.5391 H   0  0  0  0  0  0  0  0  0  0  0  0  # atno 6909 bound_to 6896
  144.8926  139.5536  143.5791 H   0  0  0  0  0  0  0  0  0  0  0  0  # atno 7974 bound_to 7965
  154.5740  140.0686  156.9006 H   0  0  0  0  0  0  0  0  0  0  0  0  # atno 8008 bound_to 7997
  155.2583  140.3356  155.4257 H   0  0  0  0  0  0  0  0  0  0  0  0  # atno 8009 bound_to 7997
  156.2140  140.1770  156.7617 H   0  0  0  0  0  0  0  0  0  0  0  0  # atno 8010 bound_to 7997
  140.4153  144.1536  150.6143 H   0  0  0  0  0  0  0  0  0  0  0  0  # atno 10167 bound_to 10162
  155.9988  130.4773  150.4752 H   0  0  0  0  0  0  0  0  0  0  0  0  # atno 10718 bound_to 10713
  153.3585  135.3962  155.1700 H   0  0  0  0  0  0  0  0  0  0  0  0  # atno 10763 bound_to 10752
  154.8675  135.3674  154.5129 H   0  0  0  0  0  0  0  0  0  0  0  0  # atno 10764 bound_to 10752
  153.5587  135.7081  153.5617 H   0  0  0  0  0  0  0  0  0  0  0  0  # atno 10765 bound_to 10752
  140.8364  134.2455  157.4832 H   0  0  0  0  0  0  0  0  0  0  0  0  # atno 11005 bound_to 11000
  146.3063  139.7591  142.9054 LP  0  0  0  0  0  0  0  0  0  0  0  0  # atno 17320 bound_to 7965
  145.3756  141.0350  143.3207 LP  0  0  0  0  0  0  0  0  0  0  0  0  # atno 17321 bound_to 7965
  140.4593  143.2455  151.9241 LP  0  0  0  0  0  0  0  0  0  0  0  0  # atno 17342 bound_to 10162
  139.4782  144.5483  151.8424 LP  0  0  0  0  0  0  0  0  0  0  0  0  # atno 17343 bound_to 10162
  157.2763  131.0597  151.2227 LP  0  0  0  0  0  0  0  0  0  0  0  0  # atno 17370 bound_to 10713
  157.3289  130.6975  149.6313 LP  0  0  0  0  0  0  0  0  0  0  0  0  # atno 17371 bound_to 10713
  139.8704  134.9613  156.4391 LP  0  0  0  0  0  0  0  0  0  0  0  0  # atno 17394 bound_to 11000
  140.8943  133.7825  155.9607 LP  0  0  0  0  0  0  0  0  0  0  0  0  # atno 17395 bound_to 11000

$$$$
