AV-unprocessed.smi:1570|AV-procd|sdf|6320|dock3
  -GOLD-   22720 6523D 1   1.00000     0.00000
 Structure written by MMmdl.
 52 54  0  0  0  0  0  0  0  0  2 V2000
  155.3606  140.2391  160.1018 C   0  0  0  0  0  0  0  0  0  0  0  0
  154.1037  140.7095  160.8454 C   0  0  0  0  0  0  0  0  0  0  0  0
  153.1477  141.3246  159.9283 N   0  0  0  0  0  0  0  0  0  0  0  0
  152.7958  140.8647  158.7047 C   0  0  0  0  0  0  0  0  0  0  0  0
  153.2172  139.8407  158.1675 O   0  0  0  0  0  0  0  0  0  0  0  0
  151.9290  141.7487  158.1556 N   0  0  0  0  0  0  0  0  0  0  0  0
  151.3295  141.6736  156.8238 C   0  0  0  0  0  0  0  0  0  0  0  0
  149.7931  141.5515  156.8849 C   0  0  2  0  0  0  0  0  0  0  0  0
  149.4812  140.3859  157.6206 O   0  0  0  0  0  0  0  0  0  0  0  0
  149.1339  141.4465  155.4923 C   0  0  0  0  0  0  0  0  0  0  0  0
  147.8034  142.1019  155.4395 N   0  3  1  0  0  0  0  0  0  0  0  0
  146.9375  141.5972  154.3453 C   0  0  0  0  0  0  0  0  0  0  0  0
  145.5954  142.3539  154.3072 C   0  0  2  0  0  0  0  0  0  0  0  0
  145.7144  143.7865  153.7578 C   0  0  0  0  0  0  0  0  0  0  0  0
  144.9708  142.3154  155.5906 O   0  0  0  0  0  0  0  0  0  0  0  0
  145.7668  142.8208  156.6595 C   0  0  1  0  0  0  0  0  0  0  0  0
  144.9525  142.7010  157.9525 C   0  0  0  0  0  0  0  0  0  0  0  0
  147.0863  142.0325  156.7332 C   0  0  0  0  0  0  0  0  0  0  0  0
  151.7321  142.8113  159.0490 C   0  0  0  0  0  0  0  0  0  0  0  0
  150.9475  143.9729  158.9441 C   0  0  0  0  0  0  0  0  0  0  0  0
  150.9761  144.8728  160.0350 C   0  0  0  0  0  0  0  0  0  0  0  0
  151.7690  144.6018  161.1804 C   0  0  0  0  0  0  0  0  0  0  0  0
  152.5494  143.4244  161.2598 C   0  0  0  0  0  0  0  0  0  0  0  0
  152.5005  142.5462  160.1630 C   0  0  0  0  0  0  0  0  0  0  0  0
  156.0705  139.7812  160.7908 H   0  0  0  0  0  0  0  0  0  0  0  0
  155.8642  141.0729  159.6114 H   0  0  0  0  0  0  0  0  0  0  0  0
  155.1143  139.4997  159.3390 H   0  0  0  0  0  0  0  0  0  0  0  0
  153.6374  139.8649  161.3553 H   0  0  0  0  0  0  0  0  0  0  0  0
  154.3744  141.4209  161.6259 H   0  0  0  0  0  0  0  0  0  0  0  0
  151.6184  142.5411  156.2278 H   0  0  0  0  0  0  0  0  0  0  0  0
  151.7528  140.8079  156.3124 H   0  0  0  0  0  0  0  0  0  0  0  0
  149.3972  142.4035  157.4363 H   0  0  0  0  0  0  0  0  0  0  0  0
  150.1488  139.7369  157.4559 H   0  0  0  0  0  0  0  0  0  0  0  0
  149.7659  141.8894  154.7226 H   0  0  0  0  0  0  0  0  0  0  0  0
  149.0382  140.3905  155.2343 H   0  0  0  0  0  0  0  0  0  0  0  0
  147.4351  141.6862  153.3801 H   0  0  0  0  0  0  0  0  0  0  0  0
  146.7502  140.5336  154.5018 H   0  0  0  0  0  0  0  0  0  0  0  0
  144.9303  141.8135  153.6328 H   0  0  0  0  0  0  0  0  0  0  0  0
  146.0700  143.7758  152.7272 H   0  0  0  0  0  0  0  0  0  0  0  0
  146.4114  144.3956  154.3328 H   0  0  0  0  0  0  0  0  0  0  0  0
  144.7461  144.2874  153.7659 H   0  0  0  0  0  0  0  0  0  0  0  0
  145.9800  143.8768  156.4929 H   0  0  0  0  0  0  0  0  0  0  0  0
  145.5133  143.0821  158.8066 H   0  0  0  0  0  0  0  0  0  0  0  0
  144.6903  141.6631  158.1604 H   0  0  0  0  0  0  0  0  0  0  0  0
  144.0256  143.2711  157.8835 H   0  0  0  0  0  0  0  0  0  0  0  0
  146.8945  140.9887  156.9879 H   0  0  0  0  0  0  0  0  0  0  0  0
  147.7128  142.4460  157.5244 H   0  0  0  0  0  0  0  0  0  0  0  0
  150.3482  144.1748  158.0688 H   0  0  0  0  0  0  0  0  0  0  0  0
  150.3880  145.7778  159.9952 H   0  0  0  0  0  0  0  0  0  0  0  0
  151.7774  145.3035  162.0015 H   0  0  0  0  0  0  0  0  0  0  0  0
  153.1571  143.2149  162.1275 H   0  0  0  0  0  0  0  0  0  0  0  0
  147.9754  143.0814  155.2616 H   0  0  0  0  0  0  0  0  0  0  0  0
  1  2  1  0  0  0  0
  1 25  1  0  0  0  0
  1 26  1  0  0  0  0
  1 27  1  0  0  0  0
  2  3  1  0  0  0  0
  2 28  1  0  0  0  0
  2 29  1  0  0  0  0
  3 24  1  0  0  0  0
  3  4  1  0  0  0  0
  4  5  2  0  0  0  0
  4  6  1  0  0  0  0
  6  7  1  0  0  0  0
  6 19  1  0  0  0  0
  7  8  1  0  0  0  0
  7 30  1  0  0  0  0
  7 31  1  0  0  0  0
  8  9  1  0  0  0  0
  8 10  1  0  0  0  0
  8 32  1  0  0  0  0
  9 33  1  0  0  0  0
 10 11  1  0  0  0  0
 10 34  1  0  0  0  0
 10 35  1  0  0  0  0
 11 18  1  0  0  0  0
 11 12  1  0  0  0  0
 11 52  1  0  0  0  0
 12 13  1  0  0  0  0
 12 36  1  0  0  0  0
 12 37  1  0  0  0  0
 13 14  1  0  0  0  0
 13 15  1  0  0  0  0
 13 38  1  0  0  0  0
 14 39  1  0  0  0  0
 14 40  1  0  0  0  0
 14 41  1  0  0  0  0
 15 16  1  0  0  0  0
 16 17  1  0  0  0  0
 16 18  1  0  0  0  0
 16 42  1  0  0  0  0
 17 43  1  0  0  0  0
 17 44  1  0  0  0  0
 17 45  1  0  0  0  0
 18 46  1  0  0  0  0
 18 47  1  0  0  0  0
 19 24  2  0  0  0  0
 19 20  1  0  0  0  0
 20 21  2  0  0  0  0
 20 48  1  0  0  0  0
 21 22  1  0  0  0  0
 21 49  1  0  0  0  0
 22 23  2  0  0  0  0
 22 50  1  0  0  0  0
 23 24  1  0  0  0  0
 23 51  1  0  0  0  0
M  CHG  1  11   1
M  END
> <s_m_source_file>
AV-unprocessed.smi

> <i_m_source_file_index>
1570

> <i_lp_mmshare_version>
43012

> <i_f3d_flags>
0

> <s_epik_input>
W2NIXTFbY0hdW2NIXVtjSF1jKGMxMiluKFtDSDJdW0NIM10pYyg9TyluMltDSDJdW0NASF0oW09IXSlbQ0gyXU4zW0NIMl1bQ0BASF0oW0NIM10pT1tDQEBIXShbQ0gzXSlbQ0gyXTM=

> <s_epik_cmdline>
J2VwaWtfcHl0aG9uJywgJy1waCcsICc3LjAnLCAnLXRuJywgJzgnLCAnLW1hJywgJzIwMCcsICctbWV0YWxfYmluZGluZycsICctaW1hZScsICc8aW5maWxlLm1hZT4nLCAnLW9tYWUnLCAnPG91dGZpbGUubWFlPic=

> <r_epik_Ionization_Penalty>
0.706332

> <r_epik_Ionization_Penalty_Charging>
0.706318

> <r_epik_Ionization_Penalty_Neutral>
1.42224e-05

> <r_epik_State_Penalty>
0.729493

> <r_epik_Charging_Adjusted_Penalty>
1.43581

> <i_epik_Tot_Q>
1

> <i_epik_Tot_abs_Q>
1

> <r_epik_Metal_State_Penalty>
0.729493

> <b_epik_Metal_Only>
0

> <s_lp_Force_Field>
OPLS_2005

> <r_lp_Energy>
53.5828

> <b_lp_Chiralities_Consistent>
1

> <s_lp_Variant>
AV-unprocessed.smi:1570-9

> <Gold.Version>
5.8.1

> <Gold.Id.Protein>
6NUR|6NUR_protein|mol2

> <Gold.PLP.Fitness>
55.8391

> <Gold.PLP.PLP>
-48.6240

> <Gold.PLP.part.hbond>
-2.0000

> <Gold.PLP.part.metal>
0.0000

> <Gold.PLP.part.buried>
-6.6614

> <Gold.PLP.part.nonpolar>
-40.9969

> <Gold.PLP.part.repulsive>
0.2085

> <Gold.PLP.ligand.clash>
0.0000

> <Gold.PLP.ligand.torsion>
0.9307

> <Gold.PLP.Chemscore.Hbond>
3.0000

> <Gold.PLP.Chemscore.CHOScore>
0.0000

> <Gold.PLP.Chemscore.Metal>
0.0000

> <Gold.Chemscore.Hbonds>
donor molecule, donor type, donor heavy atom, donor atom, acceptor molecule, acceptor atom, score
      L1  H    11    52       P1  8028  2.00
      P1  H  7997  8008       L1     5  1.00

> <Gold.PLP.Chemscore.Internal.Correction>
0.0764

> <Gold.Rescore>
     Score         DG    S(hbond)    S(metal)    S(lipo)     H(rot)  DE(clash)    DE(int)     intcor
     18.55     -20.87       1.75        0.00     128.09       2.13       0.08       2.23       ----

> <Gold.Chemscore.Fitness>
18.5489

> <Gold.Chemscore.DG>
-20.8678

> <Gold.Chemscore.ZeroCoef>
-5.4800

> <Gold.Chemscore.Hbond>
1.7529

> <Gold.Chemscore.Metal>
0.0000

> <Gold.Chemscore.Lipo>
128.0917

> <Gold.Chemscore.Internal_Hbond>
0.0000

> <Gold.Chemscore.DEClash>
0.0838

> <Gold.Chemscore.DEInternal>
2.2350

> <Gold.Chemscore.Rot>
2.1303

> <Gold.Chemscore.Internal.Correction>
   9.000000E+99

> <Gold.Chemscore.Hbonds>
donor molecule, donor type, donor heavy atom, donor atom, acceptor molecule, acceptor atom, score
      L1  H    11    52       P1  8028  0.79
      P1  H  7997  8008       L1     5  0.90

> <Gold.Chemscore.Hbond.Weighted>
-5.8546

> <Gold.Chemscore.Metal.Weighted>
-0.0000

> <Gold.Chemscore.Lipo.Weighted>
-14.9867

> <Gold.Chemscore.Internal_Hbond.Weighted>
0.0000

> <Gold.Chemscore.DEClash.Weighted>
0.0838

> <Gold.Chemscore.DEInternal.Weighted>
2.2350

> <Gold.Chemscore.Rot.Weighted>
5.4535

> <Gold.Chemscore.Internal.Correction.Weighted>
   9.000000E+99

> <Gold.Protein.RotatedTorsions>
[ 6907 6896 6895 6894 ] final  -69.36 input  -60.11 | X-H torsion
[ 7974 7965 7964 7962 ] final  -57.05 input  175.53 | X-H torsion
[ 8008 7997 7996 7995 ] final  -74.06 input   59.86 | X-H torsion
[ 10167 10162 10161 10158 ] final   54.80 input  -65.29 | X-H torsion
[ 10718 10713 10712 10709 ] final  -81.19 input   66.30 | X-H torsion
[ 10763 10752 10751 10750 ] final   60.22 input  -60.55 | X-H torsion
[ 11005 11000 10999 10996 ] final -170.50 input  -57.11 | X-H torsion

> <Gold.Protein.ActiveResidues>
 VAL166  LYS551  ARG553  GLY616  TRP617  ASP618  TYR619  PRO620  LYS621  CYS622 
 ASP623  PHE694  ASN695  SER759  ASP760  ASP761  ALA762  ILE779  LEU786  VAL792 
 PHE793  MET794  SER795  GLU796  ALA797  LYS798  CYS799  TRP800  GLU811  SER814 

> <Gold.Protein.RotatedAtoms>
  150.7309  134.5608  159.5840 H   0  0  0  0  0  0  0  0  0  0  0  0  # atno 6907 bound_to 6896
  152.3072  134.7538  160.0354 H   0  0  0  0  0  0  0  0  0  0  0  0  # atno 6908 bound_to 6896
  151.8099  133.3345  159.3589 H   0  0  0  0  0  0  0  0  0  0  0  0  # atno 6909 bound_to 6896
  145.8555  140.8322  142.9963 H   0  0  0  0  0  0  0  0  0  0  0  0  # atno 7974 bound_to 7965
  154.5299  140.0768  156.8326 H   0  0  0  0  0  0  0  0  0  0  0  0  # atno 8008 bound_to 7997
  155.3397  140.3406  155.4221 H   0  0  0  0  0  0  0  0  0  0  0  0  # atno 8009 bound_to 7997
  156.1770  140.1639  156.8330 H   0  0  0  0  0  0  0  0  0  0  0  0  # atno 8010 bound_to 7997
  140.2262  144.3735  150.6431 H   0  0  0  0  0  0  0  0  0  0  0  0  # atno 10167 bound_to 10162
  156.0055  130.4596  150.3915 H   0  0  0  0  0  0  0  0  0  0  0  0  # atno 10718 bound_to 10713
  152.9915  135.5544  154.5838 H   0  0  0  0  0  0  0  0  0  0  0  0  # atno 10763 bound_to 10752
  154.5214  135.2808  155.1261 H   0  0  0  0  0  0  0  0  0  0  0  0  # atno 10764 bound_to 10752
  154.2613  135.6380  153.5328 H   0  0  0  0  0  0  0  0  0  0  0  0  # atno 10765 bound_to 10752
  140.5188  134.5730  157.5041 H   0  0  0  0  0  0  0  0  0  0  0  0  # atno 11005 bound_to 11000
  144.6728  140.1017  143.7460 LP  0  0  0  0  0  0  0  0  0  0  0  0  # atno 17320 bound_to 7965
  145.9308  139.2605  143.1326 LP  0  0  0  0  0  0  0  0  0  0  0  0  # atno 17321 bound_to 7965
  140.6218  143.2177  151.6677 LP  0  0  0  0  0  0  0  0  0  0  0  0  # atno 17342 bound_to 10162
  139.5126  144.3470  152.0687 LP  0  0  0  0  0  0  0  0  0  0  0  0  # atno 17343 bound_to 10162
  157.1989  131.0433  151.2661 LP  0  0  0  0  0  0  0  0  0  0  0  0  # atno 17370 bound_to 10713
  157.3993  130.7324  149.6755 LP  0  0  0  0  0  0  0  0  0  0  0  0  # atno 17371 bound_to 10713
  139.9617  134.7440  156.0222 LP  0  0  0  0  0  0  0  0  0  0  0  0  # atno 17394 bound_to 11000
  141.1346  133.6578  156.3557 LP  0  0  0  0  0  0  0  0  0  0  0  0  # atno 17395 bound_to 11000

$$$$
