AV-unprocessed.smi:833|AV-procd|sdf|3881|dock9
  -GOLD-   22720 1333D 1   1.00000     0.00000
 Structure written by MMmdl.
 39 40  0  0  0  0  0  0  0  0  1 V2000
  144.1388  133.6326  150.7722 C   0  0  0  0  0  0  0  0  0  0  0  0
  145.1063  134.8231  150.8179 C   0  0  1  0  0  0  0  0  0  0  0  0
  144.7044  135.7156  149.7990 O   0  0  0  0  0  0  0  0  0  0  0  0
  145.0625  135.5520  152.1764 C   0  0  0  0  0  0  0  0  0  0  0  0
  146.2416  136.3847  152.3869 N   0  0  0  0  0  0  0  0  0  0  0  0
  146.2464  137.5735  153.0047 C   0  0  0  0  0  0  0  0  0  0  0  0
  145.2378  138.1037  153.4698 O   0  0  0  0  0  0  0  0  0  0  0  0
  147.4795  138.1055  153.0244 N   0  0  0  0  0  0  0  0  0  0  0  0
  147.8759  139.3745  153.5325 C   0  0  0  0  0  0  0  0  0  0  0  0
  147.0152  140.4971  153.4641 C   0  0  0  0  0  0  0  0  0  0  0  0
  147.4194  141.7128  154.0420 C   0  0  0  0  0  0  0  0  0  0  0  0
  148.6671  141.7597  154.6849 C   0  0  0  0  0  0  0  0  0  0  0  0
  149.4920  140.6969  154.7707 N   0  0  0  0  0  0  0  0  0  0  0  0
  149.1232  139.5209  154.2051 C   0  0  0  0  0  0  0  0  0  0  0  0
  150.0368  138.4469  154.3125 N   0  0  0  0  0  0  0  0  0  0  0  0
  151.4259  138.7555  154.6407 C   0  0  0  0  0  0  0  0  0  0  0  0
  151.9215  137.6204  155.5429 C   0  0  0  0  0  0  0  0  0  0  0  0
  150.9607  136.4742  155.2428 C   0  0  0  0  0  0  0  0  0  0  0  0
  149.6493  137.2093  154.9811 C   0  0  0  0  0  0  0  0  0  0  0  0
  144.4041  132.8838  151.5188 H   0  0  0  0  0  0  0  0  0  0  0  0
  144.1603  133.1445  149.7971 H   0  0  0  0  0  0  0  0  0  0  0  0
  143.1123  133.9462  150.9658 H   0  0  0  0  0  0  0  0  0  0  0  0
  146.1156  134.4673  150.6059 H   0  0  0  0  0  0  0  0  0  0  0  0
  145.0548  135.4083  148.9761 H   0  0  0  0  0  0  0  0  0  0  0  0
  144.1401  136.1228  152.3017 H   0  0  0  0  0  0  0  0  0  0  0  0
  145.0715  134.8168  152.9816 H   0  0  0  0  0  0  0  0  0  0  0  0
  147.1177  136.0284  152.0341 H   0  0  0  0  0  0  0  0  0  0  0  0
  148.1923  137.6003  152.5186 H   0  0  0  0  0  0  0  0  0  0  0  0
  146.0430  140.4388  152.9987 H   0  0  0  0  0  0  0  0  0  0  0  0
  146.7819  142.5836  154.0049 H   0  0  0  0  0  0  0  0  0  0  0  0
  149.0107  142.6727  155.1482 H   0  0  0  0  0  0  0  0  0  0  0  0
  152.0081  138.7765  153.7193 H   0  0  0  0  0  0  0  0  0  0  0  0
  151.5284  139.7257  155.1289 H   0  0  0  0  0  0  0  0  0  0  0  0
  152.9650  137.3607  155.3629 H   0  0  0  0  0  0  0  0  0  0  0  0
  151.8241  137.9142  156.5889 H   0  0  0  0  0  0  0  0  0  0  0  0
  151.2796  135.9459  154.3433 H   0  0  0  0  0  0  0  0  0  0  0  0
  150.8884  135.7511  156.0556 H   0  0  0  0  0  0  0  0  0  0  0  0
  149.1569  137.4199  155.9313 H   0  0  0  0  0  0  0  0  0  0  0  0
  148.9696  136.6201  154.3651 H   0  0  0  0  0  0  0  0  0  0  0  0
  1  2  1  0  0  0  0
  1 20  1  0  0  0  0
  1 21  1  0  0  0  0
  1 22  1  0  0  0  0
  2  3  1  0  0  0  0
  2  4  1  0  0  0  0
  2 23  1  0  0  0  0
  3 24  1  0  0  0  0
  4  5  1  0  0  0  0
  4 25  1  0  0  0  0
  4 26  1  0  0  0  0
  5  6  1  0  0  0  0
  5 27  1  0  0  0  0
  6  7  2  0  0  0  0
  6  8  1  0  0  0  0
  8  9  1  0  0  0  0
  8 28  1  0  0  0  0
  9 14  1  0  0  0  0
  9 10  2  0  0  0  0
 10 11  1  0  0  0  0
 10 29  1  0  0  0  0
 11 12  2  0  0  0  0
 11 30  1  0  0  0  0
 12 13  1  0  0  0  0
 12 31  1  0  0  0  0
 13 14  2  0  0  0  0
 14 15  1  0  0  0  0
 15 19  1  0  0  0  0
 15 16  1  0  0  0  0
 16 17  1  0  0  0  0
 16 32  1  0  0  0  0
 16 33  1  0  0  0  0
 17 18  1  0  0  0  0
 17 34  1  0  0  0  0
 17 35  1  0  0  0  0
 18 19  1  0  0  0  0
 18 36  1  0  0  0  0
 18 37  1  0  0  0  0
 19 38  1  0  0  0  0
 19 39  1  0  0  0  0
M  END
> <s_m_source_file>
AV-unprocessed.smi

> <i_m_source_file_index>
833

> <i_lp_mmshare_version>
43012

> <i_f3d_flags>
0

> <s_epik_input>
W0NIM11bQ0BIXShbT0hdKVtDSDJdW05IXUMoPU8pW05IXWMxW2NIXVtjSF1bY0hdbmMxTjJbQ0gyXVtDSDJdW0NIMl1bQ0gyXTI=

> <s_epik_cmdline>
J2VwaWtfcHl0aG9uJywgJy1waCcsICc3LjAnLCAnLXRuJywgJzgnLCAnLW1hJywgJzIwMCcsICctbWV0YWxfYmluZGluZycsICctaW1hZScsICc8aW5maWxlLm1hZT4nLCAnLW9tYWUnLCAnPG91dGZpbGUubWFlPic=

> <r_lp_tautomer_probability>
1

> <r_epik_Ionization_Penalty>
0.0986749

> <r_epik_Ionization_Penalty_Charging>
0

> <r_epik_Ionization_Penalty_Neutral>
0.0986749

> <r_epik_State_Penalty>
0.0881977

> <r_epik_Charging_Adjusted_Penalty>
0.0881977

> <i_epik_Tot_Q>
0

> <i_epik_Tot_abs_Q>
0

> <r_epik_Metal_State_Penalty>
0.0755487

> <b_epik_Metal_Only>
0

> <s_lp_Force_Field>
OPLS_2005

> <r_lp_Energy>
30.9988

> <b_lp_Chiralities_Consistent>
1

> <s_lp_Variant>
AV-unprocessed.smi:833-2

> <Gold.Version>
5.8.1

> <Gold.Id.Protein>
6NUR|6NUR_protein|mol2

> <Gold.PLP.Fitness>
41.6073

> <Gold.PLP.PLP>
-30.9816

> <Gold.PLP.part.hbond>
-4.0945

> <Gold.PLP.part.metal>
0.0000

> <Gold.PLP.part.buried>
-3.2727

> <Gold.PLP.part.nonpolar>
-25.7315

> <Gold.PLP.part.repulsive>
1.4964

> <Gold.PLP.ligand.clash>
0.0000

> <Gold.PLP.ligand.torsion>
0.8397

> <Gold.PLP.Chemscore.Hbond>
2.9920

> <Gold.PLP.Chemscore.CHOScore>
1.0000

> <Gold.PLP.Chemscore.Metal>
0.0000

> <Gold.Chemscore.Hbonds>
donor molecule, donor type, donor heavy atom, donor atom, acceptor molecule, acceptor atom, score
      L1  H     3    24       P1  7921  1.00
      L1  H     5    27       P1  7948  0.99
      L1  H     8    28       P1  7948  1.00
      L1  C    12    31       P1  8028  1.00

> <Gold.PLP.Chemscore.Internal.Correction>
0.3291

> <Gold.Rescore>
     Score         DG    S(hbond)    S(metal)    S(lipo)     H(rot)  DE(clash)    DE(int)     intcor
     15.48     -17.97       2.93        0.00      67.47       2.03       0.32       2.18       ----

> <Gold.Chemscore.Fitness>
15.4761

> <Gold.Chemscore.DG>
-17.9744

> <Gold.Chemscore.ZeroCoef>
-5.4800

> <Gold.Chemscore.Hbond>
2.9337

> <Gold.Chemscore.Metal>
0.0000

> <Gold.Chemscore.Lipo>
67.4722

> <Gold.Chemscore.Internal_Hbond>
0.0000

> <Gold.Chemscore.DEClash>
0.3196

> <Gold.Chemscore.DEInternal>
2.1786

> <Gold.Chemscore.Rot>
2.0306

> <Gold.Chemscore.Internal.Correction>
   9.000000E+99

> <Gold.Chemscore.Hbonds>
donor molecule, donor type, donor heavy atom, donor atom, acceptor molecule, acceptor atom, score
      L1  H     3    24       P1  7921  1.00
      L1  H     5    27       P1  7948  0.94
      L1  H     8    28       P1  7948  0.99

> <Gold.Chemscore.Hbond.Weighted>
-9.7985

> <Gold.Chemscore.Metal.Weighted>
-0.0000

> <Gold.Chemscore.Lipo.Weighted>
-7.8943

> <Gold.Chemscore.Internal_Hbond.Weighted>
0.0000

> <Gold.Chemscore.DEClash.Weighted>
0.3196

> <Gold.Chemscore.DEInternal.Weighted>
2.1786

> <Gold.Chemscore.Rot.Weighted>
5.1984

> <Gold.Chemscore.Internal.Correction.Weighted>
   9.000000E+99

> <Gold.Protein.RotatedTorsions>
[ 6907 6896 6895 6894 ] final -175.58 input  -60.11 | X-H torsion
[ 7974 7965 7964 7962 ] final   68.32 input  175.53 | X-H torsion
[ 8008 7997 7996 7995 ] final  -98.57 input   59.86 | X-H torsion
[ 10167 10162 10161 10158 ] final -112.90 input  -65.29 | X-H torsion
[ 10718 10713 10712 10709 ] final  176.22 input   66.30 | X-H torsion
[ 10763 10752 10751 10750 ] final  -82.91 input  -60.55 | X-H torsion
[ 11005 11000 10999 10996 ] final  150.30 input  -57.11 | X-H torsion

> <Gold.Protein.ActiveResidues>
 VAL166  LYS551  ARG553  GLY616  TRP617  ASP618  TYR619  PRO620  LYS621  CYS622 
 ASP623  PHE694  ASN695  SER759  ASP760  ASP761  ALA762  ILE779  LEU786  VAL792 
 PHE793  MET794  SER795  GLU796  ALA797  LYS798  CYS799  TRP800  GLU811  SER814 

> <Gold.Protein.RotatedAtoms>
  151.5909  133.3367  159.3027 H   0  0  0  0  0  0  0  0  0  0  0  0  # atno 6907 bound_to 6896
  150.8261  134.7495  159.6825 H   0  0  0  0  0  0  0  0  0  0  0  0  # atno 6908 bound_to 6896
  152.4350  134.5710  159.9973 H   0  0  0  0  0  0  0  0  0  0  0  0  # atno 6909 bound_to 6896
  145.8040  139.2997  143.1138 H   0  0  0  0  0  0  0  0  0  0  0  0  # atno 7974 bound_to 7965
  154.8030  140.0454  157.1287 H   0  0  0  0  0  0  0  0  0  0  0  0  # atno 8008 bound_to 7997
  154.9456  140.3058  155.5079 H   0  0  0  0  0  0  0  0  0  0  0  0  # atno 8009 bound_to 7997
  156.2964  140.2297  156.4529 H   0  0  0  0  0  0  0  0  0  0  0  0  # atno 8010 bound_to 7997
  140.1177  143.4471  152.1711 H   0  0  0  0  0  0  0  0  0  0  0  0  # atno 10167 bound_to 10162
  156.9233  130.9947  151.3000 H   0  0  0  0  0  0  0  0  0  0  0  0  # atno 10718 bound_to 10713
  154.5814  135.5574  153.7189 H   0  0  0  0  0  0  0  0  0  0  0  0  # atno 10763 bound_to 10752
  153.0083  135.6321  154.1976 H   0  0  0  0  0  0  0  0  0  0  0  0  # atno 10764 bound_to 10752
  154.1917  135.2882  155.3000 H   0  0  0  0  0  0  0  0  0  0  0  0  # atno 10765 bound_to 10752
  140.1119  134.8919  157.1948 H   0  0  0  0  0  0  0  0  0  0  0  0  # atno 11005 bound_to 11000
  145.9847  140.8653  143.0096 LP  0  0  0  0  0  0  0  0  0  0  0  0  # atno 17320 bound_to 7965
  144.6765  140.2130  143.7375 LP  0  0  0  0  0  0  0  0  0  0  0  0  # atno 17321 bound_to 7965
  139.5585  144.7389  151.4224 LP  0  0  0  0  0  0  0  0  0  0  0  0  # atno 17342 bound_to 10162
  140.6890  143.7907  150.7227 LP  0  0  0  0  0  0  0  0  0  0  0  0  # atno 17343 bound_to 10162
  157.5894  130.8432  149.8636 LP  0  0  0  0  0  0  0  0  0  0  0  0  # atno 17370 bound_to 10713
  156.0481  130.3723  150.1268 LP  0  0  0  0  0  0  0  0  0  0  0  0  # atno 17371 bound_to 10713
  140.3080  134.3056  155.7273 LP  0  0  0  0  0  0  0  0  0  0  0  0  # atno 17394 bound_to 11000
  141.2132  133.7633  156.9736 LP  0  0  0  0  0  0  0  0  0  0  0  0  # atno 17395 bound_to 11000

$$$$
