AV-unprocessed.smi:3181|AV-procd|sdf|12136|dock10
  -GOLD-   2272017573D 1   1.00000     0.00000
 Structure written by MMmdl.
 42 43  0  0  0  0  0  0  0  0  2 V2000
  149.5384  139.9495  157.1770 C   0  0  0  0  0  0  0  0  0  0  0  0
  150.2558  141.1351  156.5109 C   0  0  1  0  0  0  0  0  0  0  0  0
  150.0004  141.1957  154.9891 C   0  0  0  0  0  0  0  0  0  0  0  0
  148.5888  141.1887  154.6532 N   0  0  0  0  0  0  0  0  0  0  0  0
  147.5995  141.9981  155.0355 C   0  0  0  0  0  0  0  0  0  0  0  0
  146.4224  141.6876  154.5113 N   0  0  0  0  0  0  0  0  0  0  0  0
  146.7847  140.6068  153.7579 C   0  0  0  0  0  0  0  0  0  0  0  0
  148.0734  140.2678  153.8056 N   0  0  0  0  0  0  0  0  0  0  0  0
  149.8222  142.3985  157.1506 N   0  3  0  0  0  0  0  0  0  0  0  0
  150.7676  142.9964  158.1220 C   0  0  2  0  0  0  0  0  0  0  0  0
  151.5826  141.8816  158.8020 C   0  0  0  0  0  0  0  0  0  0  0  0
  152.5588  142.4435  159.8471 C   0  0  0  0  0  0  0  0  0  0  0  0
  151.8263  143.2971  160.9003 C   0  0  1  0  0  0  0  0  0  0  0  0
  152.7819  143.7923  161.9983 C   0  0  0  0  0  0  0  0  0  0  0  0
  151.0046  144.4338  160.2405 C   0  0  1  0  0  0  0  0  0  0  0  0
  151.8602  145.5786  159.6610 C   0  0  0  0  0  0  0  0  0  0  0  0
  150.0410  143.8533  159.1838 C   0  0  0  0  0  0  0  0  0  0  0  0
  149.8843  138.9957  156.7775 H   0  0  0  0  0  0  0  0  0  0  0  0
  148.4598  140.0016  157.0256 H   0  0  0  0  0  0  0  0  0  0  0  0
  149.7237  139.9335  158.2515 H   0  0  0  0  0  0  0  0  0  0  0  0
  151.3249  141.0002  156.6825 H   0  0  0  0  0  0  0  0  0  0  0  0
  150.4481  142.0971  154.5681 H   0  0  0  0  0  0  0  0  0  0  0  0
  150.4700  140.3529  154.4813 H   0  0  0  0  0  0  0  0  0  0  0  0
  147.7411  142.8289  155.7115 H   0  0  0  0  0  0  0  0  0  0  0  0
  146.0782  140.0550  153.1554 H   0  0  0  0  0  0  0  0  0  0  0  0
  149.6053  143.0767  156.4343 H   0  0  0  0  0  0  0  0  0  0  0  0
  151.4616  143.6241  157.5617 H   0  0  0  0  0  0  0  0  0  0  0  0
  150.9084  141.1734  159.2858 H   0  0  0  0  0  0  0  0  0  0  0  0
  152.1385  141.3150  158.0538 H   0  0  0  0  0  0  0  0  0  0  0  0
  153.0764  141.6173  160.3359 H   0  0  0  0  0  0  0  0  0  0  0  0
  153.3307  143.0339  159.3524 H   0  0  0  0  0  0  0  0  0  0  0  0
  151.1093  142.6410  161.3964 H   0  0  0  0  0  0  0  0  0  0  0  0
  153.5988  144.3856  161.5869 H   0  0  0  0  0  0  0  0  0  0  0  0
  153.2272  142.9526  162.5324 H   0  0  0  0  0  0  0  0  0  0  0  0
  152.2569  144.4056  162.7310 H   0  0  0  0  0  0  0  0  0  0  0  0
  150.3856  144.8817  161.0193 H   0  0  0  0  0  0  0  0  0  0  0  0
  152.5651  145.2280  158.9079 H   0  0  0  0  0  0  0  0  0  0  0  0
  152.4327  146.0831  160.4393 H   0  0  0  0  0  0  0  0  0  0  0  0
  151.2300  146.3356  159.1936 H   0  0  0  0  0  0  0  0  0  0  0  0
  149.4963  144.6710  158.7113 H   0  0  0  0  0  0  0  0  0  0  0  0
  149.2902  143.2421  159.6866 H   0  0  0  0  0  0  0  0  0  0  0  0
  148.9731  142.1945  157.6580 H   0  0  0  0  0  0  0  0  0  0  0  0
  1  2  1  0  0  0  0
  1 18  1  0  0  0  0
  1 19  1  0  0  0  0
  1 20  1  0  0  0  0
  2  3  1  0  0  0  0
  2  9  1  0  0  0  0
  2 21  1  0  0  0  0
  3  4  1  0  0  0  0
  3 22  1  0  0  0  0
  3 23  1  0  0  0  0
  4  8  1  0  0  0  0
  4  5  1  0  0  0  0
  5  6  2  0  0  0  0
  5 24  1  0  0  0  0
  6  7  1  0  0  0  0
  7  8  2  0  0  0  0
  7 25  1  0  0  0  0
  9 10  1  0  0  0  0
  9 26  1  0  0  0  0
  9 42  1  0  0  0  0
 10 17  1  0  0  0  0
 10 11  1  0  0  0  0
 10 27  1  0  0  0  0
 11 12  1  0  0  0  0
 11 28  1  0  0  0  0
 11 29  1  0  0  0  0
 12 13  1  0  0  0  0
 12 30  1  0  0  0  0
 12 31  1  0  0  0  0
 13 14  1  0  0  0  0
 13 15  1  0  0  0  0
 13 32  1  0  0  0  0
 14 33  1  0  0  0  0
 14 34  1  0  0  0  0
 14 35  1  0  0  0  0
 15 16  1  0  0  0  0
 15 17  1  0  0  0  0
 15 36  1  0  0  0  0
 16 37  1  0  0  0  0
 16 38  1  0  0  0  0
 16 39  1  0  0  0  0
 17 40  1  0  0  0  0
 17 41  1  0  0  0  0
M  CHG  1   9   1
M  END
> <s_m_source_file>
AV-unprocessed.smi

> <i_m_source_file_index>
3181

> <i_lp_mmshare_version>
43012

> <i_f3d_flags>
0

> <s_epik_input>
bjFbY0hdbltjSF1uMVtDSDJdW0NAQEhdKFtDSDNdKVtOSF1bQ0BASF0yW0NIMl1bQ0gyXVtDQEBIXShbQ0gzXSlbQ0BASF0oW0NIM10pW0NIMl0y

> <s_epik_cmdline>
J2VwaWtfcHl0aG9uJywgJy1waCcsICc3LjAnLCAnLXRuJywgJzgnLCAnLW1hJywgJzIwMCcsICctbWV0YWxfYmluZGluZycsICctaW1hZScsICc8aW5maWxlLm1hZT4nLCAnLW9tYWUnLCAnPG91dGZpbGUubWFlPic=

> <r_lp_tautomer_probability>
1

> <r_epik_Ionization_Penalty>
0.000617007

> <r_epik_Ionization_Penalty_Charging>
0.000616215

> <r_epik_Ionization_Penalty_Neutral>
7.92544e-07

> <r_epik_State_Penalty>
0.000388807

> <r_epik_Charging_Adjusted_Penalty>
0.00100502

> <i_epik_Tot_Q>
1

> <i_epik_Tot_abs_Q>
1

> <r_epik_Metal_State_Penalty>
-0

> <b_epik_Metal_Only>
0

> <s_lp_Force_Field>
OPLS_2005

> <r_lp_Energy>
21.1382

> <b_lp_Chiralities_Consistent>
1

> <s_lp_Variant>
AV-unprocessed.smi:3181-2

> <Gold.Version>
5.8.1

> <Gold.Id.Protein>
6NUR|6NUR_protein|mol2

> <Gold.PLP.Fitness>
44.2926

> <Gold.PLP.PLP>
-34.3157

> <Gold.PLP.part.hbond>
-1.0000

> <Gold.PLP.part.metal>
0.0000

> <Gold.PLP.part.buried>
-3.0359

> <Gold.PLP.part.nonpolar>
-30.3652

> <Gold.PLP.part.repulsive>
0.7332

> <Gold.PLP.ligand.clash>
0.0000

> <Gold.PLP.ligand.torsion>
1.0214

> <Gold.PLP.Chemscore.Hbond>
2.0000

> <Gold.PLP.Chemscore.CHOScore>
1.9990

> <Gold.PLP.Chemscore.Metal>
0.0000

> <Gold.Chemscore.Hbonds>
donor molecule, donor type, donor heavy atom, donor atom, acceptor molecule, acceptor atom, score
      L1  H     9    26       P1  8028  2.00
      L1  C     5    24       P1  8028  1.00
      L1  C     7    25       P1 10175  1.00

> <Gold.PLP.Chemscore.Internal.Correction>
0.0227

> <Gold.Rescore>
     Score         DG    S(hbond)    S(metal)    S(lipo)     H(rot)  DE(clash)    DE(int)     intcor
     13.43     -14.71       0.99        0.00      96.68       2.11       0.45       0.83       ----

> <Gold.Chemscore.Fitness>
13.4335

> <Gold.Chemscore.DG>
-14.7132

> <Gold.Chemscore.ZeroCoef>
-5.4800

> <Gold.Chemscore.Hbond>
0.9948

> <Gold.Chemscore.Metal>
0.0000

> <Gold.Chemscore.Lipo>
96.6753

> <Gold.Chemscore.Internal_Hbond>
0.0000

> <Gold.Chemscore.DEClash>
0.4534

> <Gold.Chemscore.DEInternal>
0.8263

> <Gold.Chemscore.Rot>
2.1095

> <Gold.Chemscore.Internal.Correction>
   9.000000E+99

> <Gold.Chemscore.Hbonds>
donor molecule, donor type, donor heavy atom, donor atom, acceptor molecule, acceptor atom, score
      L1  H     9    26       P1  8028  0.98

> <Gold.Chemscore.Hbond.Weighted>
-3.3226

> <Gold.Chemscore.Metal.Weighted>
-0.0000

> <Gold.Chemscore.Lipo.Weighted>
-11.3110

> <Gold.Chemscore.Internal_Hbond.Weighted>
0.0000

> <Gold.Chemscore.DEClash.Weighted>
0.4534

> <Gold.Chemscore.DEInternal.Weighted>
0.8263

> <Gold.Chemscore.Rot.Weighted>
5.4003

> <Gold.Chemscore.Internal.Correction.Weighted>
   9.000000E+99

> <Gold.Protein.RotatedTorsions>
[ 6907 6896 6895 6894 ] final  112.80 input  -60.11 | X-H torsion
[ 7974 7965 7964 7962 ] final  -73.37 input  175.53 | X-H torsion
[ 8008 7997 7996 7995 ] final    5.18 input   59.86 | X-H torsion
[ 10167 10162 10161 10158 ] final   91.32 input  -65.29 | X-H torsion
[ 10718 10713 10712 10709 ] final  141.20 input   66.30 | X-H torsion
[ 10763 10752 10751 10750 ] final  166.07 input  -60.55 | X-H torsion
[ 11005 11000 10999 10996 ] final  -52.24 input  -57.11 | X-H torsion

> <Gold.Protein.ActiveResidues>
 VAL166  LYS551  ARG553  GLY616  TRP617  ASP618  TYR619  PRO620  LYS621  CYS622 
 ASP623  PHE694  ASN695  SER759  ASP760  ASP761  ALA762  ILE779  LEU786  VAL792 
 PHE793  MET794  SER795  GLU796  ALA797  LYS798  CYS799  TRP800  GLU811  SER814 

> <Gold.Protein.RotatedAtoms>
  152.4896  133.8464  159.7178 H   0  0  0  0  0  0  0  0  0  0  0  0  # atno 6907 bound_to 6896
  150.9013  133.7105  159.2885 H   0  0  0  0  0  0  0  0  0  0  0  0  # atno 6908 bound_to 6896
  151.4545  135.1037  159.9759 H   0  0  0  0  0  0  0  0  0  0  0  0  # atno 6909 bound_to 6896
  145.6530  140.9276  143.0974 H   0  0  0  0  0  0  0  0  0  0  0  0  # atno 7974 bound_to 7965
  154.7251  140.2719  155.6506 H   0  0  0  0  0  0  0  0  0  0  0  0  # atno 8008 bound_to 7997
  156.2834  140.2727  156.1859 H   0  0  0  0  0  0  0  0  0  0  0  0  # atno 8009 bound_to 7997
  155.0456  140.0371  157.2515 H   0  0  0  0  0  0  0  0  0  0  0  0  # atno 8010 bound_to 7997
  139.8386  144.6652  150.9311 H   0  0  0  0  0  0  0  0  0  0  0  0  # atno 10167 bound_to 10162
  157.3947  131.1009  151.0612 H   0  0  0  0  0  0  0  0  0  0  0  0  # atno 10718 bound_to 10713
  154.3336  135.2754  155.2459 H   0  0  0  0  0  0  0  0  0  0  0  0  # atno 10763 bound_to 10752
  154.4760  135.5870  153.6359 H   0  0  0  0  0  0  0  0  0  0  0  0  # atno 10764 bound_to 10752
  152.9864  135.6100  154.3530 H   0  0  0  0  0  0  0  0  0  0  0  0  # atno 10765 bound_to 10752
  141.0914  133.6632  156.3996 H   0  0  0  0  0  0  0  0  0  0  0  0  # atno 11005 bound_to 11000
  144.7116  139.8351  143.7413 LP  0  0  0  0  0  0  0  0  0  0  0  0  # atno 17320 bound_to 7965
  146.1188  139.4203  143.0241 LP  0  0  0  0  0  0  0  0  0  0  0  0  # atno 17321 bound_to 7965
  140.7800  143.3934  151.1271 LP  0  0  0  0  0  0  0  0  0  0  0  0  # atno 17342 bound_to 10162
  139.7582  143.8675  152.3094 LP  0  0  0  0  0  0  0  0  0  0  0  0  # atno 17343 bound_to 10162
  157.1633  130.6235  149.5617 LP  0  0  0  0  0  0  0  0  0  0  0  0  # atno 17370 bound_to 10713
  155.9807  130.4810  150.6788 LP  0  0  0  0  0  0  0  0  0  0  0  0  # atno 17371 bound_to 10713
  140.5243  134.6274  157.5329 LP  0  0  0  0  0  0  0  0  0  0  0  0  # atno 17394 bound_to 11000
  139.9741  134.7245  155.9984 LP  0  0  0  0  0  0  0  0  0  0  0  0  # atno 17395 bound_to 11000

$$$$
