AV-unprocessed.smi:213|AV-procd|sdf|1643|dock4
  -GOLD-   2262020 13D 1   1.00000     0.00000
 Structure written by MMmdl.
 58 61  0  0  0  0  0  0  0  0  1 V2000
  148.3874  140.9601  153.8389 C   0  0  0  0  0  0  0  0  0  0  0  0
  148.2047  139.4618  154.1418 C   0  0  2  0  0  0  0  0  0  0  0  0
  149.5268  138.6717  154.0111 C   0  0  0  0  0  0  0  0  0  0  0  0
  150.6902  139.2721  154.6659 N   0  0  0  0  0  0  0  0  0  0  0  0
  151.7978  138.3245  154.7315 C   0  0  0  0  0  0  0  0  0  0  0  0
  153.0369  138.9319  155.4113 C   0  0  0  0  0  0  0  0  0  0  0  0
  152.6884  139.3862  156.7148 O   0  0  0  0  0  0  0  0  0  0  0  0
  151.6398  140.3489  156.6970 C   0  0  0  0  0  0  0  0  0  0  0  0
  150.3963  139.7511  156.0158 C   0  0  0  0  0  0  0  0  0  0  0  0
  147.1605  138.8786  153.2942 N   0  0  0  0  0  0  0  0  0  0  0  0
  146.5514  139.6521  152.2136 C   0  0  0  0  0  0  0  0  0  0  0  0
  146.7015  137.6159  153.5127 C   0  0  0  0  0  0  0  0  0  0  0  0
  146.7340  137.1396  154.7862 N   0  0  0  0  0  0  0  0  0  0  0  0
  146.2933  135.9104  155.0669 C   0  0  0  0  0  0  0  0  0  0  0  0
  145.7895  134.9964  154.2374 N   0  0  0  0  0  0  0  0  0  0  0  0
  145.7645  135.4566  152.9549 C   0  0  0  0  0  0  0  0  0  0  0  0
  146.1958  136.7387  152.5051 C   0  0  0  0  0  0  0  0  0  0  0  0
  146.0289  136.8233  151.1259 N   0  0  0  0  0  0  0  0  0  0  0  0
  145.5194  135.6718  150.7860 C   0  0  0  0  0  0  0  0  0  0  0  0
  145.3342  134.7880  151.8231 N   0  0  0  0  0  0  0  0  0  0  0  0
  144.8039  133.4398  151.7340 C   0  0  0  0  0  0  0  0  0  0  0  0
  145.9001  132.3533  151.7684 C   0  0  1  0  0  0  0  0  0  0  0  0
  146.7408  132.5705  150.6531 O   0  0  0  0  0  0  0  0  0  0  0  0
  146.7566  132.3516  153.0541 C   0  0  2  0  0  0  0  0  0  0  0  0
  147.9458  133.3130  153.0260 C   0  0  0  0  0  0  0  0  0  0  0  0
  148.8864  132.7389  154.0718 C   0  0  0  0  0  0  0  0  0  0  0  0
  148.4380  131.2817  154.2081 C   0  0  0  0  0  0  0  0  0  0  0  0
  147.4208  131.1090  153.2310 O   0  0  0  0  0  0  0  0  0  0  0  0
  149.0870  141.4192  154.5374 H   0  0  0  0  0  0  0  0  0  0  0  0
  147.4429  141.4977  153.9250 H   0  0  0  0  0  0  0  0  0  0  0  0
  148.7723  141.1258  152.8326 H   0  0  0  0  0  0  0  0  0  0  0  0
  147.8868  139.3625  155.1759 H   0  0  0  0  0  0  0  0  0  0  0  0
  149.3802  137.6624  154.3993 H   0  0  0  0  0  0  0  0  0  0  0  0
  149.7482  138.5504  152.9501 H   0  0  0  0  0  0  0  0  0  0  0  0
  151.4893  137.4319  155.2782 H   0  0  0  0  0  0  0  0  0  0  0  0
  152.0651  137.9970  153.7262 H   0  0  0  0  0  0  0  0  0  0  0  0
  153.8288  138.1873  155.4927 H   0  0  0  0  0  0  0  0  0  0  0  0
  153.4339  139.7604  154.8226 H   0  0  0  0  0  0  0  0  0  0  0  0
  151.4073  140.6418  157.7209 H   0  0  0  0  0  0  0  0  0  0  0  0
  151.9709  141.2476  156.1742 H   0  0  0  0  0  0  0  0  0  0  0  0
  149.6204  140.5148  155.9896 H   0  0  0  0  0  0  0  0  0  0  0  0
  150.0100  138.9316  156.6236 H   0  0  0  0  0  0  0  0  0  0  0  0
  145.4685  139.5230  152.2067 H   0  0  0  0  0  0  0  0  0  0  0  0
  146.9439  139.3311  151.2484 H   0  0  0  0  0  0  0  0  0  0  0  0
  146.7544  140.7171  152.3206 H   0  0  0  0  0  0  0  0  0  0  0  0
  146.3540  135.6172  156.1045 H   0  0  0  0  0  0  0  0  0  0  0  0
  145.2763  135.4304  149.7614 H   0  0  0  0  0  0  0  0  0  0  0  0
  144.1046  133.2971  152.5589 H   0  0  0  0  0  0  0  0  0  0  0  0
  144.2217  133.3599  150.8147 H   0  0  0  0  0  0  0  0  0  0  0  0
  145.4414  131.3717  151.6433 H   0  0  0  0  0  0  0  0  0  0  0  0
  147.3332  131.8384  150.5763 H   0  0  0  0  0  0  0  0  0  0  0  0
  146.1354  132.5545  153.9288 H   0  0  0  0  0  0  0  0  0  0  0  0
  148.4267  133.2850  152.0469 H   0  0  0  0  0  0  0  0  0  0  0  0
  147.6631  134.3454  153.2332 H   0  0  0  0  0  0  0  0  0  0  0  0
  149.9278  132.8231  153.7601 H   0  0  0  0  0  0  0  0  0  0  0  0
  148.7758  133.2586  155.0241 H   0  0  0  0  0  0  0  0  0  0  0  0
  149.2527  130.5765  154.0426 H   0  0  0  0  0  0  0  0  0  0  0  0
  148.0230  131.0970  155.1997 H   0  0  0  0  0  0  0  0  0  0  0  0
  1  2  1  0  0  0  0
  1 29  1  0  0  0  0
  1 30  1  0  0  0  0
  1 31  1  0  0  0  0
  2  3  1  0  0  0  0
  2 10  1  0  0  0  0
  2 32  1  0  0  0  0
  3  4  1  0  0  0  0
  3 33  1  0  0  0  0
  3 34  1  0  0  0  0
  4  9  1  0  0  0  0
  4  5  1  0  0  0  0
  5  6  1  0  0  0  0
  5 35  1  0  0  0  0
  5 36  1  0  0  0  0
  6  7  1  0  0  0  0
  6 37  1  0  0  0  0
  6 38  1  0  0  0  0
  7  8  1  0  0  0  0
  8  9  1  0  0  0  0
  8 39  1  0  0  0  0
  8 40  1  0  0  0  0
  9 41  1  0  0  0  0
  9 42  1  0  0  0  0
 10 11  1  0  0  0  0
 10 12  1  0  0  0  0
 11 43  1  0  0  0  0
 11 44  1  0  0  0  0
 11 45  1  0  0  0  0
 12 17  1  0  0  0  0
 12 13  2  0  0  0  0
 13 14  1  0  0  0  0
 14 15  2  0  0  0  0
 14 46  1  0  0  0  0
 15 16  1  0  0  0  0
 16 20  1  0  0  0  0
 16 17  2  0  0  0  0
 17 18  1  0  0  0  0
 18 19  2  0  0  0  0
 19 20  1  0  0  0  0
 19 47  1  0  0  0  0
 20 21  1  0  0  0  0
 21 22  1  0  0  0  0
 21 48  1  0  0  0  0
 21 49  1  0  0  0  0
 22 23  1  0  0  0  0
 22 24  1  0  0  0  0
 22 50  1  0  0  0  0
 23 51  1  0  0  0  0
 24 28  1  0  0  0  0
 24 25  1  0  0  0  0
 24 52  1  0  0  0  0
 25 26  1  0  0  0  0
 25 53  1  0  0  0  0
 25 54  1  0  0  0  0
 26 27  1  0  0  0  0
 26 55  1  0  0  0  0
 26 56  1  0  0  0  0
 27 28  1  0  0  0  0
 27 57  1  0  0  0  0
 27 58  1  0  0  0  0
M  END
> <s_m_source_file>
AV-unprocessed.smi

> <i_m_source_file_index>
213

> <i_lp_mmshare_version>
43012

> <i_f3d_flags>
0

> <s_epik_input>
W0NIMl0xW0NIMl1PW0NIMl1bQ0gyXU4xW0NIMl1bQ0BASF0oW0NIM10pTihbQ0gzXSljKG5bY0hdbjIpYyhjMjMpbltjSF1uM1tDSDJdW0NASF0oW09IXSlbQ0BASF00W0NIMl1bQ0gyXVtDSDJdTzQ=

> <s_epik_cmdline>
J2VwaWtfcHl0aG9uJywgJy1waCcsICc3LjAnLCAnLXRuJywgJzgnLCAnLW1hJywgJzIwMCcsICctbWV0YWxfYmluZGluZycsICctaW1hZScsICc8aW5maWxlLm1hZT4nLCAnLW9tYWUnLCAnPG91dGZpbGUubWFlPic=

> <r_lp_tautomer_probability>
1

> <r_epik_Ionization_Penalty>
0.423322

> <r_epik_Ionization_Penalty_Charging>
0

> <r_epik_Ionization_Penalty_Neutral>
0.423322

> <r_epik_State_Penalty>
0.569486

> <r_epik_Charging_Adjusted_Penalty>
0.569486

> <i_epik_Tot_Q>
0

> <i_epik_Tot_abs_Q>
0

> <r_epik_Metal_State_Penalty>
0.568671

> <b_epik_Metal_Only>
0

> <s_lp_Force_Field>
OPLS_2005

> <r_lp_Energy>
51.7694

> <b_lp_Chiralities_Consistent>
1

> <s_lp_Variant>
AV-unprocessed.smi:213-11

> <Gold.Version>
5.8.1

> <Gold.Id.Protein>
6NUR|6NUR_protein|mol2

> <Gold.PLP.Fitness>
47.9133

> <Gold.PLP.PLP>
-38.3480

> <Gold.PLP.part.hbond>
-2.9963

> <Gold.PLP.part.metal>
0.0000

> <Gold.PLP.part.buried>
4.9602

> <Gold.PLP.part.nonpolar>
-41.8250

> <Gold.PLP.part.repulsive>
1.8139

> <Gold.PLP.ligand.clash>
0.0000

> <Gold.PLP.ligand.torsion>
1.3442

> <Gold.PLP.Chemscore.Hbond>
2.9673

> <Gold.PLP.Chemscore.CHOScore>
1.0000

> <Gold.PLP.Chemscore.Metal>
0.0000

> <Gold.Chemscore.Hbonds>
donor molecule, donor type, donor heavy atom, donor atom, acceptor molecule, acceptor atom, score
      L1  H    23    51       P1 10747  1.00
      P1  H  7989  7998       L1     4  0.60
      P1  H  7997  8008       L1     7  0.20
      L1  C    19    47       P1  7921  1.00

> <Gold.PLP.Chemscore.Internal.Correction>
0.3520

> <Gold.Rescore>
     Score         DG    S(hbond)    S(metal)    S(lipo)     H(rot)  DE(clash)    DE(int)     intcor
      8.17     -12.89       1.03        0.00      93.93       2.74       1.88       2.84       ----

> <Gold.Chemscore.Fitness>
8.1743

> <Gold.Chemscore.DG>
-12.8910

> <Gold.Chemscore.ZeroCoef>
-5.4800

> <Gold.Chemscore.Hbond>
1.0270

> <Gold.Chemscore.Metal>
0.0000

> <Gold.Chemscore.Lipo>
93.9263

> <Gold.Chemscore.Internal_Hbond>
0.0000

> <Gold.Chemscore.DEClash>
1.8785

> <Gold.Chemscore.DEInternal>
2.8382

> <Gold.Chemscore.Rot>
2.7378

> <Gold.Chemscore.Internal.Correction>
   9.000000E+99

> <Gold.Chemscore.Hbonds>
donor molecule, donor type, donor heavy atom, donor atom, acceptor molecule, acceptor atom, score
      L1  H    23    51       P1 10747  0.99
      P1  H  7989  7998       L1     4  0.10

> <Gold.Chemscore.Hbond.Weighted>
-3.4303

> <Gold.Chemscore.Metal.Weighted>
-0.0000

> <Gold.Chemscore.Lipo.Weighted>
-10.9894

> <Gold.Chemscore.Internal_Hbond.Weighted>
0.0000

> <Gold.Chemscore.DEClash.Weighted>
1.8785

> <Gold.Chemscore.DEInternal.Weighted>
2.8382

> <Gold.Chemscore.Rot.Weighted>
7.0087

> <Gold.Chemscore.Internal.Correction.Weighted>
   9.000000E+99

> <Gold.Protein.RotatedTorsions>
[ 6907 6896 6895 6894 ] final -179.32 input  -60.11 | X-H torsion
[ 7974 7965 7964 7962 ] final  -51.48 input  175.53 | X-H torsion
[ 8008 7997 7996 7995 ] final  -67.40 input   59.86 | X-H torsion
[ 10167 10162 10161 10158 ] final   68.07 input  -65.29 | X-H torsion
[ 10718 10713 10712 10709 ] final -121.67 input   66.30 | X-H torsion
[ 10763 10752 10751 10750 ] final -127.60 input  -60.55 | X-H torsion
[ 11005 11000 10999 10996 ] final  -33.97 input  -57.11 | X-H torsion

> <Gold.Protein.ActiveResidues>
 VAL166  LYS551  ARG553  GLY616  TRP617  ASP618  TYR619  PRO620  LYS621  CYS622 
 ASP623  PHE694  ASN695  SER759  ASP760  ASP761  ALA762  ILE779  LEU786  VAL792 
 PHE793  MET794  SER795  GLU796  ALA797  LYS798  CYS799  TRP800  GLU811  SER814 

> <Gold.Protein.RotatedAtoms>
  151.6515  133.3321  159.3152 H   0  0  0  0  0  0  0  0  0  0  0  0  # atno 6907 bound_to 6896
  150.7958  134.7020  159.6565 H   0  0  0  0  0  0  0  0  0  0  0  0  # atno 6908 bound_to 6896
  152.4044  134.6235  160.0108 H   0  0  0  0  0  0  0  0  0  0  0  0  # atno 6909 bound_to 6896
  145.9185  140.7854  142.9659 H   0  0  0  0  0  0  0  0  0  0  0  0  # atno 7974 bound_to 7965
  154.4797  140.0893  156.7348 H   0  0  0  0  0  0  0  0  0  0  0  0  # atno 8008 bound_to 7997
  155.4502  140.3457  155.4281 H   0  0  0  0  0  0  0  0  0  0  0  0  # atno 8009 bound_to 7997
  156.1173  140.1464  156.9243 H   0  0  0  0  0  0  0  0  0  0  0  0  # atno 8010 bound_to 7997
  140.0826  144.5058  150.7152 H   0  0  0  0  0  0  0  0  0  0  0  0  # atno 10167 bound_to 10162
  156.1356  130.6428  150.9691 H   0  0  0  0  0  0  0  0  0  0  0  0  # atno 10718 bound_to 10713
  154.8753  135.3956  154.3620 H   0  0  0  0  0  0  0  0  0  0  0  0  # atno 10763 bound_to 10752
  153.4391  135.7026  153.6186 H   0  0  0  0  0  0  0  0  0  0  0  0  # atno 10764 bound_to 10752
  153.4774  135.3777  155.2393 H   0  0  0  0  0  0  0  0  0  0  0  0  # atno 10765 bound_to 10752
  140.9678  133.7127  156.1473 H   0  0  0  0  0  0  0  0  0  0  0  0  # atno 11005 bound_to 11000
  144.6750  140.1938  143.7394 LP  0  0  0  0  0  0  0  0  0  0  0  0  # atno 17320 bound_to 7965
  145.8581  139.2209  143.1733 LP  0  0  0  0  0  0  0  0  0  0  0  0  # atno 17321 bound_to 7965
  140.7070  143.2475  151.4697 LP  0  0  0  0  0  0  0  0  0  0  0  0  # atno 17342 bound_to 10162
  139.5771  144.1795  152.1917 LP  0  0  0  0  0  0  0  0  0  0  0  0  # atno 17343 bound_to 10162
  157.6529  131.0894  150.8011 LP  0  0  0  0  0  0  0  0  0  0  0  0  # atno 17370 bound_to 10713
  156.8092  130.4946  149.5358 LP  0  0  0  0  0  0  0  0  0  0  0  0  # atno 17371 bound_to 10713
  140.7374  134.4188  157.5559 LP  0  0  0  0  0  0  0  0  0  0  0  0  # atno 17394 bound_to 11000
  139.8901  134.8814  156.2388 LP  0  0  0  0  0  0  0  0  0  0  0  0  # atno 17395 bound_to 11000

$$$$
