AV-unprocessed.smi:1251|AV-procd|sdf|5261|dock10
  -GOLD-   22720 4373D 1   1.00000     0.00000
 Structure written by MMmdl.
 38 39  0  0  0  0  0  0  0  0  2 V2000
  147.1963  139.7363  152.8115 C   0  0  0  0  0  0  0  0  0  0  0  0
  148.3754  140.1304  153.7079 C   0  0  0  0  0  0  0  0  0  0  0  0
  149.6256  139.2793  153.4450 C   0  0  0  0  0  0  0  0  0  0  0  0
  150.7735  139.6631  154.3178 C   0  0  0  0  0  0  0  0  0  0  0  0
  151.0979  140.9333  154.5725 N   0  0  0  0  0  0  0  0  0  0  0  0
  152.2155  141.0335  155.3882 N   0  0  0  0  0  0  0  0  0  0  0  0
  152.7339  139.8422  155.7184 C   0  0  0  0  0  0  0  0  0  0  0  0
  153.8158  139.7193  156.5049 N   0  5  0  0  0  0  0  0  0  0  0  0
  153.6955  139.8485  157.8459 C   0  0  0  0  0  0  0  0  0  0  0  0
  153.9184  138.9744  158.6868 O   0  0  0  0  0  0  0  0  0  0  0  0
  153.2924  141.0668  158.2345 N   0  0  0  0  0  0  0  0  0  0  0  0
  153.0645  141.5065  159.6093 C   0  0  1  0  0  0  0  0  0  0  0  0
  154.3072  141.1949  160.4617 C   0  0  0  0  0  0  0  0  0  0  0  0
  152.7206  143.0082  159.6032 C   0  0  2  0  0  0  0  0  0  0  0  0
  152.0022  143.5098  160.8556 C   0  0  0  0  0  0  0  0  0  0  0  0
  151.2895  144.7614  160.3717 C   0  0  0  0  0  0  0  0  0  0  0  0
  151.2297  144.5896  158.8510 C   0  0  0  0  0  0  0  0  0  0  0  0
  151.7670  143.2995  158.5923 O   0  0  0  0  0  0  0  0  0  0  0  0
  151.8467  138.4774  155.0416 S   0  0  0  0  0  0  0  0  0  0  0  0
  146.3224  140.3514  153.0272 H   0  0  0  0  0  0  0  0  0  0  0  0
  146.9165  138.6938  152.9652 H   0  0  0  0  0  0  0  0  0  0  0  0
  147.4429  139.8661  151.7574 H   0  0  0  0  0  0  0  0  0  0  0  0
  148.6105  141.1836  153.5498 H   0  0  0  0  0  0  0  0  0  0  0  0
  148.0803  140.0332  154.7534 H   0  0  0  0  0  0  0  0  0  0  0  0
  149.4021  138.2236  153.6040 H   0  0  0  0  0  0  0  0  0  0  0  0
  149.9342  139.3789  152.4041 H   0  0  0  0  0  0  0  0  0  0  0  0
  153.1189  141.7461  157.5083 H   0  0  0  0  0  0  0  0  0  0  0  0
  152.2127  140.9645  160.0240 H   0  0  0  0  0  0  0  0  0  0  0  0
  154.1512  141.4652  161.5059 H   0  0  0  0  0  0  0  0  0  0  0  0
  155.1810  141.7394  160.1024 H   0  0  0  0  0  0  0  0  0  0  0  0
  154.5459  140.1313  160.4364 H   0  0  0  0  0  0  0  0  0  0  0  0
  153.6174  143.6056  159.4263 H   0  0  0  0  0  0  0  0  0  0  0  0
  151.2668  142.7753  161.1870 H   0  0  0  0  0  0  0  0  0  0  0  0
  152.6823  143.7059  161.6849 H   0  0  0  0  0  0  0  0  0  0  0  0
  150.2975  144.8516  160.8151 H   0  0  0  0  0  0  0  0  0  0  0  0
  151.8561  145.6571  160.6288 H   0  0  0  0  0  0  0  0  0  0  0  0
  150.2144  144.6681  158.4622 H   0  0  0  0  0  0  0  0  0  0  0  0
  151.8433  145.3427  158.3552 H   0  0  0  0  0  0  0  0  0  0  0  0
  1  2  1  0  0  0  0
  1 20  1  0  0  0  0
  1 21  1  0  0  0  0
  1 22  1  0  0  0  0
  2  3  1  0  0  0  0
  2 23  1  0  0  0  0
  2 24  1  0  0  0  0
  3  4  1  0  0  0  0
  3 25  1  0  0  0  0
  3 26  1  0  0  0  0
  4 19  1  0  0  0  0
  4  5  2  0  0  0  0
  5  6  1  0  0  0  0
  6  7  2  0  0  0  0
  7  8  1  0  0  0  0
  7 19  1  0  0  0  0
  8  9  1  0  0  0  0
  9 10  2  0  0  0  0
  9 11  1  0  0  0  0
 11 12  1  0  0  0  0
 11 27  1  0  0  0  0
 12 13  1  0  0  0  0
 12 14  1  0  0  0  0
 12 28  1  0  0  0  0
 13 29  1  0  0  0  0
 13 30  1  0  0  0  0
 13 31  1  0  0  0  0
 14 18  1  0  0  0  0
 14 15  1  0  0  0  0
 14 32  1  0  0  0  0
 15 16  1  0  0  0  0
 15 33  1  0  0  0  0
 15 34  1  0  0  0  0
 16 17  1  0  0  0  0
 16 35  1  0  0  0  0
 16 36  1  0  0  0  0
 17 18  1  0  0  0  0
 17 37  1  0  0  0  0
 17 38  1  0  0  0  0
M  CHG  1   8  -1
M  END
> <s_m_source_file>
AV-unprocessed.smi

> <i_m_source_file_index>
1251

> <i_lp_mmshare_version>
43012

> <i_f3d_flags>
0

> <s_epik_input>
W0NIM11bQ0gyXVtDSDJdYzFubmMoczEpW05IXUMoPU8pW05IXVtDQEhdKFtDSDNdKVtDQEBIXTJbQ0gyXVtDSDJdW0NIMl1PMg==

> <s_epik_cmdline>
J2VwaWtfcHl0aG9uJywgJy1waCcsICc3LjAnLCAnLXRuJywgJzgnLCAnLW1hJywgJzIwMCcsICctbWV0YWxfYmluZGluZycsICctaW1hZScsICc8aW5maWxlLm1hZT4nLCAnLW9tYWUnLCAnPG91dGZpbGUubWFlPic=

> <r_lp_tautomer_probability>
1

> <r_epik_Ionization_Penalty>
4.22551

> <r_epik_Ionization_Penalty_Charging>
4.21437

> <r_epik_Ionization_Penalty_Neutral>
0.0111434

> <r_epik_State_Penalty>
4.21389

> <r_epik_Charging_Adjusted_Penalty>
8.42826

> <i_epik_Tot_Q>
-1

> <i_epik_Tot_abs_Q>
1

> <r_epik_Metal_State_Penalty>
0.69377

> <b_epik_Metal_Only>
1

> <s_lp_Force_Field>
OPLS_2005

> <r_lp_Energy>
12.2708

> <b_lp_Chiralities_Consistent>
1

> <s_lp_Variant>
AV-unprocessed.smi:1251-6

> <Gold.Version>
5.8.1

> <Gold.Id.Protein>
6NUR|6NUR_protein|mol2

> <Gold.PLP.Fitness>
44.3297

> <Gold.PLP.PLP>
-39.0521

> <Gold.PLP.part.hbond>
-2.5715

> <Gold.PLP.part.metal>
0.0000

> <Gold.PLP.part.buried>
-3.9271

> <Gold.PLP.part.nonpolar>
-32.7320

> <Gold.PLP.part.repulsive>
0.1762

> <Gold.PLP.ligand.clash>
0.0000

> <Gold.PLP.ligand.torsion>
1.8840

> <Gold.PLP.Chemscore.Hbond>
3.0000

> <Gold.PLP.Chemscore.CHOScore>
0.0000

> <Gold.PLP.Chemscore.Metal>
0.0000

> <Gold.Chemscore.Hbonds>
donor molecule, donor type, donor heavy atom, donor atom, acceptor molecule, acceptor atom, score
      P1  H  7989  7998       L1     5  0.03

> <Gold.PLP.Chemscore.Internal.Correction>
0.0456

> <Gold.Rescore>
     Score         DG    S(hbond)    S(metal)    S(lipo)     H(rot)  DE(clash)    DE(int)     intcor
     13.75     -15.88       0.80        0.00     100.01       1.55       0.37       1.76       ----

> <Gold.Chemscore.Fitness>
13.7513

> <Gold.Chemscore.DG>
-15.8825

> <Gold.Chemscore.ZeroCoef>
-5.4800

> <Gold.Chemscore.Hbond>
0.7969

> <Gold.Chemscore.Metal>
0.0000

> <Gold.Chemscore.Lipo>
100.0065

> <Gold.Chemscore.Internal_Hbond>
0.0000

> <Gold.Chemscore.DEClash>
0.3738

> <Gold.Chemscore.DEInternal>
1.7574

> <Gold.Chemscore.Rot>
1.5469

> <Gold.Chemscore.Internal.Correction>
   9.000000E+99

> <Gold.Chemscore.Hbond.Weighted>
-2.6617

> <Gold.Chemscore.Metal.Weighted>
-0.0000

> <Gold.Chemscore.Lipo.Weighted>
-11.7008

> <Gold.Chemscore.Internal_Hbond.Weighted>
0.0000

> <Gold.Chemscore.DEClash.Weighted>
0.3738

> <Gold.Chemscore.DEInternal.Weighted>
1.7574

> <Gold.Chemscore.Rot.Weighted>
3.9600

> <Gold.Chemscore.Internal.Correction.Weighted>
   9.000000E+99

> <Gold.Protein.RotatedTorsions>
[ 6907 6896 6895 6894 ] final   80.15 input  -60.11 | X-H torsion
[ 7974 7965 7964 7962 ] final  -38.41 input  175.53 | X-H torsion
[ 8008 7997 7996 7995 ] final  173.73 input   59.86 | X-H torsion
[ 10167 10162 10161 10158 ] final -113.86 input  -65.29 | X-H torsion
[ 10718 10713 10712 10709 ] final  -97.68 input   66.30 | X-H torsion
[ 10763 10752 10751 10750 ] final  -84.17 input  -60.55 | X-H torsion
[ 11005 11000 10999 10996 ] final   -2.07 input  -57.11 | X-H torsion

> <Gold.Protein.ActiveResidues>
 VAL166  LYS551  ARG553  GLY616  TRP617  ASP618  TYR619  PRO620  LYS621  CYS622 
 ASP623  PHE694  ASN695  SER759  ASP760  ASP761  ALA762  ILE779  LEU786  VAL792 
 PHE793  MET794  SER795  GLU796  ALA797  LYS798  CYS799  TRP800  GLU811  SER814 

> <Gold.Protein.RotatedAtoms>
  152.5224  134.3402  159.9214 H   0  0  0  0  0  0  0  0  0  0  0  0  # atno 6907 bound_to 6896
  151.3352  133.3978  159.2674 H   0  0  0  0  0  0  0  0  0  0  0  0  # atno 6908 bound_to 6896
  150.9848  134.9214  159.7923 H   0  0  0  0  0  0  0  0  0  0  0  0  # atno 6909 bound_to 6896
  146.0488  140.6509  142.9052 H   0  0  0  0  0  0  0  0  0  0  0  0  # atno 7974 bound_to 7965
  156.1046  140.1452  156.9421 H   0  0  0  0  0  0  0  0  0  0  0  0  # atno 8008 bound_to 7997
  154.4725  140.0905  156.7225 H   0  0  0  0  0  0  0  0  0  0  0  0  # atno 8009 bound_to 7997
  155.4701  140.3441  155.4327 H   0  0  0  0  0  0  0  0  0  0  0  0  # atno 8010 bound_to 7997
  140.1073  143.4559  152.1775 H   0  0  0  0  0  0  0  0  0  0  0  0  # atno 10167 bound_to 10162
  156.0089  130.5205  150.6410 H   0  0  0  0  0  0  0  0  0  0  0  0  # atno 10718 bound_to 10713
  154.5963  135.5530  153.7329 H   0  0  0  0  0  0  0  0  0  0  0  0  # atno 10763 bound_to 10752
  153.0137  135.6355  154.1777 H   0  0  0  0  0  0  0  0  0  0  0  0  # atno 10764 bound_to 10752
  154.1718  135.2891  155.3059 H   0  0  0  0  0  0  0  0  0  0  0  0  # atno 10765 bound_to 10752
  140.6543  133.9376  155.8398 H   0  0  0  0  0  0  0  0  0  0  0  0  # atno 11005 bound_to 11000
  144.7112  140.4044  143.7079 LP  0  0  0  0  0  0  0  0  0  0  0  0  # atno 17320 bound_to 7965
  145.6759  139.1608  143.2728 LP  0  0  0  0  0  0  0  0  0  0  0  0  # atno 17321 bound_to 7965
  139.5638  144.7423  151.4079 LP  0  0  0  0  0  0  0  0  0  0  0  0  # atno 17342 bound_to 10162
  140.6945  143.7782  150.7306 LP  0  0  0  0  0  0  0  0  0  0  0  0  # atno 17343 bound_to 10162
  157.4190  131.0834  151.1149 LP  0  0  0  0  0  0  0  0  0  0  0  0  # atno 17370 bound_to 10713
  157.1757  130.6287  149.5655 LP  0  0  0  0  0  0  0  0  0  0  0  0  # atno 17371 bound_to 10713
  141.0513  134.0481  157.3780 LP  0  0  0  0  0  0  0  0  0  0  0  0  # atno 17394 bound_to 11000
  139.9035  135.0172  156.7378 LP  0  0  0  0  0  0  0  0  0  0  0  0  # atno 17395 bound_to 11000

$$$$
