AV-unprocessed.smi:1341|AV-procd|sdf|5506|dock1
  -GOLD-   22720 5 83D 1   1.00000     0.00000
 Structure written by MMmdl.
 33 34  0  0  0  0  0  0  0  0  2 V2000
  150.3282  145.0023  160.3289 C   0  0  0  0  0  0  0  0  0  0  0  0
  151.5324  145.5161  160.0278 C   0  0  0  0  0  0  0  0  0  0  0  0
  152.6709  144.7593  159.3730 C   0  0  0  0  0  0  0  0  0  0  0  0
  152.4894  143.3116  159.3442 N   0  5  0  0  0  0  0  0  0  0  0  0
  152.9998  142.4454  160.2684 C   0  0  0  0  0  0  0  0  0  0  0  0
  153.4186  142.6769  161.4080 O   0  0  0  0  0  0  0  0  0  0  0  0
  153.0247  141.0188  159.7690 C   0  0  0  0  0  0  0  0  0  0  0  0
  152.1525  140.6800  158.7856 N   0  0  0  0  0  0  0  0  0  0  0  0
  152.1334  139.4203  158.3393 C   0  0  0  0  0  0  0  0  0  0  0  0
  151.2166  139.1047  157.3283 N   0  0  0  0  0  0  0  0  0  0  0  0
  150.1720  140.0434  156.9229 C   0  0  0  0  0  0  0  0  0  0  0  0
  150.6642  140.8687  155.7196 C   0  0  0  0  0  0  0  0  0  0  0  0
  151.0246  139.9916  154.6537 O   0  0  0  0  0  0  0  0  0  0  0  0
  152.0490  139.0700  155.0233 C   0  0  0  0  0  0  0  0  0  0  0  0
  151.5687  138.2233  156.2157 C   0  0  0  0  0  0  0  0  0  0  0  0
  152.9212  138.4372  158.7892 N   0  0  0  0  0  0  0  0  0  0  0  0
  153.8025  138.7433  159.7633 C   0  0  0  0  0  0  0  0  0  0  0  0
  153.9039  140.0394  160.3044 C   0  0  0  0  0  0  0  0  0  0  0  0
  155.0851  140.3582  161.5293 Cl  0  0  0  0  0  0  0  0  0  0  0  0
  150.0683  143.9736  160.1194 H   0  0  0  0  0  0  0  0  0  0  0  0
  149.5743  145.6180  160.7964 H   0  0  0  0  0  0  0  0  0  0  0  0
  151.7303  146.5521  160.2606 H   0  0  0  0  0  0  0  0  0  0  0  0
  152.7593  145.1510  158.3597 H   0  0  0  0  0  0  0  0  0  0  0  0
  153.5985  145.0551  159.8659 H   0  0  0  0  0  0  0  0  0  0  0  0
  149.2850  139.4754  156.6406 H   0  0  0  0  0  0  0  0  0  0  0  0
  149.8602  140.7010  157.7336 H   0  0  0  0  0  0  0  0  0  0  0  0
  149.8770  141.5392  155.3750 H   0  0  0  0  0  0  0  0  0  0  0  0
  151.5164  141.4913  155.9970 H   0  0  0  0  0  0  0  0  0  0  0  0
  152.2733  138.4288  154.1711 H   0  0  0  0  0  0  0  0  0  0  0  0
  152.9663  139.6069  155.2709 H   0  0  0  0  0  0  0  0  0  0  0  0
  152.3200  137.4830  156.4913 H   0  0  0  0  0  0  0  0  0  0  0  0
  150.6839  137.6541  155.9287 H   0  0  0  0  0  0  0  0  0  0  0  0
  154.4390  137.9435  160.1118 H   0  0  0  0  0  0  0  0  0  0  0  0
  1  2  2  0  0  0  0
  1 20  1  0  0  0  0
  1 21  1  0  0  0  0
  2  3  1  0  0  0  0
  2 22  1  0  0  0  0
  3  4  1  0  0  0  0
  3 23  1  0  0  0  0
  3 24  1  0  0  0  0
  4  5  1  0  0  0  0
  5  6  2  0  0  0  0
  5  7  1  0  0  0  0
  7 18  1  0  0  0  0
  7  8  2  0  0  0  0
  8  9  1  0  0  0  0
  9 10  1  0  0  0  0
  9 16  2  0  0  0  0
 10 15  1  0  0  0  0
 10 11  1  0  0  0  0
 11 12  1  0  0  0  0
 11 25  1  0  0  0  0
 11 26  1  0  0  0  0
 12 13  1  0  0  0  0
 12 27  1  0  0  0  0
 12 28  1  0  0  0  0
 13 14  1  0  0  0  0
 14 15  1  0  0  0  0
 14 29  1  0  0  0  0
 14 30  1  0  0  0  0
 15 31  1  0  0  0  0
 15 32  1  0  0  0  0
 16 17  1  0  0  0  0
 17 18  2  0  0  0  0
 17 33  1  0  0  0  0
 18 19  1  0  0  0  0
M  CHG  1   4  -1
M  END
> <s_m_source_file>
AV-unprocessed.smi

> <i_m_source_file_index>
1341

> <i_lp_mmshare_version>
43012

> <i_f3d_flags>
0

> <s_epik_input>
W0NIMl09W0NIXVtDSDJdW05IXUMoPU8pYzFuYyhuW2NIXWMxQ2wpTjJbQ0gyXVtDSDJdT1tDSDJdW0NIMl0y

> <s_epik_cmdline>
J2VwaWtfcHl0aG9uJywgJy1waCcsICc3LjAnLCAnLXRuJywgJzgnLCAnLW1hJywgJzIwMCcsICctbWV0YWxfYmluZGluZycsICctaW1hZScsICc8aW5maWxlLm1hZT4nLCAnLW9tYWUnLCAnPG91dGZpbGUubWFlPic=

> <r_lp_tautomer_probability>
1

> <r_epik_Ionization_Penalty>
5.99598

> <r_epik_Ionization_Penalty_Charging>
5.99596

> <r_epik_Ionization_Penalty_Neutral>
2.0749e-05

> <r_epik_State_Penalty>
5.99593

> <r_epik_Charging_Adjusted_Penalty>
11.9919

> <i_epik_Tot_Q>
-1

> <i_epik_Tot_abs_Q>
1

> <r_epik_Metal_State_Penalty>
1.94906

> <b_epik_Metal_Only>
1

> <s_lp_Force_Field>
OPLS_2005

> <r_lp_Energy>
16.4854

> <b_lp_Chiralities_Consistent>
1

> <s_lp_Variant>
AV-unprocessed.smi:1341-2

> <Gold.Version>
5.8.1

> <Gold.Id.Protein>
6NUR|6NUR_protein|mol2

> <Gold.PLP.Fitness>
39.1933

> <Gold.PLP.PLP>
-37.7010

> <Gold.PLP.part.hbond>
-1.0000

> <Gold.PLP.part.metal>
0.0000

> <Gold.PLP.part.buried>
-5.4182

> <Gold.PLP.part.nonpolar>
-29.8630

> <Gold.PLP.part.repulsive>
0.1169

> <Gold.PLP.ligand.clash>
0.0000

> <Gold.PLP.ligand.torsion>
0.8931

> <Gold.PLP.Chemscore.Hbond>
1.0000

> <Gold.PLP.Chemscore.CHOScore>
0.0000

> <Gold.PLP.Chemscore.Metal>
0.0000

> <Gold.Chemscore.Hbonds>
donor molecule, donor type, donor heavy atom, donor atom, acceptor molecule, acceptor atom, score
      P1  H  7989  7998       L1    13  1.00

> <Gold.PLP.Chemscore.Internal.Correction>
0.2785

> <Gold.Rescore>
     Score         DG    S(hbond)    S(metal)    S(lipo)     H(rot)  DE(clash)    DE(int)     intcor
     11.14     -13.47       0.12        0.00      90.14       1.15       0.04       2.29       ----

> <Gold.Chemscore.Fitness>
11.1397

> <Gold.Chemscore.DG>
-13.4706

> <Gold.Chemscore.ZeroCoef>
-5.4800

> <Gold.Chemscore.Hbond>
0.1174

> <Gold.Chemscore.Metal>
0.0000

> <Gold.Chemscore.Lipo>
90.1391

> <Gold.Chemscore.Internal_Hbond>
0.0000

> <Gold.Chemscore.DEClash>
0.0402

> <Gold.Chemscore.DEInternal>
2.2906

> <Gold.Chemscore.Rot>
1.1514

> <Gold.Chemscore.Internal.Correction>
   9.000000E+99

> <Gold.Chemscore.Hbonds>
donor molecule, donor type, donor heavy atom, donor atom, acceptor molecule, acceptor atom, score
      P1  H  7989  7998       L1    13  0.35

> <Gold.Chemscore.Hbond.Weighted>
-0.3920

> <Gold.Chemscore.Metal.Weighted>
-0.0000

> <Gold.Chemscore.Lipo.Weighted>
-10.5463

> <Gold.Chemscore.Internal_Hbond.Weighted>
0.0000

> <Gold.Chemscore.DEClash.Weighted>
0.0402

> <Gold.Chemscore.DEInternal.Weighted>
2.2906

> <Gold.Chemscore.Rot.Weighted>
2.9477

> <Gold.Chemscore.Internal.Correction.Weighted>
   9.000000E+99

> <Gold.Protein.RotatedTorsions>
[ 6907 6896 6895 6894 ] final  -53.14 input  -60.11 | X-H torsion
[ 7974 7965 7964 7962 ] final  157.48 input  175.53 | X-H torsion
[ 8008 7997 7996 7995 ] final   18.31 input   59.86 | X-H torsion
[ 10167 10162 10161 10158 ] final -150.91 input  -65.29 | X-H torsion
[ 10718 10713 10712 10709 ] final   40.18 input   66.30 | X-H torsion
[ 10763 10752 10751 10750 ] final  -36.11 input  -60.55 | X-H torsion
[ 11005 11000 10999 10996 ] final -132.44 input  -57.11 | X-H torsion

> <Gold.Protein.ActiveResidues>
 VAL166  LYS551  ARG553  GLY616  TRP617  ASP618  TYR619  PRO620  LYS621  CYS622 
 ASP623  PHE694  ASN695  SER759  ASP760  ASP761  ALA762  ILE779  LEU786  VAL792 
 PHE793  MET794  SER795  GLU796  ALA797  LYS798  CYS799  TRP800  GLU811  SER814 

> <Gold.Protein.RotatedAtoms>
  150.8453  134.7760  159.6965 H   0  0  0  0  0  0  0  0  0  0  0  0  # atno 6907 bound_to 6896
  152.4531  134.5346  159.9831 H   0  0  0  0  0  0  0  0  0  0  0  0  # atno 6908 bound_to 6896
  151.5478  133.3384  159.2983 H   0  0  0  0  0  0  0  0  0  0  0  0  # atno 6909 bound_to 6896
  144.7901  139.7346  143.6225 H   0  0  0  0  0  0  0  0  0  0  0  0  # atno 7974 bound_to 7965
  154.9042  140.3005  155.5301 H   0  0  0  0  0  0  0  0  0  0  0  0  # atno 8008 bound_to 7997
  156.3017  140.2401  156.4008 H   0  0  0  0  0  0  0  0  0  0  0  0  # atno 8009 bound_to 7997
  154.8491  140.0410  157.1581 H   0  0  0  0  0  0  0  0  0  0  0  0  # atno 8010 bound_to 7997
  139.7313  143.8803  152.2535 H   0  0  0  0  0  0  0  0  0  0  0  0  # atno 10167 bound_to 10162
  157.3792  130.7744  149.7179 H   0  0  0  0  0  0  0  0  0  0  0  0  # atno 10718 bound_to 10713
  153.8744  135.6828  153.4772 H   0  0  0  0  0  0  0  0  0  0  0  0  # atno 10763 bound_to 10752
  153.1269  135.4715  154.9285 H   0  0  0  0  0  0  0  0  0  0  0  0  # atno 10764 bound_to 10752
  154.7699  135.3235  154.8162 H   0  0  0  0  0  0  0  0  0  0  0  0  # atno 10765 bound_to 10752
  140.9170  134.1494  157.4344 H   0  0  0  0  0  0  0  0  0  0  0  0  # atno 11005 bound_to 11000
  146.2149  139.5532  142.9656 LP  0  0  0  0  0  0  0  0  0  0  0  0  # atno 17320 bound_to 7965
  145.5817  141.0381  143.2118 LP  0  0  0  0  0  0  0  0  0  0  0  0  # atno 17321 bound_to 7965
  139.8727  144.7059  150.8968 LP  0  0  0  0  0  0  0  0  0  0  0  0  # atno 17342 bound_to 10162
  140.7771  143.3725  151.1624 LP  0  0  0  0  0  0  0  0  0  0  0  0  # atno 17343 bound_to 10162
  155.9772  130.4066  150.3729 LP  0  0  0  0  0  0  0  0  0  0  0  0  # atno 17370 bound_to 10713
  157.1830  131.0397  151.2739 LP  0  0  0  0  0  0  0  0  0  0  0  0  # atno 17371 bound_to 10713
  139.8768  134.9957  156.5758 LP  0  0  0  0  0  0  0  0  0  0  0  0  # atno 17394 bound_to 11000
  140.8037  133.8485  155.8749 LP  0  0  0  0  0  0  0  0  0  0  0  0  # atno 17395 bound_to 11000

$$$$
