AV-unprocessed.smi:2774|AV-procd|sdf|10680|dock5
  -GOLD-   2272015123D 1   1.00000     0.00000
 Structure written by MMmdl.
 35 36  0  0  0  0  0  0  0  0  2 V2000
  147.1342  138.4701  150.9283 O   0  0  0  0  0  0  0  0  0  0  0  0
  146.2665  138.2321  152.0192 C   0  0  2  0  0  0  0  0  0  0  0  0
  146.9202  138.7830  153.2986 C   0  0  0  0  0  0  0  0  0  0  0  0
  148.3963  138.7359  153.2154 N   0  3  0  0  0  0  0  0  0  0  0  0
  149.1119  139.2195  154.4168 C   0  0  2  0  0  0  0  0  0  0  0  0
  148.8464  140.7272  154.5964 C   0  0  0  0  0  0  0  0  0  0  0  0
  149.4819  141.2982  155.8751 C   0  0  0  0  0  0  0  0  0  0  0  0
  151.0094  141.1518  155.8861 C   0  0  0  0  0  0  0  0  0  0  0  0
  151.4978  139.4075  155.8301 S   0  0  0  0  0  0  0  0  0  0  0  0
  150.6235  138.9278  154.3153 C   0  0  0  0  0  0  0  0  0  0  0  0
  145.9400  136.7539  152.1599 C   0  0  0  0  0  0  0  0  0  0  0  0
  145.4535  136.0084  151.0642 C   0  0  0  0  0  0  0  0  0  0  0  0
  145.1749  134.6396  151.2506 C   0  0  0  0  0  0  0  0  0  0  0  0
  145.3505  134.0015  152.4273 N   0  0  0  0  0  0  0  0  0  0  0  0
  145.8156  134.7191  153.4721 C   0  0  0  0  0  0  0  0  0  0  0  0
  146.1251  136.0918  153.3917 C   0  0  0  0  0  0  0  0  0  0  0  0
  147.7022  139.1932  151.1495 H   0  0  0  0  0  0  0  0  0  0  0  0
  145.3403  138.7755  151.8250 H   0  0  0  0  0  0  0  0  0  0  0  0
  146.6157  139.8202  153.4459 H   0  0  0  0  0  0  0  0  0  0  0  0
  146.5726  138.2232  154.1669 H   0  0  0  0  0  0  0  0  0  0  0  0
  148.6854  137.7877  153.0206 H   0  0  0  0  0  0  0  0  0  0  0  0
  148.7033  138.6996  155.2848 H   0  0  0  0  0  0  0  0  0  0  0  0
  149.2172  141.2766  153.7296 H   0  0  0  0  0  0  0  0  0  0  0  0
  147.7707  140.9048  154.6316 H   0  0  0  0  0  0  0  0  0  0  0  0
  149.2227  142.3536  155.9647 H   0  0  0  0  0  0  0  0  0  0  0  0
  149.0585  140.8054  156.7510 H   0  0  0  0  0  0  0  0  0  0  0  0
  151.4490  141.6724  155.0346 H   0  0  0  0  0  0  0  0  0  0  0  0
  151.4262  141.6032  156.7869 H   0  0  0  0  0  0  0  0  0  0  0  0
  150.8120  137.8672  154.1523 H   0  0  0  0  0  0  0  0  0  0  0  0
  151.0616  139.4612  153.4708 H   0  0  0  0  0  0  0  0  0  0  0  0
  145.2971  136.4703  150.1004 H   0  0  0  0  0  0  0  0  0  0  0  0
  144.8021  134.0416  150.4322 H   0  0  0  0  0  0  0  0  0  0  0  0
  145.9466  134.1830  154.4004 H   0  0  0  0  0  0  0  0  0  0  0  0
  146.4951  136.6177  154.2596 H   0  0  0  0  0  0  0  0  0  0  0  0
  148.6704  139.3185  152.4373 H   0  0  0  0  0  0  0  0  0  0  0  0
  1  2  1  0  0  0  0
  1 17  1  0  0  0  0
  2  3  1  0  0  0  0
  2 11  1  0  0  0  0
  2 18  1  0  0  0  0
  3  4  1  0  0  0  0
  3 19  1  0  0  0  0
  3 20  1  0  0  0  0
  4  5  1  0  0  0  0
  4 21  1  0  0  0  0
  4 35  1  0  0  0  0
  5 10  1  0  0  0  0
  5  6  1  0  0  0  0
  5 22  1  0  0  0  0
  6  7  1  0  0  0  0
  6 23  1  0  0  0  0
  6 24  1  0  0  0  0
  7  8  1  0  0  0  0
  7 25  1  0  0  0  0
  7 26  1  0  0  0  0
  8  9  1  0  0  0  0
  8 27  1  0  0  0  0
  8 28  1  0  0  0  0
  9 10  1  0  0  0  0
 10 29  1  0  0  0  0
 10 30  1  0  0  0  0
 11 16  1  0  0  0  0
 11 12  2  0  0  0  0
 12 13  1  0  0  0  0
 12 31  1  0  0  0  0
 13 14  2  0  0  0  0
 13 32  1  0  0  0  0
 14 15  1  0  0  0  0
 15 16  2  0  0  0  0
 15 33  1  0  0  0  0
 16 34  1  0  0  0  0
M  CHG  1   4   1
M  END
> <s_m_source_file>
AV-unprocessed.smi

> <i_m_source_file_index>
2774

> <i_lp_mmshare_version>
43012

> <i_f3d_flags>
0

> <s_epik_input>
W2NIXTFbY0hdbltjSF1bY0hdYzFbQ0BIXShbT0hdKVtDSDJdW05IXVtDQEBIXTJbQ0gyXVtDSDJdW0NIMl1TW0NIMl0y

> <s_epik_cmdline>
J2VwaWtfcHl0aG9uJywgJy1waCcsICc3LjAnLCAnLXRuJywgJzgnLCAnLW1hJywgJzIwMCcsICctbWV0YWxfYmluZGluZycsICctaW1hZScsICc8aW5maWxlLm1hZT4nLCAnLW9tYWUnLCAnPG91dGZpbGUubWFlPic=

> <r_epik_Ionization_Penalty>
0.0205977

> <r_epik_Ionization_Penalty_Charging>
0.0185619

> <r_epik_Ionization_Penalty_Neutral>
0.00203589

> <r_epik_State_Penalty>
0.0147768

> <r_epik_Charging_Adjusted_Penalty>
0.0333386

> <i_epik_Tot_Q>
1

> <i_epik_Tot_abs_Q>
1

> <r_epik_Metal_State_Penalty>
0.0152254

> <b_epik_Metal_Only>
0

> <s_lp_Force_Field>
OPLS_2005

> <r_lp_Energy>
9.96587

> <b_lp_Chiralities_Consistent>
1

> <s_lp_Variant>
AV-unprocessed.smi:2774-1

> <Gold.Version>
5.8.1

> <Gold.Id.Protein>
6NUR|6NUR_protein|mol2

> <Gold.PLP.Fitness>
45.1555

> <Gold.PLP.PLP>
-32.3833

> <Gold.PLP.part.hbond>
-4.9352

> <Gold.PLP.part.metal>
0.0000

> <Gold.PLP.part.buried>
-0.7457

> <Gold.PLP.part.nonpolar>
-26.5471

> <Gold.PLP.part.repulsive>
0.1386

> <Gold.PLP.ligand.clash>
0.0000

> <Gold.PLP.ligand.torsion>
0.5348

> <Gold.PLP.Chemscore.Hbond>
4.6100

> <Gold.PLP.Chemscore.CHOScore>
0.0000

> <Gold.PLP.Chemscore.Metal>
0.0000

> <Gold.Chemscore.Hbonds>
donor molecule, donor type, donor heavy atom, donor atom, acceptor molecule, acceptor atom, score
      L1  H     1    17       P1  7957  0.95
      L1  H     4    21       P1  7948  2.00
      L1  H     4    35       P1  7957  1.00
      P1  H  7954  7966       L1     1  0.60

> <Gold.PLP.Chemscore.Internal.Correction>
0.0118

> <Gold.Rescore>
     Score         DG    S(hbond)    S(metal)    S(lipo)     H(rot)  DE(clash)    DE(int)     intcor
     18.24     -19.10       2.81        0.00      79.29       1.97       0.31       0.55       ----

> <Gold.Chemscore.Fitness>
18.2438

> <Gold.Chemscore.DG>
-19.1016

> <Gold.Chemscore.ZeroCoef>
-5.4800

> <Gold.Chemscore.Hbond>
2.8098

> <Gold.Chemscore.Metal>
0.0000

> <Gold.Chemscore.Lipo>
79.2872

> <Gold.Chemscore.Internal_Hbond>
0.0000

> <Gold.Chemscore.DEClash>
0.3067

> <Gold.Chemscore.DEInternal>
0.5511

> <Gold.Chemscore.Rot>
1.9686

> <Gold.Chemscore.Internal.Correction>
   9.000000E+99

> <Gold.Chemscore.Hbonds>
donor molecule, donor type, donor heavy atom, donor atom, acceptor molecule, acceptor atom, score
      L1  H     1    17       P1  7957  0.60
      L1  H     4    21       P1  7948  0.97
      L1  H     4    35       P1  7957  1.00
      P1  H  7954  7966       L1     1  0.04

> <Gold.Chemscore.Hbond.Weighted>
-9.3846

> <Gold.Chemscore.Metal.Weighted>
-0.0000

> <Gold.Chemscore.Lipo.Weighted>
-9.2766

> <Gold.Chemscore.Internal_Hbond.Weighted>
0.0000

> <Gold.Chemscore.DEClash.Weighted>
0.3067

> <Gold.Chemscore.DEInternal.Weighted>
0.5511

> <Gold.Chemscore.Rot.Weighted>
5.0396

> <Gold.Chemscore.Internal.Correction.Weighted>
   9.000000E+99

> <Gold.Protein.RotatedTorsions>
[ 6907 6896 6895 6894 ] final  -45.85 input  -60.11 | X-H torsion
[ 7974 7965 7964 7962 ] final   97.51 input  175.53 | X-H torsion
[ 8008 7997 7996 7995 ] final -118.32 input   59.86 | X-H torsion
[ 10167 10162 10161 10158 ] final    3.68 input  -65.29 | X-H torsion
[ 10718 10713 10712 10709 ] final   96.49 input   66.30 | X-H torsion
[ 10763 10752 10751 10750 ] final  174.83 input  -60.55 | X-H torsion
[ 11005 11000 10999 10996 ] final  -68.25 input  -57.11 | X-H torsion

> <Gold.Protein.ActiveResidues>
 VAL166  LYS551  ARG553  GLY616  TRP617  ASP618  TYR619  PRO620  LYS621  CYS622 
 ASP623  PHE694  ASN695  SER759  ASP760  ASP761  ALA762  ILE779  LEU786  VAL792 
 PHE793  MET794  SER795  GLU796  ALA797  LYS798  CYS799  TRP800  GLU811  SER814 

> <Gold.Protein.RotatedAtoms>
  150.9175  134.8593  159.7466 H   0  0  0  0  0  0  0  0  0  0  0  0  # atno 6907 bound_to 6896
  152.4976  134.4267  159.9508 H   0  0  0  0  0  0  0  0  0  0  0  0  # atno 6908 bound_to 6896
  151.4304  133.3632  159.2803 H   0  0  0  0  0  0  0  0  0  0  0  0  # atno 6909 bound_to 6896
  145.4245  139.2317  143.3178 H   0  0  0  0  0  0  0  0  0  0  0  0  # atno 7974 bound_to 7965
  155.0978  140.0395  157.2688 H   0  0  0  0  0  0  0  0  0  0  0  0  # atno 8008 bound_to 7997
  154.6781  140.2627  155.6911 H   0  0  0  0  0  0  0  0  0  0  0  0  # atno 8009 bound_to 7997
  156.2684  140.2784  156.1316 H   0  0  0  0  0  0  0  0  0  0  0  0  # atno 8010 bound_to 7997
  140.6573  143.7394  150.7676 H   0  0  0  0  0  0  0  0  0  0  0  0  # atno 10167 bound_to 10162
  157.6926  131.0579  150.4499 H   0  0  0  0  0  0  0  0  0  0  0  0  # atno 10718 bound_to 10713
  154.4593  135.2767  155.1724 H   0  0  0  0  0  0  0  0  0  0  0  0  # atno 10763 bound_to 10752
  154.3519  135.6148  153.5650 H   0  0  0  0  0  0  0  0  0  0  0  0  # atno 10764 bound_to 10752
  152.9853  135.5813  154.4952 H   0  0  0  0  0  0  0  0  0  0  0  0  # atno 10765 bound_to 10752
  141.1527  133.6736  156.6417 H   0  0  0  0  0  0  0  0  0  0  0  0  # atno 11005 bound_to 11000
  146.2639  140.4973  142.8842 LP  0  0  0  0  0  0  0  0  0  0  0  0  # atno 17320 bound_to 7965
  144.8223  140.6571  143.6344 LP  0  0  0  0  0  0  0  0  0  0  0  0  # atno 17321 bound_to 7965
  140.1056  143.4747  152.2400 LP  0  0  0  0  0  0  0  0  0  0  0  0  # atno 17342 bound_to 10162
  139.5799  144.7505  151.3668 LP  0  0  0  0  0  0  0  0  0  0  0  0  # atno 17343 bound_to 10162
  156.4851  130.4082  149.6439 LP  0  0  0  0  0  0  0  0  0  0  0  0  # atno 17370 bound_to 10713
  156.3470  130.7412  151.2366 LP  0  0  0  0  0  0  0  0  0  0  0  0  # atno 17371 bound_to 10713
  140.3388  134.7867  157.4382 LP  0  0  0  0  0  0  0  0  0  0  0  0  # atno 17394 bound_to 11000
  140.0955  134.5543  155.8402 LP  0  0  0  0  0  0  0  0  0  0  0  0  # atno 17395 bound_to 11000

$$$$
