AV-unprocessed.smi:1870|AV-procd|sdf|7596|dock4
  -GOLD-   22720 9313D 1   1.00000     0.00000
 Structure written by MMmdl.
 48 50  0  0  0  0  0  0  0  0  2 V2000
  146.0021  133.2957  151.6562 C   0  0  0  0  0  0  0  0  0  0  0  0
  147.0898  132.6918  152.5028 C   0  0  0  0  0  0  0  0  0  0  0  0
  147.9285  133.5133  153.0441 N   0  0  0  0  0  0  0  0  0  0  0  0
  148.9542  133.0657  153.8544 N   0  0  0  0  0  0  0  0  0  0  0  0
  149.7580  134.1406  154.4542 C   0  0  0  0  0  0  0  0  0  0  0  0
  148.8843  135.2450  155.0921 C   0  0  1  0  0  0  0  0  0  0  0  0
  148.3270  134.7356  156.2864 O   0  0  0  0  0  0  0  0  0  0  0  0
  149.6775  136.5294  155.4240 C   0  0  0  0  0  0  0  0  0  0  0  0
  149.9162  137.4147  154.2499 N   0  3  2  0  0  0  0  0  0  0  0  0
  151.3291  137.8262  154.0340 C   0  0  0  0  0  0  0  0  0  0  0  0
  151.8617  138.6656  155.2090 C   0  0  0  0  0  0  0  0  0  0  0  0
  150.8759  139.7343  155.6558 C   0  0  0  0  0  0  0  0  0  0  0  0
  151.3012  140.7464  156.5402 C   0  0  0  0  0  0  0  0  0  0  0  0
  150.3880  141.7137  157.0010 C   0  0  0  0  0  0  0  0  0  0  0  0
  149.0448  141.6701  156.5819 C   0  0  0  0  0  0  0  0  0  0  0  0
  148.6140  140.6607  155.6998 C   0  0  0  0  0  0  0  0  0  0  0  0
  149.5233  139.6891  155.2327 C   0  0  0  0  0  0  0  0  0  0  0  0
  149.0402  138.6139  154.2632 C   0  0  0  0  0  0  0  0  0  0  0  0
  149.2105  131.7542  154.1269 C   0  0  0  0  0  0  0  0  0  0  0  0
  150.1503  131.3976  154.8385 O   0  0  0  0  0  0  0  0  0  0  0  0
  148.2557  130.8292  153.5129 C   0  0  0  0  0  0  0  0  0  0  0  0
  148.4690  129.4471  153.7992 C   0  0  0  0  0  0  0  0  0  0  0  0
  148.6580  128.3259  154.0160 N   0  0  0  0  0  0  0  0  0  0  0  0
  147.2312  131.2583  152.7345 C   0  0  0  0  0  0  0  0  0  0  0  0
  146.2098  130.3386  152.0800 C   0  0  0  0  0  0  0  0  0  0  0  0
  146.1072  132.9884  150.6156 H   0  0  0  0  0  0  0  0  0  0  0  0
  146.0239  134.3862  151.6821 H   0  0  0  0  0  0  0  0  0  0  0  0
  145.0187  132.9804  152.0054 H   0  0  0  0  0  0  0  0  0  0  0  0
  150.4282  133.7149  155.2033 H   0  0  0  0  0  0  0  0  0  0  0  0
  150.4120  134.5827  153.6997 H   0  0  0  0  0  0  0  0  0  0  0  0
  148.0618  135.4597  154.4132 H   0  0  0  0  0  0  0  0  0  0  0  0
  148.6976  135.2043  157.0189 H   0  0  0  0  0  0  0  0  0  0  0  0
  149.1343  137.0842  156.1907 H   0  0  0  0  0  0  0  0  0  0  0  0
  150.6385  136.2850  155.8730 H   0  0  0  0  0  0  0  0  0  0  0  0
  151.9774  136.9726  153.8432 H   0  0  0  0  0  0  0  0  0  0  0  0
  151.3667  138.4242  153.1220 H   0  0  0  0  0  0  0  0  0  0  0  0
  152.0841  138.0236  156.0626 H   0  0  0  0  0  0  0  0  0  0  0  0
  152.8037  139.1369  154.9273 H   0  0  0  0  0  0  0  0  0  0  0  0
  152.3282  140.7788  156.8743 H   0  0  0  0  0  0  0  0  0  0  0  0
  150.7171  142.4868  157.6798 H   0  0  0  0  0  0  0  0  0  0  0  0
  148.3446  142.4123  156.9367 H   0  0  0  0  0  0  0  0  0  0  0  0
  147.5827  140.6377  155.3789 H   0  0  0  0  0  0  0  0  0  0  0  0
  149.0207  139.0461  153.2619 H   0  0  0  0  0  0  0  0  0  0  0  0
  148.0121  138.3313  154.4945 H   0  0  0  0  0  0  0  0  0  0  0  0
  146.4545  129.2858  152.2183 H   0  0  0  0  0  0  0  0  0  0  0  0
  146.1576  130.5198  151.0061 H   0  0  0  0  0  0  0  0  0  0  0  0
  145.2202  130.5066  152.5064 H   0  0  0  0  0  0  0  0  0  0  0  0
  149.6440  136.8745  153.4408 H   0  0  0  0  0  0  0  0  0  0  0  0
  1  2  1  0  0  0  0
  1 26  1  0  0  0  0
  1 27  1  0  0  0  0
  1 28  1  0  0  0  0
  2 24  1  0  0  0  0
  2  3  2  0  0  0  0
  3  4  1  0  0  0  0
  4  5  1  0  0  0  0
  4 19  1  0  0  0  0
  5  6  1  0  0  0  0
  5 29  1  0  0  0  0
  5 30  1  0  0  0  0
  6  7  1  0  0  0  0
  6  8  1  0  0  0  0
  6 31  1  0  0  0  0
  7 32  1  0  0  0  0
  8  9  1  0  0  0  0
  8 33  1  0  0  0  0
  8 34  1  0  0  0  0
  9 18  1  0  0  0  0
  9 10  1  0  0  0  0
  9 48  1  0  0  0  0
 10 11  1  0  0  0  0
 10 35  1  0  0  0  0
 10 36  1  0  0  0  0
 11 12  1  0  0  0  0
 11 37  1  0  0  0  0
 11 38  1  0  0  0  0
 12 17  2  0  0  0  0
 12 13  1  0  0  0  0
 13 14  2  0  0  0  0
 13 39  1  0  0  0  0
 14 15  1  0  0  0  0
 14 40  1  0  0  0  0
 15 16  2  0  0  0  0
 15 41  1  0  0  0  0
 16 17  1  0  0  0  0
 16 42  1  0  0  0  0
 17 18  1  0  0  0  0
 18 43  1  0  0  0  0
 18 44  1  0  0  0  0
 19 20  2  0  0  0  0
 19 21  1  0  0  0  0
 21 22  1  0  0  0  0
 21 24  2  0  0  0  0
 22 23  3  0  0  0  0
 24 25  1  0  0  0  0
 25 45  1  0  0  0  0
 25 46  1  0  0  0  0
 25 47  1  0  0  0  0
M  CHG  1   9   1
M  END
> <s_m_source_file>
AV-unprocessed.smi

> <i_m_source_file_index>
1870

> <i_lp_mmshare_version>
43012

> <i_f3d_flags>
0

> <s_epik_input>
TiNDYyhjMVtDSDNdKWMoPU8pbihuYzFbQ0gzXSlbQ0gyXVtDQEhdKFtPSF0pW0NIMl1OKFtDSDJdW0NIMl0yKVtDSDJdYyhjMjMpW2NIXVtjSF1bY0hdW2NIXTM=

> <s_epik_cmdline>
J2VwaWtfcHl0aG9uJywgJy1waCcsICc3LjAnLCAnLXRuJywgJzgnLCAnLW1hJywgJzIwMCcsICctbWV0YWxfYmluZGluZycsICctaW1hZScsICc8aW5maWxlLm1hZT4nLCAnLW9tYWUnLCAnPG91dGZpbGUubWFlPic=

> <r_epik_Ionization_Penalty>
0.0122865

> <r_epik_Ionization_Penalty_Charging>
0.0122864

> <r_epik_Ionization_Penalty_Neutral>
1.48087e-07

> <r_epik_State_Penalty>
0.00950248

> <r_epik_Charging_Adjusted_Penalty>
0.0217889

> <i_epik_Tot_Q>
1

> <i_epik_Tot_abs_Q>
1

> <r_epik_Metal_State_Penalty>
0.00950248

> <b_epik_Metal_Only>
0

> <s_lp_Force_Field>
OPLS_2005

> <r_lp_Energy>
37.2352

> <b_lp_Chiralities_Consistent>
1

> <s_lp_Variant>
AV-unprocessed.smi:1870-4

> <Gold.Version>
5.8.1

> <Gold.Id.Protein>
6NUR|6NUR_protein|mol2

> <Gold.PLP.Fitness>
44.8868

> <Gold.PLP.PLP>
-40.9778

> <Gold.PLP.part.hbond>
-1.7530

> <Gold.PLP.part.metal>
0.0000

> <Gold.PLP.part.buried>
-1.9871

> <Gold.PLP.part.nonpolar>
-37.4559

> <Gold.PLP.part.repulsive>
0.9790

> <Gold.PLP.ligand.clash>
0.0000

> <Gold.PLP.ligand.torsion>
1.0642

> <Gold.PLP.Chemscore.Hbond>
2.0000

> <Gold.PLP.Chemscore.CHOScore>
0.0000

> <Gold.PLP.Chemscore.Metal>
0.0000

> <Gold.Chemscore.Hbonds>
donor molecule, donor type, donor heavy atom, donor atom, acceptor molecule, acceptor atom, score
      L1  H     9    48       P1  7948  2.00

> <Gold.PLP.Chemscore.Internal.Correction>
0.0373

> <Gold.Rescore>
     Score         DG    S(hbond)    S(metal)    S(lipo)     H(rot)  DE(clash)    DE(int)     intcor
     12.45     -13.48       0.82        0.00      92.23       2.16       0.02       1.00       ----

> <Gold.Chemscore.Fitness>
12.4486

> <Gold.Chemscore.DG>
-13.4764

> <Gold.Chemscore.ZeroCoef>
-5.4800

> <Gold.Chemscore.Hbond>
0.8211

> <Gold.Chemscore.Metal>
0.0000

> <Gold.Chemscore.Lipo>
92.2264

> <Gold.Chemscore.Internal_Hbond>
0.0000

> <Gold.Chemscore.DEClash>
0.0240

> <Gold.Chemscore.DEInternal>
1.0038

> <Gold.Chemscore.Rot>
2.1628

> <Gold.Chemscore.Internal.Correction>
   9.000000E+99

> <Gold.Chemscore.Hbonds>
donor molecule, donor type, donor heavy atom, donor atom, acceptor molecule, acceptor atom, score
      L1  H     9    48       P1  7948  0.65

> <Gold.Chemscore.Hbond.Weighted>
-2.7426

> <Gold.Chemscore.Metal.Weighted>
-0.0000

> <Gold.Chemscore.Lipo.Weighted>
-10.7905

> <Gold.Chemscore.Internal_Hbond.Weighted>
0.0000

> <Gold.Chemscore.DEClash.Weighted>
0.0240

> <Gold.Chemscore.DEInternal.Weighted>
1.0038

> <Gold.Chemscore.Rot.Weighted>
5.5367

> <Gold.Chemscore.Internal.Correction.Weighted>
   9.000000E+99

> <Gold.Protein.RotatedTorsions>
[ 6907 6896 6895 6894 ] final  -22.44 input  -60.11 | X-H torsion
[ 7974 7965 7964 7962 ] final  121.75 input  175.53 | X-H torsion
[ 8008 7997 7996 7995 ] final -117.14 input   59.86 | X-H torsion
[ 10167 10162 10161 10158 ] final   -5.75 input  -65.29 | X-H torsion
[ 10718 10713 10712 10709 ] final -163.05 input   66.30 | X-H torsion
[ 10763 10752 10751 10750 ] final  -70.59 input  -60.55 | X-H torsion
[ 11005 11000 10999 10996 ] final   77.45 input  -57.11 | X-H torsion

> <Gold.Protein.ActiveResidues>
 VAL166  LYS551  ARG553  GLY616  TRP617  ASP618  TYR619  PRO620  LYS621  CYS622 
 ASP623  PHE694  ASN695  SER759  ASP760  ASP761  ALA762  ILE779  LEU786  VAL792 
 PHE793  MET794  SER795  GLU796  ALA797  LYS798  CYS799  TRP800  GLU811  SER814 

> <Gold.Protein.RotatedAtoms>
  151.2185  135.0509  159.8939 H   0  0  0  0  0  0  0  0  0  0  0  0  # atno 6907 bound_to 6896
  152.5418  134.0666  159.8186 H   0  0  0  0  0  0  0  0  0  0  0  0  # atno 6908 bound_to 6896
  151.0829  133.5327  159.2651 H   0  0  0  0  0  0  0  0  0  0  0  0  # atno 6909 bound_to 6896
  145.1156  139.3423  143.4740 H   0  0  0  0  0  0  0  0  0  0  0  0  # atno 7974 bound_to 7965
  155.0790  140.0394  157.2633 H   0  0  0  0  0  0  0  0  0  0  0  0  # atno 8008 bound_to 7997
  154.6922  140.2656  155.6776 H   0  0  0  0  0  0  0  0  0  0  0  0  # atno 8009 bound_to 7997
  156.2732  140.2757  156.1504 H   0  0  0  0  0  0  0  0  0  0  0  0  # atno 8010 bound_to 7997
  140.6974  143.6273  150.8556 H   0  0  0  0  0  0  0  0  0  0  0  0  # atno 10167 bound_to 10162
  156.6191  130.8883  151.2954 H   0  0  0  0  0  0  0  0  0  0  0  0  # atno 10718 bound_to 10713
  154.4198  135.5989  153.6003 H   0  0  0  0  0  0  0  0  0  0  0  0  # atno 10763 bound_to 10752
  152.9793  135.5949  154.3968 H   0  0  0  0  0  0  0  0  0  0  0  0  # atno 10764 bound_to 10752
  154.3792  135.2841  155.2199 H   0  0  0  0  0  0  0  0  0  0  0  0  # atno 10765 bound_to 10752
  139.9254  134.7683  156.1523 H   0  0  0  0  0  0  0  0  0  0  0  0  # atno 11005 bound_to 11000
  146.3524  140.1094  142.8604 LP  0  0  0  0  0  0  0  0  0  0  0  0  # atno 17320 bound_to 7965
  145.0797  140.9212  143.4832 LP  0  0  0  0  0  0  0  0  0  0  0  0  # atno 17321 bound_to 7965
  139.9992  143.5763  152.2882 LP  0  0  0  0  0  0  0  0  0  0  0  0  # atno 17342 bound_to 10162
  139.6446  144.7657  151.2270 LP  0  0  0  0  0  0  0  0  0  0  0  0  # atno 17343 bound_to 10162
  157.7233  130.9587  150.1526 LP  0  0  0  0  0  0  0  0  0  0  0  0  # atno 17370 bound_to 10713
  156.2326  130.3683  149.8427 LP  0  0  0  0  0  0  0  0  0  0  0  0  # atno 17371 bound_to 10713
  141.0808  133.6755  156.2331 LP  0  0  0  0  0  0  0  0  0  0  0  0  # atno 17394 bound_to 11000
  140.6351  134.5223  157.5564 LP  0  0  0  0  0  0  0  0  0  0  0  0  # atno 17395 bound_to 11000

$$$$
