#       Name:                AV-unprocessed.smi:3074
#       Creating user name   scv26
#       Creation time:       Fri Mar 27 17:12:09 2020


#       File generated by GOLD software.
#

@<TRIPOS>MOLECULE
AV-unprocessed.smi:3074
    20    21     1
SMALL
NO_CHARGES


@<TRIPOS>ATOM
      1 ****        -2.9715   0.5520   0.7359 C.2            1 S1                 0.0000
      2 ****        -1.6929   1.0344   0.5694 C.2            1 S1                 0.0000
      3 ****        -0.8637  -0.0745   0.4625 N.pl3          1 S1                 0.0000
      4 ****         0.5622  -0.0577   0.3324 C.3            1 S1                 0.0000
      5 ****         1.2577   0.9798  -0.5476 C.3            1 S1                 0.0000
      6 ****         2.2536  -0.0386  -0.8564 N.4            1 S1                 1.0000
      7 ****         1.2849  -1.0816  -0.5418 C.3            1 S1                 0.0000
      8 ****        -1.6626  -1.1388   0.6199 C.2            1 S1                 0.0000
      9 ****        -2.9463  -0.8404   0.7706 N.2            1 S1                 0.0000
     10 ****        -3.8981   1.0957   0.8484 H              1 S1                 0.0000
     11 ****        -1.3193   2.0464   0.5146 H              1 S1                 0.0000
     12 ****         0.9689  -0.0498   1.3462 H              1 S1                 0.0000
     13 ****         0.6783   1.2674  -1.4273 H              1 S1                 0.0000
     14 ****         1.6545   1.8447  -0.0152 H              1 S1                 0.0000
     15 ****         2.5592  -0.0368  -1.8193 H              1 S1                 0.0000
     16 ****         1.7055  -1.9320  -0.0045 H              1 S1                 0.0000
     17 ****         0.7136  -1.3897  -1.4198 H              1 S1                 0.0000
     18 ****        -1.2969  -2.1555   0.6220 H              1 S1                 0.0000
     19 ****         3.0130  -0.0259  -0.1904 H              1 S1                 0.0000
     20 ****        -3.7163  -1.4684   0.8829 LP             1 S1                 0.0000
@<TRIPOS>BOND
    1    1    9 1     
    2    1    2 2     
    3    1   10 1     
    4    2    3 1     
    5    2   11 1     
    6    3    4 1     
    7    3    8 1     
    8    4    7 1     
    9    4    5 1     
   10    4   12 1     
   11    5    6 1     
   12    5   13 1     
   13    5   14 1     
   14    6    7 1     
   15    6   15 1     
   16    6   19 1     
   17    7   16 1     
   18    7   17 1     
   19    8    9 2     
   20    8   18 1     
   21    9   20 1     
@<TRIPOS>SUBSTRUCTURE
      1 S1             1
@<TRIPOS>SET
LONE_PAIRS      STATIC     ATOMS    <user>   **** ""
1 20
DONOR_HYDROGENS      STATIC     ATOMS    <user>   **** ""
2 15 19
ATOM$BLUE        STATIC     ATOMS    COLORGROUP SYSTEM
1 20
ATOM$RED        STATIC     ATOMS    COLORGROUP SYSTEM
2 15 19
