#       Name:                AV-unprocessed.smi:258
#       Creating user name   scv26
#       Creation time:       Thu Mar 26 21:13:37 2020


#       File generated by GOLD software.
#

@<TRIPOS>MOLECULE
AV-unprocessed.smi:258
    69    72     1
SMALL
NO_CHARGES


@<TRIPOS>ATOM
      1 ****        -7.2197   2.7886  -1.3269 O.3            1 S1                 0.0000
      2 ****        -6.5167   2.5903  -0.1186 C.3            1 S1                 0.0000
      3 ****        -6.0946   1.1216   0.0158 C.3            1 S1                 0.0000
      4 ****        -4.8739   0.9232  -0.6833 O.3            1 S1                 0.0000
      5 ****        -4.3582  -0.3999  -0.6089 C.3            1 S1                 0.0000
      6 ****        -5.0865  -1.3316  -1.5989 C.3            1 S1                 0.0000
      7 ****        -4.4136  -2.7120  -1.6279 C.3            1 S1                 0.0000
      8 ****        -2.9139  -2.5878  -1.9392 C.3            1 S1                 0.0000
      9 ****        -2.2646  -1.6640  -1.0077 N.3            1 S1                 0.0000
     10 ****        -0.9086  -1.6783  -0.9525 C.ar           1 S1                 0.0000
     11 ****        -0.1890  -2.1266  -2.0165 N.ar           1 S1                 0.0000
     12 ****         1.1468  -2.1315  -1.9754 C.ar           1 S1                 0.0000
     13 ****         1.9527  -1.7425  -0.9857 N.ar           1 S1                 0.0000
     14 ****         1.2367  -1.3019   0.0880 C.ar           1 S1                 0.0000
     15 ****        -0.1816  -1.2350   0.1884 C.ar           1 S1                 0.0000
     16 ****        -0.5435  -0.7409   1.4369 N.2            1 S1                 0.0000
     17 ****         0.5954  -0.5203   2.0357 C.2            1 S1                 0.0000
     18 ****         1.7141  -0.8300   1.2968 N.pl3          1 S1                 0.0000
     19 ****         3.0987  -0.6830   1.7039 C.3            1 S1                 0.0000
     20 ****         3.6921   0.6782   1.2592 C.3            1 S1                 0.0000
     21 ****         3.9557   1.6042   2.4699 C.3            1 S1                 0.0000
     22 ****         2.7384   1.9882   3.0740 O.3            1 S1                 0.0000
     23 ****         4.9280   0.4747   0.3456 C.3            1 S1                 0.0000
     24 ****         5.4222   1.7216  -0.3890 C.3            1 S1                 0.0000
     25 ****         6.9414   1.6860  -0.2096 C.3            1 S1                 0.0000
     26 ****         7.2266   0.3432   0.1492 O.3            1 S1                 0.0000
     27 ****         6.1902  -0.0725   1.0220 C.3            1 S1                 0.0000
     28 ****        -2.8579  -0.3283  -0.9469 C.3            1 S1                 0.0000
     29 ****        -7.4788   3.6959  -1.3786 H              1 S1                 0.0000
     30 ****        -5.6565   3.2582  -0.0616 H              1 S1                 0.0000
     31 ****        -7.1873   2.8568   0.6985 H              1 S1                 0.0000
     32 ****        -5.9283   0.8969   1.0702 H              1 S1                 0.0000
     33 ****        -6.8851   0.4573  -0.3345 H              1 S1                 0.0000
     34 ****        -4.4606  -0.7853   0.4076 H              1 S1                 0.0000
     35 ****        -6.1359  -1.4453  -1.3287 H              1 S1                 0.0000
     36 ****        -5.0665  -0.8945  -2.5980 H              1 S1                 0.0000
     37 ****        -4.5456  -3.2017  -0.6622 H              1 S1                 0.0000
     38 ****        -4.8967  -3.3500  -2.3685 H              1 S1                 0.0000
     39 ****        -2.4481  -3.5724  -1.8770 H              1 S1                 0.0000
     40 ****        -2.7752  -2.2282  -2.9599 H              1 S1                 0.0000
     41 ****         1.6403  -2.5001  -2.8626 H              1 S1                 0.0000
     42 ****         0.6513  -0.1215   3.0381 H              1 S1                 0.0000
     43 ****         3.1554  -0.8077   2.7861 H              1 S1                 0.0000
     44 ****         3.6592  -1.5194   1.2844 H              1 S1                 0.0000
     45 ****         2.9546   1.1829   0.6317 H              1 S1                 0.0000
     46 ****         4.5758   1.1114   3.2188 H              1 S1                 0.0000
     47 ****         4.4785   2.5122   2.1725 H              1 S1                 0.0000
     48 ****         2.9312   2.5554   3.8051 H              1 S1                 0.0000
     49 ****         4.6501  -0.2387  -0.4326 H              1 S1                 0.0000
     50 ****         5.1575   1.6591  -1.4453 H              1 S1                 0.0000
     51 ****         5.0033   2.6528  -0.0084 H              1 S1                 0.0000
     52 ****         7.4793   1.9831  -1.1101 H              1 S1                 0.0000
     53 ****         7.2468   2.3459   0.6039 H              1 S1                 0.0000
     54 ****         6.3620   0.3677   2.0042 H              1 S1                 0.0000
     55 ****         6.1726  -1.1570   1.1318 H              1 S1                 0.0000
     56 ****        -2.7186   0.1568  -1.9141 H              1 S1                 0.0000
     57 ****        -2.3532   0.2969  -0.2107 H              1 S1                 0.0000
     58 ****        -8.0313   2.2047  -1.3444 LP             1 S1                 0.0000
     59 ****        -6.6292   2.5619  -2.1015 LP             1 S1                 0.0000
     60 ****        -4.1910   1.5462  -0.3018 LP             1 S1                 0.0000
     61 ****        -5.0262   1.1450  -1.6464 LP             1 S1                 0.0000
     62 ****        -2.5007  -2.0915  -0.1350 LP             1 S1                 0.0000
     63 ****        -0.6623  -2.4544  -2.8341 LP             1 S1                 0.0000
     64 ****         2.9515  -1.7704  -1.0260 LP             1 S1                 0.0000
     65 ****        -1.4651  -0.5893   1.7942 LP             1 S1                 0.0000
     66 ****         2.2513   1.1765   3.3964 LP             1 S1                 0.0000
     67 ****         2.1714   2.4753   2.4098 LP             1 S1                 0.0000
     68 ****         8.1106   0.2906   0.6138 LP             1 S1                 0.0000
     69 ****         7.2437  -0.2355  -0.6662 LP             1 S1                 0.0000
@<TRIPOS>BOND
    1    1    2 1     
    2    1   29 1     
    3    2    3 1     
    4    2   30 1     
    5    2   31 1     
    6    3    4 1     
    7    3   32 1     
    8    3   33 1     
    9    4    5 1     
   10    5   28 1     
   11    5    6 1     
   12    5   34 1     
   13    6    7 1     
   14    6   35 1     
   15    6   36 1     
   16    7    8 1     
   17    7   37 1     
   18    7   38 1     
   19    8    9 1     
   20    8   39 1     
   21    8   40 1     
   22    9   10 1     
   23    9   28 1     
   24   10   15 ar    
   25   10   11 ar    
   26   11   12 ar    
   27   12   13 ar    
   28   12   41 1     
   29   13   14 ar    
   30   14   18 1     
   31   14   15 ar    
   32   15   16 1     
   33   16   17 2     
   34   17   18 1     
   35   17   42 1     
   36   18   19 1     
   37   19   20 1     
   38   19   43 1     
   39   19   44 1     
   40   20   21 1     
   41   20   23 1     
   42   20   45 1     
   43   21   22 1     
   44   21   46 1     
   45   21   47 1     
   46   22   48 1     
   47   23   27 1     
   48   23   24 1     
   49   23   49 1     
   50   24   25 1     
   51   24   50 1     
   52   24   51 1     
   53   25   26 1     
   54   25   52 1     
   55   25   53 1     
   56   26   27 1     
   57   27   54 1     
   58   27   55 1     
   59   28   56 1     
   60   28   57 1     
   61    1   58 1     
   62    1   59 1     
   63    4   60 1     
   64    4   61 1     
   65    9   62 1     
   66   11   63 1     
   67   13   64 1     
   68   16   65 1     
   69   22   66 1     
   70   22   67 1     
   71   26   68 1     
   72   26   69 1     
@<TRIPOS>SUBSTRUCTURE
      1 S1             1
@<TRIPOS>SET
LONE_PAIRS      STATIC     ATOMS    <user>   **** ""
12 58 59 60 61 62 63 64 65 66 67 68 69
DONOR_HYDROGENS      STATIC     ATOMS    <user>   **** ""
2 29 48
ATOM$BLUE        STATIC     ATOMS    COLORGROUP SYSTEM
12 58 59 60 61 62 63 64 65 66 67 68 69
ATOM$RED        STATIC     ATOMS    COLORGROUP SYSTEM
2 29 48
