#       Name:                AV-unprocessed.smi:1372
#       Creating user name   scv26
#       Creation time:       Fri Mar 27 05:18:17 2020


#       File generated by GOLD software.
#

@<TRIPOS>MOLECULE
AV-unprocessed.smi:1372
    44    46     1
SMALL
NO_CHARGES


@<TRIPOS>ATOM
      1 ****         0.1430   4.9350   0.1349 C.3            1 S1                 0.0000
      2 ****        -1.2056   3.6912   0.0077 S.o2           1 S1                 0.0000
      3 ****        -2.4265   4.2791   0.5801 O.2            1 S1                 0.0000
      4 ****        -1.2264   3.1686  -1.3670 O.2            1 S1                 0.0000
      5 ****        -0.5978   2.3624   1.1386 C.3            1 S1                 0.0000
      6 ****        -1.4687   1.1403   1.0487 C.2            1 S1                 0.0000
      7 ****        -2.7927   1.2115   1.1999 N.2            1 S1                 0.0000
      8 ****        -3.1956  -0.0976   1.0331 C.ar           1 S1                 0.0000
      9 ****        -4.4857  -0.6736   1.0662 C.ar           1 S1                 0.0000
     10 ****        -4.6538  -2.0594   0.8655 C.ar           1 S1                 0.0000
     11 ****        -3.5367  -2.8868   0.6299 C.ar           1 S1                 0.0000
     12 ****        -2.2425  -2.3326   0.5950 C.ar           1 S1                 0.0000
     13 ****        -2.0806  -0.9485   0.7959 C.ar           1 S1                 0.0000
     14 ****        -0.9728  -0.1068   0.8279 N.pl3          1 S1                 0.0000
     15 ****         0.4108  -0.5337   0.6573 C.3            1 S1                 0.0000
     16 ****         0.8352  -0.6115  -0.8228 C.3            1 S1                 0.0000
     17 ****         0.7197   0.6590  -1.4320 O.3            1 S1                 0.0000
     18 ****         2.2348  -1.1885  -0.9630 C.ar           1 S1                 0.0000
     19 ****         2.4062  -2.5368  -1.3439 C.ar           1 S1                 0.0000
     20 ****         3.6995  -3.0812  -1.4657 C.ar           1 S1                 0.0000
     21 ****         4.8287  -2.2813  -1.2053 C.ar           1 S1                 0.0000
     22 ****         4.6641  -0.9365  -0.8219 C.ar           1 S1                 0.0000
     23 ****         3.3710  -0.3916  -0.6996 C.ar           1 S1                 0.0000
     24 ****        -0.0930   5.7898  -0.4986 H              1 S1                 0.0000
     25 ****         1.0819   4.4897  -0.1940 H              1 S1                 0.0000
     26 ****         0.2383   5.2661   1.1688 H              1 S1                 0.0000
     27 ****         0.4319   2.1479   0.8628 H              1 S1                 0.0000
     28 ****        -0.6018   2.7425   2.1600 H              1 S1                 0.0000
     29 ****        -5.3469  -0.0473   1.2457 H              1 S1                 0.0000
     30 ****        -5.6444  -2.4893   0.8923 H              1 S1                 0.0000
     31 ****        -3.6739  -3.9472   0.4767 H              1 S1                 0.0000
     32 ****        -1.3851  -2.9641   0.4152 H              1 S1                 0.0000
     33 ****         1.0736   0.1147   1.2291 H              1 S1                 0.0000
     34 ****         0.5105  -1.5199   1.1127 H              1 S1                 0.0000
     35 ****         0.1421  -1.2700  -1.3484 H              1 S1                 0.0000
     36 ****         0.8623   0.5599  -2.3610 H              1 S1                 0.0000
     37 ****         1.5462  -3.1598  -1.5423 H              1 S1                 0.0000
     38 ****         3.8252  -4.1134  -1.7579 H              1 S1                 0.0000
     39 ****         5.8204  -2.6991  -1.2983 H              1 S1                 0.0000
     40 ****         5.5299  -0.3232  -0.6206 H              1 S1                 0.0000
     41 ****         3.2538   0.6400  -0.4008 H              1 S1                 0.0000
     42 ****        -3.3552   2.0167   1.3880 LP             1 S1                 0.0000
     43 ****         1.4042   1.2799  -1.0499 LP             1 S1                 0.0000
     44 ****        -0.1946   1.0297  -1.2687 LP             1 S1                 0.0000
@<TRIPOS>BOND
    1    1    2 1     
    2    1   24 1     
    3    1   25 1     
    4    1   26 1     
    5    2    3 2     
    6    2    4 2     
    7    2    5 1     
    8    5    6 1     
    9    5   27 1     
   10    5   28 1     
   11    6   14 1     
   12    6    7 2     
   13    7    8 1     
   14    8   13 ar    
   15    8    9 ar    
   16    9   10 ar    
   17    9   29 1     
   18   10   11 ar    
   19   10   30 1     
   20   11   12 ar    
   21   11   31 1     
   22   12   13 ar    
   23   12   32 1     
   24   13   14 1     
   25   14   15 1     
   26   15   16 1     
   27   15   33 1     
   28   15   34 1     
   29   16   17 1     
   30   16   18 1     
   31   16   35 1     
   32   17   36 1     
   33   18   23 ar    
   34   18   19 ar    
   35   19   20 ar    
   36   19   37 1     
   37   20   21 ar    
   38   20   38 1     
   39   21   22 ar    
   40   21   39 1     
   41   22   23 ar    
   42   22   40 1     
   43   23   41 1     
   44    7   42 1     
   45   17   43 1     
   46   17   44 1     
@<TRIPOS>SUBSTRUCTURE
      1 S1             1
@<TRIPOS>SET
LONE_PAIRS      STATIC     ATOMS    <user>   **** ""
5 3 4 42 43 44
DONOR_HYDROGENS      STATIC     ATOMS    <user>   **** ""
1 36
ATOM$BLUE        STATIC     ATOMS    COLORGROUP SYSTEM
5 3 4 42 43 44
ATOM$RED        STATIC     ATOMS    COLORGROUP SYSTEM
1 36
