AV-unprocessed.smi:1605|AV-procd|sdf|6458|dock3
  -GOLD-   22720 7113D 1   1.00000     0.00000
 Structure written by MMmdl.
 52 54  0  0  0  0  0  0  0  0  3 V2000
  143.6276  137.1456  155.3151 C   0  0  0  0  0  0  0  0  0  0  0  0
  144.3502  137.7883  154.2763 O   0  0  0  0  0  0  0  0  0  0  0  0
  145.1555  136.9167  153.4905 C   0  0  2  0  0  0  0  0  0  0  0  0
  146.2429  136.2289  154.3375 C   0  0  0  0  0  0  0  0  0  0  0  0
  147.2534  137.2488  154.8890 C   0  0  0  0  0  0  0  0  0  0  0  0
  147.8752  138.0376  153.7917 N   0  3  2  0  0  0  0  0  0  0  0  0
  148.9455  138.9519  154.2662 C   0  0  0  0  0  0  0  0  0  0  0  0
  150.0343  138.2187  155.0809 C   0  0  1  0  0  0  0  0  0  0  0  0
  150.4971  137.1090  154.3390 O   0  0  0  0  0  0  0  0  0  0  0  0
  151.2592  139.1010  155.3992 C   0  0  0  0  0  0  0  0  0  0  0  0
  150.9066  140.3732  156.0427 N   0  0  0  0  0  0  0  0  0  0  0  0
  150.0953  141.3787  155.6141 C   0  0  0  0  0  0  0  0  0  0  0  0
  150.0998  142.3459  156.5728 N   0  3  0  0  0  0  0  0  0  0  0  0
  150.9357  141.9586  157.6225 C   0  0  0  0  0  0  0  0  0  0  0  0
  151.2652  142.6006  158.8103 C   0  0  0  0  0  0  0  0  0  0  0  0
  152.1623  141.9350  159.6762 C   0  0  0  0  0  0  0  0  0  0  0  0
  152.5460  142.6105  160.9818 C   0  0  0  0  0  0  0  0  0  0  0  0
  152.6974  140.6650  159.3375 C   0  0  0  0  0  0  0  0  0  0  0  0
  153.6624  139.9589  160.2747 C   0  0  0  0  0  0  0  0  0  0  0  0
  152.3501  140.0286  158.1245 C   0  0  0  0  0  0  0  0  0  0  0  0
  151.4627  140.6970  157.2848 C   0  0  0  0  0  0  0  0  0  0  0  0
  146.8513  138.7430  152.9785 C   0  0  0  0  0  0  0  0  0  0  0  0
  145.8251  137.7570  152.3927 C   0  0  0  0  0  0  0  0  0  0  0  0
  143.0015  137.8778  155.8248 H   0  0  0  0  0  0  0  0  0  0  0  0
  144.2897  136.7037  156.0591 H   0  0  0  0  0  0  0  0  0  0  0  0
  142.9742  136.3670  154.9200 H   0  0  0  0  0  0  0  0  0  0  0  0
  144.5227  136.1660  153.0140 H   0  0  0  0  0  0  0  0  0  0  0  0
  145.8014  135.6592  155.1546 H   0  0  0  0  0  0  0  0  0  0  0  0
  146.7708  135.5013  153.7198 H   0  0  0  0  0  0  0  0  0  0  0  0
  146.7578  137.9230  155.5896 H   0  0  0  0  0  0  0  0  0  0  0  0
  148.0170  136.7177  155.4560 H   0  0  0  0  0  0  0  0  0  0  0  0
  149.4238  139.4443  153.4178 H   0  0  0  0  0  0  0  0  0  0  0  0
  148.4837  139.7478  154.8512 H   0  0  0  0  0  0  0  0  0  0  0  0
  149.6237  137.8419  156.0164 H   0  0  0  0  0  0  0  0  0  0  0  0
  149.8552  136.8852  153.6830 H   0  0  0  0  0  0  0  0  0  0  0  0
  151.9604  138.5766  156.0504 H   0  0  0  0  0  0  0  0  0  0  0  0
  151.8037  139.3385  154.4839 H   0  0  0  0  0  0  0  0  0  0  0  0
  149.5453  141.4046  154.6842 H   0  0  0  0  0  0  0  0  0  0  0  0
  150.8559  143.5686  159.0607 H   0  0  0  0  0  0  0  0  0  0  0  0
  153.6272  142.7320  161.0487 H   0  0  0  0  0  0  0  0  0  0  0  0
  152.2111  142.0166  161.8323 H   0  0  0  0  0  0  0  0  0  0  0  0
  152.0951  143.5996  161.0671 H   0  0  0  0  0  0  0  0  0  0  0  0
  153.9374  138.9739  159.8965 H   0  0  0  0  0  0  0  0  0  0  0  0
  153.2133  139.8226  161.2587 H   0  0  0  0  0  0  0  0  0  0  0  0
  154.5780  140.5398  160.3883 H   0  0  0  0  0  0  0  0  0  0  0  0
  152.7622  139.0648  157.8638 H   0  0  0  0  0  0  0  0  0  0  0  0
  146.3498  139.4928  153.5926 H   0  0  0  0  0  0  0  0  0  0  0  0
  147.3361  139.2775  152.1605 H   0  0  0  0  0  0  0  0  0  0  0  0
  146.3250  137.0952  151.6839 H   0  0  0  0  0  0  0  0  0  0  0  0
  145.0686  138.2986  151.8236 H   0  0  0  0  0  0  0  0  0  0  0  0
  148.3184  137.3797  153.1667 H   0  0  0  0  0  0  0  0  0  0  0  0
  149.5759  143.2097  156.5097 H   0  0  0  0  0  0  0  0  0  0  0  0
  1  2  1  0  0  0  0
  1 24  1  0  0  0  0
  1 25  1  0  0  0  0
  1 26  1  0  0  0  0
  2  3  1  0  0  0  0
  3 23  1  0  0  0  0
  3  4  1  0  0  0  0
  3 27  1  0  0  0  0
  4  5  1  0  0  0  0
  4 28  1  0  0  0  0
  4 29  1  0  0  0  0
  5  6  1  0  0  0  0
  5 30  1  0  0  0  0
  5 31  1  0  0  0  0
  6  7  1  0  0  0  0
  6 22  1  0  0  0  0
  6 51  1  0  0  0  0
  7  8  1  0  0  0  0
  7 32  1  0  0  0  0
  7 33  1  0  0  0  0
  8  9  1  0  0  0  0
  8 10  1  0  0  0  0
  8 34  1  0  0  0  0
  9 35  1  0  0  0  0
 10 11  1  0  0  0  0
 10 36  1  0  0  0  0
 10 37  1  0  0  0  0
 11 21  1  0  0  0  0
 11 12  1  0  0  0  0
 12 13  2  0  0  0  0
 12 38  1  0  0  0  0
 13 14  1  0  0  0  0
 13 52  1  0  0  0  0
 14 21  2  0  0  0  0
 14 15  1  0  0  0  0
 15 16  2  0  0  0  0
 15 39  1  0  0  0  0
 16 17  1  0  0  0  0
 16 18  1  0  0  0  0
 17 40  1  0  0  0  0
 17 41  1  0  0  0  0
 17 42  1  0  0  0  0
 18 19  1  0  0  0  0
 18 20  2  0  0  0  0
 19 43  1  0  0  0  0
 19 44  1  0  0  0  0
 19 45  1  0  0  0  0
 20 21  1  0  0  0  0
 20 46  1  0  0  0  0
 22 23  1  0  0  0  0
 22 47  1  0  0  0  0
 22 48  1  0  0  0  0
 23 49  1  0  0  0  0
 23 50  1  0  0  0  0
M  CHG  1   6   1
M  CHG  1  13   1
M  END
> <s_m_source_file>
AV-unprocessed.smi

> <i_m_source_file_index>
1605

> <i_lp_mmshare_version>
43012

> <i_f3d_flags>
0

> <s_epik_input>
W0NIM11PW0NIXTFbQ0gyXVtDSDJdTihbQ0gyXVtDSDJdMSlbQ0gyXVtDQEhdKFtPSF0pW0NIMl1uKFtjSF1uMiljKGMyMylbY0hdYyhbQ0gzXSljKFtjSF0zKVtDSDNd

> <s_epik_cmdline>
J2VwaWtfcHl0aG9uJywgJy1waCcsICc3LjAnLCAnLXRuJywgJzgnLCAnLW1hJywgJzIwMCcsICctbWV0YWxfYmluZGluZycsICctaW1hZScsICc8aW5maWxlLm1hZT4nLCAnLW9tYWUnLCAnPG91dGZpbGUubWFlPic=

> <r_epik_Ionization_Penalty>
1.19848

> <r_epik_Ionization_Penalty_Charging>
1.19848

> <r_epik_Ionization_Penalty_Neutral>
1.67134e-06

> <r_epik_State_Penalty>
1.2782

> <r_epik_Charging_Adjusted_Penalty>
2.47668

> <i_epik_Tot_Q>
2

> <i_epik_Tot_abs_Q>
2

> <r_epik_Metal_State_Penalty>
5.29544

> <b_epik_Metal_Only>
0

> <s_lp_Force_Field>
OPLS_2005

> <r_lp_Energy>
34.9642

> <b_lp_Chiralities_Consistent>
1

> <s_lp_Variant>
AV-unprocessed.smi:1605-8

> <Gold.Version>
5.8.1

> <Gold.Id.Protein>
6NUR|6NUR_protein|mol2

> <Gold.PLP.Fitness>
56.6417

> <Gold.PLP.PLP>
-41.7644

> <Gold.PLP.part.hbond>
-4.0000

> <Gold.PLP.part.metal>
0.0000

> <Gold.PLP.part.buried>
-4.8230

> <Gold.PLP.part.nonpolar>
-34.0024

> <Gold.PLP.part.repulsive>
0.1923

> <Gold.PLP.ligand.clash>
0.0000

> <Gold.PLP.ligand.torsion>
0.0767

> <Gold.PLP.Chemscore.Hbond>
4.9913

> <Gold.PLP.Chemscore.CHOScore>
0.0000

> <Gold.PLP.Chemscore.Metal>
0.0000

> <Gold.Chemscore.Hbonds>
donor molecule, donor type, donor heavy atom, donor atom, acceptor molecule, acceptor atom, score
      L1  H     6    51       P1  7948  2.00
      L1  H     9    35       P1  7948  0.83
      L1  H    13    52       P1  8028  2.00

> <Gold.PLP.Chemscore.Internal.Correction>
0.0569

> <Gold.Rescore>
     Score         DG    S(hbond)    S(metal)    S(lipo)     H(rot)  DE(clash)    DE(int)     intcor
     19.50     -20.49       2.63        0.00     103.27       2.28       0.10       0.89       ----

> <Gold.Chemscore.Fitness>
19.4982

> <Gold.Chemscore.DG>
-20.4867

> <Gold.Chemscore.ZeroCoef>
-5.4800

> <Gold.Chemscore.Hbond>
2.6261

> <Gold.Chemscore.Metal>
0.0000

> <Gold.Chemscore.Lipo>
103.2690

> <Gold.Chemscore.Internal_Hbond>
0.0000

> <Gold.Chemscore.DEClash>
0.0954

> <Gold.Chemscore.DEInternal>
0.8931

> <Gold.Chemscore.Rot>
2.2839

> <Gold.Chemscore.Internal.Correction>
   9.000000E+99

> <Gold.Chemscore.Hbonds>
donor molecule, donor type, donor heavy atom, donor atom, acceptor molecule, acceptor atom, score
      L1  H     6    51       P1  7948  1.00
      L1  H     9    35       P1  7948  0.41
      L1  H    13    52       P1  8028  0.98

> <Gold.Chemscore.Hbond.Weighted>
-8.7712

> <Gold.Chemscore.Metal.Weighted>
-0.0000

> <Gold.Chemscore.Lipo.Weighted>
-12.0825

> <Gold.Chemscore.Internal_Hbond.Weighted>
0.0000

> <Gold.Chemscore.DEClash.Weighted>
0.0954

> <Gold.Chemscore.DEInternal.Weighted>
0.8931

> <Gold.Chemscore.Rot.Weighted>
5.8469

> <Gold.Chemscore.Internal.Correction.Weighted>
   9.000000E+99

> <Gold.Protein.RotatedTorsions>
[ 6907 6896 6895 6894 ] final   15.36 input  -60.11 | X-H torsion
[ 7974 7965 7964 7962 ] final -167.32 input  175.53 | X-H torsion
[ 8008 7997 7996 7995 ] final  148.44 input   59.86 | X-H torsion
[ 10167 10162 10161 10158 ] final -128.07 input  -65.29 | X-H torsion
[ 10718 10713 10712 10709 ] final  166.91 input   66.30 | X-H torsion
[ 10763 10752 10751 10750 ] final -165.65 input  -60.55 | X-H torsion
[ 11005 11000 10999 10996 ] final  -94.70 input  -57.11 | X-H torsion

> <Gold.Protein.ActiveResidues>
 VAL166  LYS551  ARG553  GLY616  TRP617  ASP618  TYR619  PRO620  LYS621  CYS622 
 ASP623  PHE694  ASN695  SER759  ASP760  ASP761  ALA762  ILE779  LEU786  VAL792 
 PHE793  MET794  SER795  GLU796  ALA797  LYS798  CYS799  TRP800  GLU811  SER814 

> <Gold.Protein.RotatedAtoms>
  151.8168  135.0664  160.0419 H   0  0  0  0  0  0  0  0  0  0  0  0  # atno 6907 bound_to 6896
  152.2980  133.5622  159.5608 H   0  0  0  0  0  0  0  0  0  0  0  0  # atno 6908 bound_to 6896
  150.7260  134.0249  159.3756 H   0  0  0  0  0  0  0  0  0  0  0  0  # atno 6909 bound_to 6896
  144.7226  140.2536  143.6275 H   0  0  0  0  0  0  0  0  0  0  0  0  # atno 7974 bound_to 7965
  156.2791  140.2129  156.5698 H   0  0  0  0  0  0  0  0  0  0  0  0  # atno 8008 bound_to 7997
  154.7145  140.0509  157.0604 H   0  0  0  0  0  0  0  0  0  0  0  0  # atno 8009 bound_to 7997
  155.0561  140.3161  155.4679 H   0  0  0  0  0  0  0  0  0  0  0  0  # atno 8010 bound_to 7997
  139.9542  143.6022  152.2466 H   0  0  0  0  0  0  0  0  0  0  0  0  # atno 10167 bound_to 10162
  157.0591  131.0335  151.2653 H   0  0  0  0  0  0  0  0  0  0  0  0  # atno 10718 bound_to 10713
  154.6911  135.2971  154.9478 H   0  0  0  0  0  0  0  0  0  0  0  0  # atno 10763 bound_to 10752
  154.0442  135.6653  153.4797 H   0  0  0  0  0  0  0  0  0  0  0  0  # atno 10764 bound_to 10752
  153.0612  135.5114  154.8003 H   0  0  0  0  0  0  0  0  0  0  0  0  # atno 10765 bound_to 10752
  141.1463  133.7974  157.0333 H   0  0  0  0  0  0  0  0  0  0  0  0  # atno 11005 bound_to 11000
  145.8204  139.2041  143.1941 LP  0  0  0  0  0  0  0  0  0  0  0  0  # atno 17320 bound_to 7965
  146.0519  140.8061  142.9777 LP  0  0  0  0  0  0  0  0  0  0  0  0  # atno 17321 bound_to 7965
  139.6605  144.7662  151.1973 LP  0  0  0  0  0  0  0  0  0  0  0  0  # atno 17342 bound_to 10162
  140.7573  143.6018  150.8692 LP  0  0  0  0  0  0  0  0  0  0  0  0  # atno 17343 bound_to 10162
  157.4969  130.7856  149.7565 LP  0  0  0  0  0  0  0  0  0  0  0  0  # atno 17370 bound_to 10713
  155.9984  130.3894  150.2703 LP  0  0  0  0  0  0  0  0  0  0  0  0  # atno 17371 bound_to 10713
  140.0740  134.9686  157.1514 LP  0  0  0  0  0  0  0  0  0  0  0  0  # atno 17394 bound_to 11000
  140.3671  134.2431  155.7181 LP  0  0  0  0  0  0  0  0  0  0  0  0  # atno 17395 bound_to 11000

$$$$
