AV-unprocessed.smi:1371|AV-procd|sdf|5581|dock1
  -GOLD-   22720 5183D 1   1.00000     0.00000
 Structure written by MMmdl.
 31 31  0  0  0  0  0  0  0  0  1 V2000
  152.0227  145.1860  159.4722 C   0  0  0  0  0  0  0  0  0  0  0  0
  151.3426  144.1383  160.3612 C   0  0  0  0  0  0  0  0  0  0  0  0
  152.1539  143.8793  161.6414 C   0  0  0  0  0  0  0  0  0  0  0  0
  151.2280  142.9506  159.5886 O   0  0  0  0  0  0  0  0  0  0  0  0
  152.4545  142.2740  159.3511 C   0  0  0  0  0  0  0  0  0  0  0  0
  152.1917  141.0811  158.4273 C   0  0  0  0  0  0  0  0  0  0  0  0
  151.0335  141.5117  157.0923 S   0  0  0  0  0  0  0  0  0  0  0  0
  151.2468  140.1709  155.9326 C   0  0  0  0  0  0  0  0  0  0  0  0
  152.4882  139.7254  155.7138 N   0  0  0  0  0  0  0  0  0  0  0  0
  152.6190  138.7096  154.8345 C   0  0  0  0  0  0  0  0  0  0  0  0
  153.9048  138.2311  154.5955 N   0  0  0  0  0  0  0  0  0  0  0  0
  151.5044  138.1470  154.1780 C   0  0  0  0  0  0  0  0  0  0  0  0
  150.2480  138.7067  154.4914 C   0  0  0  0  0  0  0  0  0  0  0  0
  149.0844  138.2239  153.8980 N   0  0  0  0  0  0  0  0  0  0  0  0
  150.1211  139.7227  155.3715 N   0  0  0  0  0  0  0  0  0  0  0  0
  152.1219  146.1391  159.9920 H   0  0  0  0  0  0  0  0  0  0  0  0
  151.4439  145.3622  158.5651 H   0  0  0  0  0  0  0  0  0  0  0  0
  153.0202  144.8628  159.1730 H   0  0  0  0  0  0  0  0  0  0  0  0
  150.3506  144.5095  160.6235 H   0  0  0  0  0  0  0  0  0  0  0  0
  152.3121  144.8047  162.1956 H   0  0  0  0  0  0  0  0  0  0  0  0
  153.1331  143.4603  161.4079 H   0  0  0  0  0  0  0  0  0  0  0  0
  151.6456  143.1870  162.3117 H   0  0  0  0  0  0  0  0  0  0  0  0
  153.1908  142.9377  158.8982 H   0  0  0  0  0  0  0  0  0  0  0  0
  152.8696  141.9195  160.2951 H   0  0  0  0  0  0  0  0  0  0  0  0
  153.1305  140.7467  157.9850 H   0  0  0  0  0  0  0  0  0  0  0  0
  151.7883  140.2493  159.0056 H   0  0  0  0  0  0  0  0  0  0  0  0
  154.7110  138.6246  155.0589 H   0  0  0  0  0  0  0  0  0  0  0  0
  154.0706  137.4700  153.9531 H   0  0  0  0  0  0  0  0  0  0  0  0
  151.6073  137.3338  153.4742 H   0  0  0  0  0  0  0  0  0  0  0  0
  149.1053  137.4656  153.2316 H   0  0  0  0  0  0  0  0  0  0  0  0
  148.1783  138.5996  154.1387 H   0  0  0  0  0  0  0  0  0  0  0  0
  1  2  1  0  0  0  0
  1 16  1  0  0  0  0
  1 17  1  0  0  0  0
  1 18  1  0  0  0  0
  2  3  1  0  0  0  0
  2  4  1  0  0  0  0
  2 19  1  0  0  0  0
  3 20  1  0  0  0  0
  3 21  1  0  0  0  0
  3 22  1  0  0  0  0
  4  5  1  0  0  0  0
  5  6  1  0  0  0  0
  5 23  1  0  0  0  0
  5 24  1  0  0  0  0
  6  7  1  0  0  0  0
  6 25  1  0  0  0  0
  6 26  1  0  0  0  0
  7  8  1  0  0  0  0
  8 15  1  0  0  0  0
  8  9  2  0  0  0  0
  9 10  1  0  0  0  0
 10 11  1  0  0  0  0
 10 12  2  0  0  0  0
 11 27  1  0  0  0  0
 11 28  1  0  0  0  0
 12 13  1  0  0  0  0
 12 29  1  0  0  0  0
 13 14  1  0  0  0  0
 13 15  2  0  0  0  0
 14 30  1  0  0  0  0
 14 31  1  0  0  0  0
M  END
> <s_m_source_file>
AV-unprocessed.smi

> <i_m_source_file_index>
1371

> <i_lp_mmshare_version>
43012

> <i_f3d_flags>
0

> <s_epik_input>
W0NIM11bQ0hdKFtDSDNdKU9bQ0gyXVtDSDJdU2MxbmMoW05IMl0pW2NIXWMobjEpW05IMl0=

> <s_epik_cmdline>
J2VwaWtfcHl0aG9uJywgJy1waCcsICc3LjAnLCAnLXRuJywgJzgnLCAnLW1hJywgJzIwMCcsICctbWV0YWxfYmluZGluZycsICctaW1hZScsICc8aW5maWxlLm1hZT4nLCAnLW9tYWUnLCAnPG91dGZpbGUubWFlPic=

> <r_lp_tautomer_probability>
1

> <r_epik_Ionization_Penalty>
0.00548925

> <r_epik_Ionization_Penalty_Charging>
0

> <r_epik_Ionization_Penalty_Neutral>
0.00548925

> <r_epik_State_Penalty>
0.0040157

> <r_epik_Charging_Adjusted_Penalty>
0.0040157

> <i_epik_Tot_Q>
0

> <i_epik_Tot_abs_Q>
0

> <r_epik_Metal_State_Penalty>
-0

> <b_epik_Metal_Only>
0

> <s_lp_Force_Field>
OPLS_2005

> <r_lp_Energy>
-2.92027

> <b_lp_Chiralities_Consistent>
1

> <s_lp_Variant>
AV-unprocessed.smi:1371-1

> <Gold.Version>
5.8.1

> <Gold.Id.Protein>
6NUR|6NUR_protein|mol2

> <Gold.PLP.Fitness>
40.6670

> <Gold.PLP.PLP>
-35.5552

> <Gold.PLP.part.hbond>
-2.2391

> <Gold.PLP.part.metal>
0.0000

> <Gold.PLP.part.buried>
-5.6225

> <Gold.PLP.part.nonpolar>
-27.7982

> <Gold.PLP.part.repulsive>
0.3125

> <Gold.PLP.ligand.clash>
0.0000

> <Gold.PLP.ligand.torsion>
0.4717

> <Gold.PLP.Chemscore.Hbond>
2.0000

> <Gold.PLP.Chemscore.CHOScore>
0.0000

> <Gold.PLP.Chemscore.Metal>
0.0000

> <Gold.Chemscore.Hbonds>
donor molecule, donor type, donor heavy atom, donor atom, acceptor molecule, acceptor atom, score
      L1  H    14    30       P1  7948  1.00
      P1  H  7997  8009       L1     9  1.00

> <Gold.PLP.Chemscore.Internal.Correction>
0.0552

> <Gold.Rescore>
     Score         DG    S(hbond)    S(metal)    S(lipo)     H(rot)  DE(clash)    DE(int)     intcor
     12.81     -13.36       1.80        0.00      69.94       2.47       0.07       0.49       ----

> <Gold.Chemscore.Fitness>
12.8058

> <Gold.Chemscore.DG>
-13.3644

> <Gold.Chemscore.ZeroCoef>
-5.4800

> <Gold.Chemscore.Hbond>
1.8043

> <Gold.Chemscore.Metal>
0.0000

> <Gold.Chemscore.Lipo>
69.9430

> <Gold.Chemscore.Internal_Hbond>
0.0000

> <Gold.Chemscore.DEClash>
0.0720

> <Gold.Chemscore.DEInternal>
0.4866

> <Gold.Chemscore.Rot>
2.4708

> <Gold.Chemscore.Internal.Correction>
   9.000000E+99

> <Gold.Chemscore.Hbonds>
donor molecule, donor type, donor heavy atom, donor atom, acceptor molecule, acceptor atom, score
      L1  H    14    30       P1  7948  1.00
      P1  H  7997  8009       L1     9  0.39

> <Gold.Chemscore.Hbond.Weighted>
-6.0264

> <Gold.Chemscore.Metal.Weighted>
-0.0000

> <Gold.Chemscore.Lipo.Weighted>
-8.1833

> <Gold.Chemscore.Internal_Hbond.Weighted>
0.0000

> <Gold.Chemscore.DEClash.Weighted>
0.0720

> <Gold.Chemscore.DEInternal.Weighted>
0.4866

> <Gold.Chemscore.Rot.Weighted>
6.3253

> <Gold.Chemscore.Internal.Correction.Weighted>
   9.000000E+99

> <Gold.Protein.RotatedTorsions>
[ 6907 6896 6895 6894 ] final   55.07 input  -60.11 | X-H torsion
[ 7974 7965 7964 7962 ] final  -65.78 input  175.53 | X-H torsion
[ 8008 7997 7996 7995 ] final -153.87 input   59.86 | X-H torsion
[ 10167 10162 10161 10158 ] final  147.32 input  -65.29 | X-H torsion
[ 10718 10713 10712 10709 ] final   64.36 input   66.30 | X-H torsion
[ 10763 10752 10751 10750 ] final -149.01 input  -60.55 | X-H torsion
[ 11005 11000 10999 10996 ] final  144.57 input  -57.11 | X-H torsion

> <Gold.Protein.ActiveResidues>
 VAL166  LYS551  ARG553  GLY616  TRP617  ASP618  TYR619  PRO620  LYS621  CYS622 
 ASP623  PHE694  ASN695  SER759  ASP760  ASP761  ALA762  ILE779  LEU786  VAL792 
 PHE793  MET794  SER795  GLU796  ALA797  LYS798  CYS799  TRP800  GLU811  SER814 

> <Gold.Protein.RotatedAtoms>
  152.3502  134.7016  160.0238 H   0  0  0  0  0  0  0  0  0  0  0  0  # atno 6907 bound_to 6896
  151.7373  133.3315  159.3364 H   0  0  0  0  0  0  0  0  0  0  0  0  # atno 6908 bound_to 6896
  150.7535  134.6243  159.6197 H   0  0  0  0  0  0  0  0  0  0  0  0  # atno 6909 bound_to 6896
  145.7500  140.8913  143.0484 H   0  0  0  0  0  0  0  0  0  0  0  0  # atno 7974 bound_to 7965
  155.6775  140.0740  157.2497 H   0  0  0  0  0  0  0  0  0  0  0  0  # atno 8008 bound_to 7997
  154.4112  140.1688  156.1998 H   0  0  0  0  0  0  0  0  0  0  0  0  # atno 8009 bound_to 7997
  155.9563  140.3373  155.6455 H   0  0  0  0  0  0  0  0  0  0  0  0  # atno 8010 bound_to 7997
  139.4892  144.5764  151.6957 H   0  0  0  0  0  0  0  0  0  0  0  0  # atno 10167 bound_to 10162
  157.6034  130.9155  149.9835 H   0  0  0  0  0  0  0  0  0  0  0  0  # atno 10718 bound_to 10713
  154.8201  135.3320  154.7063 H   0  0  0  0  0  0  0  0  0  0  0  0  # atno 10763 bound_to 10752
  153.7697  135.6926  153.4913 H   0  0  0  0  0  0  0  0  0  0  0  0  # atno 10764 bound_to 10752
  153.2053  135.4501  155.0264 H   0  0  0  0  0  0  0  0  0  0  0  0  # atno 10765 bound_to 10752
  140.0643  134.9187  157.1238 H   0  0  0  0  0  0  0  0  0  0  0  0  # atno 11005 bound_to 11000
  144.6852  139.9579  143.7479 LP  0  0  0  0  0  0  0  0  0  0  0  0  # atno 17320 bound_to 7965
  146.0365  139.3382  143.0723 LP  0  0  0  0  0  0  0  0  0  0  0  0  # atno 17321 bound_to 7965
  140.5361  144.0653  150.6071 LP  0  0  0  0  0  0  0  0  0  0  0  0  # atno 17342 bound_to 10162
  140.3660  143.2881  152.0331 LP  0  0  0  0  0  0  0  0  0  0  0  0  # atno 17343 bound_to 10162
  156.1113  130.3650  150.0044 LP  0  0  0  0  0  0  0  0  0  0  0  0  # atno 17370 bound_to 10713
  156.8142  130.9335  151.3643 LP  0  0  0  0  0  0  0  0  0  0  0  0  # atno 17371 bound_to 10713
  140.3722  134.2377  155.7177 LP  0  0  0  0  0  0  0  0  0  0  0  0  # atno 17394 bound_to 11000
  141.1986  133.8031  157.0574 LP  0  0  0  0  0  0  0  0  0  0  0  0  # atno 17395 bound_to 11000

$$$$
