AV-unprocessed.smi:1983|AV-procd|sdf|8037|dock1
  -GOLD-   2272010233D 1   1.00000     0.00000
 Structure written by MMmdl.
 50 51  0  0  0  0  0  0  0  0  2 V2000
  146.1534  133.6709  151.3683 C   0  0  0  0  0  0  0  0  0  0  0  0
  145.3420  134.9040  151.7942 C   0  0  1  0  0  0  0  0  0  0  0  0
  144.4957  134.6410  153.0553 C   0  0  0  0  0  0  0  0  0  0  0  0
  143.5200  133.6532  152.7989 O   0  0  0  0  0  0  0  0  0  0  0  0
  146.2550  136.0207  152.0234 N   0  0  0  0  0  0  0  0  0  0  0  0
  145.8891  137.2616  152.3747 C   0  0  0  0  0  0  0  0  0  0  0  0
  144.7239  137.6162  152.5526 O   0  0  0  0  0  0  0  0  0  0  0  0
  146.9480  138.0706  152.5208 N   0  0  0  0  0  0  0  0  0  0  0  0
  146.8736  139.4863  152.8710 C   0  0  0  0  0  0  0  0  0  0  0  0
  147.8242  139.9288  153.9767 C   0  0  0  0  0  0  0  0  0  0  0  0
  148.5212  139.0025  154.7847 C   0  0  0  0  0  0  0  0  0  0  0  0
  149.3860  139.4701  155.7955 C   0  0  0  0  0  0  0  0  0  0  0  0
  149.5596  140.8643  155.9878 C   0  0  0  0  0  0  0  0  0  0  0  0
  150.3949  141.4255  156.9781 N   0  0  0  0  0  0  0  0  0  0  0  0
  149.8647  142.5132  157.7944 C   0  0  0  0  0  0  0  0  0  0  0  0
  150.9895  143.2270  158.5694 C   0  0  2  0  0  0  0  0  0  0  0  0
  151.8384  144.1655  157.6928 C   0  0  0  0  0  0  0  0  0  0  0  0
  151.7885  142.2729  159.2710 O   0  0  0  0  0  0  0  0  0  0  0  0
  152.3654  141.2587  158.4505 C   0  0  1  0  0  0  0  0  0  0  0  0
  153.1892  140.3326  159.3513 C   0  0  0  0  0  0  0  0  0  0  0  0
  151.2510  140.4971  157.7121 C   0  0  0  0  0  0  0  0  0  0  0  0
  148.8753  141.7097  155.1791 N   0  3  0  0  0  0  0  0  0  0  0  0
  148.0349  141.3038  154.2031 C   0  0  0  0  0  0  0  0  0  0  0  0
  145.5007  132.8265  151.1452 H   0  0  0  0  0  0  0  0  0  0  0  0
  146.8444  133.3584  152.1518 H   0  0  0  0  0  0  0  0  0  0  0  0
  146.7379  133.8770  150.4710 H   0  0  0  0  0  0  0  0  0  0  0  0
  144.6755  135.1681  150.9706 H   0  0  0  0  0  0  0  0  0  0  0  0
  145.1225  134.3292  153.8913 H   0  0  0  0  0  0  0  0  0  0  0  0
  143.9733  135.5467  153.3655 H   0  0  0  0  0  0  0  0  0  0  0  0
  143.2089  133.3156  153.6251 H   0  0  0  0  0  0  0  0  0  0  0  0
  147.2390  135.8318  151.9010 H   0  0  0  0  0  0  0  0  0  0  0  0
  147.8674  137.6888  152.3522 H   0  0  0  0  0  0  0  0  0  0  0  0
  147.0965  140.0686  151.9768 H   0  0  0  0  0  0  0  0  0  0  0  0
  145.8479  139.7328  153.1511 H   0  0  0  0  0  0  0  0  0  0  0  0
  148.3985  137.9395  154.6399 H   0  0  0  0  0  0  0  0  0  0  0  0
  149.9080  138.7441  156.4003 H   0  0  0  0  0  0  0  0  0  0  0  0
  149.3412  143.2419  157.1746 H   0  0  0  0  0  0  0  0  0  0  0  0
  149.1380  142.1005  158.4955 H   0  0  0  0  0  0  0  0  0  0  0  0
  150.5216  143.8497  159.3324 H   0  0  0  0  0  0  0  0  0  0  0  0
  151.2259  144.9686  157.2827 H   0  0  0  0  0  0  0  0  0  0  0  0
  152.2955  143.6472  156.8503 H   0  0  0  0  0  0  0  0  0  0  0  0
  152.6364  144.6255  158.2759 H   0  0  0  0  0  0  0  0  0  0  0  0
  153.0424  141.7106  157.7255 H   0  0  0  0  0  0  0  0  0  0  0  0
  153.6629  139.5399  158.7718 H   0  0  0  0  0  0  0  0  0  0  0  0
  152.5643  139.8638  160.1122 H   0  0  0  0  0  0  0  0  0  0  0  0
  153.9773  140.8857  159.8628 H   0  0  0  0  0  0  0  0  0  0  0  0
  150.6355  139.9459  158.4243 H   0  0  0  0  0  0  0  0  0  0  0  0
  151.7075  139.7614  157.0502 H   0  0  0  0  0  0  0  0  0  0  0  0
  147.5536  142.0903  153.6398 H   0  0  0  0  0  0  0  0  0  0  0  0
  148.9958  142.7130  155.3197 H   0  0  0  0  0  0  0  0  0  0  0  0
  1  2  1  0  0  0  0
  1 24  1  0  0  0  0
  1 25  1  0  0  0  0
  1 26  1  0  0  0  0
  2  3  1  0  0  0  0
  2  5  1  0  0  0  0
  2 27  1  0  0  0  0
  3  4  1  0  0  0  0
  3 28  1  0  0  0  0
  3 29  1  0  0  0  0
  4 30  1  0  0  0  0
  5  6  1  0  0  0  0
  5 31  1  0  0  0  0
  6  7  2  0  0  0  0
  6  8  1  0  0  0  0
  8  9  1  0  0  0  0
  8 32  1  0  0  0  0
  9 10  1  0  0  0  0
  9 33  1  0  0  0  0
  9 34  1  0  0  0  0
 10 23  1  0  0  0  0
 10 11  2  0  0  0  0
 11 12  1  0  0  0  0
 11 35  1  0  0  0  0
 12 13  2  0  0  0  0
 12 36  1  0  0  0  0
 13 14  1  0  0  0  0
 13 22  1  0  0  0  0
 14 21  1  0  0  0  0
 14 15  1  0  0  0  0
 15 16  1  0  0  0  0
 15 37  1  0  0  0  0
 15 38  1  0  0  0  0
 16 17  1  0  0  0  0
 16 18  1  0  0  0  0
 16 39  1  0  0  0  0
 17 40  1  0  0  0  0
 17 41  1  0  0  0  0
 17 42  1  0  0  0  0
 18 19  1  0  0  0  0
 19 20  1  0  0  0  0
 19 21  1  0  0  0  0
 19 43  1  0  0  0  0
 20 44  1  0  0  0  0
 20 45  1  0  0  0  0
 20 46  1  0  0  0  0
 21 47  1  0  0  0  0
 21 48  1  0  0  0  0
 22 23  2  0  0  0  0
 22 50  1  0  0  0  0
 23 49  1  0  0  0  0
M  CHG  1  22   1
M  END
> <s_m_source_file>
AV-unprocessed.smi

> <i_m_source_file_index>
1983

> <i_lp_mmshare_version>
43012

> <i_f3d_flags>
0

> <s_epik_input>
W09IXVtDSDJdW0NAQEhdKFtDSDNdKVtOSF1DKD1PKVtOSF1bQ0gyXWMxW2NIXVtjSF1jKG5bY0hdMSlOMltDSDJdW0NAQEhdKFtDSDNdKU9bQ0BASF0oW0NIM10pW0NIMl0y

> <s_epik_cmdline>
J2VwaWtfcHl0aG9uJywgJy1waCcsICc3LjAnLCAnLXRuJywgJzgnLCAnLW1hJywgJzIwMCcsICctbWV0YWxfYmluZGluZycsICctaW1hZScsICc8aW5maWxlLm1hZT4nLCAnLW9tYWUnLCAnPG91dGZpbGUubWFlPic=

> <r_lp_tautomer_probability>
0.999994

> <r_epik_Ionization_Penalty>
2.55677

> <r_epik_Ionization_Penalty_Charging>
2.55673

> <r_epik_Ionization_Penalty_Neutral>
3.71772e-05

> <r_epik_State_Penalty>
2.72571

> <r_epik_Charging_Adjusted_Penalty>
5.28244

> <i_epik_Tot_Q>
1

> <i_epik_Tot_abs_Q>
1

> <r_epik_Metal_State_Penalty>
2.73364

> <b_epik_Metal_Only>
0

> <s_lp_Force_Field>
OPLS_2005

> <r_lp_Energy>
21.2151

> <b_lp_Chiralities_Consistent>
1

> <s_lp_Variant>
AV-unprocessed.smi:1983-10

> <Gold.Version>
5.8.1

> <Gold.Id.Protein>
6NUR|6NUR_protein|mol2

> <Gold.PLP.Fitness>
48.3324

> <Gold.PLP.PLP>
-33.7984

> <Gold.PLP.part.hbond>
-3.9731

> <Gold.PLP.part.metal>
0.0000

> <Gold.PLP.part.buried>
-7.4926

> <Gold.PLP.part.nonpolar>
-25.8265

> <Gold.PLP.part.repulsive>
1.6834

> <Gold.PLP.ligand.clash>
0.0000

> <Gold.PLP.ligand.torsion>
0.4517

> <Gold.PLP.Chemscore.Hbond>
4.9920

> <Gold.PLP.Chemscore.CHOScore>
0.0000

> <Gold.PLP.Chemscore.Metal>
0.0000

> <Gold.Chemscore.Hbonds>
donor molecule, donor type, donor heavy atom, donor atom, acceptor molecule, acceptor atom, score
      L1  H     4    30       P1 10957  0.99
      L1  H     5    31       P1  7948  1.00
      L1  H     8    32       P1  7948  1.00
      L1  H    22    50       P1  8028  1.98

> <Gold.PLP.Chemscore.Internal.Correction>
0.4615

> <Gold.Rescore>
     Score         DG    S(hbond)    S(metal)    S(lipo)     H(rot)  DE(clash)    DE(int)     intcor
     20.99     -21.54       3.80        0.00      87.17       2.66       0.08       0.48       ----

> <Gold.Chemscore.Fitness>
20.9850

> <Gold.Chemscore.DG>
-21.5423

> <Gold.Chemscore.ZeroCoef>
-5.4800

> <Gold.Chemscore.Hbond>
3.7972

> <Gold.Chemscore.Metal>
0.0000

> <Gold.Chemscore.Lipo>
87.1685

> <Gold.Chemscore.Internal_Hbond>
0.0000

> <Gold.Chemscore.DEClash>
0.0818

> <Gold.Chemscore.DEInternal>
0.4755

> <Gold.Chemscore.Rot>
2.6637

> <Gold.Chemscore.Internal.Correction>
   9.000000E+99

> <Gold.Chemscore.Hbonds>
donor molecule, donor type, donor heavy atom, donor atom, acceptor molecule, acceptor atom, score
      L1  H     4    30       P1 10957  0.89
      L1  H     5    31       P1  7948  0.99
      L1  H     8    32       P1  7948  0.94
      L1  H    22    50       P1  8028  0.93

> <Gold.Chemscore.Hbond.Weighted>
-12.6827

> <Gold.Chemscore.Metal.Weighted>
-0.0000

> <Gold.Chemscore.Lipo.Weighted>
-10.1987

> <Gold.Chemscore.Internal_Hbond.Weighted>
0.0000

> <Gold.Chemscore.DEClash.Weighted>
0.0818

> <Gold.Chemscore.DEInternal.Weighted>
0.4755

> <Gold.Chemscore.Rot.Weighted>
6.8191

> <Gold.Chemscore.Internal.Correction.Weighted>
   9.000000E+99

> <Gold.Protein.RotatedTorsions>
[ 6907 6896 6895 6894 ] final -163.10 input  -60.11 | X-H torsion
[ 7974 7965 7964 7962 ] final  142.54 input  175.53 | X-H torsion
[ 8008 7997 7996 7995 ] final  173.51 input   59.86 | X-H torsion
[ 10167 10162 10161 10158 ] final  -92.87 input  -65.29 | X-H torsion
[ 10718 10713 10712 10709 ] final  -67.04 input   66.30 | X-H torsion
[ 10763 10752 10751 10750 ] final  119.27 input  -60.55 | X-H torsion
[ 11005 11000 10999 10996 ] final   58.18 input  -57.11 | X-H torsion

> <Gold.Protein.ActiveResidues>
 VAL166  LYS551  ARG553  GLY616  TRP617  ASP618  TYR619  PRO620  LYS621  CYS622 
 ASP623  PHE694  ASN695  SER759  ASP760  ASP761  ALA762  ILE779  LEU786  VAL792 
 PHE793  MET794  SER795  GLU796  ALA797  LYS798  CYS799  TRP800  GLU811  SER814 

> <Gold.Protein.RotatedAtoms>
  151.3907  133.3790  159.2720 H   0  0  0  0  0  0  0  0  0  0  0  0  # atno 6907 bound_to 6896
  150.9507  134.8908  159.7680 H   0  0  0  0  0  0  0  0  0  0  0  0  # atno 6908 bound_to 6896
  152.5110  134.3862  159.9420 H   0  0  0  0  0  0  0  0  0  0  0  0  # atno 6909 bound_to 6896
  144.8999  139.5438  143.5759 H   0  0  0  0  0  0  0  0  0  0  0  0  # atno 7974 bound_to 7965
  156.1068  140.1458  156.9393 H   0  0  0  0  0  0  0  0  0  0  0  0  # atno 8008 bound_to 7997
  154.4739  140.0901  156.7258 H   0  0  0  0  0  0  0  0  0  0  0  0  # atno 8009 bound_to 7997
  155.4666  140.3440  155.4322 H   0  0  0  0  0  0  0  0  0  0  0  0  # atno 8010 bound_to 7997
  140.3304  143.2998  151.9948 H   0  0  0  0  0  0  0  0  0  0  0  0  # atno 10167 bound_to 10162
  156.0579  130.4271  150.1796 H   0  0  0  0  0  0  0  0  0  0  0  0  # atno 10718 bound_to 10713
  153.5805  135.3485  155.2873 H   0  0  0  0  0  0  0  0  0  0  0  0  # atno 10763 bound_to 10752
  154.8668  135.4181  154.2626 H   0  0  0  0  0  0  0  0  0  0  0  0  # atno 10764 bound_to 10752
  153.3411  135.7050  153.6937 H   0  0  0  0  0  0  0  0  0  0  0  0  # atno 10765 bound_to 10752
  140.0397  134.5892  155.9398 H   0  0  0  0  0  0  0  0  0  0  0  0  # atno 11005 bound_to 11000
  146.3102  139.7720  142.9025 LP  0  0  0  0  0  0  0  0  0  0  0  0  # atno 17320 bound_to 7965
  145.3635  141.0330  143.3271 LP  0  0  0  0  0  0  0  0  0  0  0  0  # atno 17321 bound_to 7965
  139.4857  144.6240  151.7201 LP  0  0  0  0  0  0  0  0  0  0  0  0  # atno 17342 bound_to 10162
  140.5402  144.0591  150.6085 LP  0  0  0  0  0  0  0  0  0  0  0  0  # atno 17343 bound_to 10162
  156.9869  130.9881  151.3424 LP  0  0  0  0  0  0  0  0  0  0  0  0  # atno 17370 bound_to 10713
  157.5565  130.8217  149.8210 LP  0  0  0  0  0  0  0  0  0  0  0  0  # atno 17371 bound_to 10713
  141.1876  133.6560  156.5289 LP  0  0  0  0  0  0  0  0  0  0  0  0  # atno 17394 bound_to 11000
  140.4090  134.7289  157.4824 LP  0  0  0  0  0  0  0  0  0  0  0  0  # atno 17395 bound_to 11000

$$$$
