AV-unprocessed.smi:221|AV-procd|sdf|1698|dock6
  -GOLD-   2262020153D 1   1.00000     0.00000
 Structure written by MMmdl.
 50 53  0  0  0  0  0  0  0  0  1 V2000
  142.2666  134.5432  154.5371 N   0  0  0  0  0  0  0  0  0  0  0  0
  142.6896  135.5955  153.8328 C   0  0  0  0  0  0  0  0  0  0  0  0
  142.4100  136.7501  154.1512 O   0  0  0  0  0  0  0  0  0  0  0  0
  143.5661  135.2999  152.6071 C   0  0  2  0  0  0  0  0  0  0  0  0
  143.1374  134.0113  151.8925 C   0  0  0  0  0  0  0  0  0  0  0  0
  144.4049  133.5867  151.1598 C   0  0  1  0  0  0  0  0  0  0  0  0
  144.5194  134.2803  150.0261 F   0  0  0  0  0  0  0  0  0  0  0  0
  145.5188  133.9973  152.1245 C   0  0  0  0  0  0  0  0  0  0  0  0
  144.9639  135.0524  152.9696 N   0  0  0  0  0  0  0  0  0  0  0  0
  145.7327  136.1541  153.1218 C   0  0  0  0  0  0  0  0  0  0  0  0
  145.9205  137.0026  152.0767 N   0  0  0  0  0  0  0  0  0  0  0  0
  146.6749  138.0948  152.2334 C   0  0  0  0  0  0  0  0  0  0  0  0
  147.3183  138.5158  153.3248 N   0  0  0  0  0  0  0  0  0  0  0  0
  147.1296  137.6627  154.3727 C   0  0  0  0  0  0  0  0  0  0  0  0
  146.3565  136.4690  154.3565 C   0  0  0  0  0  0  0  0  0  0  0  0
  146.3907  135.8593  155.6039 N   0  0  0  0  0  0  0  0  0  0  0  0
  147.1442  136.6489  156.3198 C   0  0  0  0  0  0  0  0  0  0  0  0
  147.6371  137.7506  155.6572 N   0  0  0  0  0  0  0  0  0  0  0  0
  148.5016  138.7787  156.2101 C   0  0  0  0  0  0  0  0  0  0  0  0
  149.1628  139.6666  155.1267 C   0  0  1  0  0  0  0  0  0  0  0  0
  149.1973  141.1646  155.5177 C   0  0  0  0  0  0  0  0  0  0  0  0
  148.9629  141.9961  154.3996 O   0  0  0  0  0  0  0  0  0  0  0  0
  150.5625  139.1352  154.7270 C   0  0  1  0  0  0  0  0  0  0  0  0
  151.6255  139.2565  155.8047 C   0  0  0  0  0  0  0  0  0  0  0  0
  152.6850  138.2756  155.3164 C   0  0  0  0  0  0  0  0  0  0  0  0
  151.9648  137.2230  154.6859 O   0  0  0  0  0  0  0  0  0  0  0  0
  150.6207  137.6294  154.4446 C   0  0  0  0  0  0  0  0  0  0  0  0
  143.5037  136.1338  151.9045 H   0  0  0  0  0  0  0  0  0  0  0  0
  144.4245  132.5276  150.9015 H   0  0  0  0  0  0  0  0  0  0  0  0
  141.6865  134.6864  155.3509 H   0  0  0  0  0  0  0  0  0  0  0  0
  142.5260  133.6093  154.2543 H   0  0  0  0  0  0  0  0  0  0  0  0
  142.8585  133.2397  152.6128 H   0  0  0  0  0  0  0  0  0  0  0  0
  142.2926  134.1616  151.2196 H   0  0  0  0  0  0  0  0  0  0  0  0
  145.7743  133.1599  152.7745 H   0  0  0  0  0  0  0  0  0  0  0  0
  146.4300  134.2815  151.5945 H   0  0  0  0  0  0  0  0  0  0  0  0
  146.7769  138.7213  151.3598 H   0  0  0  0  0  0  0  0  0  0  0  0
  147.3685  136.4451  157.3569 H   0  0  0  0  0  0  0  0  0  0  0  0
  147.9194  139.3924  156.8986 H   0  0  0  0  0  0  0  0  0  0  0  0
  149.2609  138.2787  156.8117 H   0  0  0  0  0  0  0  0  0  0  0  0
  148.5306  139.5989  154.2401 H   0  0  0  0  0  0  0  0  0  0  0  0
  148.4478  141.3850  156.2776 H   0  0  0  0  0  0  0  0  0  0  0  0
  150.1568  141.4338  155.9590 H   0  0  0  0  0  0  0  0  0  0  0  0
  148.9240  142.8932  154.6939 H   0  0  0  0  0  0  0  0  0  0  0  0
  150.9160  139.6678  153.8423 H   0  0  0  0  0  0  0  0  0  0  0  0
  152.0161  140.2685  155.9139 H   0  0  0  0  0  0  0  0  0  0  0  0
  151.2322  138.9337  156.7699 H   0  0  0  0  0  0  0  0  0  0  0  0
  153.3278  138.7497  154.5736 H   0  0  0  0  0  0  0  0  0  0  0  0
  153.3162  137.9033  156.1234 H   0  0  0  0  0  0  0  0  0  0  0  0
  149.9732  137.0805  155.1297 H   0  0  0  0  0  0  0  0  0  0  0  0
  150.3158  137.3862  153.4267 H   0  0  0  0  0  0  0  0  0  0  0  0
  1  2  1  0  0  0  0
  1 30  1  0  0  0  0
  1 31  1  0  0  0  0
  2  3  2  0  0  0  0
  2  4  1  0  0  0  0
  4 28  1  0  0  0  0
  4  9  1  0  0  0  0
  4  5  1  0  0  0  0
  5  6  1  0  0  0  0
  5 32  1  0  0  0  0
  5 33  1  0  0  0  0
  6 29  1  0  0  0  0
  6  7  1  0  0  0  0
  6  8  1  0  0  0  0
  8  9  1  0  0  0  0
  8 34  1  0  0  0  0
  8 35  1  0  0  0  0
  9 10  1  0  0  0  0
 10 15  1  0  0  0  0
 10 11  2  0  0  0  0
 11 12  1  0  0  0  0
 12 13  2  0  0  0  0
 12 36  1  0  0  0  0
 13 14  1  0  0  0  0
 14 18  1  0  0  0  0
 14 15  2  0  0  0  0
 15 16  1  0  0  0  0
 16 17  2  0  0  0  0
 17 18  1  0  0  0  0
 17 37  1  0  0  0  0
 18 19  1  0  0  0  0
 19 20  1  0  0  0  0
 19 38  1  0  0  0  0
 19 39  1  0  0  0  0
 20 21  1  0  0  0  0
 20 23  1  0  0  0  0
 20 40  1  0  0  0  0
 21 22  1  0  0  0  0
 21 41  1  0  0  0  0
 21 42  1  0  0  0  0
 22 43  1  0  0  0  0
 23 27  1  0  0  0  0
 23 24  1  0  0  0  0
 23 44  1  0  0  0  0
 24 25  1  0  0  0  0
 24 45  1  0  0  0  0
 24 46  1  0  0  0  0
 25 26  1  0  0  0  0
 25 47  1  0  0  0  0
 25 48  1  0  0  0  0
 26 27  1  0  0  0  0
 27 49  1  0  0  0  0
 27 50  1  0  0  0  0
M  END
> <s_m_source_file>
AV-unprocessed.smi

> <i_m_source_file_index>
221

> <i_lp_mmshare_version>
43012

> <i_f3d_flags>
0

> <s_epik_input>
W05IMl1DKD1PKVtDQEBIXTFbQ0gyXVtDQEBIXShGKVtDSDJdTjFjKG5bY0hdbjIpYyhjMjMpbltjSF1uM1tDSDJdW0NASF0oW0NIMl1bT0hdKVtDQEBIXTRbQ0gyXVtDSDJdT1tDSDJdNA==

> <s_epik_cmdline>
J2VwaWtfcHl0aG9uJywgJy1waCcsICc3LjAnLCAnLXRuJywgJzgnLCAnLW1hJywgJzIwMCcsICctbWV0YWxfYmluZGluZycsICctaW1hZScsICc8aW5maWxlLm1hZT4nLCAnLW9tYWUnLCAnPG91dGZpbGUubWFlPic=

> <r_lp_tautomer_probability>
1

> <r_epik_Ionization_Penalty>
0.000818822

> <r_epik_Ionization_Penalty_Charging>
0

> <r_epik_Ionization_Penalty_Neutral>
0.000818822

> <r_epik_State_Penalty>
0.000440551

> <r_epik_Charging_Adjusted_Penalty>
0.000440551

> <i_epik_Tot_Q>
0

> <i_epik_Tot_abs_Q>
0

> <r_epik_Metal_State_Penalty>
-0

> <b_epik_Metal_Only>
0

> <s_lp_Force_Field>
OPLS_2005

> <r_lp_Energy>
50.4935

> <b_lp_Chiralities_Consistent>
1

> <s_lp_Variant>
AV-unprocessed.smi:221-13

> <Gold.Version>
5.8.1

> <Gold.Id.Protein>
6NUR|6NUR_protein|mol2

> <Gold.PLP.Fitness>
45.9757

> <Gold.PLP.PLP>
-37.3809

> <Gold.PLP.part.hbond>
-5.0000

> <Gold.PLP.part.metal>
0.0000

> <Gold.PLP.part.buried>
-1.6866

> <Gold.PLP.part.nonpolar>
-31.7661

> <Gold.PLP.part.repulsive>
0.8126

> <Gold.PLP.ligand.clash>
0.0000

> <Gold.PLP.ligand.torsion>
1.9602

> <Gold.PLP.Chemscore.Hbond>
4.0953

> <Gold.PLP.Chemscore.CHOScore>
0.0000

> <Gold.PLP.Chemscore.Metal>
0.0000

> <Gold.Chemscore.Hbonds>
donor molecule, donor type, donor heavy atom, donor atom, acceptor molecule, acceptor atom, score
      L1  H     1    30       P1 11000  1.00
      L1  H     1    31       P1 10957  0.91
      L1  H    22    43       P1  8028  0.96
      P1  H  8011  8017       L1    22  0.13
      P1  H 10752 10764       L1    26  0.88

> <Gold.PLP.Chemscore.Internal.Correction>
0.2294

> <Gold.Rescore>
     Score         DG    S(hbond)    S(metal)    S(lipo)     H(rot)  DE(clash)    DE(int)     intcor
     11.18     -14.61       3.35        0.00      63.82       3.72       0.02       3.41       ----

> <Gold.Chemscore.Fitness>
11.1828

> <Gold.Chemscore.DG>
-14.6122

> <Gold.Chemscore.ZeroCoef>
-5.4800

> <Gold.Chemscore.Hbond>
3.3500

> <Gold.Chemscore.Metal>
0.0000

> <Gold.Chemscore.Lipo>
63.8202

> <Gold.Chemscore.Internal_Hbond>
0.0000

> <Gold.Chemscore.DEClash>
0.0170

> <Gold.Chemscore.DEInternal>
3.4125

> <Gold.Chemscore.Rot>
3.7202

> <Gold.Chemscore.Internal.Correction>
   9.000000E+99

> <Gold.Chemscore.Hbonds>
donor molecule, donor type, donor heavy atom, donor atom, acceptor molecule, acceptor atom, score
      L1  H     1    30       P1 11000  0.53
      L1  H     1    31       P1 10957  0.89
      L1  H    22    43       P1  8028  0.91
      P1  H  8011  8017       L1    22  0.02
      P1  H 10752 10764       L1    26  0.80

> <Gold.Chemscore.Hbond.Weighted>
-11.1890

> <Gold.Chemscore.Metal.Weighted>
-0.0000

> <Gold.Chemscore.Lipo.Weighted>
-7.4670

> <Gold.Chemscore.Internal_Hbond.Weighted>
0.0000

> <Gold.Chemscore.DEClash.Weighted>
0.0170

> <Gold.Chemscore.DEInternal.Weighted>
3.4125

> <Gold.Chemscore.Rot.Weighted>
9.5237

> <Gold.Chemscore.Internal.Correction.Weighted>
   9.000000E+99

> <Gold.Protein.RotatedTorsions>
[ 6907 6896 6895 6894 ] final   53.73 input  -60.11 | X-H torsion
[ 7974 7965 7964 7962 ] final -138.27 input  175.53 | X-H torsion
[ 8008 7997 7996 7995 ] final  -29.65 input   59.86 | X-H torsion
[ 10167 10162 10161 10158 ] final    9.57 input  -65.29 | X-H torsion
[ 10718 10713 10712 10709 ] final  -65.73 input   66.30 | X-H torsion
[ 10763 10752 10751 10750 ] final  -81.15 input  -60.55 | X-H torsion
[ 11005 11000 10999 10996 ] final  160.32 input  -57.11 | X-H torsion

> <Gold.Protein.ActiveResidues>
 VAL166  LYS551  ARG553  GLY616  TRP617  ASP618  TYR619  PRO620  LYS621  CYS622 
 ASP623  PHE694  ASN695  SER759  ASP760  ASP761  ALA762  ILE779  LEU786  VAL792 
 PHE793  MET794  SER795  GLU796  ALA797  LYS798  CYS799  TRP800  GLU811  SER814 

> <Gold.Protein.RotatedAtoms>
  152.3366  134.7189  160.0274 H   0  0  0  0  0  0  0  0  0  0  0  0  # atno 6907 bound_to 6896
  151.7588  133.3327  159.3420 H   0  0  0  0  0  0  0  0  0  0  0  0  # atno 6908 bound_to 6896
  150.7454  134.6057  159.6104 H   0  0  0  0  0  0  0  0  0  0  0  0  # atno 6909 bound_to 6896
  144.8773  140.6455  143.5229 H   0  0  0  0  0  0  0  0  0  0  0  0  # atno 7974 bound_to 7965
  154.4281  140.1812  156.1282 H   0  0  0  0  0  0  0  0  0  0  0  0  # atno 8008 bound_to 7997
  156.0089  140.3352  155.6895 H   0  0  0  0  0  0  0  0  0  0  0  0  # atno 8009 bound_to 7997
  155.6139  140.0653  157.2689 H   0  0  0  0  0  0  0  0  0  0  0  0  # atno 8010 bound_to 7997
  140.6247  143.8128  150.7218 H   0  0  0  0  0  0  0  0  0  0  0  0  # atno 10167 bound_to 10162
  156.0653  130.4251  150.1606 H   0  0  0  0  0  0  0  0  0  0  0  0  # atno 10718 bound_to 10713
  154.5600  135.5636  153.6999 H   0  0  0  0  0  0  0  0  0  0  0  0  # atno 10763 bound_to 10752
  153.0015  135.6271  154.2258 H   0  0  0  0  0  0  0  0  0  0  0  0  # atno 10764 bound_to 10752
  154.2195  135.2870  155.2909 H   0  0  0  0  0  0  0  0  0  0  0  0  # atno 10765 bound_to 10752
  140.2048  134.8311  157.3057 H   0  0  0  0  0  0  0  0  0  0  0  0  # atno 11005 bound_to 11000
  145.4020  139.1596  143.4172 LP  0  0  0  0  0  0  0  0  0  0  0  0  # atno 17320 bound_to 7965
  146.2971  140.4117  142.8718 LP  0  0  0  0  0  0  0  0  0  0  0  0  # atno 17321 bound_to 7965
  140.1726  143.4182  152.1990 LP  0  0  0  0  0  0  0  0  0  0  0  0  # atno 17342 bound_to 10162
  139.5469  144.7306  151.4555 LP  0  0  0  0  0  0  0  0  0  0  0  0  # atno 17343 bound_to 10162
  156.9667  130.9822  151.3467 LP  0  0  0  0  0  0  0  0  0  0  0  0  # atno 17370 bound_to 10713
  157.5690  130.8297  149.8366 LP  0  0  0  0  0  0  0  0  0  0  0  0  # atno 17371 bound_to 10713
  140.2014  134.4249  155.7660 LP  0  0  0  0  0  0  0  0  0  0  0  0  # atno 17394 bound_to 11000
  141.2227  133.7074  156.8190 LP  0  0  0  0  0  0  0  0  0  0  0  0  # atno 17395 bound_to 11000

$$$$
