#       Name:                AV-unprocessed.smi:3245
#       Creating user name   scv26
#       Creation time:       Fri Mar 27 18:28:15 2020


#       File generated by GOLD software.
#

@<TRIPOS>MOLECULE
AV-unprocessed.smi:3245
    41    42     1
SMALL
NO_CHARGES


@<TRIPOS>ATOM
      1 ****        -1.4072  -0.9673   2.1866 C.3            1 S1                 0.0000
      2 ****        -0.9830   0.1209   1.1858 C.3            1 S1                 0.0000
      3 ****        -1.4376  -0.1835  -0.2612 C.3            1 S1                 0.0000
      4 ****        -2.8704  -0.3865  -0.3710 N.pl3          1 S1                 0.0000
      5 ****        -3.5570  -1.5645  -0.5791 C.2            1 S1                 0.0000
      6 ****        -4.8872  -1.2580  -0.6147 C.2            1 S1                 0.0000
      7 ****        -4.9145   0.1514  -0.4207 C.2            1 S1                 0.0000
      8 ****        -3.7058   0.6703  -0.2763 N.2            1 S1                 0.0000
      9 ****         0.4697   0.2213   1.2375 N.3            1 S1                 0.0000
     10 ****         0.9429   1.5282   0.8022 C.3            1 S1                 0.0000
     11 ****         2.4806   1.5405   0.7392 C.3            1 S1                 0.0000
     12 ****         2.9882   0.7519  -0.3898 N.am           1 S1                 0.0000
     13 ****         3.4629  -0.4971  -0.2890 C.2            1 S1                 0.0000
     14 ****         3.5740  -1.1783   0.7298 O.2            1 S1                 0.0000
     15 ****         3.8542  -0.9743  -1.6706 C.3            1 S1                 0.0000
     16 ****         3.5043   0.2039  -2.4340 N.am           1 S1                 0.0000
     17 ****         3.0059   1.1808  -1.6653 C.2            1 S1                 0.0000
     18 ****         2.6282   2.2786  -2.0722 O.2            1 S1                 0.0000
     19 ****        -2.4925  -1.0478   2.2518 H              1 S1                 0.0000
     20 ****        -1.0428  -0.7432   3.1898 H              1 S1                 0.0000
     21 ****        -1.0178  -1.9452   1.9008 H              1 S1                 0.0000
     22 ****        -1.4180   1.0648   1.5180 H              1 S1                 0.0000
     23 ****        -1.1630   0.6238  -0.9403 H              1 S1                 0.0000
     24 ****        -0.9376  -1.0799  -0.6313 H              1 S1                 0.0000
     25 ****        -3.0475  -2.5116  -0.6802 H              1 S1                 0.0000
     26 ****        -5.7144  -1.9370  -0.7587 H              1 S1                 0.0000
     27 ****        -5.7708   0.8086  -0.3810 H              1 S1                 0.0000
     28 ****         0.7880   0.0584   2.1822 H              1 S1                 0.0000
     29 ****         0.5268   1.7982  -0.1679 H              1 S1                 0.0000
     30 ****         0.5994   2.2786   1.5153 H              1 S1                 0.0000
     31 ****         2.8250   2.5700   0.6299 H              1 S1                 0.0000
     32 ****         2.9040   1.1925   1.6831 H              1 S1                 0.0000
     33 ****         4.9201  -1.1945  -1.7352 H              1 S1                 0.0000
     34 ****         3.2690  -1.8415  -1.9776 H              1 S1                 0.0000
     35 ****         3.6224   0.2668  -3.4348 H              1 S1                 0.0000
     36 ****        -3.4650   1.6298  -0.1299 LP             1 S1                 0.0000
     37 ****         0.8392  -0.4691   0.6156 LP             1 S1                 0.0000
     38 ****         3.2921  -0.8054   1.6138 LP             1 S1                 0.0000
     39 ****         3.9462  -2.1047   0.6737 LP             1 S1                 0.0000
     40 ****         2.2643   2.9522  -1.4289 LP             1 S1                 0.0000
     41 ****         2.6851   2.4974  -3.0463 LP             1 S1                 0.0000
@<TRIPOS>BOND
    1    1    2 1     
    2    1   19 1     
    3    1   20 1     
    4    1   21 1     
    5    2    3 1     
    6    2    9 1     
    7    2   22 1     
    8    3    4 1     
    9    3   23 1     
   10    3   24 1     
   11    4    8 1     
   12    4    5 1     
   13    5    6 2     
   14    5   25 1     
   15    6    7 1     
   16    6   26 1     
   17    7    8 2     
   18    7   27 1     
   19    9   10 1     
   20    9   28 1     
   21   10   11 1     
   22   10   29 1     
   23   10   30 1     
   24   11   12 1     
   25   11   31 1     
   26   11   32 1     
   27   12   17 am    
   28   12   13 am    
   29   13   14 2     
   30   13   15 1     
   31   15   16 1     
   32   15   33 1     
   33   15   34 1     
   34   16   17 am    
   35   16   35 1     
   36   17   18 2     
   37    8   36 1     
   38    9   37 1     
   39   14   38 1     
   40   14   39 1     
   41   18   40 1     
   42   18   41 1     
@<TRIPOS>SUBSTRUCTURE
      1 S1             1
@<TRIPOS>SET
LONE_PAIRS      STATIC     ATOMS    <user>   **** ""
6 36 37 38 39 40 41
DONOR_HYDROGENS      STATIC     ATOMS    <user>   **** ""
2 28 35
ATOM$BLUE        STATIC     ATOMS    COLORGROUP SYSTEM
6 36 37 38 39 40 41
ATOM$RED        STATIC     ATOMS    COLORGROUP SYSTEM
2 28 35
