AV-unprocessed.smi:2226|AV-procd|sdf|9015|dock4
  -GOLD-   2272012223D 1   1.00000     0.00000
 Structure written by MMmdl.
 40 42  0  0  0  0  0  0  0  0  2 V2000
  146.7184  133.4475  151.3412 C   0  0  0  0  0  0  0  0  0  0  0  0
  146.5396  134.8312  151.8423 N   0  3  1  0  0  0  0  0  0  0  0  0
  145.6027  135.6641  151.0514 C   0  0  2  0  0  0  0  0  0  0  0  0
  145.8279  137.1530  151.4044 C   0  0  0  0  0  0  0  0  0  0  0  0
  145.7740  137.4561  152.9146 C   0  0  0  0  0  0  0  0  0  0  0  0
  146.4846  136.3814  153.7591 C   0  0  0  0  0  0  0  0  0  0  0  0
  146.2176  134.9341  153.2854 C   0  0  1  0  0  0  0  0  0  0  0  0
  144.7990  134.3904  153.5912 C   0  0  0  0  0  0  0  0  0  0  0  0
  143.6696  134.8605  152.6352 C   0  0  1  0  0  0  0  0  0  0  0  0
  142.8830  135.9643  153.1810 N   0  0  0  0  0  0  0  0  0  0  0  0
  141.6753  135.8724  153.7582 C   0  0  0  0  0  0  0  0  0  0  0  0
  141.0961  134.7882  153.8791 O   0  0  0  0  0  0  0  0  0  0  0  0
  141.2570  137.1263  154.1787 N   0  0  0  0  0  0  0  0  0  0  0  0
  139.9919  137.4159  154.2008 C   0  0  0  0  0  0  0  0  0  0  0  0
  138.8461  136.6937  153.8769 N   0  0  0  0  0  0  0  0  0  0  0  0
  137.7608  137.4946  154.0983 C   0  0  0  0  0  0  0  0  0  0  0  0
  138.1990  138.6687  154.5419 C   0  0  0  0  0  0  0  0  0  0  0  0
  139.5596  138.6508  154.6139 O   0  0  0  0  0  0  0  0  0  0  0  0
  144.1427  135.1650  151.1927 C   0  0  0  0  0  0  0  0  0  0  0  0
  145.8038  132.8594  151.4145 H   0  0  0  0  0  0  0  0  0  0  0  0
  147.4952  132.9358  151.9098 H   0  0  0  0  0  0  0  0  0  0  0  0
  147.0292  133.4592  150.2963 H   0  0  0  0  0  0  0  0  0  0  0  0
  145.8755  135.5588  150.0003 H   0  0  0  0  0  0  0  0  0  0  0  0
  146.8137  137.4423  151.0378 H   0  0  0  0  0  0  0  0  0  0  0  0
  145.1161  137.7835  150.8704 H   0  0  0  0  0  0  0  0  0  0  0  0
  146.2302  138.4279  153.1056 H   0  0  0  0  0  0  0  0  0  0  0  0
  144.7466  137.5731  153.2417 H   0  0  0  0  0  0  0  0  0  0  0  0
  147.5587  136.5637  153.7035 H   0  0  0  0  0  0  0  0  0  0  0  0
  146.2179  136.4946  154.8103 H   0  0  0  0  0  0  0  0  0  0  0  0
  146.9249  134.3042  153.8270 H   0  0  0  0  0  0  0  0  0  0  0  0
  144.8459  133.3031  153.5243 H   0  0  0  0  0  0  0  0  0  0  0  0
  144.5410  134.5865  154.6326 H   0  0  0  0  0  0  0  0  0  0  0  0
  142.9639  134.0316  152.5477 H   0  0  0  0  0  0  0  0  0  0  0  0
  143.2946  136.8845  153.1186 H   0  0  0  0  0  0  0  0  0  0  0  0
  138.7791  135.7471  153.5318 H   0  0  0  0  0  0  0  0  0  0  0  0
  136.7628  137.1275  153.9090 H   0  0  0  0  0  0  0  0  0  0  0  0
  137.6939  139.5769  154.8357 H   0  0  0  0  0  0  0  0  0  0  0  0
  143.4581  135.8567  150.6993 H   0  0  0  0  0  0  0  0  0  0  0  0
  144.0564  134.2415  150.6194 H   0  0  0  0  0  0  0  0  0  0  0  0
  147.4460  135.2636  151.7341 H   0  0  0  0  0  0  0  0  0  0  0  0
  1  2  1  0  0  0  0
  1 20  1  0  0  0  0
  1 21  1  0  0  0  0
  1 22  1  0  0  0  0
  2  7  1  0  0  0  0
  2  3  1  0  0  0  0
  2 40  1  0  0  0  0
  3 19  1  0  0  0  0
  3  4  1  0  0  0  0
  3 23  1  0  0  0  0
  4  5  1  0  0  0  0
  4 24  1  0  0  0  0
  4 25  1  0  0  0  0
  5  6  1  0  0  0  0
  5 26  1  0  0  0  0
  5 27  1  0  0  0  0
  6  7  1  0  0  0  0
  6 28  1  0  0  0  0
  6 29  1  0  0  0  0
  7  8  1  0  0  0  0
  7 30  1  0  0  0  0
  8  9  1  0  0  0  0
  8 31  1  0  0  0  0
  8 32  1  0  0  0  0
  9 10  1  0  0  0  0
  9 19  1  0  0  0  0
  9 33  1  0  0  0  0
 10 34  1  0  0  0  0
 10 11  1  0  0  0  0
 11 13  1  0  0  0  0
 11 12  2  0  0  0  0
 13 14  2  0  0  0  0
 14 18  1  0  0  0  0
 14 15  1  0  0  0  0
 15 35  1  0  0  0  0
 15 16  1  0  0  0  0
 16 36  1  0  0  0  0
 16 17  2  0  0  0  0
 17 37  1  0  0  0  0
 17 18  1  0  0  0  0
 19 38  1  0  0  0  0
 19 39  1  0  0  0  0
M  CHG  1   2   1
M  END
> <s_m_source_file>
AV-unprocessed.smi

> <i_m_source_file_index>
2226

> <i_lp_mmshare_version>
43012

> <i_f3d_flags>
0

> <s_epik_input>
W0NIMl0xW0NIMl1bQ0gyXVtDQEhdKE4oW0NIM10pW0NIXTEyKVtDSDJdW0NASF0oW0NIMl0yKVtOSF1DKD1PKVtOSF1jM25bY0hdW2NIXW8z

> <s_epik_cmdline>
J2VwaWtfcHl0aG9uJywgJy1waCcsICc3LjAnLCAnLXRuJywgJzgnLCAnLW1hJywgJzIwMCcsICctbWV0YWxfYmluZGluZycsICctaW1hZScsICc8aW5maWxlLm1hZT4nLCAnLW9tYWUnLCAnPG91dGZpbGUubWFlPic=

> <r_lp_tautomer_probability>
0.107061

> <r_epik_Ionization_Penalty>
1.08307

> <r_epik_Ionization_Penalty_Charging>
1.08272

> <r_epik_Ionization_Penalty_Neutral>
0.000345913

> <r_epik_State_Penalty>
2.5744

> <r_epik_Charging_Adjusted_Penalty>
3.65713

> <i_epik_Tot_Q>
1

> <i_epik_Tot_abs_Q>
1

> <r_epik_Metal_State_Penalty>
3.72133

> <b_epik_Metal_Only>
0

> <s_lp_Force_Field>
OPLS_2005

> <r_lp_Energy>
59.8055

> <b_lp_Chiralities_Consistent>
1

> <s_lp_Variant>
AV-unprocessed.smi:2226-15

> <Gold.Version>
5.8.1

> <Gold.Id.Protein>
6NUR|6NUR_protein|mol2

> <Gold.PLP.Fitness>
34.9618

> <Gold.PLP.PLP>
-26.6906

> <Gold.PLP.part.hbond>
-2.2766

> <Gold.PLP.part.metal>
0.0000

> <Gold.PLP.part.buried>
-3.0673

> <Gold.PLP.part.nonpolar>
-21.5942

> <Gold.PLP.part.repulsive>
0.4489

> <Gold.PLP.ligand.clash>
0.0000

> <Gold.PLP.ligand.torsion>
0.3773

> <Gold.PLP.Chemscore.Hbond>
2.9913

> <Gold.PLP.Chemscore.CHOScore>
0.0000

> <Gold.PLP.Chemscore.Metal>
0.0000

> <Gold.Chemscore.Hbonds>
donor molecule, donor type, donor heavy atom, donor atom, acceptor molecule, acceptor atom, score
      L1  H     2    40       P1  7948  2.00
      P1  H 11000 11005       L1    12  0.99

> <Gold.PLP.Chemscore.Internal.Correction>
0.0520

> <Gold.Rescore>
     Score         DG    S(hbond)    S(metal)    S(lipo)     H(rot)  DE(clash)    DE(int)     intcor
     14.98     -15.51       1.96        0.00      51.68       1.00       0.28       0.26       ----

> <Gold.Chemscore.Fitness>
14.9751

> <Gold.Chemscore.DG>
-15.5064

> <Gold.Chemscore.ZeroCoef>
-5.4800

> <Gold.Chemscore.Hbond>
1.9579

> <Gold.Chemscore.Metal>
0.0000

> <Gold.Chemscore.Lipo>
51.6839

> <Gold.Chemscore.Internal_Hbond>
0.0000

> <Gold.Chemscore.DEClash>
0.2757

> <Gold.Chemscore.DEInternal>
0.2556

> <Gold.Chemscore.Rot>
1.0000

> <Gold.Chemscore.Internal.Correction>
   9.000000E+99

> <Gold.Chemscore.Hbonds>
donor molecule, donor type, donor heavy atom, donor atom, acceptor molecule, acceptor atom, score
      L1  H     2    40       P1  7948  0.94
      P1  H 11000 11005       L1    12  0.90

> <Gold.Chemscore.Hbond.Weighted>
-6.5394

> <Gold.Chemscore.Metal.Weighted>
-0.0000

> <Gold.Chemscore.Lipo.Weighted>
-6.0470

> <Gold.Chemscore.Internal_Hbond.Weighted>
0.0000

> <Gold.Chemscore.DEClash.Weighted>
0.2757

> <Gold.Chemscore.DEInternal.Weighted>
0.2556

> <Gold.Chemscore.Rot.Weighted>
2.5600

> <Gold.Chemscore.Internal.Correction.Weighted>
   9.000000E+99

> <Gold.Protein.RotatedTorsions>
[ 6907 6896 6895 6894 ] final  -53.03 input  -60.11 | X-H torsion
[ 7974 7965 7964 7962 ] final  -86.40 input  175.53 | X-H torsion
[ 8008 7997 7996 7995 ] final  114.65 input   59.86 | X-H torsion
[ 10167 10162 10161 10158 ] final -167.74 input  -65.29 | X-H torsion
[ 10718 10713 10712 10709 ] final   35.45 input   66.30 | X-H torsion
[ 10763 10752 10751 10750 ] final -100.52 input  -60.55 | X-H torsion
[ 11005 11000 10999 10996 ] final   21.54 input  -57.11 | X-H torsion

> <Gold.Protein.ActiveResidues>
 VAL166  LYS551  ARG553  GLY616  TRP617  ASP618  TYR619  PRO620  LYS621  CYS622 
 ASP623  PHE694  ASN695  SER759  ASP760  ASP761  ALA762  ILE779  LEU786  VAL792 
 PHE793  MET794  SER795  GLU796  ALA797  LYS798  CYS799  TRP800  GLU811  SER814 

> <Gold.Protein.RotatedAtoms>
  150.8464  134.7774  159.6973 H   0  0  0  0  0  0  0  0  0  0  0  0  # atno 6907 bound_to 6896
  152.4539  134.5330  159.9826 H   0  0  0  0  0  0  0  0  0  0  0  0  # atno 6908 bound_to 6896
  151.5459  133.3387  159.2980 H   0  0  0  0  0  0  0  0  0  0  0  0  # atno 6909 bound_to 6896
  145.4805  140.9557  143.1867 H   0  0  0  0  0  0  0  0  0  0  0  0  # atno 7974 bound_to 7965
  156.2334  140.2955  156.0247 H   0  0  0  0  0  0  0  0  0  0  0  0  # atno 8008 bound_to 7997
  155.2161  140.0414  157.2958 H   0  0  0  0  0  0  0  0  0  0  0  0  # atno 8009 bound_to 7997
  154.6035  140.2433  155.7769 H   0  0  0  0  0  0  0  0  0  0  0  0  # atno 8010 bound_to 7997
  139.6030  144.0971  152.1763 H   0  0  0  0  0  0  0  0  0  0  0  0  # atno 10167 bound_to 10162
  157.3228  130.7457  149.6796 H   0  0  0  0  0  0  0  0  0  0  0  0  # atno 10718 bound_to 10713
  154.7585  135.4932  153.9420 H   0  0  0  0  0  0  0  0  0  0  0  0  # atno 10763 bound_to 10752
  153.1224  135.6734  153.9321 H   0  0  0  0  0  0  0  0  0  0  0  0  # atno 10764 bound_to 10752
  153.9049  135.3105  155.3427 H   0  0  0  0  0  0  0  0  0  0  0  0  # atno 10765 bound_to 10752
  140.3904  134.1825  155.7662 H   0  0  0  0  0  0  0  0  0  0  0  0  # atno 11005 bound_to 11000
  144.7892  139.6363  143.7121 LP  0  0  0  0  0  0  0  0  0  0  0  0  # atno 17320 bound_to 7965
  146.2344  139.5876  142.9533 LP  0  0  0  0  0  0  0  0  0  0  0  0  # atno 17321 bound_to 7965
  140.0572  144.5886  150.7291 LP  0  0  0  0  0  0  0  0  0  0  0  0  # atno 17342 bound_to 10162
  140.7264  143.2641  151.4106 LP  0  0  0  0  0  0  0  0  0  0  0  0  # atno 17343 bound_to 10162
  155.9687  130.4218  150.4487 LP  0  0  0  0  0  0  0  0  0  0  0  0  # atno 17370 bound_to 10713
  157.2505  131.0545  151.2382 LP  0  0  0  0  0  0  0  0  0  0  0  0  # atno 17371 bound_to 10713
  141.1893  133.8242  157.0963 LP  0  0  0  0  0  0  0  0  0  0  0  0  # atno 17394 bound_to 11000
  140.0411  134.9854  157.0963 LP  0  0  0  0  0  0  0  0  0  0  0  0  # atno 17395 bound_to 11000

$$$$
