AV-unprocessed.smi:3350|AV-procd|sdf|12939|dock4
  -GOLD-   2272019373D 1   1.00000     0.00000
 Structure written by MMmdl.
 41 42  0  0  0  0  0  0  0  0  1 V2000
  146.0706  134.0379  153.3778 C   0  0  0  0  0  0  0  0  0  0  0  0
  145.7045  135.3402  152.6534 C   0  0  2  0  0  0  0  0  0  0  0  0
  145.3970  135.0902  151.1627 C   0  0  0  0  0  0  0  0  0  0  0  0
  145.5097  133.6887  150.7989 N   0  0  0  0  0  0  0  0  0  0  0  0
  144.5004  132.7649  150.6283 C   0  0  0  0  0  0  0  0  0  0  0  0
  145.0870  131.5835  150.2751 C   0  0  0  0  0  0  0  0  0  0  0  0
  146.4767  131.8884  150.2563 C   0  0  0  0  0  0  0  0  0  0  0  0
  146.7272  133.1481  150.5740 N   0  0  0  0  0  0  0  0  0  0  0  0
  146.8053  136.2909  152.8028 N   0  0  0  0  0  0  0  0  0  0  0  0
  146.7567  137.4415  153.4894 C   0  0  0  0  0  0  0  0  0  0  0  0
  145.7641  137.8449  154.0959 O   0  0  0  0  0  0  0  0  0  0  0  0
  147.9250  138.0957  153.4359 N   0  0  0  0  0  0  0  0  0  0  0  0
  148.2284  139.3521  154.1188 C   0  0  2  0  0  0  0  0  0  0  0  0
  147.3458  140.4682  153.5422 C   0  0  0  0  0  0  0  0  0  0  0  0
  149.7321  139.6981  154.0264 C   0  0  2  0  0  0  0  0  0  0  0  0
  150.7085  138.6013  154.4755 C   0  0  0  0  0  0  0  0  0  0  0  0
  151.8846  139.4118  154.9703 C   0  0  0  0  0  0  0  0  0  0  0  0
  151.1783  140.5871  155.6344 C   0  0  0  0  0  0  0  0  0  0  0  0
  150.0402  140.8445  154.8195 O   0  0  0  0  0  0  0  0  0  0  0  0
  145.2582  133.3134  153.3162 H   0  0  0  0  0  0  0  0  0  0  0  0
  146.2697  134.2192  154.4346 H   0  0  0  0  0  0  0  0  0  0  0  0
  146.9598  133.5784  152.9449 H   0  0  0  0  0  0  0  0  0  0  0  0
  144.8044  135.7315  153.1314 H   0  0  0  0  0  0  0  0  0  0  0  0
  144.3973  135.4483  150.9106 H   0  0  0  0  0  0  0  0  0  0  0  0
  146.0936  135.6514  150.5387 H   0  0  0  0  0  0  0  0  0  0  0  0
  143.4609  133.0241  150.7656 H   0  0  0  0  0  0  0  0  0  0  0  0
  144.5980  130.6451  150.0603 H   0  0  0  0  0  0  0  0  0  0  0  0
  147.3051  131.2358  150.0240 H   0  0  0  0  0  0  0  0  0  0  0  0
  147.6698  136.0570  152.3374 H   0  0  0  0  0  0  0  0  0  0  0  0
  148.6741  137.6796  152.9026 H   0  0  0  0  0  0  0  0  0  0  0  0
  147.9696  139.2579  155.1749 H   0  0  0  0  0  0  0  0  0  0  0  0
  147.5332  141.4161  154.0473 H   0  0  0  0  0  0  0  0  0  0  0  0
  146.2879  140.2339  153.6656 H   0  0  0  0  0  0  0  0  0  0  0  0
  147.5313  140.6163  152.4778 H   0  0  0  0  0  0  0  0  0  0  0  0
  149.9715  139.9726  152.9980 H   0  0  0  0  0  0  0  0  0  0  0  0
  150.3042  138.0129  155.2993 H   0  0  0  0  0  0  0  0  0  0  0  0
  150.9729  137.9154  153.6702 H   0  0  0  0  0  0  0  0  0  0  0  0
  152.5305  138.8594  155.6530 H   0  0  0  0  0  0  0  0  0  0  0  0
  152.4865  139.7585  154.1293 H   0  0  0  0  0  0  0  0  0  0  0  0
  150.8362  140.3100  156.6327 H   0  0  0  0  0  0  0  0  0  0  0  0
  151.8159  141.4668  155.7244 H   0  0  0  0  0  0  0  0  0  0  0  0
  1  2  1  0  0  0  0
  1 20  1  0  0  0  0
  1 21  1  0  0  0  0
  1 22  1  0  0  0  0
  2  3  1  0  0  0  0
  2  9  1  0  0  0  0
  2 23  1  0  0  0  0
  3  4  1  0  0  0  0
  3 24  1  0  0  0  0
  3 25  1  0  0  0  0
  4  8  1  0  0  0  0
  4  5  1  0  0  0  0
  5  6  2  0  0  0  0
  5 26  1  0  0  0  0
  6  7  1  0  0  0  0
  6 27  1  0  0  0  0
  7  8  2  0  0  0  0
  7 28  1  0  0  0  0
  9 10  1  0  0  0  0
  9 29  1  0  0  0  0
 10 11  2  0  0  0  0
 10 12  1  0  0  0  0
 12 13  1  0  0  0  0
 12 30  1  0  0  0  0
 13 14  1  0  0  0  0
 13 15  1  0  0  0  0
 13 31  1  0  0  0  0
 14 32  1  0  0  0  0
 14 33  1  0  0  0  0
 14 34  1  0  0  0  0
 15 19  1  0  0  0  0
 15 16  1  0  0  0  0
 15 35  1  0  0  0  0
 16 17  1  0  0  0  0
 16 36  1  0  0  0  0
 16 37  1  0  0  0  0
 17 18  1  0  0  0  0
 17 38  1  0  0  0  0
 17 39  1  0  0  0  0
 18 19  1  0  0  0  0
 18 40  1  0  0  0  0
 18 41  1  0  0  0  0
M  END
> <s_m_source_file>
AV-unprocessed.smi

> <i_m_source_file_index>
3350

> <i_lp_mmshare_version>
43012

> <i_f3d_flags>
0

> <s_epik_input>
bjFbY0hdW2NIXVtjSF1uMVtDSDJdW0NAQEhdKFtDSDNdKVtOSF1DKD1PKVtOSF1bQ0BIXShbQ0gzXSlbQ0BASF0yW0NIMl1bQ0gyXVtDSDJdTzI=

> <s_epik_cmdline>
J2VwaWtfcHl0aG9uJywgJy1waCcsICc3LjAnLCAnLXRuJywgJzgnLCAnLW1hJywgJzIwMCcsICctbWV0YWxfYmluZGluZycsICctaW1hZScsICc8aW5maWxlLm1hZT4nLCAnLW9tYWUnLCAnPG91dGZpbGUubWFlPic=

> <r_lp_tautomer_probability>
1

> <r_epik_Ionization_Penalty>
6.42349e-05

> <r_epik_Ionization_Penalty_Charging>
0

> <r_epik_Ionization_Penalty_Neutral>
6.42349e-05

> <r_epik_State_Penalty>
-0

> <r_epik_Charging_Adjusted_Penalty>
0

> <i_epik_Tot_Q>
0

> <i_epik_Tot_abs_Q>
0

> <r_epik_Metal_State_Penalty>
-0

> <b_epik_Metal_Only>
0

> <s_lp_Force_Field>
OPLS_2005

> <r_lp_Energy>
17.0585

> <b_lp_Chiralities_Consistent>
1

> <s_lp_Variant>
AV-unprocessed.smi:3350-1

> <Gold.Version>
5.8.1

> <Gold.Id.Protein>
6NUR|6NUR_protein|mol2

> <Gold.PLP.Fitness>
44.4140

> <Gold.PLP.PLP>
-34.4626

> <Gold.PLP.part.hbond>
-3.0000

> <Gold.PLP.part.metal>
0.0000

> <Gold.PLP.part.buried>
-2.2998

> <Gold.PLP.part.nonpolar>
-30.0387

> <Gold.PLP.part.repulsive>
0.4510

> <Gold.PLP.ligand.clash>
0.0000

> <Gold.PLP.ligand.torsion>
1.1360

> <Gold.PLP.Chemscore.Hbond>
2.0616

> <Gold.PLP.Chemscore.CHOScore>
2.0000

> <Gold.PLP.Chemscore.Metal>
0.0000

> <Gold.Chemscore.Hbonds>
donor molecule, donor type, donor heavy atom, donor atom, acceptor molecule, acceptor atom, score
      L1  H     9    29       P1  7948  0.59
      L1  H    12    30       P1  7948  0.80
      L1  C     7    28       P1 10747  0.22

> <Gold.PLP.Chemscore.Internal.Correction>
0.0388

> <Gold.Rescore>
     Score         DG    S(hbond)    S(metal)    S(lipo)     H(rot)  DE(clash)    DE(int)     intcor
     14.63     -16.90       1.94        0.00      82.13       1.82       0.18       2.09       ----

> <Gold.Chemscore.Fitness>
14.6299

> <Gold.Chemscore.DG>
-16.9027

> <Gold.Chemscore.ZeroCoef>
-5.4800

> <Gold.Chemscore.Hbond>
1.9375

> <Gold.Chemscore.Metal>
0.0000

> <Gold.Chemscore.Lipo>
82.1341

> <Gold.Chemscore.Internal_Hbond>
0.0000

> <Gold.Chemscore.DEClash>
0.1805

> <Gold.Chemscore.DEInternal>
2.0923

> <Gold.Chemscore.Rot>
1.8197

> <Gold.Chemscore.Internal.Correction>
   9.000000E+99

> <Gold.Chemscore.Hbonds>
donor molecule, donor type, donor heavy atom, donor atom, acceptor molecule, acceptor atom, score
      L1  H     9    29       P1  7948  0.58
      L1  H    12    30       P1  7948  0.80

> <Gold.Chemscore.Hbond.Weighted>
-6.4713

> <Gold.Chemscore.Metal.Weighted>
-0.0000

> <Gold.Chemscore.Lipo.Weighted>
-9.6097

> <Gold.Chemscore.Internal_Hbond.Weighted>
0.0000

> <Gold.Chemscore.DEClash.Weighted>
0.1805

> <Gold.Chemscore.DEInternal.Weighted>
2.0923

> <Gold.Chemscore.Rot.Weighted>
4.6583

> <Gold.Chemscore.Internal.Correction.Weighted>
   9.000000E+99

> <Gold.Protein.RotatedTorsions>
[ 6907 6896 6895 6894 ] final   58.26 input  -60.11 | X-H torsion
[ 7974 7965 7964 7962 ] final  -48.98 input  175.53 | X-H torsion
[ 8008 7997 7996 7995 ] final  147.95 input   59.86 | X-H torsion
[ 10167 10162 10161 10158 ] final -176.85 input  -65.29 | X-H torsion
[ 10718 10713 10712 10709 ] final   40.82 input   66.30 | X-H torsion
[ 10763 10752 10751 10750 ] final   40.66 input  -60.55 | X-H torsion
[ 11005 11000 10999 10996 ] final    3.17 input  -57.11 | X-H torsion

> <Gold.Protein.ActiveResidues>
 VAL166  LYS551  ARG553  GLY616  TRP617  ASP618  TYR619  PRO620  LYS621  CYS622 
 ASP623  PHE694  ASN695  SER759  ASP760  ASP761  ALA762  ILE779  LEU786  VAL792 
 PHE793  MET794  SER795  GLU796  ALA797  LYS798  CYS799  TRP800  GLU811  SER814 

> <Gold.Protein.RotatedAtoms>
  152.3808  134.6594  160.0143 H   0  0  0  0  0  0  0  0  0  0  0  0  # atno 6907 bound_to 6896
  151.6857  133.3306  159.3238 H   0  0  0  0  0  0  0  0  0  0  0  0  # atno 6908 bound_to 6896
  150.7746  134.6678  159.6419 H   0  0  0  0  0  0  0  0  0  0  0  0  # atno 6909 bound_to 6896
  145.9454  140.7623  142.9531 H   0  0  0  0  0  0  0  0  0  0  0  0  # atno 7974 bound_to 7965
  156.2808  140.2142  156.5620 H   0  0  0  0  0  0  0  0  0  0  0  0  # atno 8008 bound_to 7997
  154.7205  140.0504  157.0658 H   0  0  0  0  0  0  0  0  0  0  0  0  # atno 8009 bound_to 7997
  155.0485  140.3153  155.4703 H   0  0  0  0  0  0  0  0  0  0  0  0  # atno 8010 bound_to 7997
  139.5509  144.2112  152.1075 H   0  0  0  0  0  0  0  0  0  0  0  0  # atno 10167 bound_to 10162
  157.3865  130.7782  149.7234 H   0  0  0  0  0  0  0  0  0  0  0  0  # atno 10718 bound_to 10713
  152.9930  135.6185  154.2662 H   0  0  0  0  0  0  0  0  0  0  0  0  # atno 10763 bound_to 10752
  154.2396  135.2789  155.2860 H   0  0  0  0  0  0  0  0  0  0  0  0  # atno 10764 bound_to 10752
  154.5380  135.5769  153.6873 H   0  0  0  0  0  0  0  0  0  0  0  0  # atno 10765 bound_to 10752
  140.5961  133.9879  155.8110 H   0  0  0  0  0  0  0  0  0  0  0  0  # atno 11005 bound_to 11000
  144.6786  140.2348  143.7351 LP  0  0  0  0  0  0  0  0  0  0  0  0  # atno 17320 bound_to 7965
  145.8243  139.2057  143.1920 LP  0  0  0  0  0  0  0  0  0  0  0  0  # atno 17321 bound_to 7965
  140.1607  144.5028  150.6634 LP  0  0  0  0  0  0  0  0  0  0  0  0  # atno 17342 bound_to 10162
  140.6771  143.2310  151.5479 LP  0  0  0  0  0  0  0  0  0  0  0  0  # atno 17343 bound_to 10162
  155.9788  130.4047  150.3627 LP  0  0  0  0  0  0  0  0  0  0  0  0  # atno 17370 bound_to 10713
  157.1738  131.0375  151.2782 LP  0  0  0  0  0  0  0  0  0  0  0  0  # atno 17371 bound_to 10713
  141.0903  133.9927  157.3248 LP  0  0  0  0  0  0  0  0  0  0  0  0  # atno 17394 bound_to 11000
  139.9253  135.0201  156.8210 LP  0  0  0  0  0  0  0  0  0  0  0  0  # atno 17395 bound_to 11000

$$$$
