#       Name:                AV-unprocessed.smi:1828
#       Creating user name   scv26
#       Creation time:       Fri Mar 27 09:10:55 2020


#       File generated by GOLD software.
#

@<TRIPOS>MOLECULE
AV-unprocessed.smi:1828
    44    46     1
SMALL
NO_CHARGES


@<TRIPOS>ATOM
      1 ****        -3.0078  -0.1058   2.4292 O.3            1 S1                 0.0000
      2 ****        -1.7987  -0.3871   1.7594 C.3            1 S1                 0.0000
      3 ****        -1.6027   0.4676   0.5481 C.2            1 S1                 0.0000
      4 ****        -1.6522   1.8298   0.5320 N.pl3          1 S1                 1.0000
      5 ****        -1.4004   2.2996  -0.7567 C.ar           1 S1                 0.0000
      6 ****        -1.3420   3.5957  -1.2592 C.ar           1 S1                 0.0000
      7 ****        -1.0535   3.7291  -2.6332 C.ar           1 S1                 0.0000
      8 ****        -0.8357   2.6009  -3.4505 C.ar           1 S1                 0.0000
      9 ****        -0.8981   1.2917  -2.9293 C.ar           1 S1                 0.0000
     10 ****        -1.1860   1.1687  -1.5702 C.ar           1 S1                 0.0000
     11 ****        -1.3230   0.0604  -0.7264 N.pl3          1 S1                 0.0000
     12 ****        -1.1378  -1.2878  -1.2898 C.3            1 S1                 0.0000
     13 ****         0.3478  -1.6911  -1.3804 C.3            1 S1                 0.0000
     14 ****         0.4296  -2.9292  -2.0552 O.3            1 S1                 0.0000
     15 ****         1.0163  -1.7266  -0.0129 C.ar           1 S1                 0.0000
     16 ****         0.8663  -2.8422   0.8392 C.ar           1 S1                 0.0000
     17 ****         1.4612  -2.8427   2.1149 C.ar           1 S1                 0.0000
     18 ****         2.2041  -1.7282   2.5491 C.ar           1 S1                 0.0000
     19 ****         2.3575  -0.6050   1.7070 C.ar           1 S1                 0.0000
     20 ****         3.1369   0.6210   2.1571 C.3            1 S1                 0.0000
     21 ****         4.1399   0.8479   1.3093 F              1 S1                 0.0000
     22 ****         2.3275   1.6804   2.1583 F              1 S1                 0.0000
     23 ****         3.6417   0.4715   3.3821 F              1 S1                 0.0000
     24 ****         1.7655  -0.6149   0.4268 C.ar           1 S1                 0.0000
     25 ****        -3.0784  -0.6809   3.1760 H              1 S1                 0.0000
     26 ****        -0.9671  -0.2234   2.4453 H              1 S1                 0.0000
     27 ****        -1.7849  -1.4422   1.4906 H              1 S1                 0.0000
     28 ****        -1.5068   4.4615  -0.6345 H              1 S1                 0.0000
     29 ****        -0.9970   4.7164  -3.0686 H              1 S1                 0.0000
     30 ****        -0.6160   2.7422  -4.4990 H              1 S1                 0.0000
     31 ****        -0.7275   0.4344  -3.5638 H              1 S1                 0.0000
     32 ****        -1.6952  -1.9966  -0.6775 H              1 S1                 0.0000
     33 ****        -1.6077  -1.3127  -2.2739 H              1 S1                 0.0000
     34 ****         0.8766  -0.9689  -2.0035 H              1 S1                 0.0000
     35 ****         1.3414  -3.1350  -2.1958 H              1 S1                 0.0000
     36 ****         0.2871  -3.6974   0.5226 H              1 S1                 0.0000
     37 ****         1.3427  -3.6977   2.7643 H              1 S1                 0.0000
     38 ****         2.6486  -1.7435   3.5331 H              1 S1                 0.0000
     39 ****         1.8739   0.2478  -0.2143 H              1 S1                 0.0000
     40 ****        -1.8453   2.3938   1.3498 H              1 S1                 0.0000
     41 ****        -3.7791  -0.2592   1.8114 LP             1 S1                 0.0000
     42 ****        -3.0101   0.8462   2.7353 LP             1 S1                 0.0000
     43 ****        -0.0413  -2.8655  -2.9351 LP             1 S1                 0.0000
     44 ****         0.0041  -3.6443  -1.5005 LP             1 S1                 0.0000
@<TRIPOS>BOND
    1    1    2 1     
    2    1   25 1     
    3    2    3 1     
    4    2   26 1     
    5    2   27 1     
    6    3   11 1     
    7    3    4 2     
    8    4    5 1     
    9    4   40 1     
   10    5   10 ar    
   11    5    6 ar    
   12    6    7 ar    
   13    6   28 1     
   14    7    8 ar    
   15    7   29 1     
   16    8    9 ar    
   17    8   30 1     
   18    9   10 ar    
   19    9   31 1     
   20   10   11 1     
   21   11   12 1     
   22   12   13 1     
   23   12   32 1     
   24   12   33 1     
   25   13   14 1     
   26   13   15 1     
   27   13   34 1     
   28   14   35 1     
   29   15   24 ar    
   30   15   16 ar    
   31   16   17 ar    
   32   16   36 1     
   33   17   18 ar    
   34   17   37 1     
   35   18   19 ar    
   36   18   38 1     
   37   19   20 1     
   38   19   24 ar    
   39   20   21 1     
   40   20   22 1     
   41   20   23 1     
   42   24   39 1     
   43    1   41 1     
   44    1   42 1     
   45   14   43 1     
   46   14   44 1     
@<TRIPOS>SUBSTRUCTURE
      1 S1             1
@<TRIPOS>SET
LONE_PAIRS      STATIC     ATOMS    <user>   **** ""
4 41 42 43 44
DONOR_HYDROGENS      STATIC     ATOMS    <user>   **** ""
3 25 40 35
ATOM$BLUE        STATIC     ATOMS    COLORGROUP SYSTEM
4 41 42 43 44
ATOM$RED        STATIC     ATOMS    COLORGROUP SYSTEM
3 25 40 35
