#       Name:                AV-unprocessed.smi:2685
#       Creating user name   scv26
#       Creation time:       Fri Mar 27 14:41:28 2020


#       File generated by GOLD software.
#

@<TRIPOS>MOLECULE
AV-unprocessed.smi:2685
    29    29     1
SMALL
NO_CHARGES


@<TRIPOS>ATOM
      1 ****        -0.0615   2.6409   0.0544 C.3            1 S1                 0.0000
      2 ****        -0.7430   1.2845   0.0938 C.2            1 S1                 0.0000
      3 ****        -2.0251   1.2267   0.0270 N.2            1 S1                 0.0000
      4 ****        -2.6980  -0.0050   0.0445 C.2            1 S1                 0.0000
      5 ****        -3.9222  -0.0939  -0.0169 O.2            1 S1                 0.0000
      6 ****        -1.9523  -1.1322   0.1312 N.am           1 S1                 0.0000
      7 ****        -0.5586  -1.1174   0.2118 C.2            1 S1                 0.0000
      8 ****         0.0770  -2.4928   0.2933 C.3            1 S1                 0.0000
      9 ****         0.1043   0.0586   0.2077 C.2            1 S1                 0.0000
     10 ****         1.6272   0.1803   0.2814 C.3            1 S1                 0.0000
     11 ****         2.3391   0.2073  -1.0765 C.2            1 S1                 0.0000
     12 ****         3.5517   0.5104  -1.0621 O.co2          1 S1                 0.0000
     13 ****         1.6780  -0.0736  -2.1011 O.co2          1 S1                -1.0000
     14 ****        -2.4095  -2.0323   0.1382 H              1 S1                 0.0000
     15 ****         0.6874   2.6733  -0.7371 H              1 S1                 0.0000
     16 ****         0.4210   2.8527   1.0086 H              1 S1                 0.0000
     17 ****        -0.7850   3.4337  -0.1395 H              1 S1                 0.0000
     18 ****         0.7911  -2.6264  -0.5198 H              1 S1                 0.0000
     19 ****        -0.6675  -3.2867   0.2223 H              1 S1                 0.0000
     20 ****         0.6064  -2.6098   1.2391 H              1 S1                 0.0000
     21 ****         1.9146   1.0625   0.8525 H              1 S1                 0.0000
     22 ****         2.0259  -0.6614   0.8475 H              1 S1                 0.0000
     23 ****        -2.5525   2.0739  -0.0386 LP             1 S1                 0.0000
     24 ****        -4.4809   0.7329  -0.0825 LP             1 S1                 0.0000
     25 ****        -4.3597  -0.9930  -0.0013 LP             1 S1                 0.0000
     26 ****         4.0694   0.5419  -1.9171 LP             1 S1                 0.0000
     27 ****         4.0040   0.7215  -0.1956 LP             1 S1                 0.0000
     28 ****         2.1191  -0.0660  -2.9985 LP             1 S1                 0.0000
     29 ****         0.7084  -0.3057  -2.0226 LP             1 S1                 0.0000
@<TRIPOS>BOND
    1    1    2 1     
    2    1   15 1     
    3    1   16 1     
    4    1   17 1     
    5    2    9 1     
    6    2    3 2     
    7    3    4 1     
    8    4    5 2     
    9    4    6 am    
   10    6   14 1     
   11    6    7 1     
   12    7    8 1     
   13    7    9 2     
   14    8   18 1     
   15    8   19 1     
   16    8   20 1     
   17    9   10 1     
   18   10   11 1     
   19   10   21 1     
   20   10   22 1     
   21   11   12 ar    
   22   11   13 ar    
   23    3   23 1     
   24    5   24 1     
   25    5   25 1     
   26   12   26 1     
   27   12   27 1     
   28   13   28 1     
   29   13   29 1     
@<TRIPOS>SUBSTRUCTURE
      1 S1             1
@<TRIPOS>SET
LONE_PAIRS      STATIC     ATOMS    <user>   **** ""
7 23 24 25 26 27 28 29
DONOR_HYDROGENS      STATIC     ATOMS    <user>   **** ""
1 14
ATOM$BLUE        STATIC     ATOMS    COLORGROUP SYSTEM
7 23 24 25 26 27 28 29
ATOM$RED        STATIC     ATOMS    COLORGROUP SYSTEM
1 14
