AV-unprocessed.smi:158|AV-procd|sdf|1329|dock2
  -GOLD-   2262019 23D 1   1.00000     0.00000
 Structure written by MMmdl.
 31 33  0  0  0  0  0  0  0  0  1 V2000
  148.7887  127.9134  154.1556 N   0  0  0  0  0  0  0  0  0  0  0  0
  148.0028  128.9974  154.0891 C   0  0  0  0  0  0  0  0  0  0  0  0
  147.9969  129.8535  155.1373 N   0  0  0  0  0  0  0  0  0  0  0  0
  147.2275  130.9488  155.1110 C   0  0  0  0  0  0  0  0  0  0  0  0
  147.2991  131.9700  156.4985 Cl  0  0  0  0  0  0  0  0  0  0  0  0
  146.4102  131.3419  154.1288 N   0  0  0  0  0  0  0  0  0  0  0  0
  146.4131  130.4815  153.0692 C   0  0  0  0  0  0  0  0  0  0  0  0
  147.1795  129.2892  152.9741 C   0  0  0  0  0  0  0  0  0  0  0  0
  146.9331  128.6627  151.7598 N   0  0  0  0  0  0  0  0  0  0  0  0
  146.0680  129.4461  151.1727 C   0  0  0  0  0  0  0  0  0  0  0  0
  145.7000  130.5637  151.8894 N   0  0  0  0  0  0  0  0  0  0  0  0
  144.7392  131.6345  151.4795 C   0  0  2  0  0  0  0  0  0  0  0  0
  144.3473  131.4247  150.1543 O   0  0  0  0  0  0  0  0  0  0  0  0
  144.4720  132.6348  149.4050 C   0  0  1  0  0  0  0  0  0  0  0  0
  143.2831  132.7591  148.4398 C   0  0  0  0  0  0  0  0  0  0  0  0
  143.3825  133.9432  147.6774 O   0  0  0  0  0  0  0  0  0  0  0  0
  144.5526  133.7309  150.4745 C   0  0  2  0  0  0  0  0  0  0  0  0
  145.1831  134.9173  150.0344 O   0  0  0  0  0  0  0  0  0  0  0  0
  145.3523  133.0365  151.5589 C   0  0  2  0  0  0  0  0  0  0  0  0
  146.6506  132.9866  151.2444 F   0  0  0  0  0  0  0  0  0  0  0  0
  143.8759  131.5098  152.1345 H   0  0  0  0  0  0  0  0  0  0  0  0
  145.4102  132.5783  148.8494 H   0  0  0  0  0  0  0  0  0  0  0  0
  143.5553  133.9682  150.8481 H   0  0  0  0  0  0  0  0  0  0  0  0
  145.2462  133.4710  152.5531 H   0  0  0  0  0  0  0  0  0  0  0  0
  148.8106  127.2604  153.3856 H   0  0  0  0  0  0  0  0  0  0  0  0
  149.3584  127.7528  154.9736 H   0  0  0  0  0  0  0  0  0  0  0  0
  145.6711  129.2284  150.1920 H   0  0  0  0  0  0  0  0  0  0  0  0
  143.2718  131.9122  147.7532 H   0  0  0  0  0  0  0  0  0  0  0  0
  142.3359  132.7483  148.9799 H   0  0  0  0  0  0  0  0  0  0  0  0
  144.2760  134.0371  147.3839 H   0  0  0  0  0  0  0  0  0  0  0  0
  145.3522  134.8394  149.1074 H   0  0  0  0  0  0  0  0  0  0  0  0
  1  2  1  0  0  0  0
  1 25  1  0  0  0  0
  1 26  1  0  0  0  0
  2  8  1  0  0  0  0
  2  3  2  0  0  0  0
  3  4  1  0  0  0  0
  4  5  1  0  0  0  0
  4  6  2  0  0  0  0
  6  7  1  0  0  0  0
  7 11  1  0  0  0  0
  7  8  2  0  0  0  0
  8  9  1  0  0  0  0
  9 10  2  0  0  0  0
 10 11  1  0  0  0  0
 10 27  1  0  0  0  0
 11 12  1  0  0  0  0
 12 21  1  0  0  0  0
 12 19  1  0  0  0  0
 12 13  1  0  0  0  0
 13 14  1  0  0  0  0
 14 22  1  0  0  0  0
 14 15  1  0  0  0  0
 14 17  1  0  0  0  0
 15 16  1  0  0  0  0
 15 28  1  0  0  0  0
 15 29  1  0  0  0  0
 16 30  1  0  0  0  0
 17 23  1  0  0  0  0
 17 18  1  0  0  0  0
 17 19  1  0  0  0  0
 18 31  1  0  0  0  0
 19 24  1  0  0  0  0
 19 20  1  0  0  0  0
M  END
> <s_m_source_file>
AV-unprocessed.smi

> <i_m_source_file_index>
158

> <i_lp_mmshare_version>
43012

> <i_f3d_flags>
0

> <s_epik_input>
Q2xjKG4xKW5jKFtOSDJdKWMoYzEyKW5bY0hdbjJbQ0BASF0zT1tDQEhdKFtDSDJdW09IXSlbQ0BASF0oW09IXSlbQ0BASF0zRg==

> <s_epik_cmdline>
J2VwaWtfcHl0aG9uJywgJy1waCcsICc3LjAnLCAnLXRuJywgJzgnLCAnLW1hJywgJzIwMCcsICctbWV0YWxfYmluZGluZycsICctaW1hZScsICc8aW5maWxlLm1hZT4nLCAnLW9tYWUnLCAnPG91dGZpbGUubWFlPic=

> <r_lp_tautomer_probability>
1

> <r_epik_Ionization_Penalty>
6.51543e-05

> <r_epik_Ionization_Penalty_Charging>
0

> <r_epik_Ionization_Penalty_Neutral>
6.51543e-05

> <r_epik_State_Penalty>
-0

> <r_epik_Charging_Adjusted_Penalty>
0

> <i_epik_Tot_Q>
0

> <i_epik_Tot_abs_Q>
0

> <r_epik_Metal_State_Penalty>
-0

> <b_epik_Metal_Only>
0

> <s_epik_Chemistry_Notes>
This compound contains an acetal/aminal-like group ( X-CH(R)-Y where X, Y are N, S, or O) that may be acid/base labile, releasing an aldehyde.

> <s_lp_Force_Field>
OPLS_2005

> <r_lp_Energy>
35.9636

> <b_lp_Chiralities_Consistent>
1

> <s_lp_Variant>
AV-unprocessed.smi:158-7

> <Gold.Version>
5.8.1

> <Gold.Id.Protein>
6NUR|6NUR_protein|mol2

> <Gold.PLP.Fitness>
42.5503

> <Gold.PLP.PLP>
-32.8813

> <Gold.PLP.part.hbond>
-5.8720

> <Gold.PLP.part.metal>
0.0000

> <Gold.PLP.part.buried>
-4.3912

> <Gold.PLP.part.nonpolar>
-22.8705

> <Gold.PLP.part.repulsive>
0.3761

> <Gold.PLP.ligand.clash>
0.0000

> <Gold.PLP.ligand.torsion>
0.0788

> <Gold.PLP.Chemscore.Hbond>
3.2740

> <Gold.PLP.Chemscore.CHOScore>
0.0000

> <Gold.PLP.Chemscore.Metal>
0.0000

> <Gold.Chemscore.Hbonds>
donor molecule, donor type, donor heavy atom, donor atom, acceptor molecule, acceptor atom, score
      L1  H    16    30       P1  7921  1.00
      L1  H    18    31       P1  7921  1.00
      P1  H 10192 10197       L1    16  1.00
      P1  H 10785 10796       L1    13  0.28

> <Gold.PLP.Chemscore.Internal.Correction>
0.0044

> <Gold.Rescore>
     Score         DG    S(hbond)    S(metal)    S(lipo)     H(rot)  DE(clash)    DE(int)     intcor
     12.26     -13.00       3.08        0.00      44.78       3.12       0.72       0.01       ----

> <Gold.Chemscore.Fitness>
12.2641

> <Gold.Chemscore.DG>
-12.9981

> <Gold.Chemscore.ZeroCoef>
-5.4800

> <Gold.Chemscore.Hbond>
3.0760

> <Gold.Chemscore.Metal>
0.0000

> <Gold.Chemscore.Lipo>
44.7793

> <Gold.Chemscore.Internal_Hbond>
0.0000

> <Gold.Chemscore.DEClash>
0.7210

> <Gold.Chemscore.DEInternal>
0.0131

> <Gold.Chemscore.Rot>
3.1230

> <Gold.Chemscore.Internal.Correction>
   9.000000E+99

> <Gold.Chemscore.Hbonds>
donor molecule, donor type, donor heavy atom, donor atom, acceptor molecule, acceptor atom, score
      L1  H    16    30       P1  7921  0.92
      L1  H    18    31       P1  7921  1.00
      P1  H 10192 10197       L1    16  0.99
      P1  H 10785 10796       L1    13  0.10

> <Gold.Chemscore.Hbond.Weighted>
-10.2739

> <Gold.Chemscore.Metal.Weighted>
-0.0000

> <Gold.Chemscore.Lipo.Weighted>
-5.2392

> <Gold.Chemscore.Internal_Hbond.Weighted>
0.0000

> <Gold.Chemscore.DEClash.Weighted>
0.7210

> <Gold.Chemscore.DEInternal.Weighted>
0.0131

> <Gold.Chemscore.Rot.Weighted>
7.9950

> <Gold.Chemscore.Internal.Correction.Weighted>
   9.000000E+99

> <Gold.Protein.RotatedTorsions>
[ 6907 6896 6895 6894 ] final   74.32 input  -60.11 | X-H torsion
[ 7974 7965 7964 7962 ] final -129.14 input  175.53 | X-H torsion
[ 8008 7997 7996 7995 ] final -123.64 input   59.86 | X-H torsion
[ 10167 10162 10161 10158 ] final -145.61 input  -65.29 | X-H torsion
[ 10718 10713 10712 10709 ] final  -57.99 input   66.30 | X-H torsion
[ 10763 10752 10751 10750 ] final  -21.70 input  -60.55 | X-H torsion
[ 11005 11000 10999 10996 ] final  -93.60 input  -57.11 | X-H torsion

> <Gold.Protein.ActiveResidues>
 VAL166  LYS551  ARG553  GLY616  TRP617  ASP618  TYR619  PRO620  LYS621  CYS622 
 ASP623  PHE694  ASN695  SER759  ASP760  ASP761  ALA762  ILE779  LEU786  VAL792 
 PHE793  MET794  SER795  GLU796  ALA797  LYS798  CYS799  TRP800  GLU811  SER814 

> <Gold.Protein.RotatedAtoms>
  152.4969  134.4289  159.9505 H   0  0  0  0  0  0  0  0  0  0  0  0  # atno 6907 bound_to 6896
  151.4267  133.3676  159.2771 H   0  0  0  0  0  0  0  0  0  0  0  0  # atno 6908 bound_to 6896
  150.9184  134.8624  159.7532 H   0  0  0  0  0  0  0  0  0  0  0  0  # atno 6909 bound_to 6896
  144.9601  140.7437  143.4734 H   0  0  0  0  0  0  0  0  0  0  0  0  # atno 7974 bound_to 7965
  155.1839  140.0411  157.2887 H   0  0  0  0  0  0  0  0  0  0  0  0  # atno 8008 bound_to 7997
  154.6185  140.2495  155.7551 H   0  0  0  0  0  0  0  0  0  0  0  0  # atno 8009 bound_to 7997
  156.2420  140.2900  156.0481 H   0  0  0  0  0  0  0  0  0  0  0  0  # atno 8010 bound_to 7997
  139.7790  143.8129  152.2636 H   0  0  0  0  0  0  0  0  0  0  0  0  # atno 10167 bound_to 10162
  156.1169  130.4169  150.0516 H   0  0  0  0  0  0  0  0  0  0  0  0  # atno 10718 bound_to 10713
  153.6403  135.6985  153.5244 H   0  0  0  0  0  0  0  0  0  0  0  0  # atno 10763 bound_to 10752
  153.2787  135.4192  155.1058 H   0  0  0  0  0  0  0  0  0  0  0  0  # atno 10764 bound_to 10752
  154.8501  135.3596  154.5947 H   0  0  0  0  0  0  0  0  0  0  0  0  # atno 10765 bound_to 10752
  141.1493  133.7899  157.0182 H   0  0  0  0  0  0  0  0  0  0  0  0  # atno 11005 bound_to 11000
  145.2713  139.1953  143.4840 LP  0  0  0  0  0  0  0  0  0  0  0  0  # atno 17320 bound_to 7965
  146.3350  140.2660  142.8604 LP  0  0  0  0  0  0  0  0  0  0  0  0  # atno 17321 bound_to 7965
  139.8186  144.7305  150.9603 LP  0  0  0  0  0  0  0  0  0  0  0  0  # atno 17342 bound_to 10162
  140.7817  143.4181  151.0885 LP  0  0  0  0  0  0  0  0  0  0  0  0  # atno 17343 bound_to 10162
  156.8464  130.9444  151.3628 LP  0  0  0  0  0  0  0  0  0  0  0  0  # atno 17370 bound_to 10713
  157.6352  130.8761  149.9346 LP  0  0  0  0  0  0  0  0  0  0  0  0  # atno 17371 bound_to 10713
  140.0833  134.9635  157.1659 LP  0  0  0  0  0  0  0  0  0  0  0  0  # atno 17394 bound_to 11000
  140.3547  134.2560  155.7194 LP  0  0  0  0  0  0  0  0  0  0  0  0  # atno 17395 bound_to 11000

$$$$
