AV-unprocessed.smi:1679|AV-procd|sdf|6729|dock9
  -GOLD-   22720 7473D 1   1.00000     0.00000
 Structure written by MMmdl.
 45 46  0  0  0  0  0  0  0  0  1 V2000
  153.5097  141.8148  160.9889 C   0  0  0  0  0  0  0  0  0  0  0  0
  152.8146  142.5283  159.8177 C   0  0  2  0  0  0  0  0  0  0  0  0
  152.4036  143.9588  160.2210 C   0  0  0  0  0  0  0  0  0  0  0  0
  151.6979  144.6950  159.0726 C   0  0  0  0  0  0  0  0  0  0  0  0
  150.4776  143.9049  158.5810 C   0  0  0  0  0  0  0  0  0  0  0  0
  150.8767  142.4823  158.1623 C   0  0  0  0  0  0  0  0  0  0  0  0
  151.5931  141.7313  159.3054 C   0  0  1  0  0  0  0  0  0  0  0  0
  152.0594  140.4792  158.8187 O   0  0  0  0  0  0  0  0  0  0  0  0
  151.0367  139.5202  158.5911 C   0  0  0  0  0  0  0  0  0  0  0  0
  151.5418  138.1425  159.0318 C   0  0  0  0  0  0  0  0  0  0  0  0
  152.6682  138.2800  159.9445 N   0  0  0  0  0  0  0  0  0  0  0  0
  153.6162  137.3510  160.1288 C   0  0  0  0  0  0  0  0  0  0  0  0
  153.6251  136.2732  159.5322 O   0  0  0  0  0  0  0  0  0  0  0  0
  154.7036  137.7002  161.1556 C   0  0  0  0  0  0  0  0  0  0  0  0
  154.9450  136.6332  162.1381 N   0  0  0  0  0  0  0  0  0  0  0  0
  154.7312  136.8680  163.4890 C   0  0  0  0  0  0  0  0  0  0  0  0
  154.9247  135.9324  164.4483 C   0  0  0  0  0  0  0  0  0  0  0  0
  155.3802  134.5929  164.0925 C   0  0  0  0  0  0  0  0  0  0  0  0
  155.5859  133.6791  164.8881 O   0  0  0  0  0  0  0  0  0  0  0  0
  155.5803  134.3943  162.7238 N   0  0  0  0  0  0  0  0  0  0  0  0
  155.3812  135.3538  161.7296 C   0  0  0  0  0  0  0  0  0  0  0  0
  155.5834  135.0718  160.5491 O   0  0  0  0  0  0  0  0  0  0  0  0
  155.8927  133.4805  162.4292 H   0  0  0  0  0  0  0  0  0  0  0  0
  152.8330  141.6889  161.8347 H   0  0  0  0  0  0  0  0  0  0  0  0
  154.3735  142.3819  161.3364 H   0  0  0  0  0  0  0  0  0  0  0  0
  153.8652  140.8261  160.6979 H   0  0  0  0  0  0  0  0  0  0  0  0
  153.5352  142.6056  159.0021 H   0  0  0  0  0  0  0  0  0  0  0  0
  151.7424  143.9225  161.0879 H   0  0  0  0  0  0  0  0  0  0  0  0
  153.2828  144.5258  160.5289 H   0  0  0  0  0  0  0  0  0  0  0  0
  151.3908  145.6887  159.4003 H   0  0  0  0  0  0  0  0  0  0  0  0
  152.3961  144.8424  158.2476 H   0  0  0  0  0  0  0  0  0  0  0  0
  149.7268  143.8587  159.3709 H   0  0  0  0  0  0  0  0  0  0  0  0
  150.0131  144.4231  157.7417 H   0  0  0  0  0  0  0  0  0  0  0  0
  149.9869  141.9395  157.8444 H   0  0  0  0  0  0  0  0  0  0  0  0
  151.5326  142.5328  157.2919 H   0  0  0  0  0  0  0  0  0  0  0  0
  150.9027  141.5825  160.1381 H   0  0  0  0  0  0  0  0  0  0  0  0
  150.1528  139.7902  159.1703 H   0  0  0  0  0  0  0  0  0  0  0  0
  150.7424  139.4921  157.5416 H   0  0  0  0  0  0  0  0  0  0  0  0
  150.7388  137.5823  159.5133 H   0  0  0  0  0  0  0  0  0  0  0  0
  151.8570  137.5702  158.1580 H   0  0  0  0  0  0  0  0  0  0  0  0
  152.7236  139.1347  160.4792 H   0  0  0  0  0  0  0  0  0  0  0  0
  155.6276  137.9510  160.6306 H   0  0  0  0  0  0  0  0  0  0  0  0
  154.4076  138.6175  161.6671 H   0  0  0  0  0  0  0  0  0  0  0  0
  154.3894  137.8455  163.7983 H   0  0  0  0  0  0  0  0  0  0  0  0
  154.7409  136.1767  165.4845 H   0  0  0  0  0  0  0  0  0  0  0  0
  1  2  1  0  0  0  0
  1 24  1  0  0  0  0
  1 25  1  0  0  0  0
  1 26  1  0  0  0  0
  2  7  1  0  0  0  0
  2  3  1  0  0  0  0
  2 27  1  0  0  0  0
  3  4  1  0  0  0  0
  3 28  1  0  0  0  0
  3 29  1  0  0  0  0
  4  5  1  0  0  0  0
  4 30  1  0  0  0  0
  4 31  1  0  0  0  0
  5  6  1  0  0  0  0
  5 32  1  0  0  0  0
  5 33  1  0  0  0  0
  6  7  1  0  0  0  0
  6 34  1  0  0  0  0
  6 35  1  0  0  0  0
  7  8  1  0  0  0  0
  7 36  1  0  0  0  0
  8  9  1  0  0  0  0
  9 10  1  0  0  0  0
  9 37  1  0  0  0  0
  9 38  1  0  0  0  0
 10 11  1  0  0  0  0
 10 39  1  0  0  0  0
 10 40  1  0  0  0  0
 11 12  1  0  0  0  0
 11 41  1  0  0  0  0
 12 13  2  0  0  0  0
 12 14  1  0  0  0  0
 14 15  1  0  0  0  0
 14 42  1  0  0  0  0
 14 43  1  0  0  0  0
 15 21  1  0  0  0  0
 15 16  1  0  0  0  0
 16 17  2  0  0  0  0
 16 44  1  0  0  0  0
 17 18  1  0  0  0  0
 17 45  1  0  0  0  0
 18 19  2  0  0  0  0
 18 20  1  0  0  0  0
 20 23  1  0  0  0  0
 20 21  1  0  0  0  0
 21 22  2  0  0  0  0
M  END
> <s_m_source_file>
AV-unprocessed.smi

> <i_m_source_file_index>
1679

> <i_lp_mmshare_version>
43012

> <i_f3d_flags>
0

> <s_epik_input>
W0NIM11bQ0BASF0xW0NIMl1bQ0gyXVtDSDJdW0NIMl1bQ0BIXTFPW0NIMl1bQ0gyXVtOSF1DKD1PKVtDSDJdbjJbY0hdW2NIXWMoPU8pW25IXWMyPU8=

> <s_epik_cmdline>
J2VwaWtfcHl0aG9uJywgJy1waCcsICc3LjAnLCAnLXRuJywgJzgnLCAnLW1hJywgJzIwMCcsICctbWV0YWxfYmluZGluZycsICctaW1hZScsICc8aW5maWxlLm1hZT4nLCAnLW9tYWUnLCAnPG91dGZpbGUubWFlPic=

> <r_lp_tautomer_probability>
0.999537

> <r_epik_Ionization_Penalty>
0.0033132

> <r_epik_Ionization_Penalty_Charging>
0.00331317

> <r_epik_Ionization_Penalty_Neutral>
2.78599e-08

> <r_epik_State_Penalty>
0.002342

> <r_epik_Charging_Adjusted_Penalty>
0.00565517

> <i_epik_Tot_Q>
0

> <i_epik_Tot_abs_Q>
0

> <r_epik_Metal_State_Penalty>
0.365595

> <b_epik_Metal_Only>
0

> <s_lp_Force_Field>
OPLS_2005

> <r_lp_Energy>
12.8009

> <b_lp_Chiralities_Consistent>
1

> <s_lp_Variant>
AV-unprocessed.smi:1679-1

> <Gold.Version>
5.8.1

> <Gold.Id.Protein>
6NUR|6NUR_protein|mol2

> <Gold.PLP.Fitness>
46.7433

> <Gold.PLP.PLP>
-45.5296

> <Gold.PLP.part.hbond>
-1.0000

> <Gold.PLP.part.metal>
0.0000

> <Gold.PLP.part.buried>
-4.9355

> <Gold.PLP.part.nonpolar>
-40.2833

> <Gold.PLP.part.repulsive>
0.2156

> <Gold.PLP.ligand.clash>
0.0000

> <Gold.PLP.ligand.torsion>
0.9275

> <Gold.PLP.Chemscore.Hbond>
1.0000

> <Gold.PLP.Chemscore.CHOScore>
0.0000

> <Gold.PLP.Chemscore.Metal>
0.0000

> <Gold.Chemscore.Hbonds>
donor molecule, donor type, donor heavy atom, donor atom, acceptor molecule, acceptor atom, score
      P1  H  6896  6908       L1    13  0.96

> <Gold.PLP.Chemscore.Internal.Correction>
0.0688

> <Gold.Rescore>
     Score         DG    S(hbond)    S(metal)    S(lipo)     H(rot)  DE(clash)    DE(int)     intcor
     14.35     -15.59       0.97        0.00     113.93       2.52       0.07       1.17       ----

> <Gold.Chemscore.Fitness>
14.3504

> <Gold.Chemscore.DG>
-15.5864

> <Gold.Chemscore.ZeroCoef>
-5.4800

> <Gold.Chemscore.Hbond>
0.9651

> <Gold.Chemscore.Metal>
0.0000

> <Gold.Chemscore.Lipo>
113.9341

> <Gold.Chemscore.Internal_Hbond>
0.0000

> <Gold.Chemscore.DEClash>
0.0653

> <Gold.Chemscore.DEInternal>
1.1706

> <Gold.Chemscore.Rot>
2.5185

> <Gold.Chemscore.Internal.Correction>
   9.000000E+99

> <Gold.Chemscore.Hbonds>
donor molecule, donor type, donor heavy atom, donor atom, acceptor molecule, acceptor atom, score
      P1  H  6896  6908       L1    13  0.88

> <Gold.Chemscore.Hbond.Weighted>
-3.2233

> <Gold.Chemscore.Metal.Weighted>
-0.0000

> <Gold.Chemscore.Lipo.Weighted>
-13.3303

> <Gold.Chemscore.Internal_Hbond.Weighted>
0.0000

> <Gold.Chemscore.DEClash.Weighted>
0.0653

> <Gold.Chemscore.DEInternal.Weighted>
1.1706

> <Gold.Chemscore.Rot.Weighted>
6.4472

> <Gold.Chemscore.Internal.Correction.Weighted>
   9.000000E+99

> <Gold.Protein.RotatedTorsions>
[ 6907 6896 6895 6894 ] final  -57.54 input  -60.11 | X-H torsion
[ 7974 7965 7964 7962 ] final  -20.37 input  175.53 | X-H torsion
[ 8008 7997 7996 7995 ] final  129.07 input   59.86 | X-H torsion
[ 10167 10162 10161 10158 ] final  -14.37 input  -65.29 | X-H torsion
[ 10718 10713 10712 10709 ] final   64.57 input   66.30 | X-H torsion
[ 10763 10752 10751 10750 ] final  -27.61 input  -60.55 | X-H torsion
[ 11005 11000 10999 10996 ] final   69.91 input  -57.11 | X-H torsion

> <Gold.Protein.ActiveResidues>
 VAL166  LYS551  ARG553  GLY616  TRP617  ASP618  TYR619  PRO620  LYS621  CYS622 
 ASP623  PHE694  ASN695  SER759  ASP760  ASP761  ALA762  ILE779  LEU786  VAL792 
 PHE793  MET794  SER795  GLU796  ALA797  LYS798  CYS799  TRP800  GLU811  SER814 

> <Gold.Protein.RotatedAtoms>
  150.8077  134.7213  159.6659 H   0  0  0  0  0  0  0  0  0  0  0  0  # atno 6907 bound_to 6896
  152.4197  134.5974  160.0000 H   0  0  0  0  0  0  0  0  0  0  0  0  # atno 6908 bound_to 6896
  151.6193  133.3303  159.3120 H   0  0  0  0  0  0  0  0  0  0  0  0  # atno 6909 bound_to 6896
  146.1792  140.4192  142.8501 H   0  0  0  0  0  0  0  0  0  0  0  0  # atno 7974 bound_to 7965
  156.2928  140.2629  156.2538 H   0  0  0  0  0  0  0  0  0  0  0  0  # atno 8008 bound_to 7997
  154.9856  140.0389  157.2315 H   0  0  0  0  0  0  0  0  0  0  0  0  # atno 8009 bound_to 7997
  154.7732  140.2782  155.6126 H   0  0  0  0  0  0  0  0  0  0  0  0  # atno 8010 bound_to 7997
  140.7200  143.5329  150.9499 H   0  0  0  0  0  0  0  0  0  0  0  0  # atno 10167 bound_to 10162
  157.6048  130.9167  149.9863 H   0  0  0  0  0  0  0  0  0  0  0  0  # atno 10718 bound_to 10713
  153.7349  135.6936  153.4980 H   0  0  0  0  0  0  0  0  0  0  0  0  # atno 10763 bound_to 10752
  153.2110  135.4403  155.0378 H   0  0  0  0  0  0  0  0  0  0  0  0  # atno 10764 bound_to 10752
  154.8240  135.3436  154.6877 H   0  0  0  0  0  0  0  0  0  0  0  0  # atno 10765 bound_to 10752
  139.9627  134.7033  156.0611 H   0  0  0  0  0  0  0  0  0  0  0  0  # atno 11005 bound_to 11000
  144.8286  140.6670  143.6306 LP  0  0  0  0  0  0  0  0  0  0  0  0  # atno 17320 bound_to 7965
  145.4126  139.1577  143.4118 LP  0  0  0  0  0  0  0  0  0  0  0  0  # atno 17321 bound_to 7965
  139.9050  143.6790  152.3125 LP  0  0  0  0  0  0  0  0  0  0  0  0  # atno 17342 bound_to 10162
  139.7152  144.7613  151.1045 LP  0  0  0  0  0  0  0  0  0  0  0  0  # atno 17343 bound_to 10162
  156.1131  130.3649  150.0014 LP  0  0  0  0  0  0  0  0  0  0  0  0  # atno 17370 bound_to 10713
  156.8109  130.9324  151.3644 LP  0  0  0  0  0  0  0  0  0  0  0  0  # atno 17371 bound_to 10713
  141.1305  133.6588  156.3452 LP  0  0  0  0  0  0  0  0  0  0  0  0  # atno 17394 bound_to 11000
  140.5465  134.6070  157.5395 LP  0  0  0  0  0  0  0  0  0  0  0  0  # atno 17395 bound_to 11000

$$$$
