AV-unprocessed.smi:160|AV-procd|sdf|1358|dock1
  -GOLD-   2262019 63D 1   1.00000     0.00000
 Structure written by MMmdl.
 29 30  0  0  0  0  0  0  0  0  1 V2000
  151.6184  137.2439  154.7139 N   0  0  0  0  0  0  0  0  0  0  0  0
  151.7732  138.3459  155.4551 C   0  0  0  0  0  0  0  0  0  0  0  0
  152.7014  138.4790  156.2510 O   0  0  0  0  0  0  0  0  0  0  0  0
  150.7419  139.4238  155.2662 C   0  0  0  0  0  0  0  0  0  0  0  0
  150.7590  140.5582  156.0269 N   0  0  0  0  0  0  0  0  0  0  0  0
  149.7070  141.1758  155.5045 C   0  0  0  0  0  0  0  0  0  0  0  0
  149.0974  140.4900  154.5325 N   0  0  0  0  0  0  0  0  0  0  0  0
  147.9208  140.8598  153.6894 C   0  0  1  0  0  0  0  0  0  0  0  0
  147.8228  139.9029  152.6759 O   0  0  0  0  0  0  0  0  0  0  0  0
  146.5249  139.3129  152.6572 C   0  0  1  0  0  0  0  0  0  0  0  0
  146.6301  137.8526  152.1910 C   0  0  0  0  0  0  0  0  0  0  0  0
  146.5330  137.7829  150.7847 O   0  0  0  0  0  0  0  0  0  0  0  0
  146.0481  139.4588  154.1031 C   0  0  2  0  0  0  0  0  0  0  0  0
  144.6407  139.3941  154.2410 O   0  0  0  0  0  0  0  0  0  0  0  0
  146.6226  140.8104  154.5090 C   0  0  2  0  0  0  0  0  0  0  0  0
  145.7729  141.8902  154.1676 O   0  0  0  0  0  0  0  0  0  0  0  0
  149.7760  139.3295  154.3506 N   0  0  0  0  0  0  0  0  0  0  0  0
  148.1629  141.8482  153.2957 H   0  0  0  0  0  0  0  0  0  0  0  0
  145.8783  139.8970  151.9993 H   0  0  0  0  0  0  0  0  0  0  0  0
  146.4962  138.6766  154.7176 H   0  0  0  0  0  0  0  0  0  0  0  0
  146.8270  140.8651  155.5794 H   0  0  0  0  0  0  0  0  0  0  0  0
  152.2805  136.4861  154.7944 H   0  0  0  0  0  0  0  0  0  0  0  0
  150.8393  137.1788  154.0751 H   0  0  0  0  0  0  0  0  0  0  0  0
  149.3754  142.1488  155.8362 H   0  0  0  0  0  0  0  0  0  0  0  0
  147.5591  137.3942  152.5320 H   0  0  0  0  0  0  0  0  0  0  0  0
  145.8089  137.2656  152.6035 H   0  0  0  0  0  0  0  0  0  0  0  0
  145.8139  138.3288  150.5050 H   0  0  0  0  0  0  0  0  0  0  0  0
  144.2505  140.0001  153.6300 H   0  0  0  0  0  0  0  0  0  0  0  0
  145.1054  141.5671  153.5813 H   0  0  0  0  0  0  0  0  0  0  0  0
  1  2  1  0  0  0  0
  1 22  1  0  0  0  0
  1 23  1  0  0  0  0
  2  3  2  0  0  0  0
  2  4  1  0  0  0  0
  4 17  2  0  0  0  0
  4  5  1  0  0  0  0
  5  6  2  0  0  0  0
  6  7  1  0  0  0  0
  6 24  1  0  0  0  0
  7  8  1  0  0  0  0
  7 17  1  0  0  0  0
  8 18  1  0  0  0  0
  8 15  1  0  0  0  0
  8  9  1  0  0  0  0
  9 10  1  0  0  0  0
 10 19  1  0  0  0  0
 10 11  1  0  0  0  0
 10 13  1  0  0  0  0
 11 12  1  0  0  0  0
 11 25  1  0  0  0  0
 11 26  1  0  0  0  0
 12 27  1  0  0  0  0
 13 20  1  0  0  0  0
 13 14  1  0  0  0  0
 13 15  1  0  0  0  0
 14 28  1  0  0  0  0
 15 21  1  0  0  0  0
 15 16  1  0  0  0  0
 16 29  1  0  0  0  0
M  END
> <s_m_source_file>
AV-unprocessed.smi

> <i_m_source_file_index>
160

> <i_lp_mmshare_version>
43012

> <i_f3d_flags>
0

> <s_epik_input>
W05IMl1DKD1PKWMxbltjSF1uKG4xKVtDQEBIXTJPW0NASF0oW0NIMl1bT0hdKVtDQEBIXShbT0hdKVtDQEhdMltPSF0=

> <s_epik_cmdline>
J2VwaWtfcHl0aG9uJywgJy1waCcsICc3LjAnLCAnLXRuJywgJzgnLCAnLW1hJywgJzIwMCcsICctbWV0YWxfYmluZGluZycsICctaW1hZScsICc8aW5maWxlLm1hZT4nLCAnLW9tYWUnLCAnPG91dGZpbGUubWFlPic=

> <r_lp_tautomer_probability>
1

> <r_epik_Ionization_Penalty>
1.06932e-05

> <r_epik_Ionization_Penalty_Charging>
0

> <r_epik_Ionization_Penalty_Neutral>
1.06932e-05

> <r_epik_State_Penalty>
-0

> <r_epik_Charging_Adjusted_Penalty>
0

> <i_epik_Tot_Q>
0

> <i_epik_Tot_abs_Q>
0

> <r_epik_Metal_State_Penalty>
0.0142097

> <b_epik_Metal_Only>
0

> <s_epik_Chemistry_Notes>
This compound contains an acetal/aminal-like group ( X-CH(R)-Y where X, Y are N, S, or O) that may be acid/base labile, releasing an aldehyde.

> <s_lp_Force_Field>
OPLS_2005

> <r_lp_Energy>
39.0504

> <b_lp_Chiralities_Consistent>
1

> <s_lp_Variant>
AV-unprocessed.smi:160-16

> <Gold.Version>
5.8.1

> <Gold.Id.Protein>
6NUR|6NUR_protein|mol2

> <Gold.PLP.Fitness>
40.5992

> <Gold.PLP.PLP>
-23.5815

> <Gold.PLP.part.hbond>
-6.9708

> <Gold.PLP.part.metal>
0.0000

> <Gold.PLP.part.buried>
-0.3864

> <Gold.PLP.part.nonpolar>
-22.9676

> <Gold.PLP.part.repulsive>
6.2006

> <Gold.PLP.ligand.clash>
0.0000

> <Gold.PLP.ligand.torsion>
0.4918

> <Gold.PLP.Chemscore.Hbond>
4.9913

> <Gold.PLP.Chemscore.CHOScore>
1.0000

> <Gold.PLP.Chemscore.Metal>
0.0000

> <Gold.Chemscore.Hbonds>
donor molecule, donor type, donor heavy atom, donor atom, acceptor molecule, acceptor atom, score
      L1  H    12    27       P1 10171  0.93
      L1  H    14    28       P1 10175  0.59
      L1  H    16    29       P1 10175  0.66
      P1  H  7954  7966       L1    12  1.00
      P1  H  7997  8008       L1     3  0.31
      L1  C     6    24       P1  8028  0.77

> <Gold.PLP.Chemscore.Internal.Correction>
0.0276

> <Gold.Rescore>
     Score         DG    S(hbond)    S(metal)    S(lipo)     H(rot)  DE(clash)    DE(int)     intcor
      8.24     -12.24       4.42        0.00      20.28       4.06       2.89       1.11       ----

> <Gold.Chemscore.Fitness>
8.2397

> <Gold.Chemscore.DG>
-12.2367

> <Gold.Chemscore.ZeroCoef>
-5.4800

> <Gold.Chemscore.Hbond>
4.4244

> <Gold.Chemscore.Metal>
0.0000

> <Gold.Chemscore.Lipo>
20.2801

> <Gold.Chemscore.Internal_Hbond>
0.0000

> <Gold.Chemscore.DEClash>
2.8874

> <Gold.Chemscore.DEInternal>
1.1096

> <Gold.Chemscore.Rot>
4.0600

> <Gold.Chemscore.Internal.Correction>
   9.000000E+99

> <Gold.Chemscore.Hbonds>
donor molecule, donor type, donor heavy atom, donor atom, acceptor molecule, acceptor atom, score
      L1  H    12    27       P1 10171  0.86
      L1  H    14    28       P1 10175  0.58
      L1  H    16    29       P1 10175  0.08
      P1  H  7954  7966       L1    12  0.87
      P1  H  7997  8008       L1     3  0.31

> <Gold.Chemscore.Hbond.Weighted>
-14.7776

> <Gold.Chemscore.Metal.Weighted>
-0.0000

> <Gold.Chemscore.Lipo.Weighted>
-2.3728

> <Gold.Chemscore.Internal_Hbond.Weighted>
0.0000

> <Gold.Chemscore.DEClash.Weighted>
2.8874

> <Gold.Chemscore.DEInternal.Weighted>
1.1096

> <Gold.Chemscore.Rot.Weighted>
10.3936

> <Gold.Chemscore.Internal.Correction.Weighted>
   9.000000E+99

> <Gold.Protein.RotatedTorsions>
[ 6907 6896 6895 6894 ] final  130.73 input  -60.11 | X-H torsion
[ 7974 7965 7964 7962 ] final  116.52 input  175.53 | X-H torsion
[ 8008 7997 7996 7995 ] final  -47.38 input   59.86 | X-H torsion
[ 10167 10162 10161 10158 ] final -128.90 input  -65.29 | X-H torsion
[ 10718 10713 10712 10709 ] final   11.56 input   66.30 | X-H torsion
[ 10763 10752 10751 10750 ] final  147.53 input  -60.55 | X-H torsion
[ 11005 11000 10999 10996 ] final  -39.21 input  -57.11 | X-H torsion

> <Gold.Protein.ActiveResidues>
 VAL166  LYS551  ARG553  GLY616  TRP617  ASP618  TYR619  PRO620  LYS621  CYS622 
 ASP623  PHE694  ASN695  SER759  ASP760  ASP761  ALA762  ILE779  LEU786  VAL792 
 PHE793  MET794  SER795  GLU796  ALA797  LYS798  CYS799  TRP800  GLU811  SER814 

> <Gold.Protein.RotatedAtoms>
  152.3497  133.6164  159.5935 H   0  0  0  0  0  0  0  0  0  0  0  0  # atno 6907 bound_to 6896
  150.7529  133.9594  159.3519 H   0  0  0  0  0  0  0  0  0  0  0  0  # atno 6908 bound_to 6896
  151.7448  135.0847  160.0372 H   0  0  0  0  0  0  0  0  0  0  0  0  # atno 6909 bound_to 6896
  145.1786  139.3062  143.4430 H   0  0  0  0  0  0  0  0  0  0  0  0  # atno 7974 bound_to 7965
  154.4016  140.1348  156.4166 H   0  0  0  0  0  0  0  0  0  0  0  0  # atno 8008 bound_to 7997
  155.7683  140.3484  155.5213 H   0  0  0  0  0  0  0  0  0  0  0  0  # atno 8009 bound_to 7997
  155.8792  140.0984  157.1487 H   0  0  0  0  0  0  0  0  0  0  0  0  # atno 8010 bound_to 7997
  139.9454  143.6115  152.2491 H   0  0  0  0  0  0  0  0  0  0  0  0  # atno 10167 bound_to 10162
  156.9974  130.6066  149.5692 H   0  0  0  0  0  0  0  0  0  0  0  0  # atno 10718 bound_to 10713
  154.0398  135.2890  155.3356 H   0  0  0  0  0  0  0  0  0  0  0  0  # atno 10763 bound_to 10752
  154.6936  135.5216  153.8430 H   0  0  0  0  0  0  0  0  0  0  0  0  # atno 10764 bound_to 10752
  153.0605  135.6612  154.0603 H   0  0  0  0  0  0  0  0  0  0  0  0  # atno 10765 bound_to 10752
  141.0085  133.6920  156.2156 H   0  0  0  0  0  0  0  0  0  0  0  0  # atno 11005 bound_to 11000
  146.3457  140.1957  142.8589 LP  0  0  0  0  0  0  0  0  0  0  0  0  # atno 17320 bound_to 7965
  145.0159  140.8753  143.5196 LP  0  0  0  0  0  0  0  0  0  0  0  0  # atno 17321 bound_to 7965
  139.6670  144.7662  151.1854 LP  0  0  0  0  0  0  0  0  0  0  0  0  # atno 17342 bound_to 10162
  140.7598  143.5922  150.8785 LP  0  0  0  0  0  0  0  0  0  0  0  0  # atno 17343 bound_to 10162
  156.0184  130.5279  150.8203 LP  0  0  0  0  0  0  0  0  0  0  0  0  # atno 17370 bound_to 10713
  157.5415  131.0941  150.9821 LP  0  0  0  0  0  0  0  0  0  0  0  0  # atno 17371 bound_to 10713
  140.6773  134.4805  157.5588 LP  0  0  0  0  0  0  0  0  0  0  0  0  # atno 17394 bound_to 11000
  139.9076  134.8414  156.1645 LP  0  0  0  0  0  0  0  0  0  0  0  0  # atno 17395 bound_to 11000

$$$$
