#       Name:                AV-unprocessed.smi:73
#       Creating user name   scv26
#       Creation time:       Thu Mar 26 17:09:51 2020


#       File generated by GOLD software.
#

@<TRIPOS>MOLECULE
AV-unprocessed.smi:73
    42    43     1
SMALL
NO_CHARGES


@<TRIPOS>ATOM
      1 ****        -0.8034   2.5307  -0.7909 C.3            1 S1                 0.0000
      2 ****        -0.8347   1.6778   0.4867 C.3            1 S1                 0.0000
      3 ****        -0.1585   0.3665   0.4308 N.3            1 S1                 0.0000
      4 ****         1.3070   0.5229   0.3565 C.3            1 S1                 0.0000
      5 ****         1.8326   0.9348  -0.9806 C.2            1 S1                 0.0000
      6 ****         2.7505   1.8701  -1.2359 N.2            1 S1                 0.0000
      7 ****         2.9032   1.8808  -2.6045 N.2            1 S1                 0.0000
      8 ****         2.0723   0.9452  -3.0703 C.2            1 S1                 0.0000
      9 ****         1.8523   0.5532  -4.4908 C.3            1 S1                 0.0000
     10 ****         1.3745   0.3076  -2.0955 O.3            1 S1                 0.0000
     11 ****        -0.5386  -0.4621   1.5948 C.3            1 S1                 0.0000
     12 ****        -2.0561  -0.7239   1.7599 C.3            1 S1                 0.0000
     13 ****        -2.2332  -2.0973   2.2690 N.4            1 S1                 1.0000
     14 ****        -0.9036  -2.6662   2.5278 C.3            1 S1                 0.0000
     15 ****         0.0434  -1.8939   1.6139 C.3            1 S1                 0.0000
     16 ****         0.0061  -2.4948   0.3308 O.3            1 S1                 0.0000
     17 ****         1.0650  -1.9267   1.9937 H              1 S1                 0.0000
     18 ****        -1.5184   3.3501  -0.7155 H              1 S1                 0.0000
     19 ****        -1.0704   1.9416  -1.6688 H              1 S1                 0.0000
     20 ****         0.1713   2.9848  -0.9619 H              1 S1                 0.0000
     21 ****        -0.4451   2.2615   1.3223 H              1 S1                 0.0000
     22 ****        -1.8918   1.5349   0.7036 H              1 S1                 0.0000
     23 ****         1.6495   1.2331   1.1107 H              1 S1                 0.0000
     24 ****         1.8114  -0.4139   0.5824 H              1 S1                 0.0000
     25 ****         2.3723   1.2399  -5.1591 H              1 S1                 0.0000
     26 ****         0.7877   0.5761  -4.7247 H              1 S1                 0.0000
     27 ****         2.2292  -0.4553  -4.6617 H              1 S1                 0.0000
     28 ****        -0.1973   0.0344   2.5051 H              1 S1                 0.0000
     29 ****        -2.5143  -0.0044   2.4391 H              1 S1                 0.0000
     30 ****        -2.5775  -0.6620   0.8039 H              1 S1                 0.0000
     31 ****        -2.8005  -2.1109   3.1044 H              1 S1                 0.0000
     32 ****        -0.6486  -2.4732   3.5707 H              1 S1                 0.0000
     33 ****        -0.8818  -3.7456   2.3716 H              1 S1                 0.0000
     34 ****         0.5246  -1.9712  -0.2620 H              1 S1                 0.0000
     35 ****        -2.6786  -2.6438   1.5456 H              1 S1                 0.0000
     36 ****        -0.4573  -0.0997  -0.4020 LP             1 S1                 0.0000
     37 ****         3.2283   2.4441  -0.5709 LP             1 S1                 0.0000
     38 ****         3.5109   2.4680  -3.1391 LP             1 S1                 0.0000
     39 ****         0.3891   0.4358  -2.2081 LP             1 S1                 0.0000
     40 ****         1.5834  -0.6702  -2.0766 LP             1 S1                 0.0000
     41 ****        -0.9386  -2.5365   0.0054 LP             1 S1                 0.0000
     42 ****         0.3826  -3.4199   0.3807 LP             1 S1                 0.0000
@<TRIPOS>BOND
    1    1    2 1     
    2    1   18 1     
    3    1   19 1     
    4    1   20 1     
    5    2    3 1     
    6    2   21 1     
    7    2   22 1     
    8    3    4 1     
    9    3   11 1     
   10    4    5 1     
   11    4   23 1     
   12    4   24 1     
   13    5   10 1     
   14    5    6 2     
   15    6    7 1     
   16    7    8 2     
   17    8    9 1     
   18    8   10 1     
   19    9   25 1     
   20    9   26 1     
   21    9   27 1     
   22   11   15 1     
   23   11   12 1     
   24   11   28 1     
   25   12   13 1     
   26   12   29 1     
   27   12   30 1     
   28   13   14 1     
   29   13   31 1     
   30   13   35 1     
   31   14   15 1     
   32   14   32 1     
   33   14   33 1     
   34   15   17 1     
   35   15   16 1     
   36   16   34 1     
   37    3   36 1     
   38    6   37 1     
   39    7   38 1     
   40   10   39 1     
   41   10   40 1     
   42   16   41 1     
   43   16   42 1     
@<TRIPOS>SUBSTRUCTURE
      1 S1             1
@<TRIPOS>SET
LONE_PAIRS      STATIC     ATOMS    <user>   **** ""
7 36 37 38 39 40 41 42
DONOR_HYDROGENS      STATIC     ATOMS    <user>   **** ""
3 31 35 34
ATOM$BLUE        STATIC     ATOMS    COLORGROUP SYSTEM
7 36 37 38 39 40 41 42
ATOM$RED        STATIC     ATOMS    COLORGROUP SYSTEM
3 31 35 34
