#       Name:                AV-unprocessed.smi:662
#       Creating user name   scv26
#       Creation time:       Fri Mar 27 00:19:09 2020


#       File generated by GOLD software.
#

@<TRIPOS>MOLECULE
AV-unprocessed.smi:662
    37    38     1
SMALL
NO_CHARGES


@<TRIPOS>ATOM
      1 ****        -1.3628   0.3146  -1.4770 O.2            1 S1                 0.0000
      2 ****        -1.3298   0.8995  -0.3948 C.2            1 S1                 0.0000
      3 ****        -0.8544   0.3244   0.7239 N.am           1 S1                 0.0000
      4 ****        -0.3197  -1.0307   0.8022 C.3            1 S1                 0.0000
      5 ****         1.1348  -1.0960   0.3098 C.3            1 S1                 0.0000
      6 ****         1.6992  -2.4743   0.3889 C.2            1 S1                 0.0000
      7 ****         1.5759  -3.3758  -0.5883 N.2            1 S1                 0.0000
      8 ****         2.1581  -4.6069  -0.2669 C.2            1 S1                 0.0000
      9 ****         2.1182  -5.7324  -1.2601 C.3            1 S1                 0.0000
     10 ****         2.7180  -6.8252  -0.7877 F              1 S1                 0.0000
     11 ****         0.8628  -6.0627  -1.5616 F              1 S1                 0.0000
     12 ****         2.7331  -5.3955  -2.3934 F              1 S1                 0.0000
     13 ****         2.7172  -4.6242   0.9880 C.2            1 S1                 0.0000
     14 ****         2.5301  -3.0984   1.8081 S.3            1 S1                 0.0000
     15 ****        -1.8601   2.3413  -0.3080 C.3            1 S1                 0.0000
     16 ****        -1.1920   3.2497  -1.3489 C.3            1 S1                 0.0000
     17 ****        -1.3584   4.6399  -0.7548 C.3            1 S1                 0.0000
     18 ****        -1.2533   4.4051   0.7528 C.3            1 S1                 0.0000
     19 ****        -1.6185   2.9941   0.9994 N.4            1 S1                 1.0000
     20 ****        -0.8685   0.8535   1.5830 H              1 S1                 0.0000
     21 ****        -0.3745  -1.3579   1.8410 H              1 S1                 0.0000
     22 ****        -0.9481  -1.7150   0.2291 H              1 S1                 0.0000
     23 ****         1.2038  -0.7528  -0.7234 H              1 S1                 0.0000
     24 ****         1.7625  -0.4296   0.9023 H              1 S1                 0.0000
     25 ****         3.2232  -5.4420   1.4794 H              1 S1                 0.0000
     26 ****        -2.9380   2.3291  -0.4752 H              1 S1                 0.0000
     27 ****        -0.1290   3.0202  -1.4448 H              1 S1                 0.0000
     28 ****        -1.6440   3.1624  -2.3376 H              1 S1                 0.0000
     29 ****        -0.6231   5.3544  -1.1262 H              1 S1                 0.0000
     30 ****        -2.3503   5.0229  -0.9991 H              1 S1                 0.0000
     31 ****        -0.2281   4.5574   1.0916 H              1 S1                 0.0000
     32 ****        -1.8959   5.0827   1.3158 H              1 S1                 0.0000
     33 ****        -2.4461   2.9290   1.5750 H              1 S1                 0.0000
     34 ****        -0.8417   2.5385   1.4559 H              1 S1                 0.0000
     35 ****        -1.0279  -0.6249  -1.5479 LP             1 S1                 0.0000
     36 ****        -1.7246   0.7789  -2.2854 LP             1 S1                 0.0000
     37 ****         1.1165  -3.1909  -1.4570 LP             1 S1                 0.0000
@<TRIPOS>BOND
    1    1    2 2     
    2    2    3 am    
    3    2   15 1     
    4    3    4 1     
    5    3   20 1     
    6    4    5 1     
    7    4   21 1     
    8    4   22 1     
    9    5    6 1     
   10    5   23 1     
   11    5   24 1     
   12    6   14 1     
   13    6    7 2     
   14    7    8 1     
   15    8    9 1     
   16    8   13 2     
   17    9   10 1     
   18    9   11 1     
   19    9   12 1     
   20   13   14 1     
   21   13   25 1     
   22   15   19 1     
   23   15   16 1     
   24   15   26 1     
   25   16   17 1     
   26   16   27 1     
   27   16   28 1     
   28   17   18 1     
   29   17   29 1     
   30   17   30 1     
   31   18   19 1     
   32   18   31 1     
   33   18   32 1     
   34   19   33 1     
   35   19   34 1     
   36    1   35 1     
   37    1   36 1     
   38    7   37 1     
@<TRIPOS>SUBSTRUCTURE
      1 S1             1
@<TRIPOS>SET
LONE_PAIRS      STATIC     ATOMS    <user>   **** ""
3 35 36 37
DONOR_HYDROGENS      STATIC     ATOMS    <user>   **** ""
3 20 33 34
ATOM$BLUE        STATIC     ATOMS    COLORGROUP SYSTEM
3 35 36 37
ATOM$RED        STATIC     ATOMS    COLORGROUP SYSTEM
3 20 33 34
