AV-unprocessed.smi:634|AV-procd|sdf|3133|dock6
  -GOLD-   22720 0 53D 1   1.00000     0.00000
 Structure written by MMmdl.
 33 34  0  0  0  0  0  0  0  0  1 V2000
  146.5564  134.1644  162.4502 C   0  0  0  0  0  0  0  0  0  0  0  0
  147.1784  135.1185  161.4890 C   0  0  0  0  0  0  0  0  0  0  0  0
  147.7947  134.9524  160.2806 C   0  0  0  0  0  0  0  0  0  0  0  0
  148.1432  136.2797  159.9144 C   0  0  0  0  0  0  0  0  0  0  0  0
  148.8106  136.5449  158.6915 N   0  0  0  0  0  0  0  0  0  0  0  0
  148.8923  137.7173  158.0401 C   0  0  0  0  0  0  0  0  0  0  0  0
  148.3954  138.7755  158.4258 O   0  0  0  0  0  0  0  0  0  0  0  0
  149.5892  137.5865  156.8987 N   0  0  0  0  0  0  0  0  0  0  0  0
  149.8862  138.6132  155.8900 C   0  0  1  0  0  0  0  0  0  0  0  0
  148.5794  139.1925  155.3077 C   0  0  0  0  0  0  0  0  0  0  0  0
  150.6890  139.7311  156.5982 C   0  0  0  0  0  0  0  0  0  0  0  0
  152.1330  139.2670  156.8278 C   0  0  0  0  0  0  0  0  0  0  0  0
  152.5266  138.1605  155.4248 S   0  0  0  0  0  0  0  0  0  0  0  0
  153.3641  138.8759  154.4503 O   0  0  0  0  0  0  0  0  0  0  0  0
  152.9311  136.8491  155.9539 O   0  0  0  0  0  0  0  0  0  0  0  0
  150.8123  138.0578  154.7823 C   0  0  0  0  0  0  0  0  0  0  0  0
  147.7773  137.1745  160.8193 N   0  0  0  0  0  0  0  0  0  0  0  0
  147.1576  136.4347  161.8334 O   0  0  0  0  0  0  0  0  0  0  0  0
  146.4271  133.1820  161.9956 H   0  0  0  0  0  0  0  0  0  0  0  0
  145.5762  134.5193  162.7688 H   0  0  0  0  0  0  0  0  0  0  0  0
  147.1800  134.0484  163.3365 H   0  0  0  0  0  0  0  0  0  0  0  0
  147.9642  134.0293  159.7466 H   0  0  0  0  0  0  0  0  0  0  0  0
  149.2629  135.7529  158.2598 H   0  0  0  0  0  0  0  0  0  0  0  0
  149.9472  136.6653  156.6929 H   0  0  0  0  0  0  0  0  0  0  0  0
  148.7823  140.0235  154.6315 H   0  0  0  0  0  0  0  0  0  0  0  0
  147.9257  139.5652  156.0970 H   0  0  0  0  0  0  0  0  0  0  0  0
  148.0208  138.4499  154.7382 H   0  0  0  0  0  0  0  0  0  0  0  0
  150.7179  140.6106  155.9535 H   0  0  0  0  0  0  0  0  0  0  0  0
  150.2198  140.0490  157.5303 H   0  0  0  0  0  0  0  0  0  0  0  0
  152.8443  140.0918  156.8694 H   0  0  0  0  0  0  0  0  0  0  0  0
  152.2153  138.6879  157.7478 H   0  0  0  0  0  0  0  0  0  0  0  0
  150.5915  137.0376  154.4699 H   0  0  0  0  0  0  0  0  0  0  0  0
  150.7651  138.6889  153.8944 H   0  0  0  0  0  0  0  0  0  0  0  0
  1  2  1  0  0  0  0
  1 19  1  0  0  0  0
  1 20  1  0  0  0  0
  1 21  1  0  0  0  0
  2 18  1  0  0  0  0
  2  3  2  0  0  0  0
  3  4  1  0  0  0  0
  3 22  1  0  0  0  0
  4  5  1  0  0  0  0
  4 17  2  0  0  0  0
  5  6  1  0  0  0  0
  5 23  1  0  0  0  0
  6  7  2  0  0  0  0
  6  8  1  0  0  0  0
  8  9  1  0  0  0  0
  8 24  1  0  0  0  0
  9 16  1  0  0  0  0
  9 10  1  0  0  0  0
  9 11  1  0  0  0  0
 10 25  1  0  0  0  0
 10 26  1  0  0  0  0
 10 27  1  0  0  0  0
 11 12  1  0  0  0  0
 11 28  1  0  0  0  0
 11 29  1  0  0  0  0
 12 13  1  0  0  0  0
 12 30  1  0  0  0  0
 12 31  1  0  0  0  0
 13 14  2  0  0  0  0
 13 15  2  0  0  0  0
 13 16  1  0  0  0  0
 16 32  1  0  0  0  0
 16 33  1  0  0  0  0
 17 18  1  0  0  0  0
M  END
> <s_m_source_file>
AV-unprocessed.smi

> <i_m_source_file_index>
634

> <i_lp_mmshare_version>
43012

> <i_f3d_flags>
0

> <s_epik_input>
W0NIM11jMVtjSF1jKG5vMSlbTkhdQyg9TylbTkhdW0NAQF0yKFtDSDNdKVtDSDJdW0NIMl1TKD1PKSg9TylbQ0gyXTI=

> <s_epik_cmdline>
J2VwaWtfcHl0aG9uJywgJy1waCcsICc3LjAnLCAnLXRuJywgJzgnLCAnLW1hJywgJzIwMCcsICctbWV0YWxfYmluZGluZycsICctaW1hZScsICc8aW5maWxlLm1hZT4nLCAnLW9tYWUnLCAnPG91dGZpbGUubWFlPic=

> <r_lp_tautomer_probability>
1

> <r_epik_Ionization_Penalty>
3.87281e-05

> <r_epik_Ionization_Penalty_Charging>
0

> <r_epik_Ionization_Penalty_Neutral>
3.87281e-05

> <r_epik_State_Penalty>
-0

> <r_epik_Charging_Adjusted_Penalty>
0

> <i_epik_Tot_Q>
0

> <i_epik_Tot_abs_Q>
0

> <r_epik_Metal_State_Penalty>
0.0249287

> <b_epik_Metal_Only>
0

> <s_lp_Force_Field>
OPLS_2005

> <r_lp_Energy>
3.17223

> <b_lp_Chiralities_Consistent>
1

> <s_lp_Variant>
AV-unprocessed.smi:634-1

> <Gold.Version>
5.8.1

> <Gold.Id.Protein>
6NUR|6NUR_protein|mol2

> <Gold.PLP.Fitness>
36.0282

> <Gold.PLP.PLP>
-26.0891

> <Gold.PLP.part.hbond>
-4.8755

> <Gold.PLP.part.metal>
0.0000

> <Gold.PLP.part.buried>
-5.0055

> <Gold.PLP.part.nonpolar>
-16.8546

> <Gold.PLP.part.repulsive>
0.1588

> <Gold.PLP.ligand.clash>
0.0000

> <Gold.PLP.ligand.torsion>
0.0900

> <Gold.PLP.Chemscore.Hbond>
3.3680

> <Gold.PLP.Chemscore.CHOScore>
0.0000

> <Gold.PLP.Chemscore.Metal>
0.0000

> <Gold.Chemscore.Hbonds>
donor molecule, donor type, donor heavy atom, donor atom, acceptor molecule, acceptor atom, score
      P1  H  6931  6943       L1    17  0.86
      P1  H  6934  6947       L1    17  0.88
      P1  H  7997  8010       L1    14  0.57
      P1  H 10752 10763       L1    15  0.62

> <Gold.PLP.Chemscore.Internal.Correction>
0.0151

> <Gold.Rescore>
     Score         DG    S(hbond)    S(metal)    S(lipo)     H(rot)  DE(clash)    DE(int)     intcor
     17.27     -18.54       3.20        0.00      42.04       1.00       0.00       1.27       ----

> <Gold.Chemscore.Fitness>
17.2666

> <Gold.Chemscore.DG>
-18.5362

> <Gold.Chemscore.ZeroCoef>
-5.4800

> <Gold.Chemscore.Hbond>
3.2027

> <Gold.Chemscore.Metal>
0.0000

> <Gold.Chemscore.Lipo>
42.0446

> <Gold.Chemscore.Internal_Hbond>
0.0000

> <Gold.Chemscore.DEClash>
0.0000

> <Gold.Chemscore.DEInternal>
1.2696

> <Gold.Chemscore.Rot>
1.0000

> <Gold.Chemscore.Internal.Correction>
   9.000000E+99

> <Gold.Chemscore.Hbonds>
donor molecule, donor type, donor heavy atom, donor atom, acceptor molecule, acceptor atom, score
      P1  H  6931  6943       L1    17  0.21
      P1  H  6934  6947       L1    17  0.60
      P1  H  7997  8010       L1    14  0.19
      P1  H 10752 10763       L1    15  0.62

> <Gold.Chemscore.Hbond.Weighted>
-10.6970

> <Gold.Chemscore.Metal.Weighted>
-0.0000

> <Gold.Chemscore.Lipo.Weighted>
-4.9192

> <Gold.Chemscore.Internal_Hbond.Weighted>
0.0000

> <Gold.Chemscore.DEClash.Weighted>
0.0000

> <Gold.Chemscore.DEInternal.Weighted>
1.2696

> <Gold.Chemscore.Rot.Weighted>
2.5600

> <Gold.Chemscore.Internal.Correction.Weighted>
   9.000000E+99

> <Gold.Protein.RotatedTorsions>
[ 6907 6896 6895 6894 ] final -167.67 input  -60.11 | X-H torsion
[ 7974 7965 7964 7962 ] final -112.55 input  175.53 | X-H torsion
[ 8008 7997 7996 7995 ] final  114.12 input   59.86 | X-H torsion
[ 10167 10162 10161 10158 ] final  -76.25 input  -65.29 | X-H torsion
[ 10718 10713 10712 10709 ] final  148.93 input   66.30 | X-H torsion
[ 10763 10752 10751 10750 ] final  113.65 input  -60.55 | X-H torsion
[ 11005 11000 10999 10996 ] final   11.94 input  -57.11 | X-H torsion

> <Gold.Protein.ActiveResidues>
 VAL166  LYS551  ARG553  GLY616  TRP617  ASP618  TYR619  PRO620  LYS621  CYS622 
 ASP623  PHE694  ASN695  SER759  ASP760  ASP761  ALA762  ILE779  LEU786  VAL792 
 PHE793  MET794  SER795  GLU796  ALA797  LYS798  CYS799  TRP800  GLU811  SER814 

> <Gold.Protein.RotatedAtoms>
  151.4633  133.3587  159.2812 H   0  0  0  0  0  0  0  0  0  0  0  0  # atno 6907 bound_to 6896
  150.9010  134.8424  159.7371 H   0  0  0  0  0  0  0  0  0  0  0  0  # atno 6908 bound_to 6896
  152.4879  134.4554  159.9640 H   0  0  0  0  0  0  0  0  0  0  0  0  # atno 6909 bound_to 6896
  145.1427  140.8786  143.3693 H   0  0  0  0  0  0  0  0  0  0  0  0  # atno 7974 bound_to 7965
  156.2301  140.2965  156.0167 H   0  0  0  0  0  0  0  0  0  0  0  0  # atno 8008 bound_to 7997
  155.2248  140.0417  157.2971 H   0  0  0  0  0  0  0  0  0  0  0  0  # atno 8009 bound_to 7997
  154.5981  140.2419  155.7837 H   0  0  0  0  0  0  0  0  0  0  0  0  # atno 8010 bound_to 7997
  140.4873  143.2388  151.7964 H   0  0  0  0  0  0  0  0  0  0  0  0  # atno 10167 bound_to 10162
  157.3025  131.0873  151.1379 H   0  0  0  0  0  0  0  0  0  0  0  0  # atno 10718 bound_to 10713
  153.4956  135.3649  155.2514 H   0  0  0  0  0  0  0  0  0  0  0  0  # atno 10763 bound_to 10752
  154.8750  135.3987  154.3538 H   0  0  0  0  0  0  0  0  0  0  0  0  # atno 10764 bound_to 10752
  153.4165  135.7079  153.6389 H   0  0  0  0  0  0  0  0  0  0  0  0  # atno 10765 bound_to 10752
  140.4976  134.0778  155.7786 H   0  0  0  0  0  0  0  0  0  0  0  0  # atno 11005 bound_to 11000
  145.0515  139.3177  143.5926 LP  0  0  0  0  0  0  0  0  0  0  0  0  # atno 17320 bound_to 7965
  146.3503  139.9925  142.8684 LP  0  0  0  0  0  0  0  0  0  0  0  0  # atno 17321 bound_to 7965
  139.4844  144.4696  151.9442 LP  0  0  0  0  0  0  0  0  0  0  0  0  # atno 17342 bound_to 10162
  140.3782  144.2770  150.5911 LP  0  0  0  0  0  0  0  0  0  0  0  0  # atno 17343 bound_to 10162
  157.2733  130.6714  149.6030 LP  0  0  0  0  0  0  0  0  0  0  0  0  # atno 17370 bound_to 10713
  155.9672  130.4472  150.5572 LP  0  0  0  0  0  0  0  0  0  0  0  0  # atno 17371 bound_to 10713
  141.1452  133.9067  157.2232 LP  0  0  0  0  0  0  0  0  0  0  0  0  # atno 17394 bound_to 11000
  139.9732  135.0122  156.9566 LP  0  0  0  0  0  0  0  0  0  0  0  0  # atno 17395 bound_to 11000

$$$$
