AV-unprocessed.smi:2256|AV-procd|sdf|9126|dock2
  -GOLD-   2272012333D 1   1.00000     0.00000
 Structure written by MMmdl.
 42 44  0  0  0  0  0  0  0  0  1 V2000
  153.9278  143.0057  164.0121 C   0  0  0  0  0  0  0  0  0  0  0  0
  153.6498  142.5147  162.6024 C   0  0  0  0  0  0  0  0  0  0  0  0
  154.2618  141.3078  162.2517 N   0  0  0  0  0  0  0  0  0  0  0  0
  154.0900  140.8177  161.0676 C   0  0  0  0  0  0  0  0  0  0  0  0
  153.2962  141.4675  160.1085 N   0  0  0  0  0  0  0  0  0  0  0  0
  153.1866  140.8078  158.7968 C   0  0  0  0  0  0  0  0  0  0  0  0
  153.1764  139.2670  158.9153 C   0  0  2  0  0  0  0  0  0  0  0  0
  153.8440  138.6818  157.8152 O   0  0  0  0  0  0  0  0  0  0  0  0
  151.7568  138.6774  158.9718 C   0  0  0  0  0  0  0  0  0  0  0  0
  150.9011  139.3907  158.0874 O   0  0  0  0  0  0  0  0  0  0  0  0
  150.8053  138.9692  156.7782 C   0  0  0  0  0  0  0  0  0  0  0  0
  151.2410  137.6969  156.3237 C   0  0  0  0  0  0  0  0  0  0  0  0
  151.1123  137.3322  154.9699 C   0  0  0  0  0  0  0  0  0  0  0  0
  150.5471  138.2316  154.0505 C   0  0  0  0  0  0  0  0  0  0  0  0
  150.1152  139.4906  154.4997 C   0  0  0  0  0  0  0  0  0  0  0  0
  149.5342  140.5602  153.8473 N   0  0  0  0  0  0  0  0  0  0  0  0
  149.2851  141.5952  154.7312 C   0  0  0  0  0  0  0  0  0  0  0  0
  149.7005  141.2196  155.9820 C   0  0  0  0  0  0  0  0  0  0  0  0
  150.2319  139.8883  155.8642 C   0  0  0  0  0  0  0  0  0  0  0  0
  152.6508  142.6403  160.3727 C   0  0  0  0  0  0  0  0  0  0  0  0
  151.9404  143.1917  159.5297 O   0  0  0  0  0  0  0  0  0  0  0  0
  152.8617  143.1899  161.7217 C   0  0  0  0  0  0  0  0  0  0  0  0
  152.1708  144.5084  162.0465 C   0  0  0  0  0  0  0  0  0  0  0  0
  149.3118  140.6084  152.8633 H   0  0  0  0  0  0  0  0  0  0  0  0
  154.4328  143.9716  163.9861 H   0  0  0  0  0  0  0  0  0  0  0  0
  154.5664  142.3092  164.5564 H   0  0  0  0  0  0  0  0  0  0  0  0
  152.9980  143.1119  164.5712 H   0  0  0  0  0  0  0  0  0  0  0  0
  154.5421  139.8780  160.7455 H   0  0  0  0  0  0  0  0  0  0  0  0
  152.2596  141.1382  158.3241 H   0  0  0  0  0  0  0  0  0  0  0  0
  153.9678  141.1327  158.1059 H   0  0  0  0  0  0  0  0  0  0  0  0
  153.7014  138.9517  159.8177 H   0  0  0  0  0  0  0  0  0  0  0  0
  153.3890  137.8900  157.5727 H   0  0  0  0  0  0  0  0  0  0  0  0
  151.7750  137.6130  158.7306 H   0  0  0  0  0  0  0  0  0  0  0  0
  151.3790  138.7802  159.9903 H   0  0  0  0  0  0  0  0  0  0  0  0
  151.6800  136.9773  156.9975 H   0  0  0  0  0  0  0  0  0  0  0  0
  151.4482  136.3607  154.6384 H   0  0  0  0  0  0  0  0  0  0  0  0
  150.4460  137.9574  153.0108 H   0  0  0  0  0  0  0  0  0  0  0  0
  148.8317  142.5167  154.3969 H   0  0  0  0  0  0  0  0  0  0  0  0
  149.6456  141.8017  156.8899 H   0  0  0  0  0  0  0  0  0  0  0  0
  151.0910  144.4051  161.9348 H   0  0  0  0  0  0  0  0  0  0  0  0
  152.5087  145.2873  161.3621 H   0  0  0  0  0  0  0  0  0  0  0  0
  152.3639  144.8570  163.0596 H   0  0  0  0  0  0  0  0  0  0  0  0
  1  2  1  0  0  0  0
  1 25  1  0  0  0  0
  1 26  1  0  0  0  0
  1 27  1  0  0  0  0
  2 22  2  0  0  0  0
  2  3  1  0  0  0  0
  3  4  2  0  0  0  0
  4  5  1  0  0  0  0
  4 28  1  0  0  0  0
  5  6  1  0  0  0  0
  5 20  1  0  0  0  0
  6  7  1  0  0  0  0
  6 29  1  0  0  0  0
  6 30  1  0  0  0  0
  7  8  1  0  0  0  0
  7  9  1  0  0  0  0
  7 31  1  0  0  0  0
  8 32  1  0  0  0  0
  9 10  1  0  0  0  0
  9 33  1  0  0  0  0
  9 34  1  0  0  0  0
 10 11  1  0  0  0  0
 11 19  1  0  0  0  0
 11 12  2  0  0  0  0
 12 13  1  0  0  0  0
 12 35  1  0  0  0  0
 13 14  2  0  0  0  0
 13 36  1  0  0  0  0
 14 15  1  0  0  0  0
 14 37  1  0  0  0  0
 15 19  2  0  0  0  0
 15 16  1  0  0  0  0
 16 24  1  0  0  0  0
 16 17  1  0  0  0  0
 17 18  2  0  0  0  0
 17 38  1  0  0  0  0
 18 19  1  0  0  0  0
 18 39  1  0  0  0  0
 20 21  2  0  0  0  0
 20 22  1  0  0  0  0
 22 23  1  0  0  0  0
 23 40  1  0  0  0  0
 23 41  1  0  0  0  0
 23 42  1  0  0  0  0
M  END
> <s_m_source_file>
AV-unprocessed.smi

> <i_m_source_file_index>
2256

> <i_lp_mmshare_version>
43012

> <i_f3d_flags>
0

> <s_epik_input>
W0NIM11jMW5bY0hdbihjKD1PKWMxW0NIM10pW0NIMl1bQ0BIXShbT0hdKVtDSDJdT2MoW2NIXVtjSF1bY0hdMiljKGMyMylbY0hdW2NIXVtuSF0z

> <s_epik_cmdline>
J2VwaWtfcHl0aG9uJywgJy1waCcsICc3LjAnLCAnLXRuJywgJzgnLCAnLW1hJywgJzIwMCcsICctbWV0YWxfYmluZGluZycsICctaW1hZScsICc8aW5maWxlLm1hZT4nLCAnLW9tYWUnLCAnPG91dGZpbGUubWFlPic=

> <r_lp_tautomer_probability>
1

> <r_epik_Ionization_Penalty>
4.18314e-05

> <r_epik_Ionization_Penalty_Charging>
1.04093e-07

> <r_epik_Ionization_Penalty_Neutral>
4.17273e-05

> <r_epik_State_Penalty>
-0

> <r_epik_Charging_Adjusted_Penalty>
1.04093e-07

> <i_epik_Tot_Q>
0

> <i_epik_Tot_abs_Q>
0

> <r_epik_Metal_State_Penalty>
-0

> <b_epik_Metal_Only>
0

> <s_lp_Force_Field>
OPLS_2005

> <r_lp_Energy>
26.398

> <b_lp_Chiralities_Consistent>
1

> <s_lp_Variant>
AV-unprocessed.smi:2256-1

> <Gold.Version>
5.8.1

> <Gold.Id.Protein>
6NUR|6NUR_protein|mol2

> <Gold.PLP.Fitness>
49.9195

> <Gold.PLP.PLP>
-43.8248

> <Gold.PLP.part.hbond>
-2.9713

> <Gold.PLP.part.metal>
0.0000

> <Gold.PLP.part.buried>
-2.9305

> <Gold.PLP.part.nonpolar>
-37.6060

> <Gold.PLP.part.repulsive>
1.4615

> <Gold.PLP.ligand.clash>
0.0000

> <Gold.PLP.ligand.torsion>
1.4201

> <Gold.PLP.Chemscore.Hbond>
1.9840

> <Gold.PLP.Chemscore.CHOScore>
0.9406

> <Gold.PLP.Chemscore.Metal>
0.0000

> <Gold.Chemscore.Hbonds>
donor molecule, donor type, donor heavy atom, donor atom, acceptor molecule, acceptor atom, score
      L1  H    16    24       P1  7957  0.99
      P1  H  7997  8009       L1     8  0.99
      L1  C    17    38       P1  8028  0.93

> <Gold.PLP.Chemscore.Internal.Correction>
0.1609

> <Gold.Rescore>
     Score         DG    S(hbond)    S(metal)    S(lipo)     H(rot)  DE(clash)    DE(int)     intcor
     14.67     -17.85       1.61        0.00     116.24       2.58       1.82       1.36       ----

> <Gold.Chemscore.Fitness>
14.6724

> <Gold.Chemscore.DG>
-17.8535

> <Gold.Chemscore.ZeroCoef>
-5.4800

> <Gold.Chemscore.Hbond>
1.6106

> <Gold.Chemscore.Metal>
0.0000

> <Gold.Chemscore.Lipo>
116.2400

> <Gold.Chemscore.Internal_Hbond>
0.0000

> <Gold.Chemscore.DEClash>
1.8229

> <Gold.Chemscore.DEInternal>
1.3582

> <Gold.Chemscore.Rot>
2.5804

> <Gold.Chemscore.Internal.Correction>
   9.000000E+99

> <Gold.Chemscore.Hbonds>
donor molecule, donor type, donor heavy atom, donor atom, acceptor molecule, acceptor atom, score
      L1  H    16    24       P1  7957  0.94
      P1  H  7997  8009       L1     8  0.37

> <Gold.Chemscore.Hbond.Weighted>
-5.3793

> <Gold.Chemscore.Metal.Weighted>
-0.0000

> <Gold.Chemscore.Lipo.Weighted>
-13.6001

> <Gold.Chemscore.Internal_Hbond.Weighted>
0.0000

> <Gold.Chemscore.DEClash.Weighted>
1.8229

> <Gold.Chemscore.DEInternal.Weighted>
1.3582

> <Gold.Chemscore.Rot.Weighted>
6.6059

> <Gold.Chemscore.Internal.Correction.Weighted>
   9.000000E+99

> <Gold.Protein.RotatedTorsions>
[ 6907 6896 6895 6894 ] final  165.21 input  -60.11 | X-H torsion
[ 7974 7965 7964 7962 ] final  140.33 input  175.53 | X-H torsion
[ 8008 7997 7996 7995 ] final  134.78 input   59.86 | X-H torsion
[ 10167 10162 10161 10158 ] final    0.54 input  -65.29 | X-H torsion
[ 10718 10713 10712 10709 ] final  120.85 input   66.30 | X-H torsion
[ 10763 10752 10751 10750 ] final -153.17 input  -60.55 | X-H torsion
[ 11005 11000 10999 10996 ] final  156.64 input  -57.11 | X-H torsion

> <Gold.Protein.ActiveResidues>
 VAL166  LYS551  ARG553  GLY616  TRP617  ASP618  TYR619  PRO620  LYS621  CYS622 
 ASP623  PHE694  ASN695  SER759  ASP760  ASP761  ALA762  ILE779  LEU786  VAL792 
 PHE793  MET794  SER795  GLU796  ALA797  LYS798  CYS799  TRP800  GLU811  SER814 

> <Gold.Protein.RotatedAtoms>
  151.8979  133.3531  159.3820 H   0  0  0  0  0  0  0  0  0  0  0  0  # atno 6907 bound_to 6896
  150.7087  134.4858  159.5501 H   0  0  0  0  0  0  0  0  0  0  0  0  # atno 6908 bound_to 6896
  152.2440  134.8200  160.0507 H   0  0  0  0  0  0  0  0  0  0  0  0  # atno 6909 bound_to 6896
  144.9196  139.5185  143.5669 H   0  0  0  0  0  0  0  0  0  0  0  0  # atno 7974 bound_to 7965
  156.3000  140.2487  156.3474 H   0  0  0  0  0  0  0  0  0  0  0  0  # atno 8008 bound_to 7997
  154.8998  140.0406  157.1906 H   0  0  0  0  0  0  0  0  0  0  0  0  # atno 8009 bound_to 7997
  154.8512  140.2906  155.5601 H   0  0  0  0  0  0  0  0  0  0  0  0  # atno 8010 bound_to 7997
  140.6724  143.7012  150.7950 H   0  0  0  0  0  0  0  0  0  0  0  0  # atno 10167 bound_to 10162
  157.5861  131.1069  150.8092 H   0  0  0  0  0  0  0  0  0  0  0  0  # atno 10718 bound_to 10713
  154.7945  135.3219  154.7699 H   0  0  0  0  0  0  0  0  0  0  0  0  # atno 10763 bound_to 10752
  153.8380  135.6873  153.4810 H   0  0  0  0  0  0  0  0  0  0  0  0  # atno 10764 bound_to 10752
  153.1630  135.4653  154.9740 H   0  0  0  0  0  0  0  0  0  0  0  0  # atno 10765 bound_to 10752
  140.1694  134.8553  157.2672 H   0  0  0  0  0  0  0  0  0  0  0  0  # atno 11005 bound_to 11000
  146.3198  139.8065  142.8954 LP  0  0  0  0  0  0  0  0  0  0  0  0  # atno 17320 bound_to 7965
  145.3318  141.0268  143.3442 LP  0  0  0  0  0  0  0  0  0  0  0  0  # atno 17321 bound_to 7965
  140.0700  143.5071  152.2585 LP  0  0  0  0  0  0  0  0  0  0  0  0  # atno 17342 bound_to 10162
  139.5998  144.7579  151.3198 LP  0  0  0  0  0  0  0  0  0  0  0  0  # atno 17343 bound_to 10162
  156.8525  130.5085  149.5310 LP  0  0  0  0  0  0  0  0  0  0  0  0  # atno 17370 bound_to 10713
  156.0910  130.5896  150.9733 LP  0  0  0  0  0  0  0  0  0  0  0  0  # atno 17371 bound_to 10713
  140.2395  134.3813  155.7487 LP  0  0  0  0  0  0  0  0  0  0  0  0  # atno 17394 bound_to 11000
  141.2216  133.7257  156.8766 LP  0  0  0  0  0  0  0  0  0  0  0  0  # atno 17395 bound_to 11000

$$$$
