AV-unprocessed.smi:1749|AV-procd|sdf|7046|dock7
  -GOLD-   22720 8263D 1   1.00000     0.00000
 Structure written by MMmdl.
 32 33  0  0  0  0  0  0  0  0  1 V2000
  153.1280  141.5093  160.6896 C   0  0  0  0  0  0  0  0  0  0  0  0
  152.8658  142.6891  159.7430 C   0  0  2  0  0  0  0  0  0  0  0  0
  152.4751  143.9598  160.5221 C   0  0  0  0  0  0  0  0  0  0  0  0
  152.2087  145.1413  159.5764 C   0  0  0  0  0  0  0  0  0  0  0  0
  151.1343  144.7906  158.5357 C   0  0  0  0  0  0  0  0  0  0  0  0
  151.5115  143.5237  157.7463 C   0  0  2  0  0  0  0  0  0  0  0  0
  150.4275  143.1738  156.8333 N   0  0  0  0  0  0  0  0  0  0  0  0
  150.2339  141.9814  156.2452 C   0  0  0  0  0  0  0  0  0  0  0  0
  150.9908  141.0256  156.4067 O   0  0  0  0  0  0  0  0  0  0  0  0
  149.1484  141.8752  155.4486 N   0  0  0  0  0  0  0  0  0  0  0  0
  148.6353  140.7900  154.6787 C   0  0  0  0  0  0  0  0  0  0  0  0
  149.1349  139.5430  154.6870 N   0  0  0  0  0  0  0  0  0  0  0  0
  148.4414  138.6951  153.8342 N   0  0  0  0  0  0  0  0  0  0  0  0
  147.4470  139.3331  153.2116 C   0  0  0  0  0  0  0  0  0  0  0  0
  147.2615  141.0326  153.6077 S   0  0  0  0  0  0  0  0  0  0  0  0
  151.7870  142.3436  158.6977 C   0  0  0  0  0  0  0  0  0  0  0  0
  152.2341  141.2514  161.2588 H   0  0  0  0  0  0  0  0  0  0  0  0
  153.9194  141.7453  161.4015 H   0  0  0  0  0  0  0  0  0  0  0  0
  153.4368  140.6223  160.1359 H   0  0  0  0  0  0  0  0  0  0  0  0
  153.7952  142.8946  159.2097 H   0  0  0  0  0  0  0  0  0  0  0  0
  151.5837  143.7667  161.1207 H   0  0  0  0  0  0  0  0  0  0  0  0
  153.2661  144.2255  161.2242 H   0  0  0  0  0  0  0  0  0  0  0  0
  151.8973  146.0140  160.1512 H   0  0  0  0  0  0  0  0  0  0  0  0
  153.1332  145.4193  159.0687 H   0  0  0  0  0  0  0  0  0  0  0  0
  150.1789  144.6415  159.0412 H   0  0  0  0  0  0  0  0  0  0  0  0
  150.9956  145.6299  157.8530 H   0  0  0  0  0  0  0  0  0  0  0  0
  152.4261  143.7328  157.1887 H   0  0  0  0  0  0  0  0  0  0  0  0
  149.7538  143.9010  156.6388 H   0  0  0  0  0  0  0  0  0  0  0  0
  148.6153  142.7285  155.3640 H   0  0  0  0  0  0  0  0  0  0  0  0
  146.8186  138.7996  152.5140 H   0  0  0  0  0  0  0  0  0  0  0  0
  152.0994  141.4727  158.1199 H   0  0  0  0  0  0  0  0  0  0  0  0
  150.8645  142.0597  159.2069 H   0  0  0  0  0  0  0  0  0  0  0  0
  1  2  1  0  0  0  0
  1 17  1  0  0  0  0
  1 18  1  0  0  0  0
  1 19  1  0  0  0  0
  2 16  1  0  0  0  0
  2  3  1  0  0  0  0
  2 20  1  0  0  0  0
  3  4  1  0  0  0  0
  3 21  1  0  0  0  0
  3 22  1  0  0  0  0
  4  5  1  0  0  0  0
  4 23  1  0  0  0  0
  4 24  1  0  0  0  0
  5  6  1  0  0  0  0
  5 25  1  0  0  0  0
  5 26  1  0  0  0  0
  6  7  1  0  0  0  0
  6 16  1  0  0  0  0
  6 27  1  0  0  0  0
  7  8  1  0  0  0  0
  7 28  1  0  0  0  0
  8  9  2  0  0  0  0
  8 10  1  0  0  0  0
 10 11  1  0  0  0  0
 10 29  1  0  0  0  0
 11 15  1  0  0  0  0
 11 12  2  0  0  0  0
 12 13  1  0  0  0  0
 13 14  2  0  0  0  0
 14 15  1  0  0  0  0
 14 30  1  0  0  0  0
 16 31  1  0  0  0  0
 16 32  1  0  0  0  0
M  END
> <s_m_source_file>
AV-unprocessed.smi

> <i_m_source_file_index>
1749

> <i_lp_mmshare_version>
43012

> <i_f3d_flags>
0

> <s_epik_input>
W0NIM11bQ0BASF0xW0NIMl1bQ0gyXVtDSDJdW0NASF0oW0NIMl0xKVtOSF1DKD1PKVtOSF1jMm5uW2NIXXMy

> <s_epik_cmdline>
J2VwaWtfcHl0aG9uJywgJy1waCcsICc3LjAnLCAnLXRuJywgJzgnLCAnLW1hJywgJzIwMCcsICctbWV0YWxfYmluZGluZycsICctaW1hZScsICc8aW5maWxlLm1hZT4nLCAnLW9tYWUnLCAnPG91dGZpbGUubWFlPic=

> <r_lp_tautomer_probability>
1

> <r_epik_Ionization_Penalty>
0.000318591

> <r_epik_Ionization_Penalty_Charging>
0

> <r_epik_Ionization_Penalty_Neutral>
0.000318591

> <r_epik_State_Penalty>
-0

> <r_epik_Charging_Adjusted_Penalty>
0

> <i_epik_Tot_Q>
0

> <i_epik_Tot_abs_Q>
0

> <r_epik_Metal_State_Penalty>
0.169791

> <b_epik_Metal_Only>
0

> <s_lp_Force_Field>
OPLS_2005

> <r_lp_Energy>
11.6734

> <b_lp_Chiralities_Consistent>
1

> <s_lp_Variant>
AV-unprocessed.smi:1749-3

> <Gold.Version>
5.8.1

> <Gold.Id.Protein>
6NUR|6NUR_protein|mol2

> <Gold.PLP.Fitness>
40.7251

> <Gold.PLP.PLP>
-35.8720

> <Gold.PLP.part.hbond>
-1.8081

> <Gold.PLP.part.metal>
0.0000

> <Gold.PLP.part.buried>
-4.2895

> <Gold.PLP.part.nonpolar>
-30.6102

> <Gold.PLP.part.repulsive>
0.5524

> <Gold.PLP.ligand.clash>
0.0000

> <Gold.PLP.ligand.torsion>
0.2745

> <Gold.PLP.Chemscore.Hbond>
1.8000

> <Gold.PLP.Chemscore.CHOScore>
0.0000

> <Gold.PLP.Chemscore.Metal>
0.0000

> <Gold.Chemscore.Hbonds>
donor molecule, donor type, donor heavy atom, donor atom, acceptor molecule, acceptor atom, score
      L1  H     7    28       P1  8028  1.00
      L1  H    10    29       P1  8028  0.78

> <Gold.PLP.Chemscore.Internal.Correction>
0.0021

> <Gold.Rescore>
     Score         DG    S(hbond)    S(metal)    S(lipo)     H(rot)  DE(clash)    DE(int)     intcor
     17.22     -20.39       1.90        0.00      94.97       1.00       0.17       3.00       ----

> <Gold.Chemscore.Fitness>
17.2228

> <Gold.Chemscore.DG>
-20.3913

> <Gold.Chemscore.ZeroCoef>
-5.4800

> <Gold.Chemscore.Hbond>
1.9040

> <Gold.Chemscore.Metal>
0.0000

> <Gold.Chemscore.Lipo>
94.9731

> <Gold.Chemscore.Internal_Hbond>
0.0000

> <Gold.Chemscore.DEClash>
0.1697

> <Gold.Chemscore.DEInternal>
2.9988

> <Gold.Chemscore.Rot>
1.0000

> <Gold.Chemscore.Internal.Correction>
   9.000000E+99

> <Gold.Chemscore.Hbonds>
donor molecule, donor type, donor heavy atom, donor atom, acceptor molecule, acceptor atom, score
      L1  H     7    28       P1  8028  0.90
      L1  H    10    29       P1  8028  0.73

> <Gold.Chemscore.Hbond.Weighted>
-6.3594

> <Gold.Chemscore.Metal.Weighted>
-0.0000

> <Gold.Chemscore.Lipo.Weighted>
-11.1119

> <Gold.Chemscore.Internal_Hbond.Weighted>
0.0000

> <Gold.Chemscore.DEClash.Weighted>
0.1697

> <Gold.Chemscore.DEInternal.Weighted>
2.9988

> <Gold.Chemscore.Rot.Weighted>
2.5600

> <Gold.Chemscore.Internal.Correction.Weighted>
   9.000000E+99

> <Gold.Protein.RotatedTorsions>
[ 6907 6896 6895 6894 ] final   57.03 input  -60.11 | X-H torsion
[ 7974 7965 7964 7962 ] final -170.01 input  175.53 | X-H torsion
[ 8008 7997 7996 7995 ] final   -7.64 input   59.86 | X-H torsion
[ 10167 10162 10161 10158 ] final   44.44 input  -65.29 | X-H torsion
[ 10718 10713 10712 10709 ] final   -7.16 input   66.30 | X-H torsion
[ 10763 10752 10751 10750 ] final   63.41 input  -60.55 | X-H torsion
[ 11005 11000 10999 10996 ] final   74.47 input  -57.11 | X-H torsion

> <Gold.Protein.ActiveResidues>
 VAL166  LYS551  ARG553  GLY616  TRP617  ASP618  TYR619  PRO620  LYS621  CYS622 
 ASP623  PHE694  ASN695  SER759  ASP760  ASP761  ALA762  ILE779  LEU786  VAL792 
 PHE793  MET794  SER795  GLU796  ALA797  LYS798  CYS799  TRP800  GLU811  SER814 

> <Gold.Protein.RotatedAtoms>
  152.3693  134.6758  160.0181 H   0  0  0  0  0  0  0  0  0  0  0  0  # atno 6907 bound_to 6896
  151.7056  133.3306  159.3286 H   0  0  0  0  0  0  0  0  0  0  0  0  # atno 6908 bound_to 6896
  150.7661  134.6512  159.6334 H   0  0  0  0  0  0  0  0  0  0  0  0  # atno 6909 bound_to 6896
  144.7176  140.2136  143.6324 H   0  0  0  0  0  0  0  0  0  0  0  0  # atno 7974 bound_to 7965
  154.5818  140.2402  155.8043 H   0  0  0  0  0  0  0  0  0  0  0  0  # atno 8008 bound_to 7997
  156.2185  140.3005  155.9851 H   0  0  0  0  0  0  0  0  0  0  0  0  # atno 8009 bound_to 7997
  155.2527  140.0411  157.2979 H   0  0  0  0  0  0  0  0  0  0  0  0  # atno 8010 bound_to 7997
  140.3342  144.2550  150.6164 H   0  0  0  0  0  0  0  0  0  0  0  0  # atno 10167 bound_to 10162
  156.7213  130.5151  149.5867 H   0  0  0  0  0  0  0  0  0  0  0  0  # atno 10718 bound_to 10713
  153.0017  135.5430  154.6347 H   0  0  0  0  0  0  0  0  0  0  0  0  # atno 10763 bound_to 10752
  154.5616  135.2834  155.0915 H   0  0  0  0  0  0  0  0  0  0  0  0  # atno 10764 bound_to 10752
  154.2116  135.6466  153.5169 H   0  0  0  0  0  0  0  0  0  0  0  0  # atno 10765 bound_to 10752
  139.9389  134.7436  156.1152 H   0  0  0  0  0  0  0  0  0  0  0  0  # atno 11005 bound_to 11000
  145.8567  139.2202  143.1740 LP  0  0  0  0  0  0  0  0  0  0  0  0  # atno 17320 bound_to 7965
  146.0211  140.8347  142.9923 LP  0  0  0  0  0  0  0  0  0  0  0  0  # atno 17321 bound_to 7965
  140.5369  143.2231  151.8149 LP  0  0  0  0  0  0  0  0  0  0  0  0  # atno 17342 bound_to 10162
  139.4851  144.4650  151.9495 LP  0  0  0  0  0  0  0  0  0  0  0  0  # atno 17343 bound_to 10162
  156.1593  130.6363  151.0697 LP  0  0  0  0  0  0  0  0  0  0  0  0  # atno 17370 bound_to 10713
  157.6897  131.0814  150.7143 LP  0  0  0  0  0  0  0  0  0  0  0  0  # atno 17371 bound_to 10713
  141.1015  133.6675  156.2766 LP  0  0  0  0  0  0  0  0  0  0  0  0  # atno 17394 bound_to 11000
  140.6003  134.5562  157.5516 LP  0  0  0  0  0  0  0  0  0  0  0  0  # atno 17395 bound_to 11000

$$$$
