#       Name:                AV-unprocessed.smi:1513
#       Creating user name   scv26
#       Creation time:       Fri Mar 27 06:24:17 2020


#       File generated by GOLD software.
#

@<TRIPOS>MOLECULE
AV-unprocessed.smi:1513
    40    41     1
SMALL
NO_CHARGES


@<TRIPOS>ATOM
      1 ****        -3.2786   2.2529  -0.5613 N.3            1 S1                 0.0000
      2 ****        -1.6232   2.6553  -0.7856 S.o2           1 S1                 0.0000
      3 ****        -1.5211   3.6944  -1.8211 O.2            1 S1                 0.0000
      4 ****        -0.9920   2.8168   0.5328 O.2            1 S1                 0.0000
      5 ****        -1.0853   1.1678  -1.4634 N.3            1 S1                 0.0000
      6 ****         0.3352   0.9754  -1.7499 C.3            1 S1                 0.0000
      7 ****         0.7490  -0.4861  -1.6746 C.ar           1 S1                 0.0000
      8 ****         1.1029  -1.1761  -2.8532 C.ar           1 S1                 0.0000
      9 ****         1.4741  -2.5306  -2.7687 C.ar           1 S1                 0.0000
     10 ****         1.4754  -3.1449  -1.5025 C.ar           1 S1                 0.0000
     11 ****         1.1389  -2.4986  -0.3666 N.ar           1 S1                 0.0000
     12 ****         0.7812  -1.1939  -0.4453 C.ar           1 S1                 0.0000
     13 ****         0.4486  -0.5390   0.7515 N.3            1 S1                 0.0000
     14 ****        -0.5664  -1.1960   1.5648 C.3            1 S1                 0.0000
     15 ****        -0.9615  -0.2812   2.7360 C.3            1 S1                 0.0000
     16 ****         0.2007   0.0541   3.4897 O.3            1 S1                 0.0000
     17 ****         1.1651   0.7546   2.7080 C.3            1 S1                 0.0000
     18 ****         1.6104  -0.1205   1.5232 C.3            1 S1                 0.0000
     19 ****        -3.8963   2.8168  -1.1449 H              1 S1                 0.0000
     20 ****        -3.5447   2.2421   0.4231 H              1 S1                 0.0000
     21 ****        -1.5560   0.3458  -1.0862 H              1 S1                 0.0000
     22 ****         0.5546   1.3869  -2.7355 H              1 S1                 0.0000
     23 ****         0.9304   1.5472  -1.0371 H              1 S1                 0.0000
     24 ****         1.0885  -0.6773  -3.8111 H              1 S1                 0.0000
     25 ****         1.7499  -3.0853  -3.6534 H              1 S1                 0.0000
     26 ****         1.7546  -4.1829  -1.3986 H              1 S1                 0.0000
     27 ****        -1.4402  -1.4234   0.9529 H              1 S1                 0.0000
     28 ****        -0.1809  -2.1417   1.9483 H              1 S1                 0.0000
     29 ****        -1.4488   0.6259   2.3745 H              1 S1                 0.0000
     30 ****        -1.6738  -0.7885   3.3865 H              1 S1                 0.0000
     31 ****         0.7461   1.6987   2.3575 H              1 S1                 0.0000
     32 ****         2.0211   1.0010   3.3360 H              1 S1                 0.0000
     33 ****         2.1408  -1.0015   1.8876 H              1 S1                 0.0000
     34 ****         2.3018   0.4334   0.8871 H              1 S1                 0.0000
     35 ****        -3.3959   1.3121  -0.8794 LP             1 S1                 0.0000
     36 ****        -1.4114   1.2890  -2.4009 LP             1 S1                 0.0000
     37 ****         1.1532  -2.9722   0.5140 LP             1 S1                 0.0000
     38 ****        -0.0006   0.2977   0.4382 LP             1 S1                 0.0000
     39 ****         0.6154  -0.7882   3.8340 LP             1 S1                 0.0000
     40 ****        -0.0703   0.6313   4.2600 LP             1 S1                 0.0000
@<TRIPOS>BOND
    1    1    2 1     
    2    1   19 1     
    3    1   20 1     
    4    2    3 2     
    5    2    4 2     
    6    2    5 1     
    7    5    6 1     
    8    5   21 1     
    9    6    7 1     
   10    6   22 1     
   11    6   23 1     
   12    7   12 ar    
   13    7    8 ar    
   14    8    9 ar    
   15    8   24 1     
   16    9   10 ar    
   17    9   25 1     
   18   10   11 ar    
   19   10   26 1     
   20   11   12 ar    
   21   12   13 1     
   22   13   18 1     
   23   13   14 1     
   24   14   15 1     
   25   14   27 1     
   26   14   28 1     
   27   15   16 1     
   28   15   29 1     
   29   15   30 1     
   30   16   17 1     
   31   17   18 1     
   32   17   31 1     
   33   17   32 1     
   34   18   33 1     
   35   18   34 1     
   36    1   35 1     
   37    5   36 1     
   38   11   37 1     
   39   13   38 1     
   40   16   39 1     
   41   16   40 1     
@<TRIPOS>SUBSTRUCTURE
      1 S1             1
@<TRIPOS>SET
LONE_PAIRS      STATIC     ATOMS    <user>   **** ""
8 35 3 4 36 37 38 39 40
DONOR_HYDROGENS      STATIC     ATOMS    <user>   **** ""
3 19 20 21
ATOM$BLUE        STATIC     ATOMS    COLORGROUP SYSTEM
8 35 3 4 36 37 38 39 40
ATOM$RED        STATIC     ATOMS    COLORGROUP SYSTEM
3 19 20 21
