AV-unprocessed.smi:830|AV-procd|sdf|3871|dock6
  -GOLD-   22720 1323D 1   1.00000     0.00000
 Structure written by MMmdl.
 52 54  0  0  0  0  0  0  0  0  1 V2000
  151.3180  137.6070  156.3725 C   0  0  0  0  0  0  0  0  0  0  0  0
  151.2547  137.8194  154.8505 C   0  0  1  0  0  0  0  0  0  0  0  0
  150.4474  136.7457  154.2743 N   0  0  0  0  0  0  0  0  0  0  0  0
  150.5139  135.4550  154.6332 C   0  0  0  0  0  0  0  0  0  0  0  0
  151.2401  135.0404  155.5365 O   0  0  0  0  0  0  0  0  0  0  0  0
  149.6853  134.7030  153.8891 N   0  0  0  0  0  0  0  0  0  0  0  0
  149.4384  133.3006  153.9575 C   0  0  0  0  0  0  0  0  0  0  0  0
  150.2152  132.4326  154.7649 C   0  0  0  0  0  0  0  0  0  0  0  0
  149.9027  131.0630  154.8060 C   0  0  0  0  0  0  0  0  0  0  0  0
  148.8232  130.6039  154.0341 C   0  0  0  0  0  0  0  0  0  0  0  0
  148.0875  131.4108  153.2444 N   0  0  0  0  0  0  0  0  0  0  0  0
  148.3869  132.7317  153.1825 C   0  0  0  0  0  0  0  0  0  0  0  0
  147.6056  133.5250  152.3118 N   0  0  0  0  0  0  0  0  0  0  0  0
  146.9528  132.8506  151.1934 C   0  0  0  0  0  0  0  0  0  0  0  0
  145.5827  133.5158  151.0250 C   0  0  0  0  0  0  0  0  0  0  0  0
  145.7571  134.8733  151.6984 C   0  0  0  0  0  0  0  0  0  0  0  0
  146.7093  134.5457  152.8451 C   0  0  0  0  0  0  0  0  0  0  0  0
  150.5904  139.1786  154.5819 C   0  0  0  0  0  0  0  0  0  0  0  0
  151.1107  140.2203  154.9853 O   0  0  0  0  0  0  0  0  0  0  0  0
  149.4443  139.1505  153.8855 N   0  0  0  0  0  0  0  0  0  0  0  0
  148.6498  140.3222  153.5275 C   0  0  0  0  0  0  0  0  0  0  0  0
  148.5995  141.3275  154.6942 C   0  0  0  0  0  0  0  0  0  0  0  0
  147.1280  141.7113  154.8589 C   0  0  0  0  0  0  0  0  0  0  0  0
  146.3627  140.4746  154.3981 C   0  0  0  0  0  0  0  0  0  0  0  0
  147.1865  139.9417  153.2255 C   0  0  0  0  0  0  0  0  0  0  0  0
  151.9007  138.3914  156.8574 H   0  0  0  0  0  0  0  0  0  0  0  0
  151.7942  136.6557  156.6121 H   0  0  0  0  0  0  0  0  0  0  0  0
  150.3255  137.6010  156.8261 H   0  0  0  0  0  0  0  0  0  0  0  0
  152.2647  137.7974  154.4360 H   0  0  0  0  0  0  0  0  0  0  0  0
  149.8225  137.0006  153.5238 H   0  0  0  0  0  0  0  0  0  0  0  0
  149.0980  135.2072  153.2410 H   0  0  0  0  0  0  0  0  0  0  0  0
  151.0507  132.7858  155.3484 H   0  0  0  0  0  0  0  0  0  0  0  0
  150.4763  130.3820  155.4170 H   0  0  0  0  0  0  0  0  0  0  0  0
  148.5478  129.5596  154.0431 H   0  0  0  0  0  0  0  0  0  0  0  0
  147.5518  133.0019  150.2950 H   0  0  0  0  0  0  0  0  0  0  0  0
  146.8561  131.7764  151.3588 H   0  0  0  0  0  0  0  0  0  0  0  0
  145.2734  133.5923  149.9824 H   0  0  0  0  0  0  0  0  0  0  0  0
  144.8265  132.9380  151.5583 H   0  0  0  0  0  0  0  0  0  0  0  0
  146.2284  135.5744  151.0082 H   0  0  0  0  0  0  0  0  0  0  0  0
  144.8160  135.3079  152.0366 H   0  0  0  0  0  0  0  0  0  0  0  0
  146.1366  134.1617  153.6900 H   0  0  0  0  0  0  0  0  0  0  0  0
  147.2625  135.4248  153.1769 H   0  0  0  0  0  0  0  0  0  0  0  0
  149.0896  138.2515  153.5932 H   0  0  0  0  0  0  0  0  0  0  0  0
  149.0868  140.8080  152.6527 H   0  0  0  0  0  0  0  0  0  0  0  0
  148.9504  140.8644  155.6180 H   0  0  0  0  0  0  0  0  0  0  0  0
  149.2296  142.1993  154.5132 H   0  0  0  0  0  0  0  0  0  0  0  0
  146.8816  142.0035  155.8802 H   0  0  0  0  0  0  0  0  0  0  0  0
  146.8923  142.5522  154.2053 H   0  0  0  0  0  0  0  0  0  0  0  0
  146.3423  139.7351  155.1997 H   0  0  0  0  0  0  0  0  0  0  0  0
  145.3315  140.6962  154.1210 H   0  0  0  0  0  0  0  0  0  0  0  0
  146.8698  140.4400  152.3083 H   0  0  0  0  0  0  0  0  0  0  0  0
  147.0362  138.8716  153.0739 H   0  0  0  0  0  0  0  0  0  0  0  0
  1  2  1  0  0  0  0
  1 26  1  0  0  0  0
  1 27  1  0  0  0  0
  1 28  1  0  0  0  0
  2  3  1  0  0  0  0
  2 18  1  0  0  0  0
  2 29  1  0  0  0  0
  3  4  1  0  0  0  0
  3 30  1  0  0  0  0
  4  5  2  0  0  0  0
  4  6  1  0  0  0  0
  6  7  1  0  0  0  0
  6 31  1  0  0  0  0
  7 12  1  0  0  0  0
  7  8  2  0  0  0  0
  8  9  1  0  0  0  0
  8 32  1  0  0  0  0
  9 10  2  0  0  0  0
  9 33  1  0  0  0  0
 10 11  1  0  0  0  0
 10 34  1  0  0  0  0
 11 12  2  0  0  0  0
 12 13  1  0  0  0  0
 13 17  1  0  0  0  0
 13 14  1  0  0  0  0
 14 15  1  0  0  0  0
 14 35  1  0  0  0  0
 14 36  1  0  0  0  0
 15 16  1  0  0  0  0
 15 37  1  0  0  0  0
 15 38  1  0  0  0  0
 16 17  1  0  0  0  0
 16 39  1  0  0  0  0
 16 40  1  0  0  0  0
 17 41  1  0  0  0  0
 17 42  1  0  0  0  0
 18 19  2  0  0  0  0
 18 20  1  0  0  0  0
 20 21  1  0  0  0  0
 20 43  1  0  0  0  0
 21 25  1  0  0  0  0
 21 22  1  0  0  0  0
 21 44  1  0  0  0  0
 22 23  1  0  0  0  0
 22 45  1  0  0  0  0
 22 46  1  0  0  0  0
 23 24  1  0  0  0  0
 23 47  1  0  0  0  0
 23 48  1  0  0  0  0
 24 25  1  0  0  0  0
 24 49  1  0  0  0  0
 24 50  1  0  0  0  0
 25 51  1  0  0  0  0
 25 52  1  0  0  0  0
M  END
> <s_m_source_file>
AV-unprocessed.smi

> <i_m_source_file_index>
830

> <i_lp_mmshare_version>
43012

> <i_f3d_flags>
0

> <s_epik_input>
W0NIMl0xW0NIMl1bQ0gyXVtDSDJdW0NIXTFbTkhdQyg9TylbQ0BIXShbQ0gzXSlbTkhdQyg9TylbTkhdYzJbY0hdW2NIXVtjSF1uYzJOM1tDSDJdW0NIMl1bQ0gyXVtDSDJdMw==

> <s_epik_cmdline>
J2VwaWtfcHl0aG9uJywgJy1waCcsICc3LjAnLCAnLXRuJywgJzgnLCAnLW1hJywgJzIwMCcsICctbWV0YWxfYmluZGluZycsICctaW1hZScsICc8aW5maWxlLm1hZT4nLCAnLW9tYWUnLCAnPG91dGZpbGUubWFlPic=

> <r_lp_tautomer_probability>
1

> <r_epik_Ionization_Penalty>
0.0827694

> <r_epik_Ionization_Penalty_Charging>
0

> <r_epik_Ionization_Penalty_Neutral>
0.0827694

> <r_epik_State_Penalty>
0.0729202

> <r_epik_Charging_Adjusted_Penalty>
0.0729202

> <i_epik_Tot_Q>
0

> <i_epik_Tot_abs_Q>
0

> <r_epik_Metal_State_Penalty>
0.0639723

> <b_epik_Metal_Only>
0

> <s_lp_Force_Field>
OPLS_2005

> <r_lp_Energy>
46.8553

> <b_lp_Chiralities_Consistent>
1

> <s_lp_Variant>
AV-unprocessed.smi:830-2

> <Gold.Version>
5.8.1

> <Gold.Id.Protein>
6NUR|6NUR_protein|mol2

> <Gold.PLP.Fitness>
48.1569

> <Gold.PLP.PLP>
-40.7194

> <Gold.PLP.part.hbond>
-6.3568

> <Gold.PLP.part.metal>
0.0000

> <Gold.PLP.part.buried>
2.7280

> <Gold.PLP.part.nonpolar>
-37.4722

> <Gold.PLP.part.repulsive>
0.6246

> <Gold.PLP.ligand.clash>
1.7858

> <Gold.PLP.ligand.torsion>
0.9693

> <Gold.PLP.Chemscore.Hbond>
3.6080

> <Gold.PLP.Chemscore.CHOScore>
0.0000

> <Gold.PLP.Chemscore.Metal>
0.0000

> <Gold.Chemscore.Hbonds>
donor molecule, donor type, donor heavy atom, donor atom, acceptor molecule, acceptor atom, score
      L1  H     3    30       P1  7948  0.82
      L1  H     6    31       P1  7948  0.96
      P1  H  7989  7998       L1    19  1.00
      P1  H 10752 10764       L1     5  0.87

> <Gold.PLP.Chemscore.Internal.Correction>
0.3379

> <Gold.Rescore>
     Score         DG    S(hbond)    S(metal)    S(lipo)     H(rot)  DE(clash)    DE(int)     intcor
     13.38     -19.20       2.69        0.00      76.30       1.64       0.79       5.03       ----

> <Gold.Chemscore.Fitness>
13.3754

> <Gold.Chemscore.DG>
-19.1993

> <Gold.Chemscore.ZeroCoef>
-5.4800

> <Gold.Chemscore.Hbond>
2.6902

> <Gold.Chemscore.Metal>
0.0000

> <Gold.Chemscore.Lipo>
76.3045

> <Gold.Chemscore.Internal_Hbond>
0.0000

> <Gold.Chemscore.DEClash>
0.7909

> <Gold.Chemscore.DEInternal>
5.0330

> <Gold.Chemscore.Rot>
1.6382

> <Gold.Chemscore.Internal.Correction>
   9.000000E+99

> <Gold.Chemscore.Hbonds>
donor molecule, donor type, donor heavy atom, donor atom, acceptor molecule, acceptor atom, score
      L1  H     3    30       P1  7948  0.38
      L1  H     6    31       P1  7948  0.24
      P1  H  7989  7998       L1    19  0.25
      P1  H 10752 10764       L1     5  0.19

> <Gold.Chemscore.Hbond.Weighted>
-8.9853

> <Gold.Chemscore.Metal.Weighted>
-0.0000

> <Gold.Chemscore.Lipo.Weighted>
-8.9276

> <Gold.Chemscore.Internal_Hbond.Weighted>
0.0000

> <Gold.Chemscore.DEClash.Weighted>
0.7909

> <Gold.Chemscore.DEInternal.Weighted>
5.0330

> <Gold.Chemscore.Rot.Weighted>
4.1937

> <Gold.Chemscore.Internal.Correction.Weighted>
   9.000000E+99

> <Gold.Protein.RotatedTorsions>
[ 6907 6896 6895 6894 ] final  -86.84 input  -60.11 | X-H torsion
[ 7974 7965 7964 7962 ] final -135.76 input  175.53 | X-H torsion
[ 8008 7997 7996 7995 ] final   43.80 input   59.86 | X-H torsion
[ 10167 10162 10161 10158 ] final -117.00 input  -65.29 | X-H torsion
[ 10718 10713 10712 10709 ] final  105.33 input   66.30 | X-H torsion
[ 10763 10752 10751 10750 ] final  -47.78 input  -60.55 | X-H torsion
[ 11005 11000 10999 10996 ] final  153.09 input  -57.11 | X-H torsion

> <Gold.Protein.ActiveResidues>
 VAL166  LYS551  ARG553  GLY616  TRP617  ASP618  TYR619  PRO620  LYS621  CYS622 
 ASP623  PHE694  ASN695  SER759  ASP760  ASP761  ALA762  ILE779  LEU786  VAL792 
 PHE793  MET794  SER795  GLU796  ALA797  LYS798  CYS799  TRP800  GLU811  SER814 

> <Gold.Protein.RotatedAtoms>
  150.6866  134.2988  159.4697 H   0  0  0  0  0  0  0  0  0  0  0  0  # atno 6907 bound_to 6896
  152.0885  134.9420  160.0581 H   0  0  0  0  0  0  0  0  0  0  0  0  # atno 6908 bound_to 6896
  152.0745  133.4088  159.4511 H   0  0  0  0  0  0  0  0  0  0  0  0  # atno 6909 bound_to 6896
  144.8985  140.6740  143.5100 H   0  0  0  0  0  0  0  0  0  0  0  0  # atno 7974 bound_to 7965
  155.3087  140.3389  155.4245 H   0  0  0  0  0  0  0  0  0  0  0  0  # atno 8008 bound_to 7997
  156.1966  140.1717  156.8023 H   0  0  0  0  0  0  0  0  0  0  0  0  # atno 8009 bound_to 7997
  154.5507  140.0706  156.8646 H   0  0  0  0  0  0  0  0  0  0  0  0  # atno 8010 bound_to 7997
  140.0730  143.4859  152.1969 H   0  0  0  0  0  0  0  0  0  0  0  0  # atno 10167 bound_to 10162
  157.6709  131.0825  150.5840 H   0  0  0  0  0  0  0  0  0  0  0  0  # atno 10718 bound_to 10713
  154.0670  135.6610  153.4819 H   0  0  0  0  0  0  0  0  0  0  0  0  # atno 10763 bound_to 10752
  153.0405  135.5148  154.7604 H   0  0  0  0  0  0  0  0  0  0  0  0  # atno 10764 bound_to 10752
  154.6658  135.3022  154.9774 H   0  0  0  0  0  0  0  0  0  0  0  0  # atno 10765 bound_to 10752
  140.1366  134.8766  157.2276 H   0  0  0  0  0  0  0  0  0  0  0  0  # atno 11005 bound_to 11000
  145.3657  139.1671  143.4359 LP  0  0  0  0  0  0  0  0  0  0  0  0  # atno 17320 bound_to 7965
  146.3095  140.3724  142.8675 LP  0  0  0  0  0  0  0  0  0  0  0  0  # atno 17321 bound_to 7965
  139.5824  144.7516  151.3605 LP  0  0  0  0  0  0  0  0  0  0  0  0  # atno 17342 bound_to 10162
  140.7116  143.7376  150.7577 LP  0  0  0  0  0  0  0  0  0  0  0  0  # atno 17343 bound_to 10162
  156.6141  130.4388  149.5848 LP  0  0  0  0  0  0  0  0  0  0  0  0  # atno 17370 bound_to 10713
  156.2407  130.6850  151.1553 LP  0  0  0  0  0  0  0  0  0  0  0  0  # atno 17371 bound_to 10713
  140.2774  134.3389  155.7354 LP  0  0  0  0  0  0  0  0  0  0  0  0  # atno 17394 bound_to 11000
  141.2179  133.7458  156.9313 LP  0  0  0  0  0  0  0  0  0  0  0  0  # atno 17395 bound_to 11000

$$$$
