AV-unprocessed.smi:500|AV-procd|sdf|2739|dock3
  -GOLD-   2262023193D 1   1.00000     0.00000
 Structure written by MMmdl.
 44 46  0  0  0  0  0  0  0  0  2 V2000
  146.3800  142.7758  154.0513 C   0  0  0  0  0  0  0  0  0  0  0  0
  147.6534  141.9776  154.3618 C   0  0  0  0  0  0  0  0  0  0  0  0
  147.6176  141.4735  155.6869 O   0  0  0  0  0  0  0  0  0  0  0  0
  148.8078  140.8200  156.0958 C   0  0  0  0  0  0  0  0  0  0  0  0
  150.0050  141.7554  155.8757 C   0  0  0  0  0  0  0  0  0  0  0  0
  150.9872  141.6476  156.9591 N   0  0  0  0  0  0  0  0  0  0  0  0
  151.8151  140.6198  157.3285 C   0  0  0  0  0  0  0  0  0  0  0  0
  151.8916  139.2772  156.6176 C   0  0  1  0  0  0  0  0  0  0  0  0
  151.9597  139.4671  155.0959 C   0  0  0  0  0  0  0  0  0  0  0  0
  153.0423  138.4733  157.0431 N   0  5  0  0  0  0  0  0  0  0  0  0
  152.9488  137.2505  157.6372 C   0  0  0  0  0  0  0  0  0  0  0  0
  152.6342  136.1585  157.1540 O   0  0  0  0  0  0  0  0  0  0  0  0
  153.3272  137.2978  159.0677 C   0  0  0  0  0  0  0  0  0  0  0  0
  153.5768  138.3461  159.9167 C   0  0  0  0  0  0  0  0  0  0  0  0
  153.8668  137.7838  161.1904 C   0  0  0  0  0  0  0  0  0  0  0  0
  153.7649  136.4318  161.0346 C   0  0  0  0  0  0  0  0  0  0  0  0
  153.4309  136.1206  159.7530 O   0  0  0  0  0  0  0  0  0  0  0  0
  152.6111  140.8873  158.3710 N   0  0  0  0  0  0  0  0  0  0  0  0
  152.2550  142.1699  158.7270 C   0  0  0  0  0  0  0  0  0  0  0  0
  152.7325  143.0002  159.7661 C   0  0  0  0  0  0  0  0  0  0  0  0
  152.2116  144.2991  159.9382 C   0  0  0  0  0  0  0  0  0  0  0  0
  151.2087  144.7846  159.0745 C   0  0  0  0  0  0  0  0  0  0  0  0
  150.7213  143.9721  158.0328 C   0  0  0  0  0  0  0  0  0  0  0  0
  151.2442  142.6750  157.8657 C   0  0  0  0  0  0  0  0  0  0  0  0
  146.3724  143.1019  153.0113 H   0  0  0  0  0  0  0  0  0  0  0  0
  146.2937  143.6643  154.6761 H   0  0  0  0  0  0  0  0  0  0  0  0
  145.4912  142.1658  154.2152 H   0  0  0  0  0  0  0  0  0  0  0  0
  147.7071  141.1242  153.6859 H   0  0  0  0  0  0  0  0  0  0  0  0
  148.5510  142.5726  154.1872 H   0  0  0  0  0  0  0  0  0  0  0  0
  148.7286  140.5486  157.1489 H   0  0  0  0  0  0  0  0  0  0  0  0
  148.9607  139.8966  155.5366 H   0  0  0  0  0  0  0  0  0  0  0  0
  150.4682  141.5738  154.9067 H   0  0  0  0  0  0  0  0  0  0  0  0
  149.6553  142.7874  155.8388 H   0  0  0  0  0  0  0  0  0  0  0  0
  150.9638  138.7425  156.8221 H   0  0  0  0  0  0  0  0  0  0  0  0
  151.0934  140.0217  154.7348 H   0  0  0  0  0  0  0  0  0  0  0  0
  151.9747  138.5077  154.5778 H   0  0  0  0  0  0  0  0  0  0  0  0
  152.8531  140.0194  154.8018 H   0  0  0  0  0  0  0  0  0  0  0  0
  153.5526  139.3928  159.6511 H   0  0  0  0  0  0  0  0  0  0  0  0
  154.1145  138.3030  162.1043 H   0  0  0  0  0  0  0  0  0  0  0  0
  153.8869  135.5876  161.6971 H   0  0  0  0  0  0  0  0  0  0  0  0
  153.5008  142.6352  160.4316 H   0  0  0  0  0  0  0  0  0  0  0  0
  152.5835  144.9252  160.7359 H   0  0  0  0  0  0  0  0  0  0  0  0
  150.8145  145.7806  159.2119 H   0  0  0  0  0  0  0  0  0  0  0  0
  149.9531  144.3417  157.3701 H   0  0  0  0  0  0  0  0  0  0  0  0
  1  2  1  0  0  0  0
  1 25  1  0  0  0  0
  1 26  1  0  0  0  0
  1 27  1  0  0  0  0
  2  3  1  0  0  0  0
  2 28  1  0  0  0  0
  2 29  1  0  0  0  0
  3  4  1  0  0  0  0
  4  5  1  0  0  0  0
  4 30  1  0  0  0  0
  4 31  1  0  0  0  0
  5  6  1  0  0  0  0
  5 32  1  0  0  0  0
  5 33  1  0  0  0  0
  6 24  1  0  0  0  0
  6  7  1  0  0  0  0
  7  8  1  0  0  0  0
  7 18  2  0  0  0  0
  8  9  1  0  0  0  0
  8 10  1  0  0  0  0
  8 34  1  0  0  0  0
  9 35  1  0  0  0  0
  9 36  1  0  0  0  0
  9 37  1  0  0  0  0
 10 11  1  0  0  0  0
 11 12  2  0  0  0  0
 11 13  1  0  0  0  0
 13 17  1  0  0  0  0
 13 14  2  0  0  0  0
 14 15  1  0  0  0  0
 14 38  1  0  0  0  0
 15 16  2  0  0  0  0
 15 39  1  0  0  0  0
 16 17  1  0  0  0  0
 16 40  1  0  0  0  0
 18 19  1  0  0  0  0
 19 24  2  0  0  0  0
 19 20  1  0  0  0  0
 20 21  2  0  0  0  0
 20 41  1  0  0  0  0
 21 22  1  0  0  0  0
 21 42  1  0  0  0  0
 22 23  2  0  0  0  0
 22 43  1  0  0  0  0
 23 24  1  0  0  0  0
 23 44  1  0  0  0  0
M  CHG  1  10  -1
M  END
> <s_m_source_file>
AV-unprocessed.smi

> <i_m_source_file_index>
500

> <i_lp_mmshare_version>
43012

> <i_f3d_flags>
0

> <s_epik_input>
W0NIM11bQ0gyXU9bQ0gyXVtDSDJdbihjKGMxMilbY0hdW2NIXVtjSF1bY0hdMiljKG4xKVtDQEhdKFtDSDNdKVtOSF1DKD1PKWMzW2NIXVtjSF1bY0hdbzM=

> <s_epik_cmdline>
J2VwaWtfcHl0aG9uJywgJy1waCcsICc3LjAnLCAnLXRuJywgJzgnLCAnLW1hJywgJzIwMCcsICctbWV0YWxfYmluZGluZycsICctaW1hZScsICc8aW5maWxlLm1hZT4nLCAnLW9tYWUnLCAnPG91dGZpbGUubWFlPic=

> <r_epik_Ionization_Penalty>
7.31223

> <r_epik_Ionization_Penalty_Charging>
6.43826

> <r_epik_Ionization_Penalty_Neutral>
0.873973

> <r_epik_State_Penalty>
6.5378

> <r_epik_Charging_Adjusted_Penalty>
12.9761

> <i_epik_Tot_Q>
-1

> <i_epik_Tot_abs_Q>
1

> <r_epik_Metal_State_Penalty>
2.55818

> <b_epik_Metal_Only>
1

> <s_lp_Force_Field>
OPLS_2005

> <r_lp_Energy>
16.2081

> <b_lp_Chiralities_Consistent>
1

> <s_lp_Variant>
AV-unprocessed.smi:500-6

> <Gold.Version>
5.8.1

> <Gold.Id.Protein>
6NUR|6NUR_protein|mol2

> <Gold.PLP.Fitness>
54.2800

> <Gold.PLP.PLP>
-45.8461

> <Gold.PLP.part.hbond>
-3.3838

> <Gold.PLP.part.metal>
0.0000

> <Gold.PLP.part.buried>
-2.4733

> <Gold.PLP.part.nonpolar>
-40.2407

> <Gold.PLP.part.repulsive>
0.0814

> <Gold.PLP.ligand.clash>
0.0000

> <Gold.PLP.ligand.torsion>
1.3053

> <Gold.PLP.Chemscore.Hbond>
3.6129

> <Gold.PLP.Chemscore.CHOScore>
0.0000

> <Gold.PLP.Chemscore.Metal>
0.0000

> <Gold.Chemscore.Hbonds>
donor molecule, donor type, donor heavy atom, donor atom, acceptor molecule, acceptor atom, score
      P1  H  6896  6908       L1    17  1.00
      P1  H  7997  8008       L1    10  1.19
      P1  H 10752 10765       L1    12  0.67

> <Gold.PLP.Chemscore.Internal.Correction>
0.2057

> <Gold.Rescore>
     Score         DG    S(hbond)    S(metal)    S(lipo)     H(rot)  DE(clash)    DE(int)     intcor
     18.82     -20.04       1.27        0.00     128.48       1.84       0.04       1.18       ----

> <Gold.Chemscore.Fitness>
18.8211

> <Gold.Chemscore.DG>
-20.0405

> <Gold.Chemscore.ZeroCoef>
-5.4800

> <Gold.Chemscore.Hbond>
1.2676

> <Gold.Chemscore.Metal>
0.0000

> <Gold.Chemscore.Lipo>
128.4835

> <Gold.Chemscore.Internal_Hbond>
0.0000

> <Gold.Chemscore.DEClash>
0.0381

> <Gold.Chemscore.DEInternal>
1.1813

> <Gold.Chemscore.Rot>
1.8382

> <Gold.Chemscore.Internal.Correction>
   9.000000E+99

> <Gold.Chemscore.Hbonds>
donor molecule, donor type, donor heavy atom, donor atom, acceptor molecule, acceptor atom, score
      P1  H  6896  6908       L1    17  0.25
      P1  H  7997  8008       L1    10  0.13
      P1  H 10752 10765       L1    12  0.66

> <Gold.Chemscore.Hbond.Weighted>
-4.2338

> <Gold.Chemscore.Metal.Weighted>
-0.0000

> <Gold.Chemscore.Lipo.Weighted>
-15.0326

> <Gold.Chemscore.Internal_Hbond.Weighted>
0.0000

> <Gold.Chemscore.DEClash.Weighted>
0.0381

> <Gold.Chemscore.DEInternal.Weighted>
1.1813

> <Gold.Chemscore.Rot.Weighted>
4.7059

> <Gold.Chemscore.Internal.Correction.Weighted>
   9.000000E+99

> <Gold.Protein.RotatedTorsions>
[ 6907 6896 6895 6894 ] final  -85.67 input  -60.11 | X-H torsion
[ 7974 7965 7964 7962 ] final -117.41 input  175.53 | X-H torsion
[ 8008 7997 7996 7995 ] final  -83.19 input   59.86 | X-H torsion
[ 10167 10162 10161 10158 ] final -100.20 input  -65.29 | X-H torsion
[ 10718 10713 10712 10709 ] final -104.00 input   66.30 | X-H torsion
[ 10763 10752 10751 10750 ] final -129.63 input  -60.55 | X-H torsion
[ 11005 11000 10999 10996 ] final -162.89 input  -57.11 | X-H torsion

> <Gold.Protein.ActiveResidues>
 VAL166  LYS551  ARG553  GLY616  TRP617  ASP618  TYR619  PRO620  LYS621  CYS622 
 ASP623  PHE694  ASN695  SER759  ASP760  ASP761  ALA762  ILE779  LEU786  VAL792 
 PHE793  MET794  SER795  GLU796  ALA797  LYS798  CYS799  TRP800  GLU811  SER814 

> <Gold.Protein.RotatedAtoms>
  150.6869  134.3168  159.4769 H   0  0  0  0  0  0  0  0  0  0  0  0  # atno 6907 bound_to 6896
  152.1048  134.9313  160.0577 H   0  0  0  0  0  0  0  0  0  0  0  0  # atno 6908 bound_to 6896
  152.0579  133.4014  159.4442 H   0  0  0  0  0  0  0  0  0  0  0  0  # atno 6909 bound_to 6896
  145.0856  140.8455  143.4013 H   0  0  0  0  0  0  0  0  0  0  0  0  # atno 7974 bound_to 7965
  154.6165  140.0622  156.9561 H   0  0  0  0  0  0  0  0  0  0  0  0  # atno 8008 bound_to 7997
  155.1887  140.3305  155.4344 H   0  0  0  0  0  0  0  0  0  0  0  0  # atno 8009 bound_to 7997
  156.2407  140.1885  156.6978 H   0  0  0  0  0  0  0  0  0  0  0  0  # atno 8010 bound_to 7997
  140.2544  143.3450  152.0684 H   0  0  0  0  0  0  0  0  0  0  0  0  # atno 10167 bound_to 10162
  156.0287  130.5494  150.7333 H   0  0  0  0  0  0  0  0  0  0  0  0  # atno 10718 bound_to 10713
  154.8757  135.3889  154.3952 H   0  0  0  0  0  0  0  0  0  0  0  0  # atno 10763 bound_to 10752
  153.4683  135.7029  153.6014 H   0  0  0  0  0  0  0  0  0  0  0  0  # atno 10764 bound_to 10752
  153.4482  135.3840  155.2237 H   0  0  0  0  0  0  0  0  0  0  0  0  # atno 10765 bound_to 10752
  140.6042  134.4916  157.5208 H   0  0  0  0  0  0  0  0  0  0  0  0  # atno 11005 bound_to 11000
  145.1126  139.2746  143.5629 LP  0  0  0  0  0  0  0  0  0  0  0  0  # atno 17320 bound_to 7965
  146.3531  140.0727  142.8622 LP  0  0  0  0  0  0  0  0  0  0  0  0  # atno 17321 bound_to 7965
  139.5036  144.6758  151.6131 LP  0  0  0  0  0  0  0  0  0  0  0  0  # atno 17342 bound_to 10162
  140.6015  143.9601  150.6389 LP  0  0  0  0  0  0  0  0  0  0  0  0  # atno 17343 bound_to 10162
  157.4920  131.0911  151.0416 LP  0  0  0  0  0  0  0  0  0  0  0  0  # atno 17370 bound_to 10713
  157.0820  130.5907  149.5422 LP  0  0  0  0  0  0  0  0  0  0  0  0  # atno 17371 bound_to 10713
  139.9219  134.8131  156.1184 LP  0  0  0  0  0  0  0  0  0  0  0  0  # atno 17394 bound_to 11000
  141.0852  133.6737  156.2420 LP  0  0  0  0  0  0  0  0  0  0  0  0  # atno 17395 bound_to 11000

$$$$
