AV-unprocessed.smi:1830|AV-procd|sdf|7454|dock2
  -GOLD-   22720 9143D 1   1.00000     0.00000
 Structure written by MMmdl.
 53 56  0  0  0  0  0  0  0  0  2 V2000
  149.8609  134.9809  156.1273 O   0  0  0  0  0  0  0  0  0  0  0  0
  149.4989  135.3892  155.0243 C   0  0  0  0  0  0  0  0  0  0  0  0
  149.4352  136.6857  154.6923 N   0  0  0  0  0  0  0  0  0  0  0  0
  149.7307  137.8010  155.5858 C   0  0  0  0  0  0  0  0  0  0  0  0
  150.8616  138.6858  155.0213 C   0  0  2  0  0  0  0  0  0  0  0  0
  151.9567  139.0006  156.0682 C   0  0  0  0  0  0  0  0  0  0  0  0
  151.4944  140.0013  157.0111 N   0  0  0  0  0  0  0  0  0  0  0  0
  152.4491  140.4591  157.9937 C   0  0  0  0  0  0  0  0  0  0  0  0
  151.8352  141.7575  158.5449 C   0  0  0  0  0  0  0  0  0  0  0  0
  150.8314  142.2000  157.4577 C   0  0  0  0  0  0  0  0  0  0  0  0
  151.0887  141.1997  156.3291 C   0  0  2  0  0  0  0  0  0  0  0  0
  149.9293  140.9076  155.3690 C   0  0  0  0  0  0  0  0  0  0  0  0
  150.3497  139.8986  154.4444 O   0  0  0  0  0  0  0  0  0  0  0  0
  149.1350  134.6055  153.9962 N   0  0  0  0  0  0  0  0  0  0  0  0
  149.0984  133.1831  153.9555 C   0  0  0  0  0  0  0  0  0  0  0  0
  150.0888  132.3922  154.5921 C   0  0  0  0  0  0  0  0  0  0  0  0
  149.9896  130.9880  154.5614 C   0  0  0  0  0  0  0  0  0  0  0  0
  148.8960  130.3959  153.9049 C   0  0  0  0  0  0  0  0  0  0  0  0
  147.9628  131.1767  153.3218 N   0  3  0  0  0  0  0  0  0  0  0  0
  148.0057  132.5321  153.3197 C   0  0  0  0  0  0  0  0  0  0  0  0
  146.9853  133.2472  152.6566 N   0  0  0  0  0  0  0  0  0  0  0  0
  147.0426  133.1569  151.1993 C   0  0  0  0  0  0  0  0  0  0  0  0
  145.5946  133.0750  150.7100 C   0  0  0  0  0  0  0  0  0  0  0  0
  144.8562  132.4802  151.9028 C   0  0  0  0  0  0  0  0  0  0  0  0
  145.5960  133.0989  153.0868 C   0  0  0  0  0  0  0  0  0  0  0  0
  149.1329  136.9241  153.7593 H   0  0  0  0  0  0  0  0  0  0  0  0
  148.8361  138.3871  155.8001 H   0  0  0  0  0  0  0  0  0  0  0  0
  150.0445  137.3777  156.5402 H   0  0  0  0  0  0  0  0  0  0  0  0
  151.3337  138.1303  154.2100 H   0  0  0  0  0  0  0  0  0  0  0  0
  152.2540  138.0938  156.5958 H   0  0  0  0  0  0  0  0  0  0  0  0
  152.8468  139.3677  155.5550 H   0  0  0  0  0  0  0  0  0  0  0  0
  152.6176  139.7119  158.7694 H   0  0  0  0  0  0  0  0  0  0  0  0
  153.4065  140.6751  157.5168 H   0  0  0  0  0  0  0  0  0  0  0  0
  151.3171  141.5756  159.4870 H   0  0  0  0  0  0  0  0  0  0  0  0
  152.6034  142.5103  158.7241 H   0  0  0  0  0  0  0  0  0  0  0  0
  149.8102  142.1086  157.8305 H   0  0  0  0  0  0  0  0  0  0  0  0
  150.9850  143.2307  157.1369 H   0  0  0  0  0  0  0  0  0  0  0  0
  151.9298  141.5728  155.7405 H   0  0  0  0  0  0  0  0  0  0  0  0
  149.0450  140.5809  155.9159 H   0  0  0  0  0  0  0  0  0  0  0  0
  149.6509  141.8050  154.8168 H   0  0  0  0  0  0  0  0  0  0  0  0
  148.9542  135.0735  153.1201 H   0  0  0  0  0  0  0  0  0  0  0  0
  150.9164  132.8421  155.1193 H   0  0  0  0  0  0  0  0  0  0  0  0
  150.7389  130.3752  155.0409 H   0  0  0  0  0  0  0  0  0  0  0  0
  148.7380  129.3296  153.8320 H   0  0  0  0  0  0  0  0  0  0  0  0
  147.5547  134.0187  150.7714 H   0  0  0  0  0  0  0  0  0  0  0  0
  147.5887  132.2611  150.8982 H   0  0  0  0  0  0  0  0  0  0  0  0
  145.2158  134.0775  150.5065 H   0  0  0  0  0  0  0  0  0  0  0  0
  145.4868  132.4832  149.8008 H   0  0  0  0  0  0  0  0  0  0  0  0
  143.7895  132.7056  151.9024 H   0  0  0  0  0  0  0  0  0  0  0  0
  144.9760  131.3959  151.9121 H   0  0  0  0  0  0  0  0  0  0  0  0
  145.4595  132.5175  153.9983 H   0  0  0  0  0  0  0  0  0  0  0  0
  145.2038  134.0963  153.2886 H   0  0  0  0  0  0  0  0  0  0  0  0
  147.1815  130.7190  152.8518 H   0  0  0  0  0  0  0  0  0  0  0  0
  1  2  2  0  0  0  0
  2  3  1  0  0  0  0
  2 14  1  0  0  0  0
  3  4  1  0  0  0  0
  3 26  1  0  0  0  0
  4  5  1  0  0  0  0
  4 27  1  0  0  0  0
  4 28  1  0  0  0  0
  5 13  1  0  0  0  0
  5  6  1  0  0  0  0
  5 29  1  0  0  0  0
  6  7  1  0  0  0  0
  6 30  1  0  0  0  0
  6 31  1  0  0  0  0
  7 11  1  0  0  0  0
  7  8  1  0  0  0  0
  8  9  1  0  0  0  0
  8 32  1  0  0  0  0
  8 33  1  0  0  0  0
  9 10  1  0  0  0  0
  9 34  1  0  0  0  0
  9 35  1  0  0  0  0
 10 11  1  0  0  0  0
 10 36  1  0  0  0  0
 10 37  1  0  0  0  0
 11 12  1  0  0  0  0
 11 38  1  0  0  0  0
 12 13  1  0  0  0  0
 12 39  1  0  0  0  0
 12 40  1  0  0  0  0
 14 15  1  0  0  0  0
 14 41  1  0  0  0  0
 15 20  1  0  0  0  0
 15 16  2  0  0  0  0
 16 17  1  0  0  0  0
 16 42  1  0  0  0  0
 17 18  2  0  0  0  0
 17 43  1  0  0  0  0
 18 19  1  0  0  0  0
 18 44  1  0  0  0  0
 19 20  2  0  0  0  0
 19 53  1  0  0  0  0
 20 21  1  0  0  0  0
 21 25  1  0  0  0  0
 21 22  1  0  0  0  0
 22 23  1  0  0  0  0
 22 45  1  0  0  0  0
 22 46  1  0  0  0  0
 23 24  1  0  0  0  0
 23 47  1  0  0  0  0
 23 48  1  0  0  0  0
 24 25  1  0  0  0  0
 24 49  1  0  0  0  0
 24 50  1  0  0  0  0
 25 51  1  0  0  0  0
 25 52  1  0  0  0  0
M  CHG  1  19   1
M  END
> <s_m_source_file>
AV-unprocessed.smi

> <i_m_source_file_index>
1830

> <i_lp_mmshare_version>
43012

> <i_f3d_flags>
0

> <s_epik_input>
W0NIMl0xW0NIMl1bQ0gyXVtDQEhdKE4xMilbQ0gyXU9bQ0BASF0oW0NIMl0yKVtDSDJdW05IXUMoPU8pW05IXWMzW2NIXVtjSF1bY0hdbmMzTjRbQ0gyXVtDSDJdW0NIMl1bQ0gyXTQ=

> <s_epik_cmdline>
J2VwaWtfcHl0aG9uJywgJy1waCcsICc3LjAnLCAnLXRuJywgJzgnLCAnLW1hJywgJzIwMCcsICctbWV0YWxfYmluZGluZycsICctaW1hZScsICc8aW5maWxlLm1hZT4nLCAnLW9tYWUnLCAnPG91dGZpbGUubWFlPic=

> <r_epik_Ionization_Penalty>
2.19264

> <r_epik_Ionization_Penalty_Charging>
1.12452

> <r_epik_Ionization_Penalty_Neutral>
1.06812

> <r_epik_State_Penalty>
2.334

> <r_epik_Charging_Adjusted_Penalty>
3.45852

> <i_epik_Tot_Q>
1

> <i_epik_Tot_abs_Q>
1

> <r_epik_Metal_State_Penalty>
2.41144

> <b_epik_Metal_Only>
0

> <s_lp_Force_Field>
OPLS_2005

> <r_lp_Energy>
83.5645

> <b_lp_Chiralities_Consistent>
1

> <s_lp_Variant>
AV-unprocessed.smi:1830-23

> <Gold.Version>
5.8.1

> <Gold.Id.Protein>
6NUR|6NUR_protein|mol2

> <Gold.PLP.Fitness>
48.0764

> <Gold.PLP.PLP>
-41.4470

> <Gold.PLP.part.hbond>
-3.2231

> <Gold.PLP.part.metal>
0.0000

> <Gold.PLP.part.buried>
-4.8586

> <Gold.PLP.part.nonpolar>
-33.6022

> <Gold.PLP.part.repulsive>
0.2979

> <Gold.PLP.ligand.clash>
0.0000

> <Gold.PLP.ligand.torsion>
1.0863

> <Gold.PLP.Chemscore.Hbond>
2.8800

> <Gold.PLP.Chemscore.CHOScore>
0.0000

> <Gold.PLP.Chemscore.Metal>
0.0000

> <Gold.Chemscore.Hbonds>
donor molecule, donor type, donor heavy atom, donor atom, acceptor molecule, acceptor atom, score
      L1  H     3    26       P1  7948  0.88
      L1  H    14    41       P1  7948  1.00
      P1  H  7989  7998       L1    13  1.00

> <Gold.PLP.Chemscore.Internal.Correction>
0.1619

> <Gold.Rescore>
     Score         DG    S(hbond)    S(metal)    S(lipo)     H(rot)  DE(clash)    DE(int)     intcor
     16.80     -18.97       1.85        0.00      93.11       1.40       0.08       2.09       ----

> <Gold.Chemscore.Fitness>
16.8019

> <Gold.Chemscore.DG>
-18.9749

> <Gold.Chemscore.ZeroCoef>
-5.4800

> <Gold.Chemscore.Hbond>
1.8487

> <Gold.Chemscore.Metal>
0.0000

> <Gold.Chemscore.Lipo>
93.1107

> <Gold.Chemscore.Internal_Hbond>
0.0000

> <Gold.Chemscore.DEClash>
0.0800

> <Gold.Chemscore.DEInternal>
2.0931

> <Gold.Chemscore.Rot>
1.3959

> <Gold.Chemscore.Internal.Correction>
   9.000000E+99

> <Gold.Chemscore.Hbonds>
donor molecule, donor type, donor heavy atom, donor atom, acceptor molecule, acceptor atom, score
      L1  H     3    26       P1  7948  0.82
      L1  H    14    41       P1  7948  0.26
      P1  H  7989  7998       L1    13  0.22

> <Gold.Chemscore.Hbond.Weighted>
-6.1746

> <Gold.Chemscore.Metal.Weighted>
-0.0000

> <Gold.Chemscore.Lipo.Weighted>
-10.8940

> <Gold.Chemscore.Internal_Hbond.Weighted>
0.0000

> <Gold.Chemscore.DEClash.Weighted>
0.0800

> <Gold.Chemscore.DEInternal.Weighted>
2.0931

> <Gold.Chemscore.Rot.Weighted>
3.5736

> <Gold.Chemscore.Internal.Correction.Weighted>
   9.000000E+99

> <Gold.Protein.RotatedTorsions>
[ 6907 6896 6895 6894 ] final  -65.00 input  -60.11 | X-H torsion
[ 7974 7965 7964 7962 ] final   -2.83 input  175.53 | X-H torsion
[ 8008 7997 7996 7995 ] final  -64.43 input   59.86 | X-H torsion
[ 10167 10162 10161 10158 ] final   80.09 input  -65.29 | X-H torsion
[ 10718 10713 10712 10709 ] final  -74.13 input   66.30 | X-H torsion
[ 10763 10752 10751 10750 ] final  134.11 input  -60.55 | X-H torsion
[ 11005 11000 10999 10996 ] final  -66.76 input  -57.11 | X-H torsion

> <Gold.Protein.ActiveResidues>
 VAL166  LYS551  ARG553  GLY616  TRP617  ASP618  TYR619  PRO620  LYS621  CYS622 
 ASP623  PHE694  ASN695  SER759  ASP760  ASP761  ALA762  ILE779  LEU786  VAL792 
 PHE793  MET794  SER795  GLU796  ALA797  LYS798  CYS799  TRP800  GLU811  SER814 

> <Gold.Protein.RotatedAtoms>
  150.7551  134.6221  159.6141 H   0  0  0  0  0  0  0  0  0  0  0  0  # atno 6907 bound_to 6896
  152.3524  134.6983  160.0241 H   0  0  0  0  0  0  0  0  0  0  0  0  # atno 6908 bound_to 6896
  151.7400  133.3285  159.3399 H   0  0  0  0  0  0  0  0  0  0  0  0  # atno 6909 bound_to 6896
  146.2399  140.1630  142.8332 H   0  0  0  0  0  0  0  0  0  0  0  0  # atno 7974 bound_to 7965
  154.4611  140.0954  156.6896 H   0  0  0  0  0  0  0  0  0  0  0  0  # atno 8008 bound_to 7997
  155.4991  140.3473  155.4349 H   0  0  0  0  0  0  0  0  0  0  0  0  # atno 8009 bound_to 7997
  156.0872  140.1388  156.9626 H   0  0  0  0  0  0  0  0  0  0  0  0  # atno 8010 bound_to 7997
  139.9535  144.6010  150.8139 H   0  0  0  0  0  0  0  0  0  0  0  0  # atno 10167 bound_to 10162
  156.0254  130.4410  150.2846 H   0  0  0  0  0  0  0  0  0  0  0  0  # atno 10718 bound_to 10713
  153.8181  135.3120  155.3407 H   0  0  0  0  0  0  0  0  0  0  0  0  # atno 10763 bound_to 10752
  154.8024  135.4718  154.0311 H   0  0  0  0  0  0  0  0  0  0  0  0  # atno 10764 bound_to 10752
  153.1711  135.6878  153.8696 H   0  0  0  0  0  0  0  0  0  0  0  0  # atno 10765 bound_to 10752
  141.1491  133.6705  156.6189 H   0  0  0  0  0  0  0  0  0  0  0  0  # atno 11005 bound_to 11000
  145.0074  140.8685  143.5245 LP  0  0  0  0  0  0  0  0  0  0  0  0  # atno 17320 bound_to 7965
  145.1658  139.2432  143.5368 LP  0  0  0  0  0  0  0  0  0  0  0  0  # atno 17321 bound_to 7965
  140.7575  143.3089  151.2894 LP  0  0  0  0  0  0  0  0  0  0  0  0  # atno 17342 bound_to 10162
  139.6610  144.0189  152.2692 LP  0  0  0  0  0  0  0  0  0  0  0  0  # atno 17343 bound_to 10162
  157.0949  131.0180  151.3107 LP  0  0  0  0  0  0  0  0  0  0  0  0  # atno 17370 bound_to 10713
  157.4825  130.7773  149.7428 LP  0  0  0  0  0  0  0  0  0  0  0  0  # atno 17371 bound_to 10713
  140.3556  134.7732  157.4497 LP  0  0  0  0  0  0  0  0  0  0  0  0  # atno 17394 bound_to 11000
  140.0826  134.5710  155.8525 LP  0  0  0  0  0  0  0  0  0  0  0  0  # atno 17395 bound_to 11000

$$$$
