AV-unprocessed.smi:1695|AV-procd|sdf|6794|dock2
  -GOLD-   22720 7553D 1   1.00000     0.00000
 Structure written by MMmdl.
 52 54  0  0  0  0  0  0  0  0  3 V2000
  152.0925  144.3104  160.6488 C   0  0  0  0  0  0  0  0  0  0  0  0
  151.9288  143.2785  159.5459 C   0  0  0  0  0  0  0  0  0  0  0  0
  151.0845  143.5854  158.4549 C   0  0  0  0  0  0  0  0  0  0  0  0
  150.9537  142.6207  157.4631 C   0  0  0  0  0  0  0  0  0  0  0  0
  150.2114  142.6179  156.2799 N   0  3  0  0  0  0  0  0  0  0  0  0
  150.4023  141.4386  155.6258 C   0  0  0  0  0  0  0  0  0  0  0  0
  151.2511  140.6857  156.3779 N   0  0  0  0  0  0  0  0  0  0  0  0
  151.7860  139.3387  156.1381 C   0  0  0  0  0  0  0  0  0  0  0  0
  150.7030  138.2428  156.1955 C   0  0  1  0  0  0  0  0  0  0  0  0
  149.6980  138.6307  157.1123 O   0  0  0  0  0  0  0  0  0  0  0  0
  150.0538  138.0102  154.8169 C   0  0  0  0  0  0  0  0  0  0  0  0
  149.5433  136.6247  154.6516 N   0  3  1  0  0  0  0  0  0  0  0  0
  150.6396  135.6242  154.6057 C   0  0  0  0  0  0  0  0  0  0  0  0
  150.1008  134.2170  154.2834 C   0  0  0  0  0  0  0  0  0  0  0  0
  148.9839  133.7569  155.2437 C   0  0  1  0  0  0  0  0  0  0  0  0
  149.5238  133.3083  156.6146 C   0  0  0  0  0  0  0  0  0  0  0  0
  150.3463  132.2565  156.6267 N   0  0  0  0  0  0  0  0  0  0  0  0
  149.2091  133.8938  157.6484 O   0  0  0  0  0  0  0  0  0  0  0  0
  147.9145  134.8644  155.3543 C   0  0  0  0  0  0  0  0  0  0  0  0
  148.5057  136.2563  155.6508 C   0  0  0  0  0  0  0  0  0  0  0  0
  151.6268  141.3854  157.5296 C   0  0  0  0  0  0  0  0  0  0  0  0
  152.4649  141.0677  158.5957 C   0  0  0  0  0  0  0  0  0  0  0  0
  152.6105  142.0357  159.6149 C   0  0  0  0  0  0  0  0  0  0  0  0
  153.5158  141.7173  160.7927 C   0  0  0  0  0  0  0  0  0  0  0  0
  151.5147  145.2116  160.4416 H   0  0  0  0  0  0  0  0  0  0  0  0
  153.1385  144.6014  160.7498 H   0  0  0  0  0  0  0  0  0  0  0  0
  151.7510  143.9080  161.6028 H   0  0  0  0  0  0  0  0  0  0  0  0
  150.5632  144.5300  158.3955 H   0  0  0  0  0  0  0  0  0  0  0  0
  149.9586  141.1521  154.6829 H   0  0  0  0  0  0  0  0  0  0  0  0
  152.2666  139.3473  155.1586 H   0  0  0  0  0  0  0  0  0  0  0  0
  152.5743  139.1482  156.8679 H   0  0  0  0  0  0  0  0  0  0  0  0
  151.1559  137.3229  156.5623 H   0  0  0  0  0  0  0  0  0  0  0  0
  149.9333  139.4696  157.4790 H   0  0  0  0  0  0  0  0  0  0  0  0
  149.2351  138.7224  154.6993 H   0  0  0  0  0  0  0  0  0  0  0  0
  150.7620  138.2298  154.0163 H   0  0  0  0  0  0  0  0  0  0  0  0
  151.3576  135.9069  153.8351 H   0  0  0  0  0  0  0  0  0  0  0  0
  151.1833  135.6299  155.5507 H   0  0  0  0  0  0  0  0  0  0  0  0
  149.7109  134.2142  153.2647 H   0  0  0  0  0  0  0  0  0  0  0  0
  150.9223  133.4992  154.2872 H   0  0  0  0  0  0  0  0  0  0  0  0
  148.5053  132.8859  154.7927 H   0  0  0  0  0  0  0  0  0  0  0  0
  150.7287  131.9211  157.4991 H   0  0  0  0  0  0  0  0  0  0  0  0
  150.5844  131.7975  155.7591 H   0  0  0  0  0  0  0  0  0  0  0  0
  147.3590  134.9113  154.4165 H   0  0  0  0  0  0  0  0  0  0  0  0
  147.1812  134.6066  156.1198 H   0  0  0  0  0  0  0  0  0  0  0  0
  148.9310  136.2927  156.6539 H   0  0  0  0  0  0  0  0  0  0  0  0
  147.6954  136.9837  155.6385 H   0  0  0  0  0  0  0  0  0  0  0  0
  152.9845  140.1224  158.6479 H   0  0  0  0  0  0  0  0  0  0  0  0
  153.9594  140.7256  160.6989 H   0  0  0  0  0  0  0  0  0  0  0  0
  152.9534  141.7431  161.7262 H   0  0  0  0  0  0  0  0  0  0  0  0
  154.3288  142.4408  160.8573 H   0  0  0  0  0  0  0  0  0  0  0  0
  149.1029  136.5960  153.7430 H   0  0  0  0  0  0  0  0  0  0  0  0
  149.6199  143.3657  155.9400 H   0  0  0  0  0  0  0  0  0  0  0  0
  1  2  1  0  0  0  0
  1 25  1  0  0  0  0
  1 26  1  0  0  0  0
  1 27  1  0  0  0  0
  2 23  1  0  0  0  0
  2  3  2  0  0  0  0
  3  4  1  0  0  0  0
  3 28  1  0  0  0  0
  4 21  2  0  0  0  0
  4  5  1  0  0  0  0
  5  6  2  0  0  0  0
  5 52  1  0  0  0  0
  6  7  1  0  0  0  0
  6 29  1  0  0  0  0
  7  8  1  0  0  0  0
  7 21  1  0  0  0  0
  8  9  1  0  0  0  0
  8 30  1  0  0  0  0
  8 31  1  0  0  0  0
  9 10  1  0  0  0  0
  9 11  1  0  0  0  0
  9 32  1  0  0  0  0
 10 33  1  0  0  0  0
 11 12  1  0  0  0  0
 11 34  1  0  0  0  0
 11 35  1  0  0  0  0
 12 20  1  0  0  0  0
 12 13  1  0  0  0  0
 12 51  1  0  0  0  0
 13 14  1  0  0  0  0
 13 36  1  0  0  0  0
 13 37  1  0  0  0  0
 14 15  1  0  0  0  0
 14 38  1  0  0  0  0
 14 39  1  0  0  0  0
 15 16  1  0  0  0  0
 15 19  1  0  0  0  0
 15 40  1  0  0  0  0
 16 17  1  0  0  0  0
 16 18  2  0  0  0  0
 17 41  1  0  0  0  0
 17 42  1  0  0  0  0
 19 20  1  0  0  0  0
 19 43  1  0  0  0  0
 19 44  1  0  0  0  0
 20 45  1  0  0  0  0
 20 46  1  0  0  0  0
 21 22  1  0  0  0  0
 22 23  2  0  0  0  0
 22 47  1  0  0  0  0
 23 24  1  0  0  0  0
 24 48  1  0  0  0  0
 24 49  1  0  0  0  0
 24 50  1  0  0  0  0
M  CHG  1   5   1
M  CHG  1  12   1
M  END
> <s_m_source_file>
AV-unprocessed.smi

> <i_m_source_file_index>
1695

> <i_lp_mmshare_version>
43012

> <i_f3d_flags>
0

> <s_epik_input>
W0NIM11jKFtjSF0xKWMoW0NIM10pW2NIXWMoYzEyKW4oW2NIXW4yKVtDSDJdW0NASF0oW09IXSlbQ0gyXU4zW0NIMl1bQ0gyXVtDSF0oQyg9TylbTkgyXSlbQ0gyXVtDSDJdMw==

> <s_epik_cmdline>
J2VwaWtfcHl0aG9uJywgJy1waCcsICc3LjAnLCAnLXRuJywgJzgnLCAnLW1hJywgJzIwMCcsICctbWV0YWxfYmluZGluZycsICctaW1hZScsICc8aW5maWxlLm1hZT4nLCAnLW9tYWUnLCAnPG91dGZpbGUubWFlPic=

> <r_epik_Ionization_Penalty>
1.20173

> <r_epik_Ionization_Penalty_Charging>
1.20172

> <r_epik_Ionization_Penalty_Neutral>
1.7852e-06

> <r_epik_State_Penalty>
1.28089

> <r_epik_Charging_Adjusted_Penalty>
2.48261

> <i_epik_Tot_Q>
2

> <i_epik_Tot_abs_Q>
2

> <r_epik_Metal_State_Penalty>
1.35652

> <b_epik_Metal_Only>
0

> <s_lp_Force_Field>
OPLS_2005

> <r_lp_Energy>
25.0715

> <b_lp_Chiralities_Consistent>
1

> <s_lp_Variant>
AV-unprocessed.smi:1695-6

> <Gold.Version>
5.8.1

> <Gold.Id.Protein>
6NUR|6NUR_protein|mol2

> <Gold.PLP.Fitness>
54.9761

> <Gold.PLP.PLP>
-41.5208

> <Gold.PLP.part.hbond>
-3.0000

> <Gold.PLP.part.metal>
0.0000

> <Gold.PLP.part.buried>
-5.1057

> <Gold.PLP.part.nonpolar>
-33.3502

> <Gold.PLP.part.repulsive>
0.1965

> <Gold.PLP.ligand.clash>
0.0000

> <Gold.PLP.ligand.torsion>
0.7974

> <Gold.PLP.Chemscore.Hbond>
5.0000

> <Gold.PLP.Chemscore.CHOScore>
0.0000

> <Gold.PLP.Chemscore.Metal>
0.0000

> <Gold.Chemscore.Hbonds>
donor molecule, donor type, donor heavy atom, donor atom, acceptor molecule, acceptor atom, score
      L1  H     5    52       P1  8028  2.00
      L1  H    12    51       P1  7948  2.00
      P1  H  6896  6907       L1    18  0.50

> <Gold.PLP.Chemscore.Internal.Correction>
0.0501

> <Gold.Rescore>
     Score         DG    S(hbond)    S(metal)    S(lipo)     H(rot)  DE(clash)    DE(int)     intcor
     19.86     -20.90       2.82        0.00     114.93       2.91       0.17       0.88       ----

> <Gold.Chemscore.Fitness>
19.8560

> <Gold.Chemscore.DG>
-20.9007

> <Gold.Chemscore.ZeroCoef>
-5.4800

> <Gold.Chemscore.Hbond>
2.8237

> <Gold.Chemscore.Metal>
0.0000

> <Gold.Chemscore.Lipo>
114.9252

> <Gold.Chemscore.Internal_Hbond>
0.0000

> <Gold.Chemscore.DEClash>
0.1681

> <Gold.Chemscore.DEInternal>
0.8767

> <Gold.Chemscore.Rot>
2.9127

> <Gold.Chemscore.Internal.Correction>
   9.000000E+99

> <Gold.Chemscore.Hbonds>
donor molecule, donor type, donor heavy atom, donor atom, acceptor molecule, acceptor atom, score
      L1  H     5    52       P1  8028  0.97
      L1  H    12    51       P1  7948  0.97
      P1  H  6896  6907       L1    18  0.48

> <Gold.Chemscore.Hbond.Weighted>
-9.4310

> <Gold.Chemscore.Metal.Weighted>
-0.0000

> <Gold.Chemscore.Lipo.Weighted>
-13.4462

> <Gold.Chemscore.Internal_Hbond.Weighted>
0.0000

> <Gold.Chemscore.DEClash.Weighted>
0.1681

> <Gold.Chemscore.DEInternal.Weighted>
0.8767

> <Gold.Chemscore.Rot.Weighted>
7.4565

> <Gold.Chemscore.Internal.Correction.Weighted>
   9.000000E+99

> <Gold.Protein.RotatedTorsions>
[ 6907 6896 6895 6894 ] final -106.34 input  -60.11 | X-H torsion
[ 7974 7965 7964 7962 ] final  106.16 input  175.53 | X-H torsion
[ 8008 7997 7996 7995 ] final   -0.73 input   59.86 | X-H torsion
[ 10167 10162 10161 10158 ] final  157.77 input  -65.29 | X-H torsion
[ 10718 10713 10712 10709 ] final  173.89 input   66.30 | X-H torsion
[ 10763 10752 10751 10750 ] final -169.90 input  -60.55 | X-H torsion
[ 11005 11000 10999 10996 ] final -145.47 input  -57.11 | X-H torsion

> <Gold.Protein.ActiveResidues>
 VAL166  LYS551  ARG553  GLY616  TRP617  ASP618  TYR619  PRO620  LYS621  CYS622 
 ASP623  PHE694  ASN695  SER759  ASP760  ASP761  ALA762  ILE779  LEU786  VAL792 
 PHE793  MET794  SER795  GLU796  ALA797  LYS798  CYS799  TRP800  GLU811  SER814 

> <Gold.Protein.RotatedAtoms>
  150.7384  133.9991  159.3631 H   0  0  0  0  0  0  0  0  0  0  0  0  # atno 6907 bound_to 6896
  151.7944  135.0724  160.0401 H   0  0  0  0  0  0  0  0  0  0  0  0  # atno 6908 bound_to 6896
  152.3185  133.5792  159.5765 H   0  0  0  0  0  0  0  0  0  0  0  0  # atno 6909 bound_to 6896
  145.3102  139.2542  143.3767 H   0  0  0  0  0  0  0  0  0  0  0  0  # atno 7974 bound_to 7965
  154.6547  140.2577  155.7174 H   0  0  0  0  0  0  0  0  0  0  0  0  # atno 8008 bound_to 7997
  156.2591  140.2860  156.0917 H   0  0  0  0  0  0  0  0  0  0  0  0  # atno 8009 bound_to 7997
  155.1397  140.0380  157.2786 H   0  0  0  0  0  0  0  0  0  0  0  0  # atno 8010 bound_to 7997
  139.4824  144.4886  151.8341 H   0  0  0  0  0  0  0  0  0  0  0  0  # atno 10167 bound_to 10162
  156.9577  131.0051  151.2934 H   0  0  0  0  0  0  0  0  0  0  0  0  # atno 10718 bound_to 10713
  154.6473  135.2906  155.0030 H   0  0  0  0  0  0  0  0  0  0  0  0  # atno 10763 bound_to 10752
  154.1136  135.6559  153.4893 H   0  0  0  0  0  0  0  0  0  0  0  0  # atno 10764 bound_to 10752
  153.0357  135.5271  154.7365 H   0  0  0  0  0  0  0  0  0  0  0  0  # atno 10765 bound_to 10752
  140.7919  134.2958  157.5010 H   0  0  0  0  0  0  0  0  0  0  0  0  # atno 11005 bound_to 11000
  146.3120  140.3636  142.8667 LP  0  0  0  0  0  0  0  0  0  0  0  0  # atno 17320 bound_to 7965
  144.9022  140.7656  143.5860 LP  0  0  0  0  0  0  0  0  0  0  0  0  # atno 17321 bound_to 7965
  140.4368  144.2040  150.5889 LP  0  0  0  0  0  0  0  0  0  0  0  0  # atno 17342 bound_to 10162
  140.4723  143.2408  151.9071 LP  0  0  0  0  0  0  0  0  0  0  0  0  # atno 17343 bound_to 10162
  157.5679  130.8290  149.8352 LP  0  0  0  0  0  0  0  0  0  0  0  0  # atno 17370 bound_to 10713
  156.0335  130.3758  150.1622 LP  0  0  0  0  0  0  0  0  0  0  0  0  # atno 17371 bound_to 10713
  139.8730  134.9379  156.3701 LP  0  0  0  0  0  0  0  0  0  0  0  0  # atno 17394 bound_to 11000
  140.9381  133.7533  156.0111 LP  0  0  0  0  0  0  0  0  0  0  0  0  # atno 17395 bound_to 11000

$$$$
