AV-unprocessed.smi:1007|AV-procd|sdf|4398|dock8
  -GOLD-   22720 2333D 1   1.00000     0.00000
 Structure written by MMmdl.
 56 58  0  0  0  0  0  0  0  0  2 V2000
  148.4835  135.5837  160.3171 C   0  0  0  0  0  0  0  0  0  0  0  0
  149.2619  134.9817  159.2944 O   0  0  0  0  0  0  0  0  0  0  0  0
  148.5002  134.4763  158.2071 C   0  0  0  0  0  0  0  0  0  0  0  0
  149.4066  134.0141  157.0507 C   0  0  0  0  0  0  0  0  0  0  0  0
  148.8262  134.1713  155.7134 N   0  0  0  0  0  0  0  0  0  0  0  0
  148.0136  135.3808  155.5879 C   0  0  0  0  0  0  0  0  0  0  0  0
  148.8479  136.6785  155.5692 C   0  0  0  0  0  0  0  0  0  0  0  0
  149.8516  136.6349  154.4718 N   0  3  0  0  0  0  0  0  0  0  0  0
  150.6661  137.8715  154.3625 C   0  0  0  0  0  0  0  0  0  0  0  0
  149.9340  139.1176  154.9089 C   0  0  2  0  0  0  0  0  0  0  0  0
  148.9420  139.5079  153.9810 O   0  0  0  0  0  0  0  0  0  0  0  0
  150.8622  140.3259  155.1408 C   0  0  0  0  0  0  0  0  0  0  0  0
  151.5746  140.2440  156.4027 N   0  0  0  0  0  0  0  0  0  0  0  0
  152.4233  139.2728  156.7907 C   0  0  0  0  0  0  0  0  0  0  0  0
  152.9825  139.3970  157.9906 N   0  0  0  0  0  0  0  0  0  0  0  0
  152.4264  140.5833  158.4370 C   0  0  0  0  0  0  0  0  0  0  0  0
  152.6109  141.2835  159.6491 C   0  0  0  0  0  0  0  0  0  0  0  0
  151.9344  142.4998  159.8937 C   0  0  0  0  0  0  0  0  0  0  0  0
  152.1641  143.2198  161.2109 C   0  0  0  0  0  0  0  0  0  0  0  0
  151.0568  143.0339  158.9161 C   0  0  0  0  0  0  0  0  0  0  0  0
  150.3193  144.3393  159.1569 C   0  0  0  0  0  0  0  0  0  0  0  0
  150.8597  142.3465  157.7003 C   0  0  0  0  0  0  0  0  0  0  0  0
  151.5391  141.1374  157.4685 C   0  0  0  0  0  0  0  0  0  0  0  0
  150.6908  135.4134  154.5776 C   0  0  0  0  0  0  0  0  0  0  0  0
  149.8030  134.1535  154.6222 C   0  0  0  0  0  0  0  0  0  0  0  0
  149.1447  135.9943  161.0802 H   0  0  0  0  0  0  0  0  0  0  0  0
  147.8257  134.8642  160.8043 H   0  0  0  0  0  0  0  0  0  0  0  0
  147.8790  136.4024  159.9250 H   0  0  0  0  0  0  0  0  0  0  0  0
  147.8383  133.6808  158.5508 H   0  0  0  0  0  0  0  0  0  0  0  0
  147.8594  135.2859  157.8559 H   0  0  0  0  0  0  0  0  0  0  0  0
  150.3223  134.6047  157.1011 H   0  0  0  0  0  0  0  0  0  0  0  0
  149.7119  132.9818  157.2121 H   0  0  0  0  0  0  0  0  0  0  0  0
  147.4317  135.3231  154.6670 H   0  0  0  0  0  0  0  0  0  0  0  0
  147.2833  135.4218  156.3970 H   0  0  0  0  0  0  0  0  0  0  0  0
  148.1756  137.5242  155.4321 H   0  0  0  0  0  0  0  0  0  0  0  0
  149.3474  136.8315  156.5268 H   0  0  0  0  0  0  0  0  0  0  0  0
  151.6103  137.7078  154.8830 H   0  0  0  0  0  0  0  0  0  0  0  0
  150.9247  138.0529  153.3180 H   0  0  0  0  0  0  0  0  0  0  0  0
  149.4377  138.8846  155.8503 H   0  0  0  0  0  0  0  0  0  0  0  0
  149.3389  139.5874  153.1264 H   0  0  0  0  0  0  0  0  0  0  0  0
  151.5911  140.4107  154.3336 H   0  0  0  0  0  0  0  0  0  0  0  0
  150.2857  141.2522  155.1365 H   0  0  0  0  0  0  0  0  0  0  0  0
  152.6480  138.4299  156.1531 H   0  0  0  0  0  0  0  0  0  0  0  0
  153.2799  140.8771  160.3935 H   0  0  0  0  0  0  0  0  0  0  0  0
  151.2182  143.3956  161.7232 H   0  0  0  0  0  0  0  0  0  0  0  0
  152.6494  144.1808  161.0395 H   0  0  0  0  0  0  0  0  0  0  0  0
  152.7998  142.6370  161.8779 H   0  0  0  0  0  0  0  0  0  0  0  0
  149.7425  144.6380  158.2812 H   0  0  0  0  0  0  0  0  0  0  0  0
  151.0219  145.1413  159.3827 H   0  0  0  0  0  0  0  0  0  0  0  0
  149.6287  144.2375  159.9942 H   0  0  0  0  0  0  0  0  0  0  0  0
  150.1932  142.7429  156.9488 H   0  0  0  0  0  0  0  0  0  0  0  0
  151.3533  135.3524  153.7136 H   0  0  0  0  0  0  0  0  0  0  0  0
  151.3304  135.4738  155.4591 H   0  0  0  0  0  0  0  0  0  0  0  0
  150.4244  133.2607  154.6794 H   0  0  0  0  0  0  0  0  0  0  0  0
  149.2686  134.0711  153.6746 H   0  0  0  0  0  0  0  0  0  0  0  0
  149.3390  136.5503  153.6055 H   0  0  0  0  0  0  0  0  0  0  0  0
  1  2  1  0  0  0  0
  1 26  1  0  0  0  0
  1 27  1  0  0  0  0
  1 28  1  0  0  0  0
  2  3  1  0  0  0  0
  3  4  1  0  0  0  0
  3 29  1  0  0  0  0
  3 30  1  0  0  0  0
  4  5  1  0  0  0  0
  4 31  1  0  0  0  0
  4 32  1  0  0  0  0
  5 25  1  0  0  0  0
  5  6  1  0  0  0  0
  6  7  1  0  0  0  0
  6 33  1  0  0  0  0
  6 34  1  0  0  0  0
  7  8  1  0  0  0  0
  7 35  1  0  0  0  0
  7 36  1  0  0  0  0
  8  9  1  0  0  0  0
  8 24  1  0  0  0  0
  8 56  1  0  0  0  0
  9 10  1  0  0  0  0
  9 37  1  0  0  0  0
  9 38  1  0  0  0  0
 10 11  1  0  0  0  0
 10 12  1  0  0  0  0
 10 39  1  0  0  0  0
 11 40  1  0  0  0  0
 12 13  1  0  0  0  0
 12 41  1  0  0  0  0
 12 42  1  0  0  0  0
 13 23  1  0  0  0  0
 13 14  1  0  0  0  0
 14 15  2  0  0  0  0
 14 43  1  0  0  0  0
 15 16  1  0  0  0  0
 16 23  2  0  0  0  0
 16 17  1  0  0  0  0
 17 18  2  0  0  0  0
 17 44  1  0  0  0  0
 18 19  1  0  0  0  0
 18 20  1  0  0  0  0
 19 45  1  0  0  0  0
 19 46  1  0  0  0  0
 19 47  1  0  0  0  0
 20 21  1  0  0  0  0
 20 22  2  0  0  0  0
 21 48  1  0  0  0  0
 21 49  1  0  0  0  0
 21 50  1  0  0  0  0
 22 23  1  0  0  0  0
 22 51  1  0  0  0  0
 24 25  1  0  0  0  0
 24 52  1  0  0  0  0
 24 53  1  0  0  0  0
 25 54  1  0  0  0  0
 25 55  1  0  0  0  0
M  CHG  1   8   1
M  END
> <s_m_source_file>
AV-unprocessed.smi

> <i_m_source_file_index>
1007

> <i_lp_mmshare_version>
43012

> <i_f3d_flags>
0

> <s_epik_input>
W0NIM11PW0NIMl1bQ0gyXU4xW0NIMl1bQ0gyXU4oW0NIMl1bQ0gyXTEpW0NIMl1bQ0BIXShbT0hdKVtDSDJdbihbY0hdbjIpYyhjMjMpW2NIXWMoW0NIM10pYyhbY0hdMylbQ0gzXQ==

> <s_epik_cmdline>
J2VwaWtfcHl0aG9uJywgJy1waCcsICc3LjAnLCAnLXRuJywgJzgnLCAnLW1hJywgJzIwMCcsICctbWV0YWxfYmluZGluZycsICctaW1hZScsICc8aW5maWxlLm1hZT4nLCAnLW9tYWUnLCAnPG91dGZpbGUubWFlPic=

> <r_epik_Ionization_Penalty>
0.102698

> <r_epik_Ionization_Penalty_Charging>
0.00226046

> <r_epik_Ionization_Penalty_Neutral>
0.100438

> <r_epik_State_Penalty>
0.191223

> <r_epik_Charging_Adjusted_Penalty>
0.193484

> <i_epik_Tot_Q>
1

> <i_epik_Tot_abs_Q>
1

> <r_epik_Metal_State_Penalty>
0.102154

> <b_epik_Metal_Only>
0

> <s_lp_Force_Field>
OPLS_2005

> <r_lp_Energy>
34.1063

> <b_lp_Chiralities_Consistent>
1

> <s_lp_Variant>
AV-unprocessed.smi:1007-1

> <Gold.Version>
5.8.1

> <Gold.Id.Protein>
6NUR|6NUR_protein|mol2

> <Gold.PLP.Fitness>
53.2110

> <Gold.PLP.PLP>
-42.5427

> <Gold.PLP.part.hbond>
-4.0000

> <Gold.PLP.part.metal>
0.0000

> <Gold.PLP.part.buried>
-1.3965

> <Gold.PLP.part.nonpolar>
-36.4110

> <Gold.PLP.part.repulsive>
0.0622

> <Gold.PLP.ligand.clash>
0.0000

> <Gold.PLP.ligand.torsion>
1.1401

> <Gold.PLP.Chemscore.Hbond>
4.2839

> <Gold.PLP.Chemscore.CHOScore>
0.0000

> <Gold.PLP.Chemscore.Metal>
0.0000

> <Gold.Chemscore.Hbonds>
donor molecule, donor type, donor heavy atom, donor atom, acceptor molecule, acceptor atom, score
      L1  H     8    56       P1  7948  2.00
      L1  H    11    40       P1  7957  0.99
      P1  H  6896  6909       L1     2  0.94
      P1  H  7997  8010       L1    15  0.44

> <Gold.PLP.Chemscore.Internal.Correction>
0.0967

> <Gold.Rescore>
     Score         DG    S(hbond)    S(metal)    S(lipo)     H(rot)  DE(clash)    DE(int)     intcor
     20.75     -23.39       2.87        0.00     127.07       2.56       1.43       1.21       ----

> <Gold.Chemscore.Fitness>
20.7508

> <Gold.Chemscore.DG>
-23.3860

> <Gold.Chemscore.ZeroCoef>
-5.4800

> <Gold.Chemscore.Hbond>
2.8717

> <Gold.Chemscore.Metal>
0.0000

> <Gold.Chemscore.Lipo>
127.0668

> <Gold.Chemscore.Internal_Hbond>
0.0000

> <Gold.Chemscore.DEClash>
1.4291

> <Gold.Chemscore.DEInternal>
1.2062

> <Gold.Chemscore.Rot>
2.5594

> <Gold.Chemscore.Internal.Correction>
   9.000000E+99

> <Gold.Chemscore.Hbonds>
donor molecule, donor type, donor heavy atom, donor atom, acceptor molecule, acceptor atom, score
      L1  H     8    56       P1  7948  0.90
      L1  H    11    40       P1  7957  0.92
      P1  H  6896  6909       L1     2  0.82
      P1  H  7997  8010       L1    15  0.02

> <Gold.Chemscore.Hbond.Weighted>
-9.5914

> <Gold.Chemscore.Metal.Weighted>
-0.0000

> <Gold.Chemscore.Lipo.Weighted>
-14.8668

> <Gold.Chemscore.Internal_Hbond.Weighted>
0.0000

> <Gold.Chemscore.DEClash.Weighted>
1.4291

> <Gold.Chemscore.DEInternal.Weighted>
1.2062

> <Gold.Chemscore.Rot.Weighted>
6.5522

> <Gold.Chemscore.Internal.Correction.Weighted>
   9.000000E+99

> <Gold.Protein.RotatedTorsions>
[ 6907 6896 6895 6894 ] final   35.50 input  -60.11 | X-H torsion
[ 7974 7965 7964 7962 ] final  -85.93 input  175.53 | X-H torsion
[ 8008 7997 7996 7995 ] final   12.83 input   59.86 | X-H torsion
[ 10167 10162 10161 10158 ] final -163.57 input  -65.29 | X-H torsion
[ 10718 10713 10712 10709 ] final  -80.60 input   66.30 | X-H torsion
[ 10763 10752 10751 10750 ] final  162.22 input  -60.55 | X-H torsion
[ 11005 11000 10999 10996 ] final  155.82 input  -57.11 | X-H torsion

> <Gold.Protein.ActiveResidues>
 VAL166  LYS551  ARG553  GLY616  TRP617  ASP618  TYR619  PRO620  LYS621  CYS622 
 ASP623  PHE694  ASN695  SER759  ASP760  ASP761  ALA762  ILE779  LEU786  VAL792 
 PHE793  MET794  SER795  GLU796  ALA797  LYS798  CYS799  TRP800  GLU811  SER814 

> <Gold.Protein.RotatedAtoms>
  152.1170  134.9233  160.0564 H   0  0  0  0  0  0  0  0  0  0  0  0  # atno 6907 bound_to 6896
  152.0388  133.3964  159.4336 H   0  0  0  0  0  0  0  0  0  0  0  0  # atno 6908 bound_to 6896
  150.6847  134.3359  159.4890 H   0  0  0  0  0  0  0  0  0  0  0  0  # atno 6909 bound_to 6896
  145.4866  140.9555  143.1835 H   0  0  0  0  0  0  0  0  0  0  0  0  # atno 7974 bound_to 7965
  154.8260  140.2891  155.5754 H   0  0  0  0  0  0  0  0  0  0  0  0  # atno 8008 bound_to 7997
  156.3001  140.2541  156.3107 H   0  0  0  0  0  0  0  0  0  0  0  0  # atno 8009 bound_to 7997
  154.9285  140.0384  157.2025 H   0  0  0  0  0  0  0  0  0  0  0  0  # atno 8010 bound_to 7997
  139.6311  144.0438  152.2016 H   0  0  0  0  0  0  0  0  0  0  0  0  # atno 10167 bound_to 10162
  156.0067  130.4579  150.3825 H   0  0  0  0  0  0  0  0  0  0  0  0  # atno 10718 bound_to 10713
  154.2749  135.2764  155.2722 H   0  0  0  0  0  0  0  0  0  0  0  0  # atno 10763 bound_to 10752
  154.5269  135.5741  153.6730 H   0  0  0  0  0  0  0  0  0  0  0  0  # atno 10764 bound_to 10752
  152.9939  135.6218  154.2906 H   0  0  0  0  0  0  0  0  0  0  0  0  # atno 10765 bound_to 10752
  140.1617  134.8604  157.2583 H   0  0  0  0  0  0  0  0  0  0  0  0  # atno 11005 bound_to 11000
  144.7858  139.6430  143.7135 LP  0  0  0  0  0  0  0  0  0  0  0  0  # atno 17320 bound_to 7965
  146.2309  139.5812  142.9556 LP  0  0  0  0  0  0  0  0  0  0  0  0  # atno 17321 bound_to 7965
  140.0103  144.6228  150.7653 LP  0  0  0  0  0  0  0  0  0  0  0  0  # atno 17342 bound_to 10162
  140.7439  143.2853  151.3480 LP  0  0  0  0  0  0  0  0  0  0  0  0  # atno 17343 bound_to 10162
  157.1904  131.0414  151.2703 LP  0  0  0  0  0  0  0  0  0  0  0  0  # atno 17370 bound_to 10713
  157.4066  130.7362  149.6807 LP  0  0  0  0  0  0  0  0  0  0  0  0  # atno 17371 bound_to 10713
  140.2481  134.3715  155.7453 LP  0  0  0  0  0  0  0  0  0  0  0  0  # atno 17394 bound_to 11000
  141.2210  133.7302  156.8893 LP  0  0  0  0  0  0  0  0  0  0  0  0  # atno 17395 bound_to 11000

$$$$
