AV-unprocessed.smi:1718|AV-procd|sdf|6922|dock6
  -GOLD-   22720 8123D 1   1.00000     0.00000
 Structure written by MMmdl.
 40 41  0  0  0  0  0  0  0  0  1 V2000
  151.8721  139.1081  158.2643 C   0  0  0  0  0  0  0  0  0  0  0  0
  151.8770  140.3614  157.3762 C   0  0  2  0  0  0  0  0  0  0  0  0
  151.3808  141.4424  158.1601 O   0  0  0  0  0  0  0  0  0  0  0  0
  151.9854  141.6015  159.4397 C   0  0  0  0  0  0  0  0  0  0  0  0
  152.7237  142.9462  159.4911 C   0  0  2  0  0  0  0  0  0  0  0  0
  152.5030  143.7488  160.7826 C   0  0  0  0  0  0  0  0  0  0  0  0
  151.7277  144.9652  160.3156 C   0  0  0  0  0  0  0  0  0  0  0  0
  152.1993  145.1130  158.8755 C   0  0  0  0  0  0  0  0  0  0  0  0
  152.2769  143.7720  158.4189 O   0  0  0  0  0  0  0  0  0  0  0  0
  151.0059  140.1697  156.1238 C   0  0  0  0  0  0  0  0  0  0  0  0
  151.5404  140.1208  155.0163 O   0  0  0  0  0  0  0  0  0  0  0  0
  149.6814  140.0683  156.3524 N   0  0  0  0  0  0  0  0  0  0  0  0
  148.6321  139.8350  155.4476 C   0  0  0  0  0  0  0  0  0  0  0  0
  147.6097  138.9628  155.6489 C   0  0  0  0  0  0  0  0  0  0  0  0
  146.5452  138.7836  154.6764 C   0  0  0  0  0  0  0  0  0  0  0  0
  145.4508  137.7484  154.8848 C   0  0  0  0  0  0  0  0  0  0  0  0
  145.4495  136.8364  153.9116 F   0  0  0  0  0  0  0  0  0  0  0  0
  145.6104  137.1186  156.0488 F   0  0  0  0  0  0  0  0  0  0  0  0
  144.2600  138.3454  154.8977 F   0  0  0  0  0  0  0  0  0  0  0  0
  146.6247  139.5243  153.5555 C   0  0  0  0  0  0  0  0  0  0  0  0
  147.6605  140.4385  153.3500 N   0  0  0  0  0  0  0  0  0  0  0  0
  148.6725  140.6492  154.2214 C   0  0  0  0  0  0  0  0  0  0  0  0
  149.5484  141.4753  153.9676 O   0  0  0  0  0  0  0  0  0  0  0  0
  147.6409  140.9685  152.4906 H   0  0  0  0  0  0  0  0  0  0  0  0
  152.2262  138.2330  157.7181 H   0  0  0  0  0  0  0  0  0  0  0  0
  150.8732  138.8868  158.6427 H   0  0  0  0  0  0  0  0  0  0  0  0
  152.5255  139.2445  159.1262 H   0  0  0  0  0  0  0  0  0  0  0  0
  152.9088  140.5680  157.0847 H   0  0  0  0  0  0  0  0  0  0  0  0
  151.2155  141.5766  160.2122 H   0  0  0  0  0  0  0  0  0  0  0  0
  152.6869  140.7943  159.6528 H   0  0  0  0  0  0  0  0  0  0  0  0
  153.7923  142.7725  159.3570 H   0  0  0  0  0  0  0  0  0  0  0  0
  151.9745  143.1916  161.5571 H   0  0  0  0  0  0  0  0  0  0  0  0
  153.4647  144.0570  161.1946 H   0  0  0  0  0  0  0  0  0  0  0  0
  150.6575  144.7559  160.3363 H   0  0  0  0  0  0  0  0  0  0  0  0
  151.9160  145.8524  160.9207 H   0  0  0  0  0  0  0  0  0  0  0  0
  151.5181  145.7067  158.2657 H   0  0  0  0  0  0  0  0  0  0  0  0
  153.1891  145.5700  158.8347 H   0  0  0  0  0  0  0  0  0  0  0  0
  149.3862  140.1965  157.3099 H   0  0  0  0  0  0  0  0  0  0  0  0
  147.5398  138.3845  156.5554 H   0  0  0  0  0  0  0  0  0  0  0  0
  145.9185  139.4738  152.7399 H   0  0  0  0  0  0  0  0  0  0  0  0
  1  2  1  0  0  0  0
  1 25  1  0  0  0  0
  1 26  1  0  0  0  0
  1 27  1  0  0  0  0
  2  3  1  0  0  0  0
  2 10  1  0  0  0  0
  2 28  1  0  0  0  0
  3  4  1  0  0  0  0
  4  5  1  0  0  0  0
  4 29  1  0  0  0  0
  4 30  1  0  0  0  0
  5  9  1  0  0  0  0
  5  6  1  0  0  0  0
  5 31  1  0  0  0  0
  6  7  1  0  0  0  0
  6 32  1  0  0  0  0
  6 33  1  0  0  0  0
  7  8  1  0  0  0  0
  7 34  1  0  0  0  0
  7 35  1  0  0  0  0
  8  9  1  0  0  0  0
  8 36  1  0  0  0  0
  8 37  1  0  0  0  0
 10 11  2  0  0  0  0
 10 12  1  0  0  0  0
 12 13  1  0  0  0  0
 12 38  1  0  0  0  0
 13 22  1  0  0  0  0
 13 14  2  0  0  0  0
 14 15  1  0  0  0  0
 14 39  1  0  0  0  0
 15 16  1  0  0  0  0
 15 20  2  0  0  0  0
 16 17  1  0  0  0  0
 16 18  1  0  0  0  0
 16 19  1  0  0  0  0
 20 21  1  0  0  0  0
 20 40  1  0  0  0  0
 21 24  1  0  0  0  0
 21 22  1  0  0  0  0
 22 23  2  0  0  0  0
M  END
> <s_m_source_file>
AV-unprocessed.smi

> <i_m_source_file_index>
1718

> <i_lp_mmshare_version>
43012

> <i_f3d_flags>
0

> <s_epik_input>
TzFbQ0gyXVtDSDJdW0NIMl1bQ0BIXTFbQ0gyXU9bQ0BASF0oW0NIM10pQyg9TylbTkhdYzJbY0hdYyhDKEYpKEYpRilbY0hdW25IXWMyPU8=

> <s_epik_cmdline>
J2VwaWtfcHl0aG9uJywgJy1waCcsICc3LjAnLCAnLXRuJywgJzgnLCAnLW1hJywgJzIwMCcsICctbWV0YWxfYmluZGluZycsICctaW1hZScsICc8aW5maWxlLm1hZT4nLCAnLW9tYWUnLCAnPG91dGZpbGUubWFlPic=

> <r_lp_tautomer_probability>
0.999

> <r_epik_Ionization_Penalty>
0.00894336

> <r_epik_Ionization_Penalty_Charging>
0.00894326

> <r_epik_Ionization_Penalty_Neutral>
1.00145e-07

> <r_epik_State_Penalty>
0.00676626

> <r_epik_Charging_Adjusted_Penalty>
0.0157095

> <i_epik_Tot_Q>
0

> <i_epik_Tot_abs_Q>
0

> <r_epik_Metal_State_Penalty>
0.321145

> <b_epik_Metal_Only>
0

> <s_lp_Force_Field>
OPLS_2005

> <r_lp_Energy>
34.6519

> <b_lp_Chiralities_Consistent>
1

> <s_lp_Variant>
AV-unprocessed.smi:1718-1

> <Gold.Version>
5.8.1

> <Gold.Id.Protein>
6NUR|6NUR_protein|mol2

> <Gold.PLP.Fitness>
40.4893

> <Gold.PLP.PLP>
-35.3210

> <Gold.PLP.part.hbond>
-4.0000

> <Gold.PLP.part.metal>
0.0000

> <Gold.PLP.part.buried>
-6.3339

> <Gold.PLP.part.nonpolar>
-26.3135

> <Gold.PLP.part.repulsive>
0.3851

> <Gold.PLP.ligand.clash>
0.0287

> <Gold.PLP.ligand.torsion>
1.5628

> <Gold.PLP.Chemscore.Hbond>
1.7040

> <Gold.PLP.Chemscore.CHOScore>
0.9956

> <Gold.PLP.Chemscore.Metal>
0.0000

> <Gold.Chemscore.Hbonds>
donor molecule, donor type, donor heavy atom, donor atom, acceptor molecule, acceptor atom, score
      P1  H  7989  7998       L1    11  1.00
      P1  H  8011  8017       L1    23  0.69
      L1  C    20    40       P1 10175  1.00

> <Gold.PLP.Chemscore.Internal.Correction>
0.2237

> <Gold.Rescore>
     Score         DG    S(hbond)    S(metal)    S(lipo)     H(rot)  DE(clash)    DE(int)     intcor
     10.60     -15.60       1.68        0.00      79.74       1.88       0.07       4.94       ----

> <Gold.Chemscore.Fitness>
10.6028

> <Gold.Chemscore.DG>
-15.6041

> <Gold.Chemscore.ZeroCoef>
-5.4800

> <Gold.Chemscore.Hbond>
1.6779

> <Gold.Chemscore.Metal>
0.0000

> <Gold.Chemscore.Lipo>
79.7432

> <Gold.Chemscore.Internal_Hbond>
0.0000

> <Gold.Chemscore.DEClash>
0.0659

> <Gold.Chemscore.DEInternal>
4.9354

> <Gold.Chemscore.Rot>
1.8790

> <Gold.Chemscore.Internal.Correction>
   9.000000E+99

> <Gold.Chemscore.Hbonds>
donor molecule, donor type, donor heavy atom, donor atom, acceptor molecule, acceptor atom, score
      P1  H  7989  7998       L1    11  0.96
      P1  H  8011  8017       L1    23  0.70

> <Gold.Chemscore.Hbond.Weighted>
-5.6043

> <Gold.Chemscore.Metal.Weighted>
-0.0000

> <Gold.Chemscore.Lipo.Weighted>
-9.3300

> <Gold.Chemscore.Internal_Hbond.Weighted>
0.0000

> <Gold.Chemscore.DEClash.Weighted>
0.0659

> <Gold.Chemscore.DEInternal.Weighted>
4.9354

> <Gold.Chemscore.Rot.Weighted>
4.8102

> <Gold.Chemscore.Internal.Correction.Weighted>
   9.000000E+99

> <Gold.Protein.RotatedTorsions>
[ 6907 6896 6895 6894 ] final -121.99 input  -60.11 | X-H torsion
[ 7974 7965 7964 7962 ] final -176.52 input  175.53 | X-H torsion
[ 8008 7997 7996 7995 ] final   98.28 input   59.86 | X-H torsion
[ 10167 10162 10161 10158 ] final  -26.79 input  -65.29 | X-H torsion
[ 10718 10713 10712 10709 ] final   80.21 input   66.30 | X-H torsion
[ 10763 10752 10751 10750 ] final  140.11 input  -60.55 | X-H torsion
[ 11005 11000 10999 10996 ] final  -43.29 input  -57.11 | X-H torsion

> <Gold.Protein.ActiveResidues>
 VAL166  LYS551  ARG553  GLY616  TRP617  ASP618  TYR619  PRO620  LYS621  CYS622 
 ASP623  PHE694  ASN695  SER759  ASP760  ASP761  ALA762  ILE779  LEU786  VAL792 
 PHE793  MET794  SER795  GLU796  ALA797  LYS798  CYS799  TRP800  GLU811  SER814 

> <Gold.Protein.RotatedAtoms>
  150.8534  133.7752  159.3017 H   0  0  0  0  0  0  0  0  0  0  0  0  # atno 6907 bound_to 6896
  151.5417  135.1067  159.9937 H   0  0  0  0  0  0  0  0  0  0  0  0  # atno 6908 bound_to 6896
  152.4571  133.7701  159.6850 H   0  0  0  0  0  0  0  0  0  0  0  0  # atno 6909 bound_to 6896
  144.7127  140.1157  143.6408 H   0  0  0  0  0  0  0  0  0  0  0  0  # atno 7974 bound_to 7965
  156.0988  140.3246  155.7913 H   0  0  0  0  0  0  0  0  0  0  0  0  # atno 8008 bound_to 7997
  155.4872  140.0558  157.2976 H   0  0  0  0  0  0  0  0  0  0  0  0  # atno 8009 bound_to 7997
  154.4683  140.1999  156.0075 H   0  0  0  0  0  0  0  0  0  0  0  0  # atno 8010 bound_to 7997
  140.7281  143.4148  151.1046 H   0  0  0  0  0  0  0  0  0  0  0  0  # atno 10167 bound_to 10162
  157.6799  130.9949  150.2046 H   0  0  0  0  0  0  0  0  0  0  0  0  # atno 10718 bound_to 10713
  153.9172  135.3004  155.3448 H   0  0  0  0  0  0  0  0  0  0  0  0  # atno 10763 bound_to 10752
  154.7593  135.4942  153.9438 H   0  0  0  0  0  0  0  0  0  0  0  0  # atno 10764 bound_to 10752
  153.1161  135.6771  153.9519 H   0  0  0  0  0  0  0  0  0  0  0  0  # atno 10765 bound_to 10752
  141.0374  133.6794  156.2712 H   0  0  0  0  0  0  0  0  0  0  0  0  # atno 11005 bound_to 11000
  145.9415  139.2672  143.1266 LP  0  0  0  0  0  0  0  0  0  0  0  0  # atno 17320 bound_to 7965
  145.9419  140.8973  143.0303 LP  0  0  0  0  0  0  0  0  0  0  0  0  # atno 17321 bound_to 7965
  139.7786  143.8388  152.3134 LP  0  0  0  0  0  0  0  0  0  0  0  0  # atno 17342 bound_to 10162
  139.8332  144.7244  150.9425 LP  0  0  0  0  0  0  0  0  0  0  0  0  # atno 17343 bound_to 10162
  156.2729  130.3724  149.8013 LP  0  0  0  0  0  0  0  0  0  0  0  0  # atno 17370 bound_to 10713
  156.5724  130.8430  151.3360 LP  0  0  0  0  0  0  0  0  0  0  0  0  # atno 17371 bound_to 10713
  140.6298  134.5276  157.5558 LP  0  0  0  0  0  0  0  0  0  0  0  0  # atno 17394 bound_to 11000
  139.9250  134.8073  156.1095 LP  0  0  0  0  0  0  0  0  0  0  0  0  # atno 17395 bound_to 11000

$$$$
