AV-unprocessed.smi:3025|AV-procd|sdf|11505|dock1
  -GOLD-   2272016443D 1   1.00000     0.00000
 Structure written by MMmdl.
 42 43  0  0  0  0  0  0  0  0  2 V2000
  153.4000  143.2029  163.4044 C   0  0  0  0  0  0  0  0  0  0  0  0
  152.6761  143.0835  162.0589 C   0  0  0  0  0  0  0  0  0  0  0  0
  153.4798  142.2723  161.0283 C   0  0  0  0  0  0  0  0  0  0  0  0
  152.8742  142.2797  159.6093 C   0  0  2  0  0  0  0  0  0  0  0  0
  152.3159  143.6618  159.2074 C   0  0  0  0  0  0  0  0  0  0  0  0
  151.7022  143.6440  157.7976 C   0  0  0  0  0  0  0  0  0  0  0  0
  150.6032  142.5692  157.6681 C   0  0  1  0  0  0  0  0  0  0  0  0
  150.0594  142.5102  156.2930 N   0  3  0  0  0  0  0  0  0  0  0  0
  149.0964  141.4175  156.0417 C   0  0  0  0  0  0  0  0  0  0  0  0
  149.3542  140.7591  154.6801 C   0  0  0  0  0  0  0  0  0  0  0  0
  150.3028  139.6091  154.7734 C   0  0  0  0  0  0  0  0  0  0  0  0
  149.9040  138.3758  155.0912 N   0  0  0  0  0  0  0  0  0  0  0  0
  150.9744  137.5546  155.1163 N   0  0  0  0  0  0  0  0  0  0  0  0
  151.9693  138.3823  154.8024 C   0  0  0  0  0  0  0  0  0  0  0  0
  151.6150  139.6840  154.5796 N   0  0  0  0  0  0  0  0  0  0  0  0
  151.1632  141.1919  158.0661 C   0  0  0  0  0  0  0  0  0  0  0  0
  151.7669  141.2148  159.4793 C   0  0  0  0  0  0  0  0  0  0  0  0
  148.9643  138.0615  155.2876 H   0  0  0  0  0  0  0  0  0  0  0  0
  152.8078  143.7808  164.1141 H   0  0  0  0  0  0  0  0  0  0  0  0
  154.3626  143.7021  163.2914 H   0  0  0  0  0  0  0  0  0  0  0  0
  153.5798  142.2212  163.8434 H   0  0  0  0  0  0  0  0  0  0  0  0
  151.7030  142.6225  162.2262 H   0  0  0  0  0  0  0  0  0  0  0  0
  152.4824  144.0832  161.6687 H   0  0  0  0  0  0  0  0  0  0  0  0
  154.4872  142.6881  160.9813 H   0  0  0  0  0  0  0  0  0  0  0  0
  153.5951  141.2450  161.3762 H   0  0  0  0  0  0  0  0  0  0  0  0
  153.6675  142.0159  158.9079 H   0  0  0  0  0  0  0  0  0  0  0  0
  151.5612  143.9787  159.9286 H   0  0  0  0  0  0  0  0  0  0  0  0
  153.1033  144.4145  159.2357 H   0  0  0  0  0  0  0  0  0  0  0  0
  151.3015  144.6332  157.5776 H   0  0  0  0  0  0  0  0  0  0  0  0
  152.4884  143.4598  157.0638 H   0  0  0  0  0  0  0  0  0  0  0  0
  149.7851  142.8092  158.3496 H   0  0  0  0  0  0  0  0  0  0  0  0
  149.6247  143.3961  156.0769 H   0  0  0  0  0  0  0  0  0  0  0  0
  149.1831  140.6740  156.8354 H   0  0  0  0  0  0  0  0  0  0  0  0
  148.0781  141.8051  156.0714 H   0  0  0  0  0  0  0  0  0  0  0  0
  148.4153  140.4082  154.2490 H   0  0  0  0  0  0  0  0  0  0  0  0
  149.7643  141.4892  153.9810 H   0  0  0  0  0  0  0  0  0  0  0  0
  152.9906  138.0371  154.7343 H   0  0  0  0  0  0  0  0  0  0  0  0
  150.3741  140.4404  158.0205 H   0  0  0  0  0  0  0  0  0  0  0  0
  151.9275  140.8804  157.3524 H   0  0  0  0  0  0  0  0  0  0  0  0
  152.1679  140.2283  159.7156 H   0  0  0  0  0  0  0  0  0  0  0  0
  150.9794  141.4093  160.2089 H   0  0  0  0  0  0  0  0  0  0  0  0
  150.8372  142.3742  155.6631 H   0  0  0  0  0  0  0  0  0  0  0  0
  1  2  1  0  0  0  0
  1 19  1  0  0  0  0
  1 20  1  0  0  0  0
  1 21  1  0  0  0  0
  2  3  1  0  0  0  0
  2 22  1  0  0  0  0
  2 23  1  0  0  0  0
  3  4  1  0  0  0  0
  3 24  1  0  0  0  0
  3 25  1  0  0  0  0
  4 17  1  0  0  0  0
  4  5  1  0  0  0  0
  4 26  1  0  0  0  0
  5  6  1  0  0  0  0
  5 27  1  0  0  0  0
  5 28  1  0  0  0  0
  6  7  1  0  0  0  0
  6 29  1  0  0  0  0
  6 30  1  0  0  0  0
  7  8  1  0  0  0  0
  7 16  1  0  0  0  0
  7 31  1  0  0  0  0
  8  9  1  0  0  0  0
  8 32  1  0  0  0  0
  8 42  1  0  0  0  0
  9 10  1  0  0  0  0
  9 33  1  0  0  0  0
  9 34  1  0  0  0  0
 10 35  1  0  0  0  0
 10 36  1  0  0  0  0
 10 11  1  0  0  0  0
 11 15  2  0  0  0  0
 11 12  1  0  0  0  0
 12 18  1  0  0  0  0
 12 13  1  0  0  0  0
 13 14  2  0  0  0  0
 14 15  1  0  0  0  0
 14 37  1  0  0  0  0
 16 17  1  0  0  0  0
 16 38  1  0  0  0  0
 16 39  1  0  0  0  0
 17 40  1  0  0  0  0
 17 41  1  0  0  0  0
M  CHG  1   8   1
M  END
> <s_m_source_file>
AV-unprocessed.smi

> <i_m_source_file_index>
3025

> <i_lp_mmshare_version>
43012

> <i_f3d_flags>
0

> <s_epik_input>
W0NIM11bQ0gyXVtDSDJdW0NAQEhdMVtDSDJdW0NIMl1bQ0BIXShbQ0gyXVtDSDJdMSlbTkhdW0NIMl1bQ0gyXWMybm5bY0hdW25IXTI=

> <s_epik_cmdline>
J2VwaWtfcHl0aG9uJywgJy1waCcsICc3LjAnLCAnLXRuJywgJzgnLCAnLW1hJywgJzIwMCcsICctbWV0YWxfYmluZGluZycsICctaW1hZScsICc8aW5maWxlLm1hZT4nLCAnLW9tYWUnLCAnPG91dGZpbGUubWFlPic=

> <r_lp_tautomer_probability>
0.948284

> <r_epik_Ionization_Penalty>
0.0093758

> <r_epik_Ionization_Penalty_Charging>
0.000546397

> <r_epik_Ionization_Penalty_Neutral>
0.00882941

> <r_epik_State_Penalty>
0.401098

> <r_epik_Charging_Adjusted_Penalty>
0.401645

> <i_epik_Tot_Q>
1

> <i_epik_Tot_abs_Q>
1

> <r_epik_Metal_State_Penalty>
0.634803

> <b_epik_Metal_Only>
0

> <s_lp_Force_Field>
OPLS_2005

> <r_lp_Energy>
13.6193

> <b_lp_Chiralities_Consistent>
1

> <s_lp_Variant>
AV-unprocessed.smi:3025-1

> <Gold.Version>
5.8.1

> <Gold.Id.Protein>
6NUR|6NUR_protein|mol2

> <Gold.PLP.Fitness>
50.0064

> <Gold.PLP.PLP>
-43.0782

> <Gold.PLP.part.hbond>
-2.0000

> <Gold.PLP.part.metal>
0.0000

> <Gold.PLP.part.buried>
-5.0682

> <Gold.PLP.part.nonpolar>
-36.6561

> <Gold.PLP.part.repulsive>
0.3171

> <Gold.PLP.ligand.clash>
0.0000

> <Gold.PLP.ligand.torsion>
1.0959

> <Gold.PLP.Chemscore.Hbond>
3.0000

> <Gold.PLP.Chemscore.CHOScore>
0.0000

> <Gold.PLP.Chemscore.Metal>
0.0000

> <Gold.Chemscore.Hbonds>
donor molecule, donor type, donor heavy atom, donor atom, acceptor molecule, acceptor atom, score
      L1  H     8    32       P1  8028  2.00
      P1  H  7989  7998       L1    15  1.00

> <Gold.PLP.Chemscore.Internal.Correction>
0.1201

> <Gold.Rescore>
     Score         DG    S(hbond)    S(metal)    S(lipo)     H(rot)  DE(clash)    DE(int)     intcor
     16.34     -17.34       1.97        0.00     101.26       2.56       0.01       0.99       ----

> <Gold.Chemscore.Fitness>
16.3428

> <Gold.Chemscore.DG>
-17.3368

> <Gold.Chemscore.ZeroCoef>
-5.4800

> <Gold.Chemscore.Hbond>
1.9651

> <Gold.Chemscore.Metal>
0.0000

> <Gold.Chemscore.Lipo>
101.2628

> <Gold.Chemscore.Internal_Hbond>
0.0000

> <Gold.Chemscore.DEClash>
0.0089

> <Gold.Chemscore.DEInternal>
0.9852

> <Gold.Chemscore.Rot>
2.5602

> <Gold.Chemscore.Internal.Correction>
   9.000000E+99

> <Gold.Chemscore.Hbonds>
donor molecule, donor type, donor heavy atom, donor atom, acceptor molecule, acceptor atom, score
      L1  H     8    32       P1  8028  0.97
      P1  H  7989  7998       L1    15  0.25

> <Gold.Chemscore.Hbond.Weighted>
-6.5633

> <Gold.Chemscore.Metal.Weighted>
-0.0000

> <Gold.Chemscore.Lipo.Weighted>
-11.8477

> <Gold.Chemscore.Internal_Hbond.Weighted>
0.0000

> <Gold.Chemscore.DEClash.Weighted>
0.0089

> <Gold.Chemscore.DEInternal.Weighted>
0.9852

> <Gold.Chemscore.Rot.Weighted>
6.5542

> <Gold.Chemscore.Internal.Correction.Weighted>
   9.000000E+99

> <Gold.Protein.RotatedTorsions>
[ 6907 6896 6895 6894 ] final   27.19 input  -60.11 | X-H torsion
[ 7974 7965 7964 7962 ] final    3.72 input  175.53 | X-H torsion
[ 8008 7997 7996 7995 ] final -122.14 input   59.86 | X-H torsion
[ 10167 10162 10161 10158 ] final  158.69 input  -65.29 | X-H torsion
[ 10718 10713 10712 10709 ] final  145.16 input   66.30 | X-H torsion
[ 10763 10752 10751 10750 ] final  137.12 input  -60.55 | X-H torsion
[ 11005 11000 10999 10996 ] final  168.86 input  -57.11 | X-H torsion

> <Gold.Protein.ActiveResidues>
 VAL166  LYS551  ARG553  GLY616  TRP617  ASP618  TYR619  PRO620  LYS621  CYS622 
 ASP623  PHE694  ASN695  SER759  ASP760  ASP761  ALA762  ILE779  LEU786  VAL792 
 PHE793  MET794  SER795  GLU796  ALA797  LYS798  CYS799  TRP800  GLU811  SER814 

> <Gold.Protein.RotatedAtoms>
  151.9986  134.9941  160.0564 H   0  0  0  0  0  0  0  0  0  0  0  0  # atno 6907 bound_to 6896
  152.1541  133.4535  159.4836 H   0  0  0  0  0  0  0  0  0  0  0  0  # atno 6908 bound_to 6896
  150.6879  134.2071  159.4388 H   0  0  0  0  0  0  0  0  0  0  0  0  # atno 6909 bound_to 6896
  146.2445  140.0642  142.8366 H   0  0  0  0  0  0  0  0  0  0  0  0  # atno 7974 bound_to 7965
  155.1593  140.0405  157.2839 H   0  0  0  0  0  0  0  0  0  0  0  0  # atno 8008 bound_to 7997
  154.6348  140.2533  155.7364 H   0  0  0  0  0  0  0  0  0  0  0  0  # atno 8009 bound_to 7997
  156.2503  140.2868  156.0715 H   0  0  0  0  0  0  0  0  0  0  0  0  # atno 8010 bound_to 7997
  139.4828  144.4801  151.8456 H   0  0  0  0  0  0  0  0  0  0  0  0  # atno 10167 bound_to 10162
  157.3486  131.0947  151.1020 H   0  0  0  0  0  0  0  0  0  0  0  0  # atno 10718 bound_to 10713
  153.8678  135.3059  155.3441 H   0  0  0  0  0  0  0  0  0  0  0  0  # atno 10763 bound_to 10752
  154.7819  135.4830  153.9867 H   0  0  0  0  0  0  0  0  0  0  0  0  # atno 10764 bound_to 10752
  153.1424  135.6827  153.9102 H   0  0  0  0  0  0  0  0  0  0  0  0  # atno 10765 bound_to 10752
  140.2916  134.7668  157.3843 H   0  0  0  0  0  0  0  0  0  0  0  0  # atno 11005 bound_to 11000
  145.0873  140.9261  143.4790 LP  0  0  0  0  0  0  0  0  0  0  0  0  # atno 17320 bound_to 7965
  145.0807  139.2962  143.5785 LP  0  0  0  0  0  0  0  0  0  0  0  0  # atno 17321 bound_to 7965
  140.4276  144.2159  150.5887 LP  0  0  0  0  0  0  0  0  0  0  0  0  # atno 17342 bound_to 10162
  140.4811  143.2379  151.8953 LP  0  0  0  0  0  0  0  0  0  0  0  0  # atno 17343 bound_to 10162
  157.2204  130.6478  149.5809 LP  0  0  0  0  0  0  0  0  0  0  0  0  # atno 17370 bound_to 10713
  155.9718  130.4631  150.6170 LP  0  0  0  0  0  0  0  0  0  0  0  0  # atno 17371 bound_to 10713
  140.1190  134.5245  155.8200 LP  0  0  0  0  0  0  0  0  0  0  0  0  # atno 17394 bound_to 11000
  141.2145  133.6750  156.6830 LP  0  0  0  0  0  0  0  0  0  0  0  0  # atno 17395 bound_to 11000

$$$$
