AV-unprocessed.smi:1464|AV-procd|sdf|5941|dock9
  -GOLD-   22720 6 23D 1   1.00000     0.00000
 Structure written by MMmdl.
 40 41  0  0  0  0  0  0  0  0  2 V2000
  151.3839  145.6727  160.6717 C   0  0  0  0  0  0  0  0  0  0  0  0
  151.5118  144.1542  160.4644 C   0  0  2  0  0  0  0  0  0  0  0  0
  152.7794  143.5896  161.1374 C   0  0  0  0  0  0  0  0  0  0  0  0
  152.8494  142.0595  161.0130 C   0  0  0  0  0  0  0  0  0  0  0  0
  152.7381  141.6062  159.5496 C   0  0  0  0  0  0  0  0  0  0  0  0
  151.4672  142.1694  158.8849 C   0  0  2  0  0  0  0  0  0  0  0  0
  151.3746  141.6885  157.5081 N   0  0  0  0  0  0  0  0  0  0  0  0
  150.2481  141.6173  156.7822 C   0  0  0  0  0  0  0  0  0  0  0  0
  149.1472  141.9625  157.2153 O   0  0  0  0  0  0  0  0  0  0  0  0
  150.4137  141.0796  155.3518 C   0  0  0  0  0  0  0  0  0  0  0  0
  150.6183  139.6255  155.2741 N   0  0  0  0  0  0  0  0  0  0  0  0
  149.3973  138.8473  155.4654 N   0  5  0  0  0  0  0  0  0  0  0  0
  149.4676  137.4898  155.4488 C   0  0  0  0  0  0  0  0  0  0  0  0
  148.4869  136.7696  155.6210 O   0  0  0  0  0  0  0  0  0  0  0  0
  150.7628  136.8745  155.2104 C   0  0  0  0  0  0  0  0  0  0  0  0
  151.8682  137.6182  155.0079 C   0  0  0  0  0  0  0  0  0  0  0  0
  151.8407  139.0758  155.0224 C   0  0  0  0  0  0  0  0  0  0  0  0
  152.8449  139.7615  154.8283 O   0  0  0  0  0  0  0  0  0  0  0  0
  151.4109  143.7197  158.9777 C   0  0  2  0  0  0  0  0  0  0  0  0
  152.4351  144.4233  158.0569 C   0  0  0  0  0  0  0  0  0  0  0  0
  152.2498  146.2100  160.2849 H   0  0  0  0  0  0  0  0  0  0  0  0
  151.3007  145.9137  161.7318 H   0  0  0  0  0  0  0  0  0  0  0  0
  150.4955  146.0645  160.1758 H   0  0  0  0  0  0  0  0  0  0  0  0
  150.6575  143.7094  160.9775 H   0  0  0  0  0  0  0  0  0  0  0  0
  153.6709  144.0359  160.6960 H   0  0  0  0  0  0  0  0  0  0  0  0
  152.7933  143.8651  162.1925 H   0  0  0  0  0  0  0  0  0  0  0  0
  153.7806  141.6932  161.4459 H   0  0  0  0  0  0  0  0  0  0  0  0
  152.0424  141.6107  161.5937 H   0  0  0  0  0  0  0  0  0  0  0  0
  153.6249  141.9229  158.9996 H   0  0  0  0  0  0  0  0  0  0  0  0
  152.7272  140.5163  159.5090 H   0  0  0  0  0  0  0  0  0  0  0  0
  150.6136  141.7656  159.4335 H   0  0  0  0  0  0  0  0  0  0  0  0
  152.2343  141.3881  157.0724 H   0  0  0  0  0  0  0  0  0  0  0  0
  149.5319  141.3684  154.7769 H   0  0  0  0  0  0  0  0  0  0  0  0
  151.2514  141.5932  154.8766 H   0  0  0  0  0  0  0  0  0  0  0  0
  150.8395  135.7973  155.1927 H   0  0  0  0  0  0  0  0  0  0  0  0
  152.8091  137.1185  154.8325 H   0  0  0  0  0  0  0  0  0  0  0  0
  150.4254  144.0274  158.6252 H   0  0  0  0  0  0  0  0  0  0  0  0
  153.4631  144.1995  158.3389 H   0  0  0  0  0  0  0  0  0  0  0  0
  152.3148  145.5057  158.0794 H   0  0  0  0  0  0  0  0  0  0  0  0
  152.3086  144.1249  157.0162 H   0  0  0  0  0  0  0  0  0  0  0  0
  1  2  1  0  0  0  0
  1 21  1  0  0  0  0
  1 22  1  0  0  0  0
  1 23  1  0  0  0  0
  2 19  1  0  0  0  0
  2  3  1  0  0  0  0
  2 24  1  0  0  0  0
  3  4  1  0  0  0  0
  3 25  1  0  0  0  0
  3 26  1  0  0  0  0
  4  5  1  0  0  0  0
  4 27  1  0  0  0  0
  4 28  1  0  0  0  0
  5  6  1  0  0  0  0
  5 29  1  0  0  0  0
  5 30  1  0  0  0  0
  6  7  1  0  0  0  0
  6 19  1  0  0  0  0
  6 31  1  0  0  0  0
  7  8  1  0  0  0  0
  7 32  1  0  0  0  0
  8  9  2  0  0  0  0
  8 10  1  0  0  0  0
 10 33  1  0  0  0  0
 10 34  1  0  0  0  0
 10 11  1  0  0  0  0
 11 12  1  0  0  0  0
 11 17  1  0  0  0  0
 12 13  1  0  0  0  0
 13 14  2  0  0  0  0
 13 15  1  0  0  0  0
 15 35  1  0  0  0  0
 15 16  2  0  0  0  0
 16 36  1  0  0  0  0
 16 17  1  0  0  0  0
 17 18  2  0  0  0  0
 19 20  1  0  0  0  0
 19 37  1  0  0  0  0
 20 38  1  0  0  0  0
 20 39  1  0  0  0  0
 20 40  1  0  0  0  0
M  CHG  1  12  -1
M  END
> <s_m_source_file>
AV-unprocessed.smi

> <i_m_source_file_index>
1464

> <i_lp_mmshare_version>
43012

> <i_f3d_flags>
0

> <s_epik_input>
W0NIM11bQ0BASF0xW0NIMl1bQ0gyXVtDSDJdW0NASF0oW0NASF0xW0NIM10pW05IXUMoPU8pW0NIMl1uMltuSF1jKD1PKVtjSF1bY0hdYzI9Tw==

> <s_epik_cmdline>
J2VwaWtfcHl0aG9uJywgJy1waCcsICc3LjAnLCAnLXRuJywgJzgnLCAnLW1hJywgJzIwMCcsICctbWV0YWxfYmluZGluZycsICctaW1hZScsICc8aW5maWxlLm1hZT4nLCAnLW9tYWUnLCAnPG91dGZpbGUubWFlPic=

> <r_lp_tautomer_probability>
1

> <r_epik_Ionization_Penalty>
0.101366

> <r_epik_Ionization_Penalty_Charging>
0.101366

> <r_epik_Ionization_Penalty_Neutral>
1.90469e-08

> <r_epik_State_Penalty>
0.035861

> <r_epik_Charging_Adjusted_Penalty>
0.137227

> <i_epik_Tot_Q>
-1

> <i_epik_Tot_abs_Q>
1

> <r_epik_Metal_State_Penalty>
0.035861

> <b_epik_Metal_Only>
0

> <s_lp_Force_Field>
OPLS_2005

> <r_lp_Energy>
29.9934

> <b_lp_Chiralities_Consistent>
1

> <s_lp_Variant>
AV-unprocessed.smi:1464-7

> <Gold.Version>
5.8.1

> <Gold.Id.Protein>
6NUR|6NUR_protein|mol2

> <Gold.PLP.Fitness>
41.6185

> <Gold.PLP.PLP>
-39.5475

> <Gold.PLP.part.hbond>
-2.0000

> <Gold.PLP.part.metal>
0.0000

> <Gold.PLP.part.buried>
-2.2421

> <Gold.PLP.part.nonpolar>
-36.6889

> <Gold.PLP.part.repulsive>
0.7999

> <Gold.PLP.ligand.clash>
0.0000

> <Gold.PLP.ligand.torsion>
0.6657

> <Gold.PLP.Chemscore.Hbond>
1.1295

> <Gold.PLP.Chemscore.CHOScore>
0.0000

> <Gold.PLP.Chemscore.Metal>
0.0000

> <Gold.Chemscore.Hbonds>
donor molecule, donor type, donor heavy atom, donor atom, acceptor molecule, acceptor atom, score
      P1  H  7989  7998       L1    18  0.14
      P1  H  7997  8008       L1    18  1.00

> <Gold.PLP.Chemscore.Internal.Correction>
0.0139

> <Gold.Rescore>
     Score         DG    S(hbond)    S(metal)    S(lipo)     H(rot)  DE(clash)    DE(int)     intcor
     16.20     -17.46       0.99        0.00     109.99       1.64       0.50       0.76       ----

> <Gold.Chemscore.Fitness>
16.2022

> <Gold.Chemscore.DG>
-17.4610

> <Gold.Chemscore.ZeroCoef>
-5.4800

> <Gold.Chemscore.Hbond>
0.9941

> <Gold.Chemscore.Metal>
0.0000

> <Gold.Chemscore.Lipo>
109.9882

> <Gold.Chemscore.Internal_Hbond>
0.0000

> <Gold.Chemscore.DEClash>
0.4998

> <Gold.Chemscore.DEInternal>
0.7590

> <Gold.Chemscore.Rot>
1.6438

> <Gold.Chemscore.Internal.Correction>
   9.000000E+99

> <Gold.Chemscore.Hbonds>
donor molecule, donor type, donor heavy atom, donor atom, acceptor molecule, acceptor atom, score
      P1  H  7997  8008       L1    18  0.97

> <Gold.Chemscore.Hbond.Weighted>
-3.3204

> <Gold.Chemscore.Metal.Weighted>
-0.0000

> <Gold.Chemscore.Lipo.Weighted>
-12.8686

> <Gold.Chemscore.Internal_Hbond.Weighted>
0.0000

> <Gold.Chemscore.DEClash.Weighted>
0.4998

> <Gold.Chemscore.DEInternal.Weighted>
0.7590

> <Gold.Chemscore.Rot.Weighted>
4.2080

> <Gold.Chemscore.Internal.Correction.Weighted>
   9.000000E+99

> <Gold.Protein.RotatedTorsions>
[ 6907 6896 6895 6894 ] final   86.51 input  -60.11 | X-H torsion
[ 7974 7965 7964 7962 ] final  -52.27 input  175.53 | X-H torsion
[ 8008 7997 7996 7995 ] final  -24.97 input   59.86 | X-H torsion
[ 10167 10162 10161 10158 ] final  111.12 input  -65.29 | X-H torsion
[ 10718 10713 10712 10709 ] final  -69.27 input   66.30 | X-H torsion
[ 10763 10752 10751 10750 ] final    0.88 input  -60.55 | X-H torsion
[ 11005 11000 10999 10996 ] final   64.50 input  -57.11 | X-H torsion

> <Gold.Protein.ActiveResidues>
 VAL166  LYS551  ARG553  GLY616  TRP617  ASP618  TYR619  PRO620  LYS621  CYS622 
 ASP623  PHE694  ASN695  SER759  ASP760  ASP761  ALA762  ILE779  LEU786  VAL792 
 PHE793  MET794  SER795  GLU796  ALA797  LYS798  CYS799  TRP800  GLU811  SER814 

> <Gold.Protein.RotatedAtoms>
  152.5395  134.2420  159.8865 H   0  0  0  0  0  0  0  0  0  0  0  0  # atno 6907 bound_to 6896
  151.2387  133.4404  159.2614 H   0  0  0  0  0  0  0  0  0  0  0  0  # atno 6908 bound_to 6896
  151.0647  134.9773  159.8334 H   0  0  0  0  0  0  0  0  0  0  0  0  # atno 6909 bound_to 6896
  145.9099  140.7924  142.9701 H   0  0  0  0  0  0  0  0  0  0  0  0  # atno 7974 bound_to 7965
  154.4501  140.1939  156.0546 H   0  0  0  0  0  0  0  0  0  0  0  0  # atno 8008 bound_to 7997
  156.0628  140.3294  155.7455 H   0  0  0  0  0  0  0  0  0  0  0  0  # atno 8009 bound_to 7997
  155.5385  140.0584  157.2865 H   0  0  0  0  0  0  0  0  0  0  0  0  # atno 8010 bound_to 7997
  139.6635  144.7128  151.1820 H   0  0  0  0  0  0  0  0  0  0  0  0  # atno 10167 bound_to 10162
  156.0464  130.4309  150.2122 H   0  0  0  0  0  0  0  0  0  0  0  0  # atno 10718 bound_to 10713
  153.3150  135.6965  153.7081 H   0  0  0  0  0  0  0  0  0  0  0  0  # atno 10763 bound_to 10752
  153.5943  135.3474  155.2923 H   0  0  0  0  0  0  0  0  0  0  0  0  # atno 10764 bound_to 10752
  154.8584  135.4325  154.2299 H   0  0  0  0  0  0  0  0  0  0  0  0  # atno 10765 bound_to 10752
  139.9954  134.6525  156.0018 H   0  0  0  0  0  0  0  0  0  0  0  0  # atno 11005 bound_to 11000
  144.6742  140.1808  143.7406 LP  0  0  0  0  0  0  0  0  0  0  0  0  # atno 17320 bound_to 7965
  145.8685  139.2259  143.1675 LP  0  0  0  0  0  0  0  0  0  0  0  0  # atno 17321 bound_to 7965
  140.7590  143.5956  150.8752 LP  0  0  0  0  0  0  0  0  0  0  0  0  # atno 17342 bound_to 10162
  139.9615  143.6158  152.3001 LP  0  0  0  0  0  0  0  0  0  0  0  0  # atno 17343 bound_to 10162
  157.0212  130.9980  151.3339 LP  0  0  0  0  0  0  0  0  0  0  0  0  # atno 17370 bound_to 10713
  157.5343  130.8078  149.7953 LP  0  0  0  0  0  0  0  0  0  0  0  0  # atno 17371 bound_to 10713
  141.1600  133.6539  156.4288 LP  0  0  0  0  0  0  0  0  0  0  0  0  # atno 17394 bound_to 11000
  140.4827  134.6649  157.5178 LP  0  0  0  0  0  0  0  0  0  0  0  0  # atno 17395 bound_to 11000

$$$$
