AV-unprocessed.smi:1983|AV-procd|sdf|8035|dock5
  -GOLD-   2272010233D 1   1.00000     0.00000
 Structure written by MMmdl.
 50 51  0  0  0  0  0  0  0  0  2 V2000
  145.2024  134.9077  150.9230 C   0  0  0  0  0  0  0  0  0  0  0  0
  145.6003  135.2667  152.3633 C   0  0  1  0  0  0  0  0  0  0  0  0
  146.2363  134.0915  153.1351 C   0  0  0  0  0  0  0  0  0  0  0  0
  147.5428  133.8139  152.6728 O   0  0  0  0  0  0  0  0  0  0  0  0
  146.4727  136.4387  152.3728 N   0  0  0  0  0  0  0  0  0  0  0  0
  146.1428  137.6494  152.8434 C   0  0  0  0  0  0  0  0  0  0  0  0
  145.0467  137.9282  153.3303 O   0  0  0  0  0  0  0  0  0  0  0  0
  147.1546  138.5212  152.7295 N   0  0  0  0  0  0  0  0  0  0  0  0
  147.0973  139.9184  153.1470 C   0  0  0  0  0  0  0  0  0  0  0  0
  148.1667  140.3139  154.1556 C   0  0  0  0  0  0  0  0  0  0  0  0
  148.7422  139.3353  154.9950 C   0  0  0  0  0  0  0  0  0  0  0  0
  149.7345  139.7110  155.9235 C   0  0  0  0  0  0  0  0  0  0  0  0
  150.1350  141.0652  155.9998 C   0  0  0  0  0  0  0  0  0  0  0  0
  151.1124  141.5347  156.8869 N   0  0  0  0  0  0  0  0  0  0  0  0
  151.5779  140.5313  157.8355 C   0  0  0  0  0  0  0  0  0  0  0  0
  152.7305  141.1019  158.6822 C   0  0  2  0  0  0  0  0  0  0  0  0
  153.1960  140.1180  159.7607 C   0  0  0  0  0  0  0  0  0  0  0  0
  152.2831  142.2938  159.3243 O   0  0  0  0  0  0  0  0  0  0  0  0
  151.8958  143.3069  158.3982 C   0  0  2  0  0  0  0  0  0  0  0  0
  151.5067  144.5597  159.1898 C   0  0  0  0  0  0  0  0  0  0  0  0
  150.7324  142.7824  157.5350 C   0  0  0  0  0  0  0  0  0  0  0  0
  149.5500  141.9727  155.1876 N   0  3  0  0  0  0  0  0  0  0  0  0
  148.5974  141.6533  154.2848 C   0  0  0  0  0  0  0  0  0  0  0  0
  144.5321  134.0479  150.9055 H   0  0  0  0  0  0  0  0  0  0  0  0
  146.0723  134.6640  150.3119 H   0  0  0  0  0  0  0  0  0  0  0  0
  144.6836  135.7378  150.4426 H   0  0  0  0  0  0  0  0  0  0  0  0
  144.6798  135.5370  152.8845 H   0  0  0  0  0  0  0  0  0  0  0  0
  146.2671  134.2917  154.2066 H   0  0  0  0  0  0  0  0  0  0  0  0
  145.6333  133.1928  153.0018 H   0  0  0  0  0  0  0  0  0  0  0  0
  147.9247  134.6171  152.3533 H   0  0  0  0  0  0  0  0  0  0  0  0
  147.4014  136.3110  151.9978 H   0  0  0  0  0  0  0  0  0  0  0  0
  148.0173  138.2008  152.3140 H   0  0  0  0  0  0  0  0  0  0  0  0
  147.2144  140.5435  152.2616 H   0  0  0  0  0  0  0  0  0  0  0  0
  146.1060  140.1347  153.5494 H   0  0  0  0  0  0  0  0  0  0  0  0
  148.4308  138.3032  154.9267 H   0  0  0  0  0  0  0  0  0  0  0  0
  150.1769  138.9649  156.5674 H   0  0  0  0  0  0  0  0  0  0  0  0
  150.7577  140.2260  158.4867 H   0  0  0  0  0  0  0  0  0  0  0  0
  151.9108  139.6437  157.2956 H   0  0  0  0  0  0  0  0  0  0  0  0
  153.5796  141.3389  158.0383 H   0  0  0  0  0  0  0  0  0  0  0  0
  153.5580  139.1908  159.3160 H   0  0  0  0  0  0  0  0  0  0  0  0
  152.3844  139.8674  160.4444 H   0  0  0  0  0  0  0  0  0  0  0  0
  154.0088  140.5430  160.3501 H   0  0  0  0  0  0  0  0  0  0  0  0
  152.7471  143.5502  157.7595 H   0  0  0  0  0  0  0  0  0  0  0  0
  151.2084  145.3691  158.5228 H   0  0  0  0  0  0  0  0  0  0  0  0
  152.3441  144.9163  159.7901 H   0  0  0  0  0  0  0  0  0  0  0  0
  150.6747  144.3585  159.8653 H   0  0  0  0  0  0  0  0  0  0  0  0
  150.4631  143.5223  156.7798 H   0  0  0  0  0  0  0  0  0  0  0  0
  149.8499  142.6180  158.1552 H   0  0  0  0  0  0  0  0  0  0  0  0
  148.2158  142.4749  153.6961 H   0  0  0  0  0  0  0  0  0  0  0  0
  149.8449  142.9470  155.2563 H   0  0  0  0  0  0  0  0  0  0  0  0
  1  2  1  0  0  0  0
  1 24  1  0  0  0  0
  1 25  1  0  0  0  0
  1 26  1  0  0  0  0
  2  3  1  0  0  0  0
  2  5  1  0  0  0  0
  2 27  1  0  0  0  0
  3  4  1  0  0  0  0
  3 28  1  0  0  0  0
  3 29  1  0  0  0  0
  4 30  1  0  0  0  0
  5  6  1  0  0  0  0
  5 31  1  0  0  0  0
  6  7  2  0  0  0  0
  6  8  1  0  0  0  0
  8  9  1  0  0  0  0
  8 32  1  0  0  0  0
  9 10  1  0  0  0  0
  9 33  1  0  0  0  0
  9 34  1  0  0  0  0
 10 23  1  0  0  0  0
 10 11  2  0  0  0  0
 11 12  1  0  0  0  0
 11 35  1  0  0  0  0
 12 13  2  0  0  0  0
 12 36  1  0  0  0  0
 13 14  1  0  0  0  0
 13 22  1  0  0  0  0
 14 21  1  0  0  0  0
 14 15  1  0  0  0  0
 15 16  1  0  0  0  0
 15 37  1  0  0  0  0
 15 38  1  0  0  0  0
 16 17  1  0  0  0  0
 16 18  1  0  0  0  0
 16 39  1  0  0  0  0
 17 40  1  0  0  0  0
 17 41  1  0  0  0  0
 17 42  1  0  0  0  0
 18 19  1  0  0  0  0
 19 20  1  0  0  0  0
 19 21  1  0  0  0  0
 19 43  1  0  0  0  0
 20 44  1  0  0  0  0
 20 45  1  0  0  0  0
 20 46  1  0  0  0  0
 21 47  1  0  0  0  0
 21 48  1  0  0  0  0
 22 23  2  0  0  0  0
 22 50  1  0  0  0  0
 23 49  1  0  0  0  0
M  CHG  1  22   1
M  END
> <s_m_source_file>
AV-unprocessed.smi

> <i_m_source_file_index>
1983

> <i_lp_mmshare_version>
43012

> <i_f3d_flags>
0

> <s_epik_input>
W09IXVtDSDJdW0NAQEhdKFtDSDNdKVtOSF1DKD1PKVtOSF1bQ0gyXWMxW2NIXVtjSF1jKG5bY0hdMSlOMltDSDJdW0NAQEhdKFtDSDNdKU9bQ0BASF0oW0NIM10pW0NIMl0y

> <s_epik_cmdline>
J2VwaWtfcHl0aG9uJywgJy1waCcsICc3LjAnLCAnLXRuJywgJzgnLCAnLW1hJywgJzIwMCcsICctbWV0YWxfYmluZGluZycsICctaW1hZScsICc8aW5maWxlLm1hZT4nLCAnLW9tYWUnLCAnPG91dGZpbGUubWFlPic=

> <r_lp_tautomer_probability>
0.999994

> <r_epik_Ionization_Penalty>
2.55677

> <r_epik_Ionization_Penalty_Charging>
2.55673

> <r_epik_Ionization_Penalty_Neutral>
3.71772e-05

> <r_epik_State_Penalty>
2.72571

> <r_epik_Charging_Adjusted_Penalty>
5.28244

> <i_epik_Tot_Q>
1

> <i_epik_Tot_abs_Q>
1

> <r_epik_Metal_State_Penalty>
2.73364

> <b_epik_Metal_Only>
0

> <s_lp_Force_Field>
OPLS_2005

> <r_lp_Energy>
22.1941

> <b_lp_Chiralities_Consistent>
1

> <s_lp_Variant>
AV-unprocessed.smi:1983-8

> <Gold.Version>
5.8.1

> <Gold.Id.Protein>
6NUR|6NUR_protein|mol2

> <Gold.PLP.Fitness>
47.9805

> <Gold.PLP.PLP>
-37.9847

> <Gold.PLP.part.hbond>
-4.2488

> <Gold.PLP.part.metal>
0.0000

> <Gold.PLP.part.buried>
-5.1212

> <Gold.PLP.part.nonpolar>
-30.3409

> <Gold.PLP.part.repulsive>
1.3765

> <Gold.PLP.ligand.clash>
0.0000

> <Gold.PLP.ligand.torsion>
0.7089

> <Gold.PLP.Chemscore.Hbond>
3.7529

> <Gold.PLP.Chemscore.CHOScore>
0.0000

> <Gold.PLP.Chemscore.Metal>
0.0000

> <Gold.Chemscore.Hbonds>
donor molecule, donor type, donor heavy atom, donor atom, acceptor molecule, acceptor atom, score
      L1  H     4    30       P1  7948  1.00
      L1  H     5    31       P1  7948  1.00
      L1  H     8    32       P1  7948  0.43
      L1  H    22    50       P1  8028  1.35

> <Gold.PLP.Chemscore.Internal.Correction>
0.1551

> <Gold.Rescore>
     Score         DG    S(hbond)    S(metal)    S(lipo)     H(rot)  DE(clash)    DE(int)     intcor
     18.57     -19.54       2.94        0.00      94.65       2.66       0.28       0.69       ----

> <Gold.Chemscore.Fitness>
18.5694

> <Gold.Chemscore.DG>
-19.5442

> <Gold.Chemscore.ZeroCoef>
-5.4800

> <Gold.Chemscore.Hbond>
2.9369

> <Gold.Chemscore.Metal>
0.0000

> <Gold.Chemscore.Lipo>
94.6513

> <Gold.Chemscore.Internal_Hbond>
0.0000

> <Gold.Chemscore.DEClash>
0.2816

> <Gold.Chemscore.DEInternal>
0.6933

> <Gold.Chemscore.Rot>
2.6637

> <Gold.Chemscore.Internal.Correction>
   9.000000E+99

> <Gold.Chemscore.Hbonds>
donor molecule, donor type, donor heavy atom, donor atom, acceptor molecule, acceptor atom, score
      L1  H     4    30       P1  7948  0.50
      L1  H     5    31       P1  7948  0.94
      L1  H     8    32       P1  7948  0.44
      L1  H    22    50       P1  8028  0.63

> <Gold.Chemscore.Hbond.Weighted>
-9.8092

> <Gold.Chemscore.Metal.Weighted>
-0.0000

> <Gold.Chemscore.Lipo.Weighted>
-11.0742

> <Gold.Chemscore.Internal_Hbond.Weighted>
0.0000

> <Gold.Chemscore.DEClash.Weighted>
0.2816

> <Gold.Chemscore.DEInternal.Weighted>
0.6933

> <Gold.Chemscore.Rot.Weighted>
6.8191

> <Gold.Chemscore.Internal.Correction.Weighted>
   9.000000E+99

> <Gold.Protein.RotatedTorsions>
[ 6907 6896 6895 6894 ] final   49.40 input  -60.11 | X-H torsion
[ 7974 7965 7964 7962 ] final  -28.41 input  175.53 | X-H torsion
[ 8008 7997 7996 7995 ] final  -11.81 input   59.86 | X-H torsion
[ 10167 10162 10161 10158 ] final  -10.28 input  -65.29 | X-H torsion
[ 10718 10713 10712 10709 ] final -153.48 input   66.30 | X-H torsion
[ 10763 10752 10751 10750 ] final  -32.49 input  -60.55 | X-H torsion
[ 11005 11000 10999 10996 ] final  147.51 input  -57.11 | X-H torsion

> <Gold.Protein.ActiveResidues>
 VAL166  LYS551  ARG553  GLY616  TRP617  ASP618  TYR619  PRO620  LYS621  CYS622 
 ASP623  PHE694  ASN695  SER759  ASP760  ASP761  ALA762  ILE779  LEU786  VAL792 
 PHE793  MET794  SER795  GLU796  ALA797  LYS798  CYS799  TRP800  GLU811  SER814 

> <Gold.Protein.RotatedAtoms>
  152.2904  134.7728  160.0378 H   0  0  0  0  0  0  0  0  0  0  0  0  # atno 6907 bound_to 6896
  151.8276  133.3398  159.3611 H   0  0  0  0  0  0  0  0  0  0  0  0  # atno 6908 bound_to 6896
  150.7227  134.5442  159.5807 H   0  0  0  0  0  0  0  0  0  0  0  0  # atno 6909 bound_to 6896
  146.1290  140.5278  142.8702 H   0  0  0  0  0  0  0  0  0  0  0  0  # atno 7974 bound_to 7965
  154.5432  140.2292  155.8607 H   0  0  0  0  0  0  0  0  0  0  0  0  # atno 8008 bound_to 7997
  156.1878  140.3084  155.9234 H   0  0  0  0  0  0  0  0  0  0  0  0  # atno 8009 bound_to 7997
  155.3217  140.0441  157.3030 H   0  0  0  0  0  0  0  0  0  0  0  0  # atno 8010 bound_to 7997
  140.7109  143.5766  150.9036 H   0  0  0  0  0  0  0  0  0  0  0  0  # atno 10167 bound_to 10162
  156.4865  130.8327  151.2552 H   0  0  0  0  0  0  0  0  0  0  0  0  # atno 10718 bound_to 10713
  153.8146  135.6879  153.4836 H   0  0  0  0  0  0  0  0  0  0  0  0  # atno 10763 bound_to 10752
  153.1607  135.4581  154.9766 H   0  0  0  0  0  0  0  0  0  0  0  0  # atno 10764 bound_to 10752
  154.7953  135.3317  154.7624 H   0  0  0  0  0  0  0  0  0  0  0  0  # atno 10765 bound_to 10752
  140.0882  134.9057  157.1609 H   0  0  0  0  0  0  0  0  0  0  0  0  # atno 11005 bound_to 11000
  144.7671  140.5555  143.6695 LP  0  0  0  0  0  0  0  0  0  0  0  0  # atno 17320 bound_to 7965
  145.5302  139.1475  143.3504 LP  0  0  0  0  0  0  0  0  0  0  0  0  # atno 17321 bound_to 7965
  139.9492  143.6292  152.3033 LP  0  0  0  0  0  0  0  0  0  0  0  0  # atno 17342 bound_to 10162
  139.6804  144.7656  151.1618 LP  0  0  0  0  0  0  0  0  0  0  0  0  # atno 17343 bound_to 10162
  157.7478  131.0028  150.3013 LP  0  0  0  0  0  0  0  0  0  0  0  0  # atno 17370 bound_to 10713
  156.3470  130.3824  149.7361 LP  0  0  0  0  0  0  0  0  0  0  0  0  # atno 17371 bound_to 10713
  140.3390  134.2725  155.7215 LP  0  0  0  0  0  0  0  0  0  0  0  0  # atno 17394 bound_to 11000
  141.2069  133.7819  157.0148 LP  0  0  0  0  0  0  0  0  0  0  0  0  # atno 17395 bound_to 11000

$$$$
