#       Name:                AV-unprocessed.smi:2024
#       Creating user name   scv26
#       Creation time:       Fri Mar 27 10:45:14 2020


#       File generated by GOLD software.
#

@<TRIPOS>MOLECULE
AV-unprocessed.smi:2024
    48    49     1
SMALL
NO_CHARGES


@<TRIPOS>ATOM
      1 ****        -0.3614  -2.9089   3.7414 C.3            1 S1                 0.0000
      2 ****        -1.6786  -2.5742   3.2110 N.3            1 S1                 0.0000
      3 ****        -1.9255  -1.1339   3.1485 C.3            1 S1                 0.0000
      4 ****        -1.1005  -0.4447   2.0414 C.3            1 S1                 0.0000
      5 ****        -1.3886  -1.0544   0.7115 N.4            1 S1                 1.0000
      6 ****        -0.8166  -0.3313  -0.4809 C.3            1 S1                 0.0000
      7 ****        -1.3167  -0.9942  -1.7892 C.3            1 S1                 0.0000
      8 ****        -1.3560   1.1213  -0.5068 C.3            1 S1                 0.0000
      9 ****         0.7417  -0.3394  -0.4516 C.3            1 S1                 0.0000
     10 ****         1.3462   0.3201  -1.6081 N.am           1 S1                 0.0000
     11 ****         1.8179   1.5743  -1.6543 C.2            1 S1                 0.0000
     12 ****         1.7713   2.2887  -0.6502 O.2            1 S1                 0.0000
     13 ****         2.3038   1.9244  -2.8658 N.pl3          1 S1                -1.0000
     14 ****         2.7895   3.1608  -3.0623 C.2            1 S1                 0.0000
     15 ****         4.0966   3.4443  -3.0368 N.2            1 S1                 0.0000
     16 ****         4.3765   4.7923  -3.2686 C.2            1 S1                 0.0000
     17 ****         3.2568   5.5508  -3.4850 C.2            1 S1                 0.0000
     18 ****         1.8086   4.5888  -3.4055 S.3            1 S1                 0.0000
     19 ****        -1.1175  -2.5187   0.7781 C.3            1 S1                 0.0000
     20 ****        -1.9433  -3.1752   1.9044 C.3            1 S1                 0.0000
     21 ****        -0.2407  -2.4912   4.7414 H              1 S1                 0.0000
     22 ****         0.4501  -2.5328   3.1196 H              1 S1                 0.0000
     23 ****        -0.2511  -3.9908   3.8211 H              1 S1                 0.0000
     24 ****        -2.9884  -0.9717   2.9642 H              1 S1                 0.0000
     25 ****        -1.7097  -0.6845   4.1186 H              1 S1                 0.0000
     26 ****        -1.3654   0.6103   2.0561 H              1 S1                 0.0000
     27 ****        -0.0368  -0.4995   2.2711 H              1 S1                 0.0000
     28 ****        -1.0914  -0.3818  -2.6633 H              1 S1                 0.0000
     29 ****        -2.3972  -1.1418  -1.7732 H              1 S1                 0.0000
     30 ****        -0.8461  -1.9600  -1.9717 H              1 S1                 0.0000
     31 ****        -1.1466   1.6141  -1.4567 H              1 S1                 0.0000
     32 ****        -0.9030   1.7464   0.2624 H              1 S1                 0.0000
     33 ****        -2.4376   1.1471  -0.3689 H              1 S1                 0.0000
     34 ****         1.1220   0.1089   0.4662 H              1 S1                 0.0000
     35 ****         1.1167  -1.3622  -0.4576 H              1 S1                 0.0000
     36 ****         1.4121  -0.2227  -2.4568 H              1 S1                 0.0000
     37 ****         5.4036   5.1256  -3.2618 H              1 S1                 0.0000
     38 ****         3.1952   6.6094  -3.6867 H              1 S1                 0.0000
     39 ****        -1.3977  -3.0132  -0.1493 H              1 S1                 0.0000
     40 ****        -0.0543  -2.7086   0.9226 H              1 S1                 0.0000
     41 ****        -1.7422  -4.2462   1.9477 H              1 S1                 0.0000
     42 ****        -3.0065  -3.0705   1.6841 H              1 S1                 0.0000
     43 ****        -2.3890  -0.9771   0.5983 H              1 S1                 0.0000
     44 ****        -2.3162  -2.9711   3.8712 LP             1 S1                 0.0000
     45 ****         1.3815   1.9327   0.1991 LP             1 S1                 0.0000
     46 ****         2.1233   3.2241  -0.6852 LP             1 S1                 0.0000
     47 ****         2.3016   1.2629  -3.6157 LP             1 S1                 0.0000
     48 ****         4.8040   2.7579  -2.8682 LP             1 S1                 0.0000
@<TRIPOS>BOND
    1    1    2 1     
    2    1   21 1     
    3    1   22 1     
    4    1   23 1     
    5    2   20 1     
    6    2    3 1     
    7    3    4 1     
    8    3   24 1     
    9    3   25 1     
   10    4    5 1     
   11    4   26 1     
   12    4   27 1     
   13    5    6 1     
   14    5   19 1     
   15    5   43 1     
   16    6    7 1     
   17    6    8 1     
   18    6    9 1     
   19    7   28 1     
   20    7   29 1     
   21    7   30 1     
   22    8   31 1     
   23    8   32 1     
   24    8   33 1     
   25    9   10 1     
   26    9   34 1     
   27    9   35 1     
   28   10   11 am    
   29   10   36 1     
   30   11   12 2     
   31   11   13 1     
   32   13   14 1     
   33   14   18 1     
   34   14   15 2     
   35   15   16 1     
   36   16   17 2     
   37   16   37 1     
   38   17   18 1     
   39   17   38 1     
   40   19   20 1     
   41   19   39 1     
   42   19   40 1     
   43   20   41 1     
   44   20   42 1     
   45    2   44 1     
   46   12   45 1     
   47   12   46 1     
   48   13   47 1     
   49   15   48 1     
@<TRIPOS>SUBSTRUCTURE
      1 S1             1
@<TRIPOS>SET
LONE_PAIRS      STATIC     ATOMS    <user>   **** ""
5 44 45 46 47 48
DONOR_HYDROGENS      STATIC     ATOMS    <user>   **** ""
2 43 36
ATOM$BLUE        STATIC     ATOMS    COLORGROUP SYSTEM
5 44 45 46 47 48
ATOM$RED        STATIC     ATOMS    COLORGROUP SYSTEM
2 43 36
