AV-unprocessed.smi:1493|AV-procd|sdf|6051|dock5
  -GOLD-   22720 6163D 1   1.00000     0.00000
 Structure written by MMmdl.
 34 34  0  0  0  0  0  0  0  0  1 V2000
  151.3242  144.9142  159.2429 C   0  0  0  0  0  0  0  0  0  0  0  0
  151.4508  144.1694  157.9097 C   0  0  0  0  0  0  0  0  0  0  0  0
  150.6112  142.8804  157.8717 C   0  0  0  0  0  0  0  0  0  0  0  0
  150.8832  142.0017  156.6357 C   0  0  1  0  0  0  0  0  0  0  0  0
  151.5199  140.6586  157.0203 C   0  0  0  0  0  0  0  0  0  0  0  0
  149.6411  141.7558  155.9055 N   0  0  0  0  0  0  0  0  0  0  0  0
  149.5154  141.0328  154.7819 C   0  0  0  0  0  0  0  0  0  0  0  0
  150.4639  140.4864  154.2167 O   0  0  0  0  0  0  0  0  0  0  0  0
  148.0944  140.9375  154.2067 C   0  0  0  0  0  0  0  0  0  0  0  0
  147.6619  139.5591  153.9349 N   0  0  0  0  0  0  0  0  0  0  0  0
  147.4878  139.2751  152.5889 N   0  0  0  0  0  0  0  0  0  0  0  0
  147.1212  138.0939  152.2216 C   0  0  0  0  0  0  0  0  0  0  0  0
  146.9638  137.8552  150.8785 O   0  0  0  0  0  0  0  0  0  0  0  0
  146.8814  137.0486  153.1922 C   0  0  0  0  0  0  0  0  0  0  0  0
  147.0499  137.3359  154.5015 C   0  0  0  0  0  0  0  0  0  0  0  0
  147.4652  138.6654  154.9527 C   0  0  0  0  0  0  0  0  0  0  0  0
  147.6247  138.9557  156.1381 O   0  0  0  0  0  0  0  0  0  0  0  0
  146.0447  137.9910  150.7066 H   0  0  0  0  0  0  0  0  0  0  0  0
  151.9284  145.8216  159.2398 H   0  0  0  0  0  0  0  0  0  0  0  0
  151.6603  144.2940  160.0743 H   0  0  0  0  0  0  0  0  0  0  0  0
  150.2907  145.2032  159.4354 H   0  0  0  0  0  0  0  0  0  0  0  0
  151.1494  144.8375  157.1025 H   0  0  0  0  0  0  0  0  0  0  0  0
  152.4994  143.9270  157.7326 H   0  0  0  0  0  0  0  0  0  0  0  0
  150.8197  142.3003  158.7716 H   0  0  0  0  0  0  0  0  0  0  0  0
  149.5509  143.1343  157.9149 H   0  0  0  0  0  0  0  0  0  0  0  0
  151.5952  142.5333  156.0023 H   0  0  0  0  0  0  0  0  0  0  0  0
  152.4586  140.8079  157.5546 H   0  0  0  0  0  0  0  0  0  0  0  0
  151.7381  140.0605  156.1348 H   0  0  0  0  0  0  0  0  0  0  0  0
  150.8600  140.0748  157.6628 H   0  0  0  0  0  0  0  0  0  0  0  0
  148.8047  142.1702  156.2904 H   0  0  0  0  0  0  0  0  0  0  0  0
  147.3927  141.4191  154.8904 H   0  0  0  0  0  0  0  0  0  0  0  0
  148.0616  141.5297  153.2904 H   0  0  0  0  0  0  0  0  0  0  0  0
  146.5753  136.0648  152.8680 H   0  0  0  0  0  0  0  0  0  0  0  0
  146.8748  136.5649  155.2373 H   0  0  0  0  0  0  0  0  0  0  0  0
  1  2  1  0  0  0  0
  1 19  1  0  0  0  0
  1 20  1  0  0  0  0
  1 21  1  0  0  0  0
  2  3  1  0  0  0  0
  2 22  1  0  0  0  0
  2 23  1  0  0  0  0
  3  4  1  0  0  0  0
  3 24  1  0  0  0  0
  3 25  1  0  0  0  0
  4  5  1  0  0  0  0
  4  6  1  0  0  0  0
  4 26  1  0  0  0  0
  5 27  1  0  0  0  0
  5 28  1  0  0  0  0
  5 29  1  0  0  0  0
  6  7  1  0  0  0  0
  6 30  1  0  0  0  0
  7  8  2  0  0  0  0
  7  9  1  0  0  0  0
  9 31  1  0  0  0  0
  9 32  1  0  0  0  0
  9 10  1  0  0  0  0
 10 11  1  0  0  0  0
 10 16  1  0  0  0  0
 11 12  2  0  0  0  0
 12 13  1  0  0  0  0
 12 14  1  0  0  0  0
 13 18  1  0  0  0  0
 14 33  1  0  0  0  0
 14 15  2  0  0  0  0
 15 34  1  0  0  0  0
 15 16  1  0  0  0  0
 16 17  2  0  0  0  0
M  END
> <s_m_source_file>
AV-unprocessed.smi

> <i_m_source_file_index>
1493

> <i_lp_mmshare_version>
43012

> <i_f3d_flags>
0

> <s_epik_input>
W0NIM11bQ0gyXVtDSDJdW0NASF0oW0NIM10pW05IXUMoPU8pW0NIMl1uMVtuSF1jKD1PKVtjSF1bY0hdYzE9Tw==

> <s_epik_cmdline>
J2VwaWtfcHl0aG9uJywgJy1waCcsICc3LjAnLCAnLXRuJywgJzgnLCAnLW1hJywgJzIwMCcsICctbWV0YWxfYmluZGluZycsICctaW1hZScsICc8aW5maWxlLm1hZT4nLCAnLW9tYWUnLCAnPG91dGZpbGUubWFlPic=

> <r_lp_tautomer_probability>
0.9996

> <r_epik_Ionization_Penalty>
2.12047

> <r_epik_Ionization_Penalty_Charging>
3.81971e-08

> <r_epik_Ionization_Penalty_Neutral>
2.12047

> <r_epik_State_Penalty>
1.69728

> <r_epik_Charging_Adjusted_Penalty>
1.69728

> <i_epik_Tot_Q>
0

> <i_epik_Tot_abs_Q>
0

> <r_epik_Metal_State_Penalty>
1.69728

> <b_epik_Metal_Only>
0

> <s_lp_Force_Field>
OPLS_2005

> <r_lp_Energy>
15.6532

> <b_lp_Chiralities_Consistent>
1

> <s_lp_Variant>
AV-unprocessed.smi:1493-4

> <Gold.Version>
5.8.1

> <Gold.Id.Protein>
6NUR|6NUR_protein|mol2

> <Gold.PLP.Fitness>
43.7596

> <Gold.PLP.PLP>
-34.3090

> <Gold.PLP.part.hbond>
-4.0846

> <Gold.PLP.part.metal>
0.0000

> <Gold.PLP.part.buried>
-5.4256

> <Gold.PLP.part.nonpolar>
-28.0571

> <Gold.PLP.part.repulsive>
3.6867

> <Gold.PLP.ligand.clash>
0.0000

> <Gold.PLP.ligand.torsion>
0.8707

> <Gold.PLP.Chemscore.Hbond>
3.7200

> <Gold.PLP.Chemscore.CHOScore>
0.0000

> <Gold.PLP.Chemscore.Metal>
0.0000

> <Gold.Chemscore.Hbonds>
donor molecule, donor type, donor heavy atom, donor atom, acceptor molecule, acceptor atom, score
      L1  H    13    18       P1 10171  0.05
      P1  H  7954  7966       L1    13  1.00
      P1  H  7989  7998       L1     8  0.67

> <Gold.PLP.Chemscore.Internal.Correction>
0.0319

> <Gold.Rescore>
     Score         DG    S(hbond)    S(metal)    S(lipo)     H(rot)  DE(clash)    DE(int)     intcor
     14.57     -16.91       3.37        0.00      62.38       2.78       1.47       0.86       ----

> <Gold.Chemscore.Fitness>
14.5731

> <Gold.Chemscore.DG>
-16.9086

> <Gold.Chemscore.ZeroCoef>
-5.4800

> <Gold.Chemscore.Hbond>
3.3662

> <Gold.Chemscore.Metal>
0.0000

> <Gold.Chemscore.Lipo>
62.3796

> <Gold.Chemscore.Internal_Hbond>
0.0000

> <Gold.Chemscore.DEClash>
1.4730

> <Gold.Chemscore.DEInternal>
0.8624

> <Gold.Chemscore.Rot>
2.7785

> <Gold.Chemscore.Internal.Correction>
   9.000000E+99

> <Gold.Chemscore.Hbonds>
donor molecule, donor type, donor heavy atom, donor atom, acceptor molecule, acceptor atom, score
      L1  H    13    18       P1 10171  0.10
      P1  H  7954  7966       L1    13  0.94
      P1  H  7989  7998       L1     8  0.64

> <Gold.Chemscore.Hbond.Weighted>
-11.2431

> <Gold.Chemscore.Metal.Weighted>
-0.0000

> <Gold.Chemscore.Lipo.Weighted>
-7.2984

> <Gold.Chemscore.Internal_Hbond.Weighted>
0.0000

> <Gold.Chemscore.DEClash.Weighted>
1.4730

> <Gold.Chemscore.DEInternal.Weighted>
0.8624

> <Gold.Chemscore.Rot.Weighted>
7.1129

> <Gold.Chemscore.Internal.Correction.Weighted>
   9.000000E+99

> <Gold.Protein.RotatedTorsions>
[ 6907 6896 6895 6894 ] final  -49.78 input  -60.11 | X-H torsion
[ 7974 7965 7964 7962 ] final   45.67 input  175.53 | X-H torsion
[ 8008 7997 7996 7995 ] final   67.45 input   59.86 | X-H torsion
[ 10167 10162 10161 10158 ] final    0.04 input  -65.29 | X-H torsion
[ 10718 10713 10712 10709 ] final  -22.84 input   66.30 | X-H torsion
[ 10763 10752 10751 10750 ] final  134.22 input  -60.55 | X-H torsion
[ 11005 11000 10999 10996 ] final   78.49 input  -57.11 | X-H torsion

> <Gold.Protein.ActiveResidues>
 VAL166  LYS551  ARG553  GLY616  TRP617  ASP618  TYR619  PRO620  LYS621  CYS622 
 ASP623  PHE694  ASN695  SER759  ASP760  ASP761  ALA762  ILE779  LEU786  VAL792 
 PHE793  MET794  SER795  GLU796  ALA797  LYS798  CYS799  TRP800  GLU811  SER814 

> <Gold.Protein.RotatedAtoms>
  150.8772  134.8156  159.7197 H   0  0  0  0  0  0  0  0  0  0  0  0  # atno 6907 bound_to 6896
  152.4754  134.4854  159.9688 H   0  0  0  0  0  0  0  0  0  0  0  0  # atno 6908 bound_to 6896
  151.4934  133.3481  159.2892 H   0  0  0  0  0  0  0  0  0  0  0  0  # atno 6909 bound_to 6896
  146.0459  139.4939  142.9749 H   0  0  0  0  0  0  0  0  0  0  0  0  # atno 7974 bound_to 7965
  155.6931  140.3496  155.4902 H   0  0  0  0  0  0  0  0  0  0  0  0  # atno 8008 bound_to 7997
  155.9506  140.1118  157.1002 H   0  0  0  0  0  0  0  0  0  0  0  0  # atno 8009 bound_to 7997
  154.4121  140.1195  156.5034 H   0  0  0  0  0  0  0  0  0  0  0  0  # atno 8010 bound_to 7997
  140.6746  143.6952  150.7996 H   0  0  0  0  0  0  0  0  0  0  0  0  # atno 10167 bound_to 10162
  156.4991  130.4584  149.6711 H   0  0  0  0  0  0  0  0  0  0  0  0  # atno 10718 bound_to 10713
  153.8200  135.3117  155.3409 H   0  0  0  0  0  0  0  0  0  0  0  0  # atno 10763 bound_to 10752
  154.8016  135.4723  154.0294 H   0  0  0  0  0  0  0  0  0  0  0  0  # atno 10764 bound_to 10752
  153.1699  135.6876  153.8712 H   0  0  0  0  0  0  0  0  0  0  0  0  # atno 10765 bound_to 10752
  139.9211  134.7767  156.1656 H   0  0  0  0  0  0  0  0  0  0  0  0  # atno 11005 bound_to 11000
  145.6807  141.0192  143.1608 LP  0  0  0  0  0  0  0  0  0  0  0  0  # atno 17320 bound_to 7965
  144.7097  139.8418  143.7418 LP  0  0  0  0  0  0  0  0  0  0  0  0  # atno 17321 bound_to 7965
  140.0643  143.5124  152.2612 LP  0  0  0  0  0  0  0  0  0  0  0  0  # atno 17342 bound_to 10162
  139.6032  144.7588  151.3123 LP  0  0  0  0  0  0  0  0  0  0  0  0  # atno 17343 bound_to 10162
  156.3351  130.7352  151.2288 LP  0  0  0  0  0  0  0  0  0  0  0  0  # atno 17370 bound_to 10713
  157.7465  131.0419  150.4669 LP  0  0  0  0  0  0  0  0  0  0  0  0  # atno 17371 bound_to 10713
  141.0731  133.6787  156.2182 LP  0  0  0  0  0  0  0  0  0  0  0  0  # atno 17394 bound_to 11000
  140.6473  134.5104  157.5574 LP  0  0  0  0  0  0  0  0  0  0  0  0  # atno 17395 bound_to 11000

$$$$
