AV-unprocessed.smi:3116|AV-procd|sdf|11866|dock7
  -GOLD-   2272017243D 1   1.00000     0.00000
 Structure written by MMmdl.
 34 34  0  0  0  0  0  0  0  0  2 V2000
  147.9489  141.7051  156.2050 C   0  0  0  0  0  0  0  0  0  0  0  0
  149.3891  141.1639  156.1990 C   0  0  2  0  0  0  0  0  0  0  0  0
  150.3497  142.2190  156.5972 N   0  3  0  0  0  0  0  0  0  0  0  0
  150.6304  142.3300  158.0489 C   0  0  2  0  0  0  0  0  0  0  0  0
  149.5347  143.1992  158.6881 C   0  0  0  0  0  0  0  0  0  0  0  0
  152.0574  142.8981  158.2853 C   0  0  1  0  0  0  0  0  0  0  0  0
  152.1699  144.4062  157.9862 C   0  0  0  0  0  0  0  0  0  0  0  0
  152.5276  142.6230  159.6386 N   0  0  0  0  0  0  0  0  0  0  0  0
  153.6591  141.9335  160.0244 C   0  0  0  0  0  0  0  0  0  0  0  0
  153.6755  141.9049  161.3893 C   0  0  0  0  0  0  0  0  0  0  0  0
  152.4994  142.6154  161.7569 C   0  0  0  0  0  0  0  0  0  0  0  0
  151.8120  143.0385  160.7086 N   0  0  0  0  0  0  0  0  0  0  0  0
  149.7481  140.6107  154.8149 C   0  0  0  0  0  0  0  0  0  0  0  0
  148.9188  140.9027  153.8095 N   0  0  0  0  0  0  0  0  0  0  0  0
  150.7624  139.9354  154.6492 O   0  0  0  0  0  0  0  0  0  0  0  0
  147.2347  140.9334  155.9153 H   0  0  0  0  0  0  0  0  0  0  0  0
  147.8331  142.5416  155.5144 H   0  0  0  0  0  0  0  0  0  0  0  0
  147.6592  142.0538  157.1964 H   0  0  0  0  0  0  0  0  0  0  0  0
  149.4603  140.3378  156.9068 H   0  0  0  0  0  0  0  0  0  0  0  0
  151.2262  142.0321  156.1316 H   0  0  0  0  0  0  0  0  0  0  0  0
  150.5653  141.3413  158.5060 H   0  0  0  0  0  0  0  0  0  0  0  0
  149.6218  143.2274  159.7739 H   0  0  0  0  0  0  0  0  0  0  0  0
  148.5433  142.8055  158.4615 H   0  0  0  0  0  0  0  0  0  0  0  0
  149.5755  144.2252  158.3207 H   0  0  0  0  0  0  0  0  0  0  0  0
  152.7405  142.3843  157.6068 H   0  0  0  0  0  0  0  0  0  0  0  0
  152.0145  144.6205  156.9291 H   0  0  0  0  0  0  0  0  0  0  0  0
  153.1614  144.7816  158.2420 H   0  0  0  0  0  0  0  0  0  0  0  0
  151.4408  144.9844  158.5545 H   0  0  0  0  0  0  0  0  0  0  0  0
  154.3512  141.5221  159.3043 H   0  0  0  0  0  0  0  0  0  0  0  0
  154.4165  141.4480  162.0286 H   0  0  0  0  0  0  0  0  0  0  0  0
  152.1258  142.8318  162.7471 H   0  0  0  0  0  0  0  0  0  0  0  0
  149.1070  140.5597  152.8783 H   0  0  0  0  0  0  0  0  0  0  0  0
  148.0988  141.4660  153.9855 H   0  0  0  0  0  0  0  0  0  0  0  0
  149.9986  143.1034  156.2590 H   0  0  0  0  0  0  0  0  0  0  0  0
  1  2  1  0  0  0  0
  1 16  1  0  0  0  0
  1 17  1  0  0  0  0
  1 18  1  0  0  0  0
  2  3  1  0  0  0  0
  2 13  1  0  0  0  0
  2 19  1  0  0  0  0
  3  4  1  0  0  0  0
  3 20  1  0  0  0  0
  3 34  1  0  0  0  0
  4  5  1  0  0  0  0
  4  6  1  0  0  0  0
  4 21  1  0  0  0  0
  5 22  1  0  0  0  0
  5 23  1  0  0  0  0
  5 24  1  0  0  0  0
  6  7  1  0  0  0  0
  6  8  1  0  0  0  0
  6 25  1  0  0  0  0
  7 26  1  0  0  0  0
  7 27  1  0  0  0  0
  7 28  1  0  0  0  0
  8 12  1  0  0  0  0
  8  9  1  0  0  0  0
  9 10  2  0  0  0  0
  9 29  1  0  0  0  0
 10 11  1  0  0  0  0
 10 30  1  0  0  0  0
 11 12  2  0  0  0  0
 11 31  1  0  0  0  0
 13 14  1  0  0  0  0
 13 15  2  0  0  0  0
 14 32  1  0  0  0  0
 14 33  1  0  0  0  0
M  CHG  1   3   1
M  END
> <s_m_source_file>
AV-unprocessed.smi

> <i_m_source_file_index>
3116

> <i_lp_mmshare_version>
43012

> <i_f3d_flags>
0

> <s_epik_input>
W05IMl1DKD1PKVtDQEhdKFtDSDNdKVtOSF1bQ0BIXShbQ0gzXSlbQ0BIXShbQ0gzXSluMVtjSF1bY0hdW2NIXW4x

> <s_epik_cmdline>
J2VwaWtfcHl0aG9uJywgJy1waCcsICc3LjAnLCAnLXRuJywgJzgnLCAnLW1hJywgJzIwMCcsICctbWV0YWxfYmluZGluZycsICctaW1hZScsICc8aW5maWxlLm1hZT4nLCAnLW9tYWUnLCAnPG91dGZpbGUubWFlPic=

> <r_lp_tautomer_probability>
1

> <r_epik_Ionization_Penalty>
0.15658

> <r_epik_Ionization_Penalty_Charging>
0.156568

> <r_epik_Ionization_Penalty_Neutral>
1.19778e-05

> <r_epik_State_Penalty>
0.145866

> <r_epik_Charging_Adjusted_Penalty>
0.302434

> <i_epik_Tot_Q>
1

> <i_epik_Tot_abs_Q>
1

> <r_epik_Metal_State_Penalty>
0.146064

> <b_epik_Metal_Only>
0

> <s_lp_Force_Field>
OPLS_2005

> <r_lp_Energy>
9.52806

> <b_lp_Chiralities_Consistent>
1

> <s_lp_Variant>
AV-unprocessed.smi:3116-5

> <Gold.Version>
5.8.1

> <Gold.Id.Protein>
6NUR|6NUR_protein|mol2

> <Gold.PLP.Fitness>
44.8055

> <Gold.PLP.PLP>
-36.7008

> <Gold.PLP.part.hbond>
-3.4293

> <Gold.PLP.part.metal>
0.0000

> <Gold.PLP.part.buried>
-4.5898

> <Gold.PLP.part.nonpolar>
-28.6396

> <Gold.PLP.part.repulsive>
0.4262

> <Gold.PLP.ligand.clash>
1.5842

> <Gold.PLP.ligand.torsion>
1.2237

> <Gold.PLP.Chemscore.Hbond>
4.0000

> <Gold.PLP.Chemscore.CHOScore>
0.0000

> <Gold.PLP.Chemscore.Metal>
0.0000

> <Gold.Chemscore.Hbonds>
donor molecule, donor type, donor heavy atom, donor atom, acceptor molecule, acceptor atom, score
      L1  H     3    34       P1  8028  1.92
      L1  H    14    32       P1  7957  1.00
      P1  H  7989  7998       L1    15  1.00

> <Gold.PLP.Chemscore.Internal.Correction>
0.1362

> <Gold.Rescore>
     Score         DG    S(hbond)    S(metal)    S(lipo)     H(rot)  DE(clash)    DE(int)     intcor
     16.72     -17.92       2.93        0.00      76.29       2.45       0.01       1.19       ----

> <Gold.Chemscore.Fitness>
16.7231

> <Gold.Chemscore.DG>
-17.9151

> <Gold.Chemscore.ZeroCoef>
-5.4800

> <Gold.Chemscore.Hbond>
2.9258

> <Gold.Chemscore.Metal>
0.0000

> <Gold.Chemscore.Lipo>
76.2923

> <Gold.Chemscore.Internal_Hbond>
0.0000

> <Gold.Chemscore.DEClash>
0.0060

> <Gold.Chemscore.DEInternal>
1.1860

> <Gold.Chemscore.Rot>
2.4465

> <Gold.Chemscore.Internal.Correction>
   9.000000E+99

> <Gold.Chemscore.Hbonds>
donor molecule, donor type, donor heavy atom, donor atom, acceptor molecule, acceptor atom, score
      L1  H     3    34       P1  8028  0.90
      L1  H    14    32       P1  7957  1.00
      P1  H  7989  7998       L1    15  0.35

> <Gold.Chemscore.Hbond.Weighted>
-9.7720

> <Gold.Chemscore.Metal.Weighted>
-0.0000

> <Gold.Chemscore.Lipo.Weighted>
-8.9262

> <Gold.Chemscore.Internal_Hbond.Weighted>
0.0000

> <Gold.Chemscore.DEClash.Weighted>
0.0060

> <Gold.Chemscore.DEInternal.Weighted>
1.1860

> <Gold.Chemscore.Rot.Weighted>
6.2631

> <Gold.Chemscore.Internal.Correction.Weighted>
   9.000000E+99

> <Gold.Protein.RotatedTorsions>
[ 6907 6896 6895 6894 ] final  159.37 input  -60.11 | X-H torsion
[ 7974 7965 7964 7962 ] final   29.74 input  175.53 | X-H torsion
[ 8008 7997 7996 7995 ] final -164.64 input   59.86 | X-H torsion
[ 10167 10162 10161 10158 ] final  141.33 input  -65.29 | X-H torsion
[ 10718 10713 10712 10709 ] final -109.74 input   66.30 | X-H torsion
[ 10763 10752 10751 10750 ] final -110.34 input  -60.55 | X-H torsion
[ 11005 11000 10999 10996 ] final  -10.26 input  -57.11 | X-H torsion

> <Gold.Protein.ActiveResidues>
 VAL166  LYS551  ARG553  GLY616  TRP617  ASP618  TYR619  PRO620  LYS621  CYS622 
 ASP623  PHE694  ASN695  SER759  ASP760  ASP761  ALA762  ILE779  LEU786  VAL792 
 PHE793  MET794  SER795  GLU796  ALA797  LYS798  CYS799  TRP800  GLU811  SER814 

> <Gold.Protein.RotatedAtoms>
  151.9866  133.3776  159.4127 H   0  0  0  0  0  0  0  0  0  0  0  0  # atno 6907 bound_to 6896
  150.6927  134.3981  159.5116 H   0  0  0  0  0  0  0  0  0  0  0  0  # atno 6908 bound_to 6896
  152.1708  134.8835  160.0585 H   0  0  0  0  0  0  0  0  0  0  0  0  # atno 6909 bound_to 6896
  146.1654  139.6882  142.9005 H   0  0  0  0  0  0  0  0  0  0  0  0  # atno 7974 bound_to 7965
  155.8385  140.0945  157.1749 H   0  0  0  0  0  0  0  0  0  0  0  0  # atno 8008 bound_to 7997
  154.3981  140.1405  156.3761 H   0  0  0  0  0  0  0  0  0  0  0  0  # atno 8009 bound_to 7997
  155.8089  140.3450  155.5448 H   0  0  0  0  0  0  0  0  0  0  0  0  # atno 8010 bound_to 7997
  139.5023  144.6178  151.6122 H   0  0  0  0  0  0  0  0  0  0  0  0  # atno 10167 bound_to 10162
  156.0553  130.5779  150.8142 H   0  0  0  0  0  0  0  0  0  0  0  0  # atno 10718 bound_to 10713
  154.8243  135.4567  154.0871 H   0  0  0  0  0  0  0  0  0  0  0  0  # atno 10763 bound_to 10752
  153.2198  135.6892  153.8020 H   0  0  0  0  0  0  0  0  0  0  0  0  # atno 10764 bound_to 10752
  153.7441  135.3308  155.3286 H   0  0  0  0  0  0  0  0  0  0  0  0  # atno 10765 bound_to 10752
  140.7429  133.8655  155.8982 H   0  0  0  0  0  0  0  0  0  0  0  0  # atno 11005 bound_to 11000
  145.4482  141.0426  143.2819 LP  0  0  0  0  0  0  0  0  0  0  0  0  # atno 17320 bound_to 7965
  144.8085  139.6007  143.7040 LP  0  0  0  0  0  0  0  0  0  0  0  0  # atno 17321 bound_to 7965
  140.5871  143.9844  150.6302 LP  0  0  0  0  0  0  0  0  0  0  0  0  # atno 17342 bound_to 10162
  140.3013  143.3259  152.0969 LP  0  0  0  0  0  0  0  0  0  0  0  0  # atno 17343 bound_to 10162
  157.5517  131.0944  150.9685 LP  0  0  0  0  0  0  0  0  0  0  0  0  # atno 17370 bound_to 10713
  156.9944  130.5575  149.5306 LP  0  0  0  0  0  0  0  0  0  0  0  0  # atno 17371 bound_to 10713
  140.9820  134.1392  157.4485 LP  0  0  0  0  0  0  0  0  0  0  0  0  # atno 17394 bound_to 11000
  139.8802  135.0013  156.6063 LP  0  0  0  0  0  0  0  0  0  0  0  0  # atno 17395 bound_to 11000

$$$$
