AV-unprocessed.smi:38|AV-procd|sdf|344|dock1
  -GOLD-   2262016183D 1   1.00000     0.00000
 Structure written by MMmdl.
 27 28  0  0  0  0  0  0  0  0  2 V2000
  153.4699  135.6506  158.5750 O   0  0  0  0  0  0  0  0  0  0  0  0
  153.1247  136.6123  157.8900 C   0  0  0  0  0  0  0  0  0  0  0  0
  152.8998  136.5193  156.5474 N   0  5  0  0  0  0  0  0  0  0  0  0
  152.5193  137.5883  155.7881 C   0  0  0  0  0  0  0  0  0  0  0  0
  152.3180  137.5145  154.5754 O   0  0  0  0  0  0  0  0  0  0  0  0
  152.3473  138.8528  156.4153 N   0  0  0  0  0  0  0  0  0  0  0  0
  151.9270  140.0351  155.5660 C   0  0  2  0  0  0  0  0  0  0  0  0
  151.5983  141.2465  156.4522 C   0  0  0  0  0  0  0  0  0  0  0  0
  150.2627  141.7013  155.8970 C   0  0  2  0  0  0  0  0  0  0  0  0
  149.4919  142.3435  156.8919 O   0  0  0  0  0  0  0  0  0  0  0  0
  149.6424  140.3831  155.4345 C   0  0  1  0  0  0  0  0  0  0  0  0
  148.5362  140.5587  154.3831 C   0  0  0  0  0  0  0  0  0  0  0  0
  149.0664  141.1395  153.2107 O   0  0  0  0  0  0  0  0  0  0  0  0
  150.7634  139.7221  154.8544 O   0  0  0  0  0  0  0  0  0  0  0  0
  152.5669  138.9759  157.7782 C   0  0  0  0  0  0  0  0  0  0  0  0
  152.9437  137.9169  158.5240 C   0  0  0  0  0  0  0  0  0  0  0  0
  153.1503  138.0674  159.8438 F   0  0  0  0  0  0  0  0  0  0  0  0
  152.7425  140.2031  154.8604 H   0  0  0  0  0  0  0  0  0  0  0  0
  150.4183  142.3703  155.0493 H   0  0  0  0  0  0  0  0  0  0  0  0
  149.2846  139.8204  156.2992 H   0  0  0  0  0  0  0  0  0  0  0  0
  151.5007  140.9265  157.4917 H   0  0  0  0  0  0  0  0  0  0  0  0
  152.3782  142.0056  156.3875 H   0  0  0  0  0  0  0  0  0  0  0  0
  149.3303  143.2333  156.6174 H   0  0  0  0  0  0  0  0  0  0  0  0
  148.1241  139.5876  154.1079 H   0  0  0  0  0  0  0  0  0  0  0  0
  147.7141  141.1621  154.7688 H   0  0  0  0  0  0  0  0  0  0  0  0
  148.9961  140.5130  152.5069 H   0  0  0  0  0  0  0  0  0  0  0  0
  152.4397  139.9277  158.2706 H   0  0  0  0  0  0  0  0  0  0  0  0
  1  2  2  0  0  0  0
  2 16  1  0  0  0  0
  2  3  1  0  0  0  0
  3  4  1  0  0  0  0
  4  5  2  0  0  0  0
  4  6  1  0  0  0  0
  6  7  1  0  0  0  0
  6 15  1  0  0  0  0
  7 18  1  0  0  0  0
  7 14  1  0  0  0  0
  7  8  1  0  0  0  0
  8  9  1  0  0  0  0
  8 21  1  0  0  0  0
  8 22  1  0  0  0  0
  9 19  1  0  0  0  0
  9 10  1  0  0  0  0
  9 11  1  0  0  0  0
 10 23  1  0  0  0  0
 11 20  1  0  0  0  0
 11 12  1  0  0  0  0
 11 14  1  0  0  0  0
 12 13  1  0  0  0  0
 12 24  1  0  0  0  0
 12 25  1  0  0  0  0
 13 26  1  0  0  0  0
 15 16  2  0  0  0  0
 15 27  1  0  0  0  0
 16 17  1  0  0  0  0
M  CHG  1   3  -1
M  END
> <s_m_source_file>
AV-unprocessed.smi

> <i_m_source_file_index>
38

> <i_lp_mmshare_version>
43012

> <i_f3d_flags>
0

> <s_epik_input>
Tz1jMVtuSF1jKD1PKW4oW2NIXWMxRilbQ0BIXTJbQ0gyXVtDQEhdKFtPSF0pW0NASF0oTzIpW0NIMl1bT0hd

> <s_epik_cmdline>
J2VwaWtfcHl0aG9uJywgJy1waCcsICc3LjAnLCAnLXRuJywgJzgnLCAnLW1hJywgJzIwMCcsICctbWV0YWxfYmluZGluZycsICctaW1hZScsICc8aW5maWxlLm1hZT4nLCAnLW9tYWUnLCAnPG91dGZpbGUubWFlPic=

> <r_epik_Ionization_Penalty>
1.68146

> <r_epik_Ionization_Penalty_Charging>
3.4211e-08

> <r_epik_Ionization_Penalty_Neutral>
1.68146

> <r_epik_State_Penalty>
1.78593

> <r_epik_Charging_Adjusted_Penalty>
1.78593

> <i_epik_Tot_Q>
-1

> <i_epik_Tot_abs_Q>
1

> <r_epik_Metal_State_Penalty>
0.0113696

> <b_epik_Metal_Only>
0

> <s_epik_Chemistry_Notes>
This compound contains an acetal/aminal-like group ( X-CH(R)-Y where X, Y are N, S, or O) that may be acid/base labile, releasing an aldehyde.

> <s_lp_Force_Field>
OPLS_2005

> <r_lp_Energy>
37.5177

> <b_lp_Chiralities_Consistent>
1

> <s_lp_Variant>
AV-unprocessed.smi:38-10

> <Gold.Version>
5.8.1

> <Gold.Id.Protein>
6NUR|6NUR_protein|mol2

> <Gold.PLP.Fitness>
42.2324

> <Gold.PLP.PLP>
-25.6648

> <Gold.PLP.part.hbond>
-7.4990

> <Gold.PLP.part.metal>
0.0000

> <Gold.PLP.part.buried>
-2.7568

> <Gold.PLP.part.nonpolar>
-15.3555

> <Gold.PLP.part.repulsive>
0.1597

> <Gold.PLP.ligand.clash>
0.0000

> <Gold.PLP.ligand.torsion>
0.1271

> <Gold.PLP.Chemscore.Hbond>
5.6018

> <Gold.PLP.Chemscore.CHOScore>
0.0000

> <Gold.PLP.Chemscore.Metal>
0.0000

> <Gold.Chemscore.Hbonds>
donor molecule, donor type, donor heavy atom, donor atom, acceptor molecule, acceptor atom, score
      L1  H    10    23       P1  8028  1.00
      L1  H    13    26       P1  7957  0.90
      P1  H  6896  6907       L1     1  0.64
      P1  H  7989  7998       L1    14  0.10
      P1  H  8011  8017       L1    13  0.90
      P1  H 10752 10763       L1     5  0.07
      P1  H 10752 10764       L1     3  2.00

> <Gold.PLP.Chemscore.Internal.Correction>
0.0164

> <Gold.Rescore>
     Score         DG    S(hbond)    S(metal)    S(lipo)     H(rot)  DE(clash)    DE(int)     intcor
     10.28     -12.06       2.92        0.00      35.96       2.88       0.16       1.62       ----

> <Gold.Chemscore.Fitness>
10.2779

> <Gold.Chemscore.DG>
-12.0592

> <Gold.Chemscore.ZeroCoef>
-5.4800

> <Gold.Chemscore.Hbond>
2.9186

> <Gold.Chemscore.Metal>
0.0000

> <Gold.Chemscore.Lipo>
35.9634

> <Gold.Chemscore.Internal_Hbond>
0.0000

> <Gold.Chemscore.DEClash>
0.1602

> <Gold.Chemscore.DEInternal>
1.6211

> <Gold.Chemscore.Rot>
2.8815

> <Gold.Chemscore.Internal.Correction>
   9.000000E+99

> <Gold.Chemscore.Hbonds>
donor molecule, donor type, donor heavy atom, donor atom, acceptor molecule, acceptor atom, score
      L1  H    10    23       P1  8028  1.00
      L1  H    13    26       P1  7957  0.84
      P1  H  6896  6907       L1     1  0.62
      P1  H  8011  8017       L1    13  0.18
      P1  H 10752 10763       L1     5  0.05
      P1  H 10752 10764       L1     3  0.25

> <Gold.Chemscore.Hbond.Weighted>
-9.7480

> <Gold.Chemscore.Metal.Weighted>
-0.0000

> <Gold.Chemscore.Lipo.Weighted>
-4.2077

> <Gold.Chemscore.Internal_Hbond.Weighted>
0.0000

> <Gold.Chemscore.DEClash.Weighted>
0.1602

> <Gold.Chemscore.DEInternal.Weighted>
1.6211

> <Gold.Chemscore.Rot.Weighted>
7.3765

> <Gold.Chemscore.Internal.Correction.Weighted>
   9.000000E+99

> <Gold.Protein.RotatedTorsions>
[ 6907 6896 6895 6894 ] final   53.45 input  -60.11 | X-H torsion
[ 7974 7965 7964 7962 ] final -159.06 input  175.53 | X-H torsion
[ 8008 7997 7996 7995 ] final   59.60 input   59.86 | X-H torsion
[ 10167 10162 10161 10158 ] final  114.06 input  -65.29 | X-H torsion
[ 10718 10713 10712 10709 ] final  -84.66 input   66.30 | X-H torsion
[ 10763 10752 10751 10750 ] final   -9.82 input  -60.55 | X-H torsion
[ 11005 11000 10999 10996 ] final -154.47 input  -57.11 | X-H torsion

> <Gold.Protein.ActiveResidues>
 VAL166  LYS551  ARG553  GLY616  TRP617  ASP618  TYR619  PRO620  LYS621  CYS622 
 ASP623  PHE694  ASN695  SER759  ASP760  ASP761  ALA762  ILE779  LEU786  VAL792 
 PHE793  MET794  SER795  GLU796  ALA797  LYS798  CYS799  TRP800  GLU811  SER814 

> <Gold.Protein.RotatedAtoms>
  152.3338  134.7225  160.0282 H   0  0  0  0  0  0  0  0  0  0  0  0  # atno 6907 bound_to 6896
  151.7633  133.3330  159.3432 H   0  0  0  0  0  0  0  0  0  0  0  0  # atno 6908 bound_to 6896
  150.7438  134.6018  159.6085 H   0  0  0  0  0  0  0  0  0  0  0  0  # atno 6909 bound_to 6896
  144.7480  140.3739  143.6070 H   0  0  0  0  0  0  0  0  0  0  0  0  # atno 7974 bound_to 7965
  155.5689  140.3489  155.4510 H   0  0  0  0  0  0  0  0  0  0  0  0  # atno 8008 bound_to 7997
  156.0459  140.1306  157.0130 H   0  0  0  0  0  0  0  0  0  0  0  0  # atno 8009 bound_to 7997
  154.4412  140.1014  156.6290 H   0  0  0  0  0  0  0  0  0  0  0  0  # atno 8010 bound_to 7997
  139.6416  144.7124  151.2226 H   0  0  0  0  0  0  0  0  0  0  0  0  # atno 10167 bound_to 10162
  156.0004  130.4705  150.4443 H   0  0  0  0  0  0  0  0  0  0  0  0  # atno 10718 bound_to 10713
  153.4603  135.7016  153.6054 H   0  0  0  0  0  0  0  0  0  0  0  0  # atno 10763 bound_to 10752
  153.4352  135.3793  155.2195 H   0  0  0  0  0  0  0  0  0  0  0  0  # atno 10764 bound_to 10752
  154.8727  135.3960  154.4027 H   0  0  0  0  0  0  0  0  0  0  0  0  # atno 10765 bound_to 10752
  140.6970  134.3979  157.5213 H   0  0  0  0  0  0  0  0  0  0  0  0  # atno 11005 bound_to 11000
  145.7048  139.1670  143.2572 LP  0  0  0  0  0  0  0  0  0  0  0  0  # atno 17320 bound_to 7965
  146.1389  140.7084  142.9376 LP  0  0  0  0  0  0  0  0  0  0  0  0  # atno 17321 bound_to 7965
  140.7493  143.6302  150.8430 LP  0  0  0  0  0  0  0  0  0  0  0  0  # atno 17342 bound_to 10162
  139.9940  143.5816  152.2900 LP  0  0  0  0  0  0  0  0  0  0  0  0  # atno 17343 bound_to 10162
  157.2481  131.0540  151.2396 LP  0  0  0  0  0  0  0  0  0  0  0  0  # atno 17370 bound_to 10713
  157.3555  130.7104  149.6468 LP  0  0  0  0  0  0  0  0  0  0  0  0  # atno 17371 bound_to 10713
  139.8907  134.8797  156.2355 LP  0  0  0  0  0  0  0  0  0  0  0  0  # atno 17394 bound_to 11000
  141.0195  133.7049  156.1244 LP  0  0  0  0  0  0  0  0  0  0  0  0  # atno 17395 bound_to 11000

$$$$
