AV-unprocessed.smi:287|AV-procd|sdf|2195|dock8
  -GOLD-   2262022 03D 1   1.00000     0.00000
 Structure written by MMmdl.
 55 58  0  0  0  0  0  0  0  0  1 V2000
  141.4983  136.0685  162.9826 C   0  0  0  0  0  0  0  0  0  0  0  0
  142.9376  135.7369  162.7844 C   0  0  0  0  0  0  0  0  0  0  0  0
  144.0904  136.4644  162.8429 C   0  0  0  0  0  0  0  0  0  0  0  0
  145.1691  135.5789  162.5431 C   0  0  0  0  0  0  0  0  0  0  0  0
  146.6489  135.9359  162.4947 C   0  0  1  0  0  0  0  0  0  0  0  0
  146.8325  137.4222  162.8418 C   0  0  0  0  0  0  0  0  0  0  0  0
  147.4104  135.2256  163.4525 O   0  0  0  0  0  0  0  0  0  0  0  0
  147.2967  135.6273  161.1249 C   0  0  0  0  0  0  0  0  0  0  0  0
  146.8680  136.5430  160.0753 N   0  0  0  0  0  0  0  0  0  0  0  0
  147.7396  137.0000  159.1522 C   0  0  0  0  0  0  0  0  0  0  0  0
  148.8214  136.2152  158.9393 N   0  0  0  0  0  0  0  0  0  0  0  0
  149.7425  136.5745  158.0435 C   0  0  0  0  0  0  0  0  0  0  0  0
  149.7699  137.6585  157.2687 N   0  0  0  0  0  0  0  0  0  0  0  0
  148.6875  138.4646  157.4728 C   0  0  0  0  0  0  0  0  0  0  0  0
  147.6319  138.2066  158.3977 C   0  0  0  0  0  0  0  0  0  0  0  0
  146.7108  139.2448  158.3438 N   0  0  0  0  0  0  0  0  0  0  0  0
  147.1938  140.0588  157.4475 C   0  0  0  0  0  0  0  0  0  0  0  0
  148.3735  139.6666  156.8564 N   0  0  0  0  0  0  0  0  0  0  0  0
  149.1363  140.4512  155.8220 C   0  0  1  0  0  0  0  0  0  0  0  0
  149.5355  141.6563  156.3912 O   0  0  0  0  0  0  0  0  0  0  0  0
  150.8596  141.5357  156.8903 C   0  0  2  0  0  0  0  0  0  0  0  0
  151.5028  142.9271  156.9913 C   0  0  0  0  0  0  0  0  0  0  0  0
  150.6372  143.8126  157.6691 O   0  0  0  0  0  0  0  0  0  0  0  0
  151.5361  140.6237  155.8542 C   0  0  1  0  0  0  0  0  0  0  0  0
  152.5316  139.8327  156.4716 O   0  0  0  0  0  0  0  0  0  0  0  0
  150.4043  139.7465  155.3085 C   0  0  2  0  0  0  0  0  0  0  0  0
  150.4416  139.7306  153.8955 O   0  0  0  0  0  0  0  0  0  0  0  0
  144.5734  134.3568  162.3458 C   0  0  0  0  0  0  0  0  0  0  0  0
  145.0929  132.9934  162.0289 C   0  0  0  0  0  0  0  0  0  0  0  0
  143.2209  134.4447  162.4827 O   0  0  0  0  0  0  0  0  0  0  0  0
  148.3980  140.6324  155.0394 H   0  0  0  0  0  0  0  0  0  0  0  0
  150.8362  141.0563  157.8690 H   0  0  0  0  0  0  0  0  0  0  0  0
  151.9814  141.2238  155.0587 H   0  0  0  0  0  0  0  0  0  0  0  0
  150.4435  138.7151  155.6573 H   0  0  0  0  0  0  0  0  0  0  0  0
  141.3549  137.1464  163.0599 H   0  0  0  0  0  0  0  0  0  0  0  0
  141.1189  135.6104  163.8959 H   0  0  0  0  0  0  0  0  0  0  0  0
  140.8984  135.7078  162.1469 H   0  0  0  0  0  0  0  0  0  0  0  0
  144.1530  137.5188  163.0682 H   0  0  0  0  0  0  0  0  0  0  0  0
  146.3030  138.0605  162.1335 H   0  0  0  0  0  0  0  0  0  0  0  0
  147.8837  137.7117  162.8209 H   0  0  0  0  0  0  0  0  0  0  0  0
  146.4471  137.6480  163.8371 H   0  0  0  0  0  0  0  0  0  0  0  0
  146.9924  135.3165  164.2951 H   0  0  0  0  0  0  0  0  0  0  0  0
  148.3781  135.7280  161.2258 H   0  0  0  0  0  0  0  0  0  0  0  0
  147.1004  134.5962  160.8274 H   0  0  0  0  0  0  0  0  0  0  0  0
  145.9239  136.8911  160.1618 H   0  0  0  0  0  0  0  0  0  0  0  0
  150.5754  135.8966  157.9296 H   0  0  0  0  0  0  0  0  0  0  0  0
  146.6951  140.9820  157.1907 H   0  0  0  0  0  0  0  0  0  0  0  0
  152.4278  142.8706  157.5660 H   0  0  0  0  0  0  0  0  0  0  0  0
  151.7555  143.3211  156.0065 H   0  0  0  0  0  0  0  0  0  0  0  0
  149.9477  144.0721  157.0776 H   0  0  0  0  0  0  0  0  0  0  0  0
  152.3078  139.7277  157.3838 H   0  0  0  0  0  0  0  0  0  0  0  0
  149.6786  139.2701  153.5809 H   0  0  0  0  0  0  0  0  0  0  0  0
  145.9089  132.7251  162.6999 H   0  0  0  0  0  0  0  0  0  0  0  0
  145.4672  132.9517  161.0060 H   0  0  0  0  0  0  0  0  0  0  0  0
  144.3126  132.2388  162.1328 H   0  0  0  0  0  0  0  0  0  0  0  0
  1  2  1  0  0  0  0
  1 35  1  0  0  0  0
  1 36  1  0  0  0  0
  1 37  1  0  0  0  0
  2 30  1  0  0  0  0
  2  3  2  0  0  0  0
  3  4  1  0  0  0  0
  3 38  1  0  0  0  0
  4  5  1  0  0  0  0
  4 28  2  0  0  0  0
  5  6  1  0  0  0  0
  5  7  1  0  0  0  0
  5  8  1  0  0  0  0
  6 39  1  0  0  0  0
  6 40  1  0  0  0  0
  6 41  1  0  0  0  0
  7 42  1  0  0  0  0
  8  9  1  0  0  0  0
  8 43  1  0  0  0  0
  8 44  1  0  0  0  0
  9 10  1  0  0  0  0
  9 45  1  0  0  0  0
 10 15  1  0  0  0  0
 10 11  2  0  0  0  0
 11 12  1  0  0  0  0
 12 13  2  0  0  0  0
 12 46  1  0  0  0  0
 13 14  1  0  0  0  0
 14 18  1  0  0  0  0
 14 15  2  0  0  0  0
 15 16  1  0  0  0  0
 16 17  2  0  0  0  0
 17 18  1  0  0  0  0
 17 47  1  0  0  0  0
 18 19  1  0  0  0  0
 19 31  1  0  0  0  0
 19 26  1  0  0  0  0
 19 20  1  0  0  0  0
 20 21  1  0  0  0  0
 21 32  1  0  0  0  0
 21 22  1  0  0  0  0
 21 24  1  0  0  0  0
 22 23  1  0  0  0  0
 22 48  1  0  0  0  0
 22 49  1  0  0  0  0
 23 50  1  0  0  0  0
 24 33  1  0  0  0  0
 24 25  1  0  0  0  0
 24 26  1  0  0  0  0
 25 51  1  0  0  0  0
 26 34  1  0  0  0  0
 26 27  1  0  0  0  0
 27 52  1  0  0  0  0
 28 29  1  0  0  0  0
 28 30  1  0  0  0  0
 29 53  1  0  0  0  0
 29 54  1  0  0  0  0
 29 55  1  0  0  0  0
M  END
> <s_m_source_file>
AV-unprocessed.smi

> <i_m_source_file_index>
287

> <i_lp_mmshare_version>
43012

> <i_f3d_flags>
0

> <s_epik_input>
W0NIM11jMVtjSF1jKGMobzEpW0NIM10pW0NAQF0oW0NIM10pKFtPSF0pW0NIMl1bTkhdYyhuW2NIXW4yKWMoYzIzKW5bY0hdbjNbQ0BASF00T1tDQEhdKFtDSDJdW09IXSlbQ0BASF0oW09IXSlbQ0BIXTRbT0hd

> <s_epik_cmdline>
J2VwaWtfcHl0aG9uJywgJy1waCcsICc3LjAnLCAnLXRuJywgJzgnLCAnLW1hJywgJzIwMCcsICctbWV0YWxfYmluZGluZycsICctaW1hZScsICc8aW5maWxlLm1hZT4nLCAnLW9tYWUnLCAnPG91dGZpbGUubWFlPic=

> <r_lp_tautomer_probability>
1

> <r_epik_Ionization_Penalty>
0.000992612

> <r_epik_Ionization_Penalty_Charging>
0

> <r_epik_Ionization_Penalty_Neutral>
0.000992612

> <r_epik_State_Penalty>
-0

> <r_epik_Charging_Adjusted_Penalty>
0

> <i_epik_Tot_Q>
0

> <i_epik_Tot_abs_Q>
0

> <r_epik_Metal_State_Penalty>
-0

> <b_epik_Metal_Only>
0

> <s_epik_Chemistry_Notes>
This compound contains an acetal/aminal-like group ( X-CH(R)-Y where X, Y are N, S, or O) that may be acid/base labile, releasing an aldehyde.

> <s_lp_Force_Field>
OPLS_2005

> <r_lp_Energy>
36.8397

> <b_lp_Chiralities_Consistent>
1

> <s_lp_Variant>
AV-unprocessed.smi:287-19

> <Gold.Version>
5.8.1

> <Gold.Id.Protein>
6NUR|6NUR_protein|mol2

> <Gold.PLP.Fitness>
51.9502

> <Gold.PLP.PLP>
-43.8420

> <Gold.PLP.part.hbond>
-6.0891

> <Gold.PLP.part.metal>
0.0000

> <Gold.PLP.part.buried>
-6.6207

> <Gold.PLP.part.nonpolar>
-30.6863

> <Gold.PLP.part.repulsive>
0.2825

> <Gold.PLP.ligand.clash>
0.0000

> <Gold.PLP.ligand.torsion>
0.5085

> <Gold.PLP.Chemscore.Hbond>
3.0000

> <Gold.PLP.Chemscore.CHOScore>
0.0000

> <Gold.PLP.Chemscore.Metal>
0.0000

> <Gold.Chemscore.Hbonds>
donor molecule, donor type, donor heavy atom, donor atom, acceptor molecule, acceptor atom, score
      L1  H    23    50       P1  8028  1.00
      P1  H  7989  7998       L1    27  1.00
      P1  H  7997  8008       L1    25  1.00

> <Gold.PLP.Chemscore.Internal.Correction>
0.1252

> <Gold.Rescore>
     Score         DG    S(hbond)    S(metal)    S(lipo)     H(rot)  DE(clash)    DE(int)     intcor
      9.28     -11.19       2.78        0.00      84.80       5.27       0.01       1.89       ----

> <Gold.Chemscore.Fitness>
9.2824

> <Gold.Chemscore.DG>
-11.1862

> <Gold.Chemscore.ZeroCoef>
-5.4800

> <Gold.Chemscore.Hbond>
2.7752

> <Gold.Chemscore.Metal>
0.0000

> <Gold.Chemscore.Lipo>
84.7959

> <Gold.Chemscore.Internal_Hbond>
0.0000

> <Gold.Chemscore.DEClash>
0.0121

> <Gold.Chemscore.DEInternal>
1.8917

> <Gold.Chemscore.Rot>
5.2672

> <Gold.Chemscore.Internal.Correction>
   9.000000E+99

> <Gold.Chemscore.Hbonds>
donor molecule, donor type, donor heavy atom, donor atom, acceptor molecule, acceptor atom, score
      L1  H    23    50       P1  8028  0.85
      P1  H  7989  7998       L1    27  0.48
      P1  H  7997  8008       L1    25  0.78

> <Gold.Chemscore.Hbond.Weighted>
-9.2690

> <Gold.Chemscore.Metal.Weighted>
-0.0000

> <Gold.Chemscore.Lipo.Weighted>
-9.9211

> <Gold.Chemscore.Internal_Hbond.Weighted>
0.0000

> <Gold.Chemscore.DEClash.Weighted>
0.0121

> <Gold.Chemscore.DEInternal.Weighted>
1.8917

> <Gold.Chemscore.Rot.Weighted>
13.4839

> <Gold.Chemscore.Internal.Correction.Weighted>
   9.000000E+99

> <Gold.Protein.RotatedTorsions>
[ 6907 6896 6895 6894 ] final    9.73 input  -60.11 | X-H torsion
[ 7974 7965 7964 7962 ] final -142.99 input  175.53 | X-H torsion
[ 8008 7997 7996 7995 ] final  -38.56 input   59.86 | X-H torsion
[ 10167 10162 10161 10158 ] final   99.51 input  -65.29 | X-H torsion
[ 10718 10713 10712 10709 ] final  -61.75 input   66.30 | X-H torsion
[ 10763 10752 10751 10750 ] final   55.05 input  -60.55 | X-H torsion
[ 11005 11000 10999 10996 ] final   51.87 input  -57.11 | X-H torsion

> <Gold.Protein.ActiveResidues>
 VAL166  LYS551  ARG553  GLY616  TRP617  ASP618  TYR619  PRO620  LYS621  CYS622 
 ASP623  PHE694  ASN695  SER759  ASP760  ASP761  ALA762  ILE779  LEU786  VAL792 
 PHE793  MET794  SER795  GLU796  ALA797  LYS798  CYS799  TRP800  GLU811  SER814 

> <Gold.Protein.RotatedAtoms>
  151.7269  135.0883  160.0293 H   0  0  0  0  0  0  0  0  0  0  0  0  # atno 6907 bound_to 6896
  152.3566  133.6241  159.5992 H   0  0  0  0  0  0  0  0  0  0  0  0  # atno 6908 bound_to 6896
  150.7576  133.9406  159.3496 H   0  0  0  0  0  0  0  0  0  0  0  0  # atno 6909 bound_to 6896
  144.8402  140.5890  143.5457 H   0  0  0  0  0  0  0  0  0  0  0  0  # atno 7974 bound_to 7965
  154.4035  140.1574  156.2720 H   0  0  0  0  0  0  0  0  0  0  0  0  # atno 8008 bound_to 7997
  155.8945  140.3437  155.5958 H   0  0  0  0  0  0  0  0  0  0  0  0  # atno 8009 bound_to 7997
  155.7520  140.0806  157.2187 H   0  0  0  0  0  0  0  0  0  0  0  0  # atno 8010 bound_to 7997
  139.7611  144.6954  151.0291 H   0  0  0  0  0  0  0  0  0  0  0  0  # atno 10167 bound_to 10162
  156.0901  130.4201  150.1038 H   0  0  0  0  0  0  0  0  0  0  0  0  # atno 10718 bound_to 10713
  152.9812  135.5724  154.5003 H   0  0  0  0  0  0  0  0  0  0  0  0  # atno 10763 bound_to 10752
  154.4524  135.2779  155.1774 H   0  0  0  0  0  0  0  0  0  0  0  0  # atno 10764 bound_to 10752
  154.3396  135.6232  153.5643 H   0  0  0  0  0  0  0  0  0  0  0  0  # atno 10765 bound_to 10752
  140.0896  134.5227  155.8865 H   0  0  0  0  0  0  0  0  0  0  0  0  # atno 11005 bound_to 11000
  145.4709  139.1503  143.3814 LP  0  0  0  0  0  0  0  0  0  0  0  0  # atno 17320 bound_to 7965
  146.2696  140.4843  142.8820 LP  0  0  0  0  0  0  0  0  0  0  0  0  # atno 17321 bound_to 7965
  140.7807  143.4696  151.0164 LP  0  0  0  0  0  0  0  0  0  0  0  0  # atno 17342 bound_to 10162
  139.8382  143.7599  152.3180 LP  0  0  0  0  0  0  0  0  0  0  0  0  # atno 17343 bound_to 10162
  156.9050  130.9633  151.3571 LP  0  0  0  0  0  0  0  0  0  0  0  0  # atno 17370 bound_to 10713
  157.6047  130.8538  149.8857 LP  0  0  0  0  0  0  0  0  0  0  0  0  # atno 17371 bound_to 10713
  141.2074  133.6663  156.6301 LP  0  0  0  0  0  0  0  0  0  0  0  0  # atno 17394 bound_to 11000
  140.3370  134.7880  157.4369 LP  0  0  0  0  0  0  0  0  0  0  0  0  # atno 17395 bound_to 11000

$$$$
