AV-unprocessed.smi:966|AV-procd|sdf|4283|dock7
  -GOLD-   22720 2193D 1   1.00000     0.00000
 Structure written by MMmdl.
 30 31  0  0  0  0  0  0  0  0  2 V2000
  149.3819  139.3943  153.7616 C   0  0  0  0  0  0  0  0  0  0  0  0
  149.9531  139.8845  155.0798 C   0  0  0  0  0  0  0  0  0  0  0  0
  149.2476  140.9024  155.8251 C   0  0  0  0  0  0  0  0  0  0  0  0
  149.7848  141.3472  157.0175 C   0  0  0  0  0  0  0  0  0  0  0  0
  149.3367  142.1995  157.8201 O   0  5  0  0  0  0  0  0  0  0  0  0
  151.0240  140.8145  157.5085 N   0  0  0  0  0  0  0  0  0  0  0  0
  151.6314  141.2950  158.7843 C   0  0  0  0  0  0  0  0  0  0  0  0
  152.2479  142.7007  158.6367 C   0  0  2  0  0  0  0  0  0  0  0  0
  152.2880  143.4882  159.9458 C   0  0  0  0  0  0  0  0  0  0  0  0
  152.3035  144.9145  159.4466 C   0  0  0  0  0  0  0  0  0  0  0  0
  151.3469  144.8315  158.2622 C   0  0  0  0  0  0  0  0  0  0  0  0
  151.4838  143.5112  157.7446 O   0  0  0  0  0  0  0  0  0  0  0  0
  151.6941  139.8255  156.8354 C   0  0  0  0  0  0  0  0  0  0  0  0
  152.7397  139.3308  157.2643 O   0  0  0  0  0  0  0  0  0  0  0  0
  151.1051  139.3808  155.5687 C   0  0  0  0  0  0  0  0  0  0  0  0
  151.8335  138.3685  154.8712 C   0  0  0  0  0  0  0  0  0  0  0  0
  152.4156  137.5318  154.3210 N   0  0  0  0  0  0  0  0  0  0  0  0
  148.4572  139.9163  153.5138 H   0  0  0  0  0  0  0  0  0  0  0  0
  149.1629  138.3274  153.8145 H   0  0  0  0  0  0  0  0  0  0  0  0
  150.0916  139.5629  152.9513 H   0  0  0  0  0  0  0  0  0  0  0  0
  148.3117  141.3011  155.4613 H   0  0  0  0  0  0  0  0  0  0  0  0
  150.9121  141.3045  159.6046 H   0  0  0  0  0  0  0  0  0  0  0  0
  152.3857  140.5966  159.1496 H   0  0  0  0  0  0  0  0  0  0  0  0
  153.2609  142.6363  158.2372 H   0  0  0  0  0  0  0  0  0  0  0  0
  151.3847  143.3099  160.5312 H   0  0  0  0  0  0  0  0  0  0  0  0
  153.1514  143.2400  160.5635 H   0  0  0  0  0  0  0  0  0  0  0  0
  151.9914  145.6389  160.1994 H   0  0  0  0  0  0  0  0  0  0  0  0
  153.3044  145.1822  159.1055 H   0  0  0  0  0  0  0  0  0  0  0  0
  150.3171  144.9657  158.5950 H   0  0  0  0  0  0  0  0  0  0  0  0
  151.5581  145.5837  157.5020 H   0  0  0  0  0  0  0  0  0  0  0  0
  1  2  1  0  0  0  0
  1 18  1  0  0  0  0
  1 19  1  0  0  0  0
  1 20  1  0  0  0  0
  2 15  2  0  0  0  0
  2  3  1  0  0  0  0
  3  4  2  0  0  0  0
  3 21  1  0  0  0  0
  4  5  1  0  0  0  0
  4  6  1  0  0  0  0
  6  7  1  0  0  0  0
  6 13  1  0  0  0  0
  7  8  1  0  0  0  0
  7 22  1  0  0  0  0
  7 23  1  0  0  0  0
  8 12  1  0  0  0  0
  8  9  1  0  0  0  0
  8 24  1  0  0  0  0
  9 10  1  0  0  0  0
  9 25  1  0  0  0  0
  9 26  1  0  0  0  0
 10 11  1  0  0  0  0
 10 27  1  0  0  0  0
 10 28  1  0  0  0  0
 11 12  1  0  0  0  0
 11 29  1  0  0  0  0
 11 30  1  0  0  0  0
 13 14  2  0  0  0  0
 13 15  1  0  0  0  0
 15 16  1  0  0  0  0
 16 17  3  0  0  0  0
M  CHG  1   5  -1
M  END
> <s_m_source_file>
AV-unprocessed.smi

> <i_m_source_file_index>
966

> <i_lp_mmshare_version>
43012

> <i_f3d_flags>
0

> <s_epik_input>
W0NIM11jMVtjSF1jKFtPSF0pbihjKD1PKWMxQyNOKVtDSDJdW0NAQEhdMltDSDJdW0NIMl1bQ0gyXU8y

> <s_epik_cmdline>
J2VwaWtfcHl0aG9uJywgJy1waCcsICc3LjAnLCAnLXRuJywgJzgnLCAnLW1hJywgJzIwMCcsICctbWV0YWxfYmluZGluZycsICctaW1hZScsICc8aW5maWxlLm1hZT4nLCAnLW9tYWUnLCAnPG91dGZpbGUubWFlPic=

> <r_lp_tautomer_probability>
1

> <r_epik_Ionization_Penalty>
3.48555e-06

> <r_epik_Ionization_Penalty_Charging>
3.48554e-06

> <r_epik_Ionization_Penalty_Neutral>
1.71861e-11

> <r_epik_State_Penalty>
-0

> <r_epik_Charging_Adjusted_Penalty>
3.48554e-06

> <i_epik_Tot_Q>
-1

> <i_epik_Tot_abs_Q>
1

> <r_epik_Metal_State_Penalty>
-0

> <b_epik_Metal_Only>
0

> <s_lp_Force_Field>
OPLS_2005

> <r_lp_Energy>
36.1557

> <b_lp_Chiralities_Consistent>
1

> <s_lp_Variant>
AV-unprocessed.smi:966-1

> <Gold.Version>
5.8.1

> <Gold.Id.Protein>
6NUR|6NUR_protein|mol2

> <Gold.PLP.Fitness>
38.5377

> <Gold.PLP.PLP>
-34.6038

> <Gold.PLP.part.hbond>
-2.0000

> <Gold.PLP.part.metal>
0.0000

> <Gold.PLP.part.buried>
-1.2244

> <Gold.PLP.part.nonpolar>
-32.2492

> <Gold.PLP.part.repulsive>
0.3597

> <Gold.PLP.ligand.clash>
0.0000

> <Gold.PLP.ligand.torsion>
0.4460

> <Gold.PLP.Chemscore.Hbond>
1.6080

> <Gold.PLP.Chemscore.CHOScore>
0.0000

> <Gold.PLP.Chemscore.Metal>
0.0000

> <Gold.Chemscore.Hbonds>
donor molecule, donor type, donor heavy atom, donor atom, acceptor molecule, acceptor atom, score
      P1  H  7997  8008       L1    14  1.00
      P1  H 10752 10765       L1    17  0.61

> <Gold.PLP.Chemscore.Internal.Correction>
0.0018

> <Gold.Rescore>
     Score         DG    S(hbond)    S(metal)    S(lipo)     H(rot)  DE(clash)    DE(int)     intcor
     12.53     -17.63       1.61        0.00      85.27       1.25       1.67       3.43       ----

> <Gold.Chemscore.Fitness>
12.5320

> <Gold.Chemscore.DG>
-17.6270

> <Gold.Chemscore.ZeroCoef>
-5.4800

> <Gold.Chemscore.Hbond>
1.6089

> <Gold.Chemscore.Metal>
0.0000

> <Gold.Chemscore.Lipo>
85.2727

> <Gold.Chemscore.Internal_Hbond>
0.0000

> <Gold.Chemscore.DEClash>
1.6695

> <Gold.Chemscore.DEInternal>
3.4255

> <Gold.Chemscore.Rot>
1.2514

> <Gold.Chemscore.Internal.Correction>
   9.000000E+99

> <Gold.Chemscore.Hbonds>
donor molecule, donor type, donor heavy atom, donor atom, acceptor molecule, acceptor atom, score
      P1  H  7997  8008       L1    14  0.99
      P1  H 10752 10765       L1    17  0.61

> <Gold.Chemscore.Hbond.Weighted>
-5.3736

> <Gold.Chemscore.Metal.Weighted>
-0.0000

> <Gold.Chemscore.Lipo.Weighted>
-9.9769

> <Gold.Chemscore.Internal_Hbond.Weighted>
0.0000

> <Gold.Chemscore.DEClash.Weighted>
1.6695

> <Gold.Chemscore.DEInternal.Weighted>
3.4255

> <Gold.Chemscore.Rot.Weighted>
3.2036

> <Gold.Chemscore.Internal.Correction.Weighted>
   9.000000E+99

> <Gold.Protein.RotatedTorsions>
[ 6907 6896 6895 6894 ] final  176.35 input  -60.11 | X-H torsion
[ 7974 7965 7964 7962 ] final  -72.02 input  175.53 | X-H torsion
[ 8008 7997 7996 7995 ] final  -74.47 input   59.86 | X-H torsion
[ 10167 10162 10161 10158 ] final   33.83 input  -65.29 | X-H torsion
[ 10718 10713 10712 10709 ] final  144.36 input   66.30 | X-H torsion
[ 10763 10752 10751 10750 ] final  138.08 input  -60.55 | X-H torsion
[ 11005 11000 10999 10996 ] final   56.25 input  -57.11 | X-H torsion

> <Gold.Protein.ActiveResidues>
 VAL166  LYS551  ARG553  GLY616  TRP617  ASP618  TYR619  PRO620  LYS621  CYS622 
 ASP623  PHE694  ASN695  SER759  ASP760  ASP761  ALA762  ILE779  LEU786  VAL792 
 PHE793  MET794  SER795  GLU796  ALA797  LYS798  CYS799  TRP800  GLU811  SER814 

> <Gold.Protein.RotatedAtoms>
  151.7216  133.3314  159.3316 H   0  0  0  0  0  0  0  0  0  0  0  0  # atno 6907 bound_to 6896
  150.7650  134.6443  159.6263 H   0  0  0  0  0  0  0  0  0  0  0  0  # atno 6908 bound_to 6896
  152.3648  134.6822  160.0247 H   0  0  0  0  0  0  0  0  0  0  0  0  # atno 6909 bound_to 6896
  145.6706  140.9222  143.0885 H   0  0  0  0  0  0  0  0  0  0  0  0  # atno 7974 bound_to 7965
  154.5334  140.0761  156.8385 H   0  0  0  0  0  0  0  0  0  0  0  0  # atno 8008 bound_to 7997
  155.3328  140.3403  155.4221 H   0  0  0  0  0  0  0  0  0  0  0  0  # atno 8009 bound_to 7997
  156.1804  140.1650  156.8272 H   0  0  0  0  0  0  0  0  0  0  0  0  # atno 8010 bound_to 7997
  140.4371  144.1240  150.6168 H   0  0  0  0  0  0  0  0  0  0  0  0  # atno 10167 bound_to 10162
  157.3581  131.0961  151.0940 H   0  0  0  0  0  0  0  0  0  0  0  0  # atno 10718 bound_to 10713
  153.8838  135.3041  155.3446 H   0  0  0  0  0  0  0  0  0  0  0  0  # atno 10763 bound_to 10752
  154.7749  135.4866  153.9727 H   0  0  0  0  0  0  0  0  0  0  0  0  # atno 10764 bound_to 10752
  153.1336  135.6809  153.9235 H   0  0  0  0  0  0  0  0  0  0  0  0  # atno 10765 bound_to 10752
  140.0543  134.5692  155.9226 H   0  0  0  0  0  0  0  0  0  0  0  0  # atno 11005 bound_to 11000
  144.7058  139.8567  143.7430 LP  0  0  0  0  0  0  0  0  0  0  0  0  # atno 17320 bound_to 7965
  146.1049  139.4047  143.0324 LP  0  0  0  0  0  0  0  0  0  0  0  0  # atno 17321 bound_to 7965
  140.4360  143.2547  151.9534 LP  0  0  0  0  0  0  0  0  0  0  0  0  # atno 17342 bound_to 10162
  139.4787  144.5699  151.8105 LP  0  0  0  0  0  0  0  0  0  0  0  0  # atno 17343 bound_to 10162
  157.2090  130.6429  149.5767 LP  0  0  0  0  0  0  0  0  0  0  0  0  # atno 17370 bound_to 10713
  155.9733  130.4666  150.6295 LP  0  0  0  0  0  0  0  0  0  0  0  0  # atno 17371 bound_to 10713
  141.1945  133.6583  156.5598 LP  0  0  0  0  0  0  0  0  0  0  0  0  # atno 17394 bound_to 11000
  140.3868  134.7475  157.4696 LP  0  0  0  0  0  0  0  0  0  0  0  0  # atno 17395 bound_to 11000

$$$$
