AV-unprocessed.smi:40|AV-procd|sdf|382|dock7
  -GOLD-   2262016243D 1   1.00000     0.00000
 Structure written by MMmdl.
 47 48  0  0  0  0  0  0  0  0  1 V2000
  141.7934  134.6509  163.1522 C   0  0  0  0  0  0  0  0  0  0  0  0
  143.1306  135.3545  162.8857 C   0  0  0  0  0  0  0  0  0  0  0  0
  144.2856  134.3918  162.5654 C   0  0  0  0  0  0  0  0  0  0  0  0
  145.6665  135.0713  162.5281 C   0  0  0  0  0  0  0  0  0  0  0  0
  146.7720  134.1559  161.9850 C   0  0  0  0  0  0  0  0  0  0  0  0
  147.2752  134.6985  160.7762 O   0  0  0  0  0  0  0  0  0  0  0  0
  147.9986  135.8331  160.7830 C   0  0  0  0  0  0  0  0  0  0  0  0
  147.9575  136.6724  161.6823 O   0  0  0  0  0  0  0  0  0  0  0  0
  148.8615  135.9155  159.6168 N   0  0  0  0  0  0  0  0  0  0  0  0
  149.7280  136.9014  159.2803 C   0  0  0  0  0  0  0  0  0  0  0  0
  151.0079  136.8591  159.6171 N   0  0  0  0  0  0  0  0  0  0  0  0
  151.9183  137.8257  159.2860 C   0  0  0  0  0  0  0  0  0  0  0  0
  153.0871  137.7446  159.6613 O   0  0  0  0  0  0  0  0  0  0  0  0
  151.4554  138.9149  158.5119 N   0  0  0  0  0  0  0  0  0  0  0  0
  152.4261  140.0100  158.1377 C   0  0  1  0  0  0  0  0  0  0  0  0
  151.7156  141.0625  157.5516 O   0  0  0  0  0  0  0  0  0  0  0  0
  152.0507  142.2913  158.1869 C   0  0  1  0  0  0  0  0  0  0  0  0
  150.8723  143.2685  158.1013 C   0  0  0  0  0  0  0  0  0  0  0  0
  152.4192  141.8764  159.6101 C   0  0  2  0  0  0  0  0  0  0  0  0
  153.2146  142.8371  160.2784 O   0  0  0  0  0  0  0  0  0  0  0  0
  153.1325  140.5465  159.3940 C   0  0  2  0  0  0  0  0  0  0  0  0
  154.5215  140.7011  159.1673 O   0  0  0  0  0  0  0  0  0  0  0  0
  150.1192  138.9769  158.1440 C   0  0  0  0  0  0  0  0  0  0  0  0
  149.2408  138.0113  158.4900 C   0  0  0  0  0  0  0  0  0  0  0  0
  147.9518  138.0887  158.1161 F   0  0  0  0  0  0  0  0  0  0  0  0
  153.1023  139.5819  157.3954 H   0  0  0  0  0  0  0  0  0  0  0  0
  152.9236  142.7055  157.6794 H   0  0  0  0  0  0  0  0  0  0  0  0
  151.5109  141.7025  160.1890 H   0  0  0  0  0  0  0  0  0  0  0  0
  152.9983  139.8716  160.2406 H   0  0  0  0  0  0  0  0  0  0  0  0
  141.0260  135.3742  163.4281 H   0  0  0  0  0  0  0  0  0  0  0  0
  141.8817  133.9340  163.9687 H   0  0  0  0  0  0  0  0  0  0  0  0
  141.4373  134.1167  162.2716 H   0  0  0  0  0  0  0  0  0  0  0  0
  143.0140  136.0754  162.0758 H   0  0  0  0  0  0  0  0  0  0  0  0
  143.3971  135.9357  163.7690 H   0  0  0  0  0  0  0  0  0  0  0  0
  144.2935  133.6099  163.3253 H   0  0  0  0  0  0  0  0  0  0  0  0
  144.0941  133.8877  161.6176 H   0  0  0  0  0  0  0  0  0  0  0  0
  145.6177  135.9616  161.9014 H   0  0  0  0  0  0  0  0  0  0  0  0
  145.9386  135.4137  163.5272 H   0  0  0  0  0  0  0  0  0  0  0  0
  147.5767  134.0537  162.7144 H   0  0  0  0  0  0  0  0  0  0  0  0
  146.3686  133.1598  161.7981 H   0  0  0  0  0  0  0  0  0  0  0  0
  148.7696  135.1412  158.9755 H   0  0  0  0  0  0  0  0  0  0  0  0
  151.1096  144.2105  158.5961 H   0  0  0  0  0  0  0  0  0  0  0  0
  149.9811  142.8565  158.5753 H   0  0  0  0  0  0  0  0  0  0  0  0
  150.6251  143.4901  157.0631 H   0  0  0  0  0  0  0  0  0  0  0  0
  153.0702  142.7501  161.2083 H   0  0  0  0  0  0  0  0  0  0  0  0
  154.8643  141.3034  159.8097 H   0  0  0  0  0  0  0  0  0  0  0  0
  149.7515  139.8122  157.5667 H   0  0  0  0  0  0  0  0  0  0  0  0
  1  2  1  0  0  0  0
  1 30  1  0  0  0  0
  1 31  1  0  0  0  0
  1 32  1  0  0  0  0
  2  3  1  0  0  0  0
  2 33  1  0  0  0  0
  2 34  1  0  0  0  0
  3  4  1  0  0  0  0
  3 35  1  0  0  0  0
  3 36  1  0  0  0  0
  4  5  1  0  0  0  0
  4 37  1  0  0  0  0
  4 38  1  0  0  0  0
  5  6  1  0  0  0  0
  5 39  1  0  0  0  0
  5 40  1  0  0  0  0
  6  7  1  0  0  0  0
  7  8  2  0  0  0  0
  7  9  1  0  0  0  0
  9 10  1  0  0  0  0
  9 41  1  0  0  0  0
 10 24  1  0  0  0  0
 10 11  2  0  0  0  0
 11 12  1  0  0  0  0
 12 13  2  0  0  0  0
 12 14  1  0  0  0  0
 14 15  1  0  0  0  0
 14 23  1  0  0  0  0
 15 26  1  0  0  0  0
 15 21  1  0  0  0  0
 15 16  1  0  0  0  0
 16 17  1  0  0  0  0
 17 27  1  0  0  0  0
 17 18  1  0  0  0  0
 17 19  1  0  0  0  0
 18 42  1  0  0  0  0
 18 43  1  0  0  0  0
 18 44  1  0  0  0  0
 19 28  1  0  0  0  0
 19 20  1  0  0  0  0
 19 21  1  0  0  0  0
 20 45  1  0  0  0  0
 21 29  1  0  0  0  0
 21 22  1  0  0  0  0
 22 46  1  0  0  0  0
 23 24  2  0  0  0  0
 23 47  1  0  0  0  0
 24 25  1  0  0  0  0
M  END
> <s_m_source_file>
AV-unprocessed.smi

> <i_m_source_file_index>
40

> <i_lp_mmshare_version>
43012

> <i_f3d_flags>
0

> <s_epik_input>
W0NIM11bQ0gyXVtDSDJdW0NIMl1bQ0gyXU9DKD1PKVtOSF1jMW5jKD1PKW4oW2NIXWMxRilbQ0BASF0yT1tDQEhdKFtDSDNdKVtDQEBIXShbT0hdKVtDQEhdMltPSF0=

> <s_epik_cmdline>
J2VwaWtfcHl0aG9uJywgJy1waCcsICc3LjAnLCAnLXRuJywgJzgnLCAnLW1hJywgJzIwMCcsICctbWV0YWxfYmluZGluZycsICctaW1hZScsICc8aW5maWxlLm1hZT4nLCAnLW9tYWUnLCAnPG91dGZpbGUubWFlPic=

> <r_lp_tautomer_probability>
1

> <r_epik_Ionization_Penalty>
2.29506e-06

> <r_epik_Ionization_Penalty_Charging>
8.26867e-09

> <r_epik_Ionization_Penalty_Neutral>
2.2868e-06

> <r_epik_State_Penalty>
-0

> <r_epik_Charging_Adjusted_Penalty>
8.26867e-09

> <i_epik_Tot_Q>
0

> <i_epik_Tot_abs_Q>
0

> <r_epik_Metal_State_Penalty>
-0

> <b_epik_Metal_Only>
0

> <s_epik_Chemistry_Notes>
This compound has an ester and may undergo hydrolysis at high or low pH. This compound contains an acetal/aminal-like group ( X-CH(R)-Y where X, Y are N, S, or O) that may be acid/base labile, releasing an aldehyde.

> <s_lp_Force_Field>
OPLS_2005

> <r_lp_Energy>
35.629

> <b_lp_Chiralities_Consistent>
1

> <s_lp_Variant>
AV-unprocessed.smi:40-16

> <Gold.Version>
5.8.1

> <Gold.Id.Protein>
6NUR|6NUR_protein|mol2

> <Gold.PLP.Fitness>
44.0864

> <Gold.PLP.PLP>
-39.2451

> <Gold.PLP.part.hbond>
-3.0000

> <Gold.PLP.part.metal>
0.0000

> <Gold.PLP.part.buried>
-6.3569

> <Gold.PLP.part.nonpolar>
-30.5452

> <Gold.PLP.part.repulsive>
0.1666

> <Gold.PLP.ligand.clash>
0.0000

> <Gold.PLP.ligand.torsion>
1.6129

> <Gold.PLP.Chemscore.Hbond>
2.6552

> <Gold.PLP.Chemscore.CHOScore>
0.0000

> <Gold.PLP.Chemscore.Metal>
0.0000

> <Gold.Chemscore.Hbonds>
donor molecule, donor type, donor heavy atom, donor atom, acceptor molecule, acceptor atom, score
      P1  H  6896  6908       L1    11  1.00
      P1  H  6931  6943       L1     8  1.00
      P1  H  7997  8009       L1    22  0.66

> <Gold.PLP.Chemscore.Internal.Correction>
0.1014

> <Gold.Rescore>
     Score         DG    S(hbond)    S(metal)    S(lipo)     H(rot)  DE(clash)    DE(int)     intcor
      9.35     -13.60       2.60        0.00      75.91       3.70       0.24       4.02       ----

> <Gold.Chemscore.Fitness>
9.3498

> <Gold.Chemscore.DG>
-13.6006

> <Gold.Chemscore.ZeroCoef>
-5.4800

> <Gold.Chemscore.Hbond>
2.6047

> <Gold.Chemscore.Metal>
0.0000

> <Gold.Chemscore.Lipo>
75.9127

> <Gold.Chemscore.Internal_Hbond>
0.0000

> <Gold.Chemscore.DEClash>
0.2357

> <Gold.Chemscore.DEInternal>
4.0151

> <Gold.Chemscore.Rot>
3.6957

> <Gold.Chemscore.Internal.Correction>
   9.000000E+99

> <Gold.Chemscore.Hbonds>
donor molecule, donor type, donor heavy atom, donor atom, acceptor molecule, acceptor atom, score
      P1  H  6896  6908       L1    11  0.30
      P1  H  6931  6943       L1     8  1.00
      P1  H  7997  8009       L1    22  0.53

> <Gold.Chemscore.Hbond.Weighted>
-8.6998

> <Gold.Chemscore.Metal.Weighted>
-0.0000

> <Gold.Chemscore.Lipo.Weighted>
-8.8818

> <Gold.Chemscore.Internal_Hbond.Weighted>
0.0000

> <Gold.Chemscore.DEClash.Weighted>
0.2357

> <Gold.Chemscore.DEInternal.Weighted>
4.0151

> <Gold.Chemscore.Rot.Weighted>
9.4610

> <Gold.Chemscore.Internal.Correction.Weighted>
   9.000000E+99

> <Gold.Protein.RotatedTorsions>
[ 6907 6896 6895 6894 ] final -141.65 input  -60.11 | X-H torsion
[ 7974 7965 7964 7962 ] final -132.09 input  175.53 | X-H torsion
[ 8008 7997 7996 7995 ] final  120.61 input   59.86 | X-H torsion
[ 10167 10162 10161 10158 ] final -171.03 input  -65.29 | X-H torsion
[ 10718 10713 10712 10709 ] final -147.93 input   66.30 | X-H torsion
[ 10763 10752 10751 10750 ] final -173.38 input  -60.55 | X-H torsion
[ 11005 11000 10999 10996 ] final   78.10 input  -57.11 | X-H torsion

> <Gold.Protein.ActiveResidues>
 VAL166  LYS551  ARG553  GLY616  TRP617  ASP618  TYR619  PRO620  LYS621  CYS622 
 ASP623  PHE694  ASN695  SER759  ASP760  ASP761  ALA762  ILE779  LEU786  VAL792 
 PHE793  MET794  SER795  GLU796  ALA797  LYS798  CYS799  TRP800  GLU811  SER814 

> <Gold.Protein.RotatedAtoms>
  151.0765  133.5424  159.2623 H   0  0  0  0  0  0  0  0  0  0  0  0  # atno 6907 bound_to 6896
  151.2343  135.0565  159.9010 H   0  0  0  0  0  0  0  0  0  0  0  0  # atno 6908 bound_to 6896
  152.5418  134.0550  159.8180 H   0  0  0  0  0  0  0  0  0  0  0  0  # atno 6909 bound_to 6896
  144.9318  140.7137  143.4901 H   0  0  0  0  0  0  0  0  0  0  0  0  # atno 7974 bound_to 7965
  156.2650  140.2827  156.1177 H   0  0  0  0  0  0  0  0  0  0  0  0  # atno 8008 bound_to 7997
  155.1189  140.0392  157.2762 H   0  0  0  0  0  0  0  0  0  0  0  0  # atno 8009 bound_to 7997
  154.6686  140.2582  155.7038 H   0  0  0  0  0  0  0  0  0  0  0  0  # atno 8010 bound_to 7997
  139.5826  144.1388  152.1535 H   0  0  0  0  0  0  0  0  0  0  0  0  # atno 10167 bound_to 10162
  156.4138  130.7994  151.2214 H   0  0  0  0  0  0  0  0  0  0  0  0  # atno 10718 bound_to 10713
  154.6085  135.2862  155.0458 H   0  0  0  0  0  0  0  0  0  0  0  0  # atno 10763 bound_to 10752
  154.1697  135.6474  153.5010 H   0  0  0  0  0  0  0  0  0  0  0  0  # atno 10764 bound_to 10752
  153.0185  135.5398  154.6830 H   0  0  0  0  0  0  0  0  0  0  0  0  # atno 10765 bound_to 10752
  139.9226  134.7736  156.1607 H   0  0  0  0  0  0  0  0  0  0  0  0  # atno 11005 bound_to 11000
  145.3130  139.1812  143.4628 LP  0  0  0  0  0  0  0  0  0  0  0  0  # atno 17320 bound_to 7965
  146.3250  140.3138  142.8628 LP  0  0  0  0  0  0  0  0  0  0  0  0  # atno 17321 bound_to 7965
  140.0945  144.5592  150.7031 LP  0  0  0  0  0  0  0  0  0  0  0  0  # atno 17342 bound_to 10162
  140.7103  143.2499  151.4603 LP  0  0  0  0  0  0  0  0  0  0  0  0  # atno 17343 bound_to 10162
  157.7507  131.0249  150.3898 LP  0  0  0  0  0  0  0  0  0  0  0  0  # atno 17370 bound_to 10713
  156.4201  130.3951  149.6831 LP  0  0  0  0  0  0  0  0  0  0  0  0  # atno 17371 bound_to 10713
  141.0760  133.6775  156.2237 LP  0  0  0  0  0  0  0  0  0  0  0  0  # atno 17394 bound_to 11000
  140.6428  134.5148  157.5571 LP  0  0  0  0  0  0  0  0  0  0  0  0  # atno 17395 bound_to 11000

$$$$
