AV-unprocessed.smi:2257|AV-procd|sdf|9128|dock6
  -GOLD-   2272012333D 1   1.00000     0.00000
 Structure written by MMmdl.
 40 42  0  0  0  0  0  0  0  0  1 V2000
  144.3538  135.0409  154.7096 C   0  0  0  0  0  0  0  0  0  0  0  0
  145.2184  134.5617  153.6860 O   0  0  0  0  0  0  0  0  0  0  0  0
  144.9128  134.9796  152.3553 C   0  0  0  0  0  0  0  0  0  0  0  0
  144.9761  136.5104  152.2109 C   0  0  0  0  0  0  0  0  0  0  0  0
  146.3277  137.0180  152.4248 N   0  0  0  0  0  0  0  0  0  0  0  0
  146.6720  137.9920  153.2778 C   0  0  0  0  0  0  0  0  0  0  0  0
  145.8663  138.6021  153.9796 O   0  0  0  0  0  0  0  0  0  0  0  0
  147.9959  138.2179  153.2415 N   0  0  0  0  0  0  0  0  0  0  0  0
  148.7537  139.1430  154.0077 C   0  0  0  0  0  0  0  0  0  0  0  0
  148.0990  140.2533  154.5806 C   0  0  0  0  0  0  0  0  0  0  0  0
  148.7612  141.1801  155.3052 N   0  0  0  0  0  0  0  0  0  0  0  0
  150.0792  141.0097  155.4413 C   0  0  0  0  0  0  0  0  0  0  0  0
  150.8058  142.0176  156.2769 C   0  0  0  0  0  0  0  0  0  0  0  0
  151.6245  141.5888  157.4777 C   0  0  0  0  0  0  0  0  0  0  0  0
  150.3379  142.3388  157.6816 C   0  0  0  0  0  0  0  0  0  0  0  0
  150.8067  140.0036  154.9486 N   0  0  0  0  0  0  0  0  0  0  0  0
  150.1519  139.0700  154.2243 C   0  0  0  0  0  0  0  0  0  0  0  0
  145.7588  134.1307  151.3852 C   0  0  0  0  0  0  0  0  0  0  0  0
  144.5087  133.9386  150.5253 C   0  0  0  0  0  0  0  0  0  0  0  0
  143.6904  134.2302  151.7840 C   0  0  0  0  0  0  0  0  0  0  0  0
  144.6808  134.6375  155.6677 H   0  0  0  0  0  0  0  0  0  0  0  0
  143.3226  134.7232  154.5572 H   0  0  0  0  0  0  0  0  0  0  0  0
  144.3715  136.1263  154.7931 H   0  0  0  0  0  0  0  0  0  0  0  0
  144.6884  136.7992  151.1998 H   0  0  0  0  0  0  0  0  0  0  0  0
  144.2606  137.0122  152.8624 H   0  0  0  0  0  0  0  0  0  0  0  0
  147.0621  136.5792  151.8891 H   0  0  0  0  0  0  0  0  0  0  0  0
  148.5180  137.6929  152.5552 H   0  0  0  0  0  0  0  0  0  0  0  0
  147.0350  140.3987  154.4624 H   0  0  0  0  0  0  0  0  0  0  0  0
  151.1847  142.8361  155.6678 H   0  0  0  0  0  0  0  0  0  0  0  0
  151.6333  140.5319  157.7366 H   0  0  0  0  0  0  0  0  0  0  0  0
  152.5538  142.1221  157.6666 H   0  0  0  0  0  0  0  0  0  0  0  0
  150.4052  143.3743  158.0087 H   0  0  0  0  0  0  0  0  0  0  0  0
  149.4908  141.7801  158.0748 H   0  0  0  0  0  0  0  0  0  0  0  0
  150.7669  138.2854  153.8122 H   0  0  0  0  0  0  0  0  0  0  0  0
  146.5699  134.6620  150.8869 H   0  0  0  0  0  0  0  0  0  0  0  0
  146.1090  133.1950  151.8251 H   0  0  0  0  0  0  0  0  0  0  0  0
  144.3974  134.7061  149.7576 H   0  0  0  0  0  0  0  0  0  0  0  0
  144.3825  132.9348  150.1187 H   0  0  0  0  0  0  0  0  0  0  0  0
  143.4416  133.3178  152.3289 H   0  0  0  0  0  0  0  0  0  0  0  0
  142.8089  134.8499  151.6174 H   0  0  0  0  0  0  0  0  0  0  0  0
  1  2  1  0  0  0  0
  1 21  1  0  0  0  0
  1 22  1  0  0  0  0
  1 23  1  0  0  0  0
  2  3  1  0  0  0  0
  3 20  1  0  0  0  0
  3  4  1  0  0  0  0
  3 18  1  0  0  0  0
  4  5  1  0  0  0  0
  4 24  1  0  0  0  0
  4 25  1  0  0  0  0
  5  6  1  0  0  0  0
  5 26  1  0  0  0  0
  6  7  2  0  0  0  0
  6  8  1  0  0  0  0
  8  9  1  0  0  0  0
  8 27  1  0  0  0  0
  9 17  1  0  0  0  0
  9 10  2  0  0  0  0
 10 11  1  0  0  0  0
 10 28  1  0  0  0  0
 11 12  2  0  0  0  0
 12 13  1  0  0  0  0
 12 16  1  0  0  0  0
 13 15  1  0  0  0  0
 13 14  1  0  0  0  0
 13 29  1  0  0  0  0
 14 15  1  0  0  0  0
 14 30  1  0  0  0  0
 14 31  1  0  0  0  0
 15 32  1  0  0  0  0
 15 33  1  0  0  0  0
 16 17  2  0  0  0  0
 17 34  1  0  0  0  0
 18 19  1  0  0  0  0
 18 35  1  0  0  0  0
 18 36  1  0  0  0  0
 19 20  1  0  0  0  0
 19 37  1  0  0  0  0
 19 38  1  0  0  0  0
 20 39  1  0  0  0  0
 20 40  1  0  0  0  0
M  END
> <s_m_source_file>
AV-unprocessed.smi

> <i_m_source_file_index>
2257

> <i_lp_mmshare_version>
43012

> <i_f3d_flags>
0

> <s_epik_input>
W0NIMl0xW0NIMl1bQ0gyXUMxKE9bQ0gzXSlbQ0gyXVtOSF1DKD1PKVtOSF1jMltjSF1uYyhuW2NIXTIpW0NIXTNbQ0gyXVtDSDJdMw==

> <s_epik_cmdline>
J2VwaWtfcHl0aG9uJywgJy1waCcsICc3LjAnLCAnLXRuJywgJzgnLCAnLW1hJywgJzIwMCcsICctbWV0YWxfYmluZGluZycsICctaW1hZScsICc8aW5maWxlLm1hZT4nLCAnLW9tYWUnLCAnPG91dGZpbGUubWFlPic=

> <r_lp_tautomer_probability>
1

> <r_epik_Ionization_Penalty>
2.49679e-05

> <r_epik_Ionization_Penalty_Charging>
0

> <r_epik_Ionization_Penalty_Neutral>
2.49679e-05

> <r_epik_State_Penalty>
-0

> <r_epik_Charging_Adjusted_Penalty>
0

> <i_epik_Tot_Q>
0

> <i_epik_Tot_abs_Q>
0

> <r_epik_Metal_State_Penalty>
-0

> <b_epik_Metal_Only>
0

> <s_lp_Force_Field>
OPLS_2005

> <r_lp_Energy>
15.4086

> <b_lp_Chiralities_Consistent>
1

> <s_lp_Variant>
AV-unprocessed.smi:2257-1

> <Gold.Version>
5.8.1

> <Gold.Id.Protein>
6NUR|6NUR_protein|mol2

> <Gold.PLP.Fitness>
37.4290

> <Gold.PLP.PLP>
-29.4927

> <Gold.PLP.part.hbond>
-3.5627

> <Gold.PLP.part.metal>
0.0000

> <Gold.PLP.part.buried>
-4.5293

> <Gold.PLP.part.nonpolar>
-22.6081

> <Gold.PLP.part.repulsive>
0.4736

> <Gold.PLP.ligand.clash>
0.0000

> <Gold.PLP.ligand.torsion>
0.3493

> <Gold.PLP.Chemscore.Hbond>
2.7460

> <Gold.PLP.Chemscore.CHOScore>
0.0000

> <Gold.PLP.Chemscore.Metal>
0.0000

> <Gold.Chemscore.Hbonds>
donor molecule, donor type, donor heavy atom, donor atom, acceptor molecule, acceptor atom, score
      L1  H     5    26       P1  7948  0.90
      L1  H     8    27       P1  7948  1.00
      P1  H  7989  7998       L1    16  0.85

> <Gold.PLP.Chemscore.Internal.Correction>
0.3968

> <Gold.Rescore>
     Score         DG    S(hbond)    S(metal)    S(lipo)     H(rot)  DE(clash)    DE(int)     intcor
     13.76     -15.46       1.89        0.00      66.71       1.62       0.01       1.69       ----

> <Gold.Chemscore.Fitness>
13.7571

> <Gold.Chemscore.DG>
-15.4586

> <Gold.Chemscore.ZeroCoef>
-5.4800

> <Gold.Chemscore.Hbond>
1.8947

> <Gold.Chemscore.Metal>
0.0000

> <Gold.Chemscore.Lipo>
66.7076

> <Gold.Chemscore.Internal_Hbond>
0.0000

> <Gold.Chemscore.DEClash>
0.0137

> <Gold.Chemscore.DEInternal>
1.6878

> <Gold.Chemscore.Rot>
1.6229

> <Gold.Chemscore.Internal.Correction>
   9.000000E+99

> <Gold.Chemscore.Hbonds>
donor molecule, donor type, donor heavy atom, donor atom, acceptor molecule, acceptor atom, score
      L1  H     5    26       P1  7948  0.88
      L1  H     8    27       P1  7948  0.96
      P1  H  7989  7998       L1    16  0.04

> <Gold.Chemscore.Hbond.Weighted>
-6.3284

> <Gold.Chemscore.Metal.Weighted>
-0.0000

> <Gold.Chemscore.Lipo.Weighted>
-7.8048

> <Gold.Chemscore.Internal_Hbond.Weighted>
0.0000

> <Gold.Chemscore.DEClash.Weighted>
0.0137

> <Gold.Chemscore.DEInternal.Weighted>
1.6878

> <Gold.Chemscore.Rot.Weighted>
4.1545

> <Gold.Chemscore.Internal.Correction.Weighted>
   9.000000E+99

> <Gold.Protein.RotatedTorsions>
[ 6907 6896 6895 6894 ] final -100.04 input  -60.11 | X-H torsion
[ 7974 7965 7964 7962 ] final  -20.30 input  175.53 | X-H torsion
[ 8008 7997 7996 7995 ] final  -16.37 input   59.86 | X-H torsion
[ 10167 10162 10161 10158 ] final   30.05 input  -65.29 | X-H torsion
[ 10718 10713 10712 10709 ] final   73.17 input   66.30 | X-H torsion
[ 10763 10752 10751 10750 ] final -119.37 input  -60.55 | X-H torsion
[ 11005 11000 10999 10996 ] final  -18.86 input  -57.11 | X-H torsion

> <Gold.Protein.ActiveResidues>
 VAL166  LYS551  ARG553  GLY616  TRP617  ASP618  TYR619  PRO620  LYS621  CYS622 
 ASP623  PHE694  ASN695  SER759  ASP760  ASP761  ALA762  ILE779  LEU786  VAL792 
 PHE793  MET794  SER795  GLU796  ALA797  LYS798  CYS799  TRP800  GLU811  SER814 

> <Gold.Protein.RotatedAtoms>
  150.7101  134.0948  159.3944 H   0  0  0  0  0  0  0  0  0  0  0  0  # atno 6907 bound_to 6896
  151.8933  135.0405  160.0509 H   0  0  0  0  0  0  0  0  0  0  0  0  # atno 6908 bound_to 6896
  152.2473  133.5150  159.5341 H   0  0  0  0  0  0  0  0  0  0  0  0  # atno 6909 bound_to 6896
  146.1795  140.4183  142.8500 H   0  0  0  0  0  0  0  0  0  0  0  0  # atno 7974 bound_to 7965
  154.5058  140.2171  155.9254 H   0  0  0  0  0  0  0  0  0  0  0  0  # atno 8008 bound_to 7997
  156.1492  140.3165  155.8587 H   0  0  0  0  0  0  0  0  0  0  0  0  # atno 8009 bound_to 7997
  155.3972  140.0482  157.3029 H   0  0  0  0  0  0  0  0  0  0  0  0  # atno 8010 bound_to 7997
  140.4712  144.0760  150.6238 H   0  0  0  0  0  0  0  0  0  0  0  0  # atno 10167 bound_to 10162
  157.6535  130.9615  150.1031 H   0  0  0  0  0  0  0  0  0  0  0  0  # atno 10718 bound_to 10713
  154.8615  135.4240  154.2289 H   0  0  0  0  0  0  0  0  0  0  0  0  # atno 10763 bound_to 10752
  153.3278  135.6986  153.6980 H   0  0  0  0  0  0  0  0  0  0  0  0  # atno 10764 bound_to 10752
  153.6009  135.3537  155.2918 H   0  0  0  0  0  0  0  0  0  0  0  0  # atno 10765 bound_to 10752
  140.8310  133.7997  155.9759 H   0  0  0  0  0  0  0  0  0  0  0  0  # atno 11005 bound_to 11000
  144.8292  140.6678  143.6302 LP  0  0  0  0  0  0  0  0  0  0  0  0  # atno 17320 bound_to 7965
  145.4116  139.1579  143.4123 LP  0  0  0  0  0  0  0  0  0  0  0  0  # atno 17321 bound_to 7965
  140.3975  143.2721  151.9988 LP  0  0  0  0  0  0  0  0  0  0  0  0  # atno 17342 bound_to 10162
  139.4819  144.6026  151.7579 LP  0  0  0  0  0  0  0  0  0  0  0  0  # atno 17343 bound_to 10162
  156.1948  130.3657  149.8863 LP  0  0  0  0  0  0  0  0  0  0  0  0  # atno 17370 bound_to 10713
  156.6782  130.8847  151.3572 LP  0  0  0  0  0  0  0  0  0  0  0  0  # atno 17371 bound_to 10713
  140.8998  134.2393  157.5048 LP  0  0  0  0  0  0  0  0  0  0  0  0  # atno 17394 bound_to 11000
  139.8705  134.9701  156.4689 LP  0  0  0  0  0  0  0  0  0  0  0  0  # atno 17395 bound_to 11000

$$$$
