AV-unprocessed.smi:1392|AV-procd|sdf|5661|dock3
  -GOLD-   22720 5283D 1   1.00000     0.00000
 Structure written by MMmdl.
 39 40  0  0  0  0  0  0  0  0  1 V2000
  143.6809  132.4787  149.3797 C   0  0  0  0  0  0  0  0  0  0  0  0
  144.2937  132.7622  150.6716 N   0  0  0  0  0  0  0  0  0  0  0  0
  144.7120  131.6629  151.5354 C   0  0  0  0  0  0  0  0  0  0  0  0
  144.4646  134.0988  151.1002 C   0  0  0  0  0  0  0  0  0  0  0  0
  143.5074  134.7395  151.9256 C   0  0  0  0  0  0  0  0  0  0  0  0
  143.7232  136.0711  152.3292 C   0  0  0  0  0  0  0  0  0  0  0  0
  144.8971  136.7350  151.9053 C   0  0  0  0  0  0  0  0  0  0  0  0
  145.2201  138.0806  152.2289 N   0  0  0  0  0  0  0  0  0  0  0  0
  146.4334  138.6511  152.3221 C   0  0  0  0  0  0  0  0  0  0  0  0
  147.5054  138.0866  152.1055 O   0  0  0  0  0  0  0  0  0  0  0  0
  146.3362  139.9421  152.6696 N   0  0  0  0  0  0  0  0  0  0  0  0
  147.4656  140.8484  152.8490 C   0  0  0  0  0  0  0  0  0  0  0  0
  148.3310  140.4633  154.0640 C   0  0  2  0  0  0  0  0  0  0  0  0
  149.2883  141.5421  154.5309 C   0  0  0  0  0  0  0  0  0  0  0  0
  150.2870  140.7375  155.3570 C   0  0  0  0  0  0  0  0  0  0  0  0
  150.3447  139.4492  154.7512 O   0  0  0  0  0  0  0  0  0  0  0  0
  149.2959  139.3087  153.7972 C   0  0  0  0  0  0  0  0  0  0  0  0
  145.7832  136.0228  151.0741 C   0  0  0  0  0  0  0  0  0  0  0  0
  145.5809  134.7468  150.6859 N   0  0  0  0  0  0  0  0  0  0  0  0
  144.2730  132.9097  148.5719 H   0  0  0  0  0  0  0  0  0  0  0  0
  142.6729  132.8920  149.3345 H   0  0  0  0  0  0  0  0  0  0  0  0
  143.6079  131.4059  149.2013 H   0  0  0  0  0  0  0  0  0  0  0  0
  145.7798  131.7263  151.7464 H   0  0  0  0  0  0  0  0  0  0  0  0
  144.5215  130.6960  151.0703 H   0  0  0  0  0  0  0  0  0  0  0  0
  144.1693  131.6910  152.4806 H   0  0  0  0  0  0  0  0  0  0  0  0
  142.6092  134.2396  152.2546 H   0  0  0  0  0  0  0  0  0  0  0  0
  142.9786  136.5557  152.9411 H   0  0  0  0  0  0  0  0  0  0  0  0
  144.4295  138.6955  152.3553 H   0  0  0  0  0  0  0  0  0  0  0  0
  145.4155  140.3266  152.8226 H   0  0  0  0  0  0  0  0  0  0  0  0
  148.0744  140.8670  151.9435 H   0  0  0  0  0  0  0  0  0  0  0  0
  147.0709  141.8572  152.9737 H   0  0  0  0  0  0  0  0  0  0  0  0
  147.6869  140.1847  154.8998 H   0  0  0  0  0  0  0  0  0  0  0  0
  149.7912  142.0007  153.6784 H   0  0  0  0  0  0  0  0  0  0  0  0
  148.8014  142.3302  155.1062 H   0  0  0  0  0  0  0  0  0  0  0  0
  151.2705  141.2061  155.3934 H   0  0  0  0  0  0  0  0  0  0  0  0
  149.9279  140.6227  156.3804 H   0  0  0  0  0  0  0  0  0  0  0  0
  148.8124  138.3348  153.8779 H   0  0  0  0  0  0  0  0  0  0  0  0
  149.7293  139.3886  152.7995 H   0  0  0  0  0  0  0  0  0  0  0  0
  146.6879  136.4879  150.7109 H   0  0  0  0  0  0  0  0  0  0  0  0
  1  2  1  0  0  0  0
  1 20  1  0  0  0  0
  1 21  1  0  0  0  0
  1 22  1  0  0  0  0
  2  3  1  0  0  0  0
  2  4  1  0  0  0  0
  3 23  1  0  0  0  0
  3 24  1  0  0  0  0
  3 25  1  0  0  0  0
  4 19  1  0  0  0  0
  4  5  2  0  0  0  0
  5  6  1  0  0  0  0
  5 26  1  0  0  0  0
  6  7  2  0  0  0  0
  6 27  1  0  0  0  0
  7  8  1  0  0  0  0
  7 18  1  0  0  0  0
  8  9  1  0  0  0  0
  8 28  1  0  0  0  0
  9 10  2  0  0  0  0
  9 11  1  0  0  0  0
 11 12  1  0  0  0  0
 11 29  1  0  0  0  0
 12 13  1  0  0  0  0
 12 30  1  0  0  0  0
 12 31  1  0  0  0  0
 13 17  1  0  0  0  0
 13 14  1  0  0  0  0
 13 32  1  0  0  0  0
 14 15  1  0  0  0  0
 14 33  1  0  0  0  0
 14 34  1  0  0  0  0
 15 16  1  0  0  0  0
 15 35  1  0  0  0  0
 15 36  1  0  0  0  0
 16 17  1  0  0  0  0
 17 37  1  0  0  0  0
 17 38  1  0  0  0  0
 18 19  2  0  0  0  0
 18 39  1  0  0  0  0
M  END
> <s_m_source_file>
AV-unprocessed.smi

> <i_m_source_file_index>
1392

> <i_lp_mmshare_version>
43012

> <i_f3d_flags>
0

> <s_epik_input>
W0NIM11OKFtDSDNdKWMxW2NIXVtjSF1jKFtjSF1uMSlbTkhdQyg9TylbTkhdW0NIMl1bQ0BASF0yW0NIMl1bQ0gyXU9bQ0gyXTI=

> <s_epik_cmdline>
J2VwaWtfcHl0aG9uJywgJy1waCcsICc3LjAnLCAnLXRuJywgJzgnLCAnLW1hJywgJzIwMCcsICctbWV0YWxfYmluZGluZycsICctaW1hZScsICc8aW5maWxlLm1hZT4nLCAnLW9tYWUnLCAnPG91dGZpbGUubWFlPic=

> <r_lp_tautomer_probability>
1

> <r_epik_Ionization_Penalty>
0.612298

> <r_epik_Ionization_Penalty_Charging>
0

> <r_epik_Ionization_Penalty_Neutral>
0.612298

> <r_epik_State_Penalty>
0.626495

> <r_epik_Charging_Adjusted_Penalty>
0.626495

> <i_epik_Tot_Q>
0

> <i_epik_Tot_abs_Q>
0

> <r_epik_Metal_State_Penalty>
0.304101

> <b_epik_Metal_Only>
0

> <s_lp_Force_Field>
OPLS_2005

> <r_lp_Energy>
22.6053

> <b_lp_Chiralities_Consistent>
1

> <s_lp_Variant>
AV-unprocessed.smi:1392-3

> <Gold.Version>
5.8.1

> <Gold.Id.Protein>
6NUR|6NUR_protein|mol2

> <Gold.PLP.Fitness>
37.1129

> <Gold.PLP.PLP>
-31.7675

> <Gold.PLP.part.hbond>
-3.0000

> <Gold.PLP.part.metal>
0.0000

> <Gold.PLP.part.buried>
-2.7129

> <Gold.PLP.part.nonpolar>
-32.8311

> <Gold.PLP.part.repulsive>
5.9177

> <Gold.PLP.ligand.clash>
0.0085

> <Gold.PLP.ligand.torsion>
1.8236

> <Gold.PLP.Chemscore.Hbond>
2.0000

> <Gold.PLP.Chemscore.CHOScore>
0.9940

> <Gold.PLP.Chemscore.Metal>
0.0000

> <Gold.Chemscore.Hbonds>
donor molecule, donor type, donor heavy atom, donor atom, acceptor molecule, acceptor atom, score
      L1  H     8    28       P1 10175  1.00
      L1  H    11    29       P1 10175  1.00
      P1  H  7954  7966       L1    10  0.31
      L1  C    18    39       P1  7948  0.89

> <Gold.PLP.Chemscore.Internal.Correction>
0.0192

> <Gold.Rescore>
     Score         DG    S(hbond)    S(metal)    S(lipo)     H(rot)  DE(clash)    DE(int)     intcor
     10.65     -17.15       1.88        0.00      72.79       1.21       1.98       4.52       ----

> <Gold.Chemscore.Fitness>
10.6516

> <Gold.Chemscore.DG>
-17.1500

> <Gold.Chemscore.ZeroCoef>
-5.4800

> <Gold.Chemscore.Hbond>
1.8751

> <Gold.Chemscore.Metal>
0.0000

> <Gold.Chemscore.Lipo>
72.7914

> <Gold.Chemscore.Internal_Hbond>
0.0000

> <Gold.Chemscore.DEClash>
1.9807

> <Gold.Chemscore.DEInternal>
4.5177

> <Gold.Chemscore.Rot>
1.2146

> <Gold.Chemscore.Internal.Correction>
   9.000000E+99

> <Gold.Chemscore.Hbonds>
donor molecule, donor type, donor heavy atom, donor atom, acceptor molecule, acceptor atom, score
      L1  H     8    28       P1 10175  0.96
      L1  H    11    29       P1 10175  0.88
      P1  H  7954  7966       L1    10  0.29

> <Gold.Chemscore.Hbond.Weighted>
-6.2627

> <Gold.Chemscore.Metal.Weighted>
-0.0000

> <Gold.Chemscore.Lipo.Weighted>
-8.5166

> <Gold.Chemscore.Internal_Hbond.Weighted>
0.0000

> <Gold.Chemscore.DEClash.Weighted>
1.9807

> <Gold.Chemscore.DEInternal.Weighted>
4.5177

> <Gold.Chemscore.Rot.Weighted>
3.1093

> <Gold.Chemscore.Internal.Correction.Weighted>
   9.000000E+99

> <Gold.Protein.RotatedTorsions>
[ 6907 6896 6895 6894 ] final  131.45 input  -60.11 | X-H torsion
[ 7974 7965 7964 7962 ] final   -7.58 input  175.53 | X-H torsion
[ 8008 7997 7996 7995 ] final  -61.01 input   59.86 | X-H torsion
[ 10167 10162 10161 10158 ] final  -14.58 input  -65.29 | X-H torsion
[ 10718 10713 10712 10709 ] final  -49.50 input   66.30 | X-H torsion
[ 10763 10752 10751 10750 ] final    8.02 input  -60.55 | X-H torsion
[ 11005 11000 10999 10996 ] final -168.67 input  -57.11 | X-H torsion

> <Gold.Protein.ActiveResidues>
 VAL166  LYS551  ARG553  GLY616  TRP617  ASP618  TYR619  PRO620  LYS621  CYS622 
 ASP623  PHE694  ASN695  SER759  ASP760  ASP761  ALA762  ILE779  LEU786  VAL792 
 PHE793  MET794  SER795  GLU796  ALA797  LYS798  CYS799  TRP800  GLU811  SER814 

> <Gold.Protein.RotatedAtoms>
  152.3425  133.6083  159.5886 H   0  0  0  0  0  0  0  0  0  0  0  0  # atno 6907 bound_to 6896
  150.7487  133.9700  159.3551 H   0  0  0  0  0  0  0  0  0  0  0  0  # atno 6908 bound_to 6896
  151.7562  135.0821  160.0389 H   0  0  0  0  0  0  0  0  0  0  0  0  # atno 6909 bound_to 6896
  146.2303  140.2341  142.8341 H   0  0  0  0  0  0  0  0  0  0  0  0  # atno 7974 bound_to 7965
  154.4426  140.1027  156.6363 H   0  0  0  0  0  0  0  0  0  0  0  0  # atno 8008 bound_to 7997
  155.5550  140.3486  155.4459 H   0  0  0  0  0  0  0  0  0  0  0  0  # atno 8009 bound_to 7997
  156.0501  140.1302  157.0049 H   0  0  0  0  0  0  0  0  0  0  0  0  # atno 8010 bound_to 7997
  140.7204  143.5307  150.9523 H   0  0  0  0  0  0  0  0  0  0  0  0  # atno 10167 bound_to 10162
  156.1888  130.4152  149.9401 H   0  0  0  0  0  0  0  0  0  0  0  0  # atno 10718 bound_to 10713
  153.2297  135.6891  153.7904 H   0  0  0  0  0  0  0  0  0  0  0  0  # atno 10763 bound_to 10752
  153.7073  135.3288  155.3239 H   0  0  0  0  0  0  0  0  0  0  0  0  # atno 10764 bound_to 10752
  154.8308  135.4582  154.1177 H   0  0  0  0  0  0  0  0  0  0  0  0  # atno 10765 bound_to 10752
  140.5394  134.5538  157.5096 H   0  0  0  0  0  0  0  0  0  0  0  0  # atno 11005 bound_to 11000
  144.9535  140.8203  143.5557 LP  0  0  0  0  0  0  0  0  0  0  0  0  # atno 17320 bound_to 7965
  145.2304  139.2117  143.5046 LP  0  0  0  0  0  0  0  0  0  0  0  0  # atno 17321 bound_to 7965
  139.9027  143.6816  152.3128 LP  0  0  0  0  0  0  0  0  0  0  0  0  # atno 17342 bound_to 10162
  139.7171  144.7610  151.1016 LP  0  0  0  0  0  0  0  0  0  0  0  0  # atno 17343 bound_to 10162
  156.7148  130.8984  151.3613 LP  0  0  0  0  0  0  0  0  0  0  0  0  # atno 17370 bound_to 10713
  157.6916  130.9239  150.0528 LP  0  0  0  0  0  0  0  0  0  0  0  0  # atno 17371 bound_to 10713
  139.9512  134.7614  156.0444 LP  0  0  0  0  0  0  0  0  0  0  0  0  # atno 17394 bound_to 11000
  141.1236  133.6605  156.3278 LP  0  0  0  0  0  0  0  0  0  0  0  0  # atno 17395 bound_to 11000

$$$$
