#       Name:                AV-unprocessed.smi:2078
#       Creating user name   scv26
#       Creation time:       Fri Mar 27 11:16:44 2020


#       File generated by GOLD software.
#

@<TRIPOS>MOLECULE
AV-unprocessed.smi:2078
    47    48     1
SMALL
NO_CHARGES


@<TRIPOS>ATOM
      1 ****        -7.0675   2.8483   1.3990 C.3            1 S1                 0.0000
      2 ****        -6.1302   1.8539   0.8039 C.2            1 S1                 0.0000
      3 ****        -5.2968   0.9208   1.3522 C.2            1 S1                 0.0000
      4 ****        -4.6906   0.3188   0.2160 C.2            1 S1                 0.0000
      5 ****        -3.7913  -0.6771   0.2360 N.pl3          1 S1                -1.0000
      6 ****        -2.4776  -0.4047   0.4048 C.2            1 S1                 0.0000
      7 ****        -1.9737   0.7109   0.5567 O.2            1 S1                 0.0000
      8 ****        -1.6957  -1.4937   0.3938 N.am           1 S1                 0.0000
      9 ****        -0.2453  -1.4985   0.5411 C.3            1 S1                 0.0000
     10 ****         0.4502  -1.0772  -0.7670 C.3            1 S1                 0.0000
     11 ****         1.9295  -1.1050  -0.6530 N.4            1 S1                 1.0000
     12 ****         2.5897  -1.2726  -1.9731 C.3            1 S1                 0.0000
     13 ****         4.1104  -1.4338  -1.8165 C.3            1 S1                 0.0000
     14 ****         4.7130  -0.2481  -1.0527 C.3            1 S1                 0.0000
     15 ****         4.0016  -0.0676   0.2989 C.3            1 S1                 0.0000
     16 ****         4.5660   1.1316   1.0738 C.3            1 S1                 0.0000
     17 ****         2.4793   0.0623   0.0884 C.3            1 S1                 0.0000
     18 ****        -5.1291   0.8304  -0.9219 N.2            1 S1                 0.0000
     19 ****        -6.0494   1.8192  -0.5535 O.3            1 S1                 0.0000
     20 ****        -7.9996   2.3682   1.6970 H              1 S1                 0.0000
     21 ****        -7.3060   3.6382   0.6864 H              1 S1                 0.0000
     22 ****        -6.6283   3.3128   2.2820 H              1 S1                 0.0000
     23 ****        -5.1420   0.7052   2.3987 H              1 S1                 0.0000
     24 ****        -2.1485  -2.3877   0.2690 H              1 S1                 0.0000
     25 ****         0.0314  -0.8516   1.3738 H              1 S1                 0.0000
     26 ****         0.0625  -2.5071   0.8174 H              1 S1                 0.0000
     27 ****         0.1336  -1.7675  -1.5503 H              1 S1                 0.0000
     28 ****         0.1277  -0.0849  -1.0863 H              1 S1                 0.0000
     29 ****         2.1891  -2.1528  -2.4774 H              1 S1                 0.0000
     30 ****         2.3638  -0.4130  -2.6062 H              1 S1                 0.0000
     31 ****         4.3283  -2.3616  -1.2858 H              1 S1                 0.0000
     32 ****         4.5785  -1.5213  -2.7975 H              1 S1                 0.0000
     33 ****         5.7811  -0.4087  -0.9011 H              1 S1                 0.0000
     34 ****         4.6155   0.6598  -1.6499 H              1 S1                 0.0000
     35 ****         4.1837  -0.9609   0.8986 H              1 S1                 0.0000
     36 ****         4.4161   2.0634   0.5275 H              1 S1                 0.0000
     37 ****         5.6360   1.0174   1.2495 H              1 S1                 0.0000
     38 ****         4.0823   1.2348   2.0456 H              1 S1                 0.0000
     39 ****         2.2509   0.9789  -0.4584 H              1 S1                 0.0000
     40 ****         1.9947   0.1500   1.0602 H              1 S1                 0.0000
     41 ****         2.1573  -1.9306  -0.1177 H              1 S1                 0.0000
     42 ****        -4.0937  -1.6238   0.1256 LP             1 S1                 0.0000
     43 ****        -2.5542   1.5252   0.5626 LP             1 S1                 0.0000
     44 ****        -0.9847   0.8011   0.6738 LP             1 S1                 0.0000
     45 ****        -4.8605   0.5671  -1.8485 LP             1 S1                 0.0000
     46 ****        -5.7439   2.7079  -0.8955 LP             1 S1                 0.0000
     47 ****        -6.9468   1.6044  -0.9389 LP             1 S1                 0.0000
@<TRIPOS>BOND
    1    1    2 1     
    2    1   20 1     
    3    1   21 1     
    4    1   22 1     
    5    2   19 1     
    6    2    3 2     
    7    3    4 1     
    8    3   23 1     
    9    4    5 1     
   10    4   18 2     
   11    5    6 1     
   12    6    7 2     
   13    6    8 am    
   14    8    9 1     
   15    8   24 1     
   16    9   10 1     
   17    9   25 1     
   18    9   26 1     
   19   10   11 1     
   20   10   27 1     
   21   10   28 1     
   22   11   17 1     
   23   11   12 1     
   24   11   41 1     
   25   12   13 1     
   26   12   29 1     
   27   12   30 1     
   28   13   14 1     
   29   13   31 1     
   30   13   32 1     
   31   14   15 1     
   32   14   33 1     
   33   14   34 1     
   34   15   16 1     
   35   15   17 1     
   36   15   35 1     
   37   16   36 1     
   38   16   37 1     
   39   16   38 1     
   40   17   39 1     
   41   17   40 1     
   42   18   19 1     
   43    5   42 1     
   44    7   43 1     
   45    7   44 1     
   46   18   45 1     
   47   19   46 1     
   48   19   47 1     
@<TRIPOS>SUBSTRUCTURE
      1 S1             1
@<TRIPOS>SET
LONE_PAIRS      STATIC     ATOMS    <user>   **** ""
6 42 43 44 45 46 47
DONOR_HYDROGENS      STATIC     ATOMS    <user>   **** ""
2 24 41
ATOM$BLUE        STATIC     ATOMS    COLORGROUP SYSTEM
6 42 43 44 45 46 47
ATOM$RED        STATIC     ATOMS    COLORGROUP SYSTEM
2 24 41
