AV-unprocessed.smi:1601|AV-procd|sdf|6432|dock3
  -GOLD-   22720 7 73D 1   1.00000     0.00000
 Structure written by MMmdl.
 41 42  0  0  0  0  0  0  0  0  1 V2000
  148.5438  141.3443  154.0651 C   0  0  0  0  0  0  0  0  0  0  0  0
  149.7701  141.2257  155.0058 C   0  0  1  0  0  0  0  0  0  0  0  0
  149.2715  141.2617  156.4802 C   0  0  0  0  0  0  0  0  0  0  0  0
  149.8211  142.3756  157.2481 N   0  0  0  0  0  0  0  0  0  0  0  0
  150.6570  142.2532  158.2917 C   0  0  0  0  0  0  0  0  0  0  0  0
  151.0415  141.1631  158.7171 O   0  0  0  0  0  0  0  0  0  0  0  0
  151.1357  143.5643  158.9376 C   0  0  2  0  0  0  0  0  0  0  0  0
  152.0250  144.4058  157.9999 C   0  0  0  0  0  0  0  0  0  0  0  0
  151.7872  143.3016  160.2158 N   0  0  0  0  0  0  0  0  0  0  0  0
  151.5953  143.9549  161.4164 C   0  0  0  0  0  0  0  0  0  0  0  0
  152.3980  143.3545  162.3435 C   0  0  0  0  0  0  0  0  0  0  0  0
  153.0455  142.3211  161.6115 C   0  0  0  0  0  0  0  0  0  0  0  0
  152.6759  142.2884  160.3418 N   0  0  0  0  0  0  0  0  0  0  0  0
  150.6192  140.0508  154.6987 N   0  0  0  0  0  0  0  0  0  0  0  0
  151.7506  139.9216  155.6251 C   0  0  0  0  0  0  0  0  0  0  0  0
  152.6185  138.6827  155.3456 C   0  0  0  0  0  0  0  0  0  0  0  0
  151.8131  137.5138  155.3969 O   0  0  0  0  0  0  0  0  0  0  0  0
  150.7500  137.5589  154.4558 C   0  0  0  0  0  0  0  0  0  0  0  0
  149.8679  138.7900  154.7258 C   0  0  0  0  0  0  0  0  0  0  0  0
  147.9010  142.1846  154.3249 H   0  0  0  0  0  0  0  0  0  0  0  0
  147.9320  140.4424  154.0992 H   0  0  0  0  0  0  0  0  0  0  0  0
  148.8313  141.5188  153.0293 H   0  0  0  0  0  0  0  0  0  0  0  0
  150.3758  142.1197  154.8492 H   0  0  0  0  0  0  0  0  0  0  0  0
  148.1838  141.3380  156.5023 H   0  0  0  0  0  0  0  0  0  0  0  0
  149.5261  140.3539  157.0252 H   0  0  0  0  0  0  0  0  0  0  0  0
  149.5502  143.3050  156.9618 H   0  0  0  0  0  0  0  0  0  0  0  0
  150.2434  144.1562  159.1477 H   0  0  0  0  0  0  0  0  0  0  0  0
  151.5052  144.6392  157.0701 H   0  0  0  0  0  0  0  0  0  0  0  0
  152.9506  143.8902  157.7408 H   0  0  0  0  0  0  0  0  0  0  0  0
  152.2948  145.3529  158.4677 H   0  0  0  0  0  0  0  0  0  0  0  0
  150.9111  144.7853  161.5106 H   0  0  0  0  0  0  0  0  0  0  0  0
  152.5042  143.6114  163.3869 H   0  0  0  0  0  0  0  0  0  0  0  0
  153.7661  141.5978  161.9630 H   0  0  0  0  0  0  0  0  0  0  0  0
  152.4041  140.7892  155.5557 H   0  0  0  0  0  0  0  0  0  0  0  0
  151.3846  139.8809  156.6521 H   0  0  0  0  0  0  0  0  0  0  0  0
  153.1018  138.7604  154.3705 H   0  0  0  0  0  0  0  0  0  0  0  0
  153.4110  138.6008  156.0897 H   0  0  0  0  0  0  0  0  0  0  0  0
  151.1516  137.5864  153.4417 H   0  0  0  0  0  0  0  0  0  0  0  0
  150.1609  136.6458  154.5416 H   0  0  0  0  0  0  0  0  0  0  0  0
  149.3723  138.6755  155.6911 H   0  0  0  0  0  0  0  0  0  0  0  0
  149.0890  138.7883  153.9665 H   0  0  0  0  0  0  0  0  0  0  0  0
  1  2  1  0  0  0  0
  1 20  1  0  0  0  0
  1 21  1  0  0  0  0
  1 22  1  0  0  0  0
  2  3  1  0  0  0  0
  2 14  1  0  0  0  0
  2 23  1  0  0  0  0
  3  4  1  0  0  0  0
  3 24  1  0  0  0  0
  3 25  1  0  0  0  0
  4  5  1  0  0  0  0
  4 26  1  0  0  0  0
  5  6  2  0  0  0  0
  5  7  1  0  0  0  0
  7  8  1  0  0  0  0
  7  9  1  0  0  0  0
  7 27  1  0  0  0  0
  8 28  1  0  0  0  0
  8 29  1  0  0  0  0
  8 30  1  0  0  0  0
  9 13  1  0  0  0  0
  9 10  1  0  0  0  0
 10 11  2  0  0  0  0
 10 31  1  0  0  0  0
 11 12  1  0  0  0  0
 11 32  1  0  0  0  0
 12 13  2  0  0  0  0
 12 33  1  0  0  0  0
 14 19  1  0  0  0  0
 14 15  1  0  0  0  0
 15 16  1  0  0  0  0
 15 34  1  0  0  0  0
 15 35  1  0  0  0  0
 16 17  1  0  0  0  0
 16 36  1  0  0  0  0
 16 37  1  0  0  0  0
 17 18  1  0  0  0  0
 18 19  1  0  0  0  0
 18 38  1  0  0  0  0
 18 39  1  0  0  0  0
 19 40  1  0  0  0  0
 19 41  1  0  0  0  0
M  END
> <s_m_source_file>
AV-unprocessed.smi

> <i_m_source_file_index>
1601

> <i_lp_mmshare_version>
43012

> <i_f3d_flags>
0

> <s_epik_input>
W0NIMl0xW0NIMl1PW0NIMl1bQ0gyXU4xW0NASF0oW0NIM10pW0NIMl1bTkhdQyg9TylbQ0BIXShbQ0gzXSluMltjSF1bY0hdW2NIXW4y

> <s_epik_cmdline>
J2VwaWtfcHl0aG9uJywgJy1waCcsICc3LjAnLCAnLXRuJywgJzgnLCAnLW1hJywgJzIwMCcsICctbWV0YWxfYmluZGluZycsICctaW1hZScsICc8aW5maWxlLm1hZT4nLCAnLW9tYWUnLCAnPG91dGZpbGUubWFlPic=

> <r_lp_tautomer_probability>
1

> <r_epik_Ionization_Penalty>
0.203323

> <r_epik_Ionization_Penalty_Charging>
0

> <r_epik_Ionization_Penalty_Neutral>
0.203323

> <r_epik_State_Penalty>
0.193192

> <r_epik_Charging_Adjusted_Penalty>
0.193192

> <i_epik_Tot_Q>
0

> <i_epik_Tot_abs_Q>
0

> <r_epik_Metal_State_Penalty>
0.193187

> <b_epik_Metal_Only>
0

> <s_lp_Force_Field>
OPLS_2005

> <r_lp_Energy>
32.6682

> <b_lp_Chiralities_Consistent>
1

> <s_lp_Variant>
AV-unprocessed.smi:1601-2

> <Gold.Version>
5.8.1

> <Gold.Id.Protein>
6NUR|6NUR_protein|mol2

> <Gold.PLP.Fitness>
50.3738

> <Gold.PLP.PLP>
-48.2230

> <Gold.PLP.part.hbond>
-2.6852

> <Gold.PLP.part.metal>
0.0000

> <Gold.PLP.part.buried>
-4.3504

> <Gold.PLP.part.nonpolar>
-40.3237

> <Gold.PLP.part.repulsive>
0.1518

> <Gold.PLP.ligand.clash>
0.0000

> <Gold.PLP.ligand.torsion>
1.4603

> <Gold.PLP.Chemscore.Hbond>
1.6459

> <Gold.PLP.Chemscore.CHOScore>
0.0000

> <Gold.PLP.Chemscore.Metal>
0.0000

> <Gold.Chemscore.Hbonds>
donor molecule, donor type, donor heavy atom, donor atom, acceptor molecule, acceptor atom, score
      L1  H     4    26       P1  8028  1.00
      P1  H  7989  7998       L1    14  0.48
      P1  H 10752 10763       L1    17  0.18

> <Gold.PLP.Chemscore.Internal.Correction>
0.1337

> <Gold.Rescore>
     Score         DG    S(hbond)    S(metal)    S(lipo)     H(rot)  DE(clash)    DE(int)     intcor
     14.49     -17.65       1.08        0.00     112.26       1.79       0.31       2.85       ----

> <Gold.Chemscore.Fitness>
14.4887

> <Gold.Chemscore.DG>
-17.6496

> <Gold.Chemscore.ZeroCoef>
-5.4800

> <Gold.Chemscore.Hbond>
1.0809

> <Gold.Chemscore.Metal>
0.0000

> <Gold.Chemscore.Lipo>
112.2624

> <Gold.Chemscore.Internal_Hbond>
0.0000

> <Gold.Chemscore.DEClash>
0.3088

> <Gold.Chemscore.DEInternal>
2.8521

> <Gold.Chemscore.Rot>
1.7872

> <Gold.Chemscore.Internal.Correction>
   9.000000E+99

> <Gold.Chemscore.Hbonds>
donor molecule, donor type, donor heavy atom, donor atom, acceptor molecule, acceptor atom, score
      L1  H     4    26       P1  8028  0.91
      P1  H 10752 10763       L1    17  0.04

> <Gold.Chemscore.Hbond.Weighted>
-3.6101

> <Gold.Chemscore.Metal.Weighted>
-0.0000

> <Gold.Chemscore.Lipo.Weighted>
-13.1347

> <Gold.Chemscore.Internal_Hbond.Weighted>
0.0000

> <Gold.Chemscore.DEClash.Weighted>
0.3088

> <Gold.Chemscore.DEInternal.Weighted>
2.8521

> <Gold.Chemscore.Rot.Weighted>
4.5752

> <Gold.Chemscore.Internal.Correction.Weighted>
   9.000000E+99

> <Gold.Protein.RotatedTorsions>
[ 6907 6896 6895 6894 ] final   21.23 input  -60.11 | X-H torsion
[ 7974 7965 7964 7962 ] final  144.13 input  175.53 | X-H torsion
[ 8008 7997 7996 7995 ] final    3.67 input   59.86 | X-H torsion
[ 10167 10162 10161 10158 ] final  109.04 input  -65.29 | X-H torsion
[ 10718 10713 10712 10709 ] final  -40.10 input   66.30 | X-H torsion
[ 10763 10752 10751 10750 ] final   63.85 input  -60.55 | X-H torsion
[ 11005 11000 10999 10996 ] final  -52.40 input  -57.11 | X-H torsion

> <Gold.Protein.ActiveResidues>
 VAL166  LYS551  ARG553  GLY616  TRP617  ASP618  TYR619  PRO620  LYS621  CYS622 
 ASP623  PHE694  ASN695  SER759  ASP760  ASP761  ALA762  ILE779  LEU786  VAL792 
 PHE793  MET794  SER795  GLU796  ALA797  LYS798  CYS799  TRP800  GLU811  SER814 

> <Gold.Protein.RotatedAtoms>
  151.9085  135.0349  160.0512 H   0  0  0  0  0  0  0  0  0  0  0  0  # atno 6907 bound_to 6896
  152.2299  133.5045  159.5218 H   0  0  0  0  0  0  0  0  0  0  0  0  # atno 6908 bound_to 6896
  150.7022  134.1147  159.4055 H   0  0  0  0  0  0  0  0  0  0  0  0  # atno 6909 bound_to 6896
  144.8862  139.5625  143.5820 H   0  0  0  0  0  0  0  0  0  0  0  0  # atno 7974 bound_to 7965
  154.7065  140.2684  155.6670 H   0  0  0  0  0  0  0  0  0  0  0  0  # atno 8008 bound_to 7997
  156.2782  140.2762  156.1617 H   0  0  0  0  0  0  0  0  0  0  0  0  # atno 8009 bound_to 7997
  155.0693  140.0372  157.2593 H   0  0  0  0  0  0  0  0  0  0  0  0  # atno 8010 bound_to 7997
  139.6798  144.7119  151.1536 H   0  0  0  0  0  0  0  0  0  0  0  0  # atno 10167 bound_to 10162
  156.2851  130.4221  149.8296 H   0  0  0  0  0  0  0  0  0  0  0  0  # atno 10718 bound_to 10713
  153.0033  135.5414  154.6418 H   0  0  0  0  0  0  0  0  0  0  0  0  # atno 10763 bound_to 10752
  154.5671  135.2838  155.0865 H   0  0  0  0  0  0  0  0  0  0  0  0  # atno 10764 bound_to 10752
  154.2045  135.6478  153.5149 H   0  0  0  0  0  0  0  0  0  0  0  0  # atno 10765 bound_to 10752
  141.0922  133.6630  156.4019 H   0  0  0  0  0  0  0  0  0  0  0  0  # atno 11005 bound_to 11000
  146.3026  139.7474  142.9080 LP  0  0  0  0  0  0  0  0  0  0  0  0  # atno 17320 bound_to 7965
  145.3865  141.0366  143.3148 LP  0  0  0  0  0  0  0  0  0  0  0  0  # atno 17321 bound_to 7965
  140.7648  143.5717  150.8989 LP  0  0  0  0  0  0  0  0  0  0  0  0  # atno 17342 bound_to 10162
  139.9388  143.6407  152.3059 LP  0  0  0  0  0  0  0  0  0  0  0  0  # atno 17343 bound_to 10162
  156.5729  130.8432  151.3361 LP  0  0  0  0  0  0  0  0  0  0  0  0  # atno 17370 bound_to 10713
  157.7326  130.9718  150.1937 LP  0  0  0  0  0  0  0  0  0  0  0  0  # atno 17371 bound_to 10713
  140.5224  134.6291  157.5322 LP  0  0  0  0  0  0  0  0  0  0  0  0  # atno 17394 bound_to 11000
  139.9751  134.7229  155.9966 LP  0  0  0  0  0  0  0  0  0  0  0  0  # atno 17395 bound_to 11000

$$$$
