#       Name:                AV-unprocessed.smi:3187
#       Creating user name   scv26
#       Creation time:       Fri Mar 27 18:02:05 2020


#       File generated by GOLD software.
#

@<TRIPOS>MOLECULE
AV-unprocessed.smi:3187
    42    43     1
SMALL
NO_CHARGES


@<TRIPOS>ATOM
      1 ****        -0.0732   1.7824  -2.6438 C.3            1 S1                 0.0000
      2 ****        -1.0718   2.1423  -1.5562 C.2            1 S1                 0.0000
      3 ****        -2.2038   2.7967  -1.8790 C.2            1 S1                 0.0000
      4 ****        -3.2298   3.2702  -0.8757 C.3            1 S1                 0.0000
      5 ****        -2.6170   3.3840   0.5218 C.3            1 S1                 0.0000
      6 ****        -1.8588   2.1036   0.9085 C.3            1 S1                 0.0000
      7 ****        -1.3399   2.2339   2.3539 C.3            1 S1                 0.0000
      8 ****        -0.7238   1.7548  -0.1040 C.3            1 S1                 0.0000
      9 ****        -0.3246   0.2618   0.0386 C.3            1 S1                 0.0000
     10 ****         1.0302  -0.0242  -0.4823 N.4            1 S1                 1.0000
     11 ****         1.3933  -1.4566  -0.5379 C.3            1 S1                 0.0000
     12 ****         1.6691  -2.0534   0.8533 C.3            1 S1                 0.0000
     13 ****         2.0901  -3.4542   0.7690 N.pl3          1 S1                 0.0000
     14 ****         1.2819  -4.5609   0.7052 C.2            1 S1                 0.0000
     15 ****         2.1137  -5.6491   0.6375 C.2            1 S1                 0.0000
     16 ****         3.3931  -5.1614   0.6632 N.pl3          1 S1                 1.0000
     17 ****         3.3768  -3.8267   0.7423 C.2            1 S1                 0.0000
     18 ****         0.9274   2.1184  -2.3709 H              1 S1                 0.0000
     19 ****        -0.3322   2.2567  -3.5912 H              1 S1                 0.0000
     20 ****        -0.0539   0.7066  -2.8155 H              1 S1                 0.0000
     21 ****        -2.4176   3.0282  -2.9125 H              1 S1                 0.0000
     22 ****        -3.6156   4.2407  -1.1889 H              1 S1                 0.0000
     23 ****        -4.0695   2.5745  -0.8781 H              1 S1                 0.0000
     24 ****        -1.9351   4.2352   0.5516 H              1 S1                 0.0000
     25 ****        -3.4051   3.5954   1.2456 H              1 S1                 0.0000
     26 ****        -2.5874   1.2912   0.8911 H              1 S1                 0.0000
     27 ****        -0.5993   3.0299   2.4370 H              1 S1                 0.0000
     28 ****        -0.8806   1.3161   2.7178 H              1 S1                 0.0000
     29 ****        -2.1538   2.4722   3.0394 H              1 S1                 0.0000
     30 ****         0.1403   2.3670   0.1596 H              1 S1                 0.0000
     31 ****        -0.3428  -0.0445   1.0823 H              1 S1                 0.0000
     32 ****        -1.0572  -0.3620  -0.4757 H              1 S1                 0.0000
     33 ****         1.0686   0.3369  -1.4252 H              1 S1                 0.0000
     34 ****         0.6102  -2.0146  -1.0532 H              1 S1                 0.0000
     35 ****         2.2911  -1.5432  -1.1508 H              1 S1                 0.0000
     36 ****         2.4490  -1.4910   1.3696 H              1 S1                 0.0000
     37 ****         0.7790  -2.0198   1.4821 H              1 S1                 0.0000
     38 ****         0.2031  -4.4959   0.7127 H              1 S1                 0.0000
     39 ****         1.8972  -6.7058   0.5753 H              1 S1                 0.0000
     40 ****         4.2357  -3.1802   0.7781 H              1 S1                 0.0000
     41 ****         1.7110   0.4717   0.0755 H              1 S1                 0.0000
     42 ****         4.2317  -5.7280   0.6290 H              1 S1                 0.0000
@<TRIPOS>BOND
    1    1    2 1     
    2    1   18 1     
    3    1   19 1     
    4    1   20 1     
    5    2    8 1     
    6    2    3 2     
    7    3    4 1     
    8    3   21 1     
    9    4    5 1     
   10    4   22 1     
   11    4   23 1     
   12    5    6 1     
   13    5   24 1     
   14    5   25 1     
   15    6    7 1     
   16    6    8 1     
   17    6   26 1     
   18    7   27 1     
   19    7   28 1     
   20    7   29 1     
   21    8    9 1     
   22    8   30 1     
   23    9   10 1     
   24    9   31 1     
   25    9   32 1     
   26   10   11 1     
   27   10   33 1     
   28   10   41 1     
   29   11   12 1     
   30   11   34 1     
   31   11   35 1     
   32   12   13 1     
   33   12   36 1     
   34   12   37 1     
   35   13   17 1     
   36   13   14 1     
   37   14   15 2     
   38   14   38 1     
   39   15   16 1     
   40   15   39 1     
   41   16   17 2     
   42   16   42 1     
   43   17   40 1     
@<TRIPOS>SUBSTRUCTURE
      1 S1             1
@<TRIPOS>SET
DONOR_HYDROGENS      STATIC     ATOMS    <user>   **** ""
3 33 41 42
ATOM$RED        STATIC     ATOMS    COLORGROUP SYSTEM
3 33 41 42
