AV-unprocessed.smi:249|AV-procd|sdf|1910|dock10
  -GOLD-   2262021 03D 1   1.00000     0.00000
 Structure written by MMmdl.
 64 67  0  0  0  0  0  0  0  0  2 V2000
  151.8391  145.4041  159.9572 C   0  0  0  0  0  0  0  0  0  0  0  0
  152.1224  143.9211  160.2473 C   0  0  0  0  0  0  0  0  0  0  0  0
  152.0887  143.0564  159.0318 N   0  3  2  0  0  0  0  0  0  0  0  0
  150.8597  143.2888  158.2192 C   0  0  0  0  0  0  0  0  0  0  0  0
  150.8740  142.4965  156.9048 C   0  0  0  0  0  0  0  0  0  0  0  0
  151.0237  140.9917  157.1803 C   0  0  1  0  0  0  0  0  0  0  0  0
  150.9598  140.1660  155.9664 N   0  0  0  0  0  0  0  0  0  0  0  0
  151.4141  138.7841  156.0786 C   0  0  0  0  0  0  0  0  0  0  0  0
  149.8806  140.3205  155.1617 C   0  0  0  0  0  0  0  0  0  0  0  0
  149.6217  141.5322  154.6030 N   0  0  0  0  0  0  0  0  0  0  0  0
  148.5627  141.6874  153.8025 C   0  0  0  0  0  0  0  0  0  0  0  0
  147.6511  140.7826  153.4395 N   0  0  0  0  0  0  0  0  0  0  0  0
  147.9013  139.5690  154.0096 C   0  0  0  0  0  0  0  0  0  0  0  0
  148.9867  139.2542  154.8740 C   0  0  0  0  0  0  0  0  0  0  0  0
  148.9236  137.9192  155.2524 N   0  0  0  0  0  0  0  0  0  0  0  0
  147.8638  137.4665  154.6396 C   0  0  0  0  0  0  0  0  0  0  0  0
  147.1778  138.3953  153.8886 N   0  0  0  0  0  0  0  0  0  0  0  0
  145.9771  138.1588  153.1060 C   0  0  0  0  0  0  0  0  0  0  0  0
  145.2026  136.8655  153.4739 C   0  0  1  0  0  0  0  0  0  0  0  0
  144.1587  137.1934  154.5665 C   0  0  0  0  0  0  0  0  0  0  0  0
  143.1580  138.0678  154.0850 O   0  0  0  0  0  0  0  0  0  0  0  0
  144.5748  136.1152  152.2623 C   0  0  1  0  0  0  0  0  0  0  0  0
  145.5477  135.6453  151.1905 C   0  0  0  0  0  0  0  0  0  0  0  0
  144.7638  134.5570  150.4624 C   0  0  0  0  0  0  0  0  0  0  0  0
  143.8352  134.0394  151.4066 O   0  0  0  0  0  0  0  0  0  0  0  0
  143.9263  134.7729  152.6206 C   0  0  0  0  0  0  0  0  0  0  0  0
  152.2979  140.7752  158.0156 C   0  0  0  0  0  0  0  0  0  0  0  0
  152.2857  141.5980  159.3214 C   0  0  1  0  0  0  0  0  0  0  0  0
  153.5842  141.2996  160.1001 C   0  0  0  0  0  0  0  0  0  0  0  0
  152.0436  146.0083  160.8416 H   0  0  0  0  0  0  0  0  0  0  0  0
  150.7987  145.5849  159.6890 H   0  0  0  0  0  0  0  0  0  0  0  0
  152.4712  145.7785  159.1514 H   0  0  0  0  0  0  0  0  0  0  0  0
  153.1099  143.8948  160.7021 H   0  0  0  0  0  0  0  0  0  0  0  0
  151.4251  143.5399  160.9947 H   0  0  0  0  0  0  0  0  0  0  0  0
  149.9797  143.0222  158.8067 H   0  0  0  0  0  0  0  0  0  0  0  0
  150.7597  144.3422  157.9641 H   0  0  0  0  0  0  0  0  0  0  0  0
  149.9521  142.6951  156.3579 H   0  0  0  0  0  0  0  0  0  0  0  0
  151.6915  142.8548  156.2783 H   0  0  0  0  0  0  0  0  0  0  0  0
  150.1781  140.6813  157.7958 H   0  0  0  0  0  0  0  0  0  0  0  0
  151.5219  138.3327  155.0914 H   0  0  0  0  0  0  0  0  0  0  0  0
  150.7149  138.1789  156.6562 H   0  0  0  0  0  0  0  0  0  0  0  0
  152.3859  138.7422  156.5707 H   0  0  0  0  0  0  0  0  0  0  0  0
  148.4260  142.6779  153.3939 H   0  0  0  0  0  0  0  0  0  0  0  0
  147.5431  136.4388  154.7312 H   0  0  0  0  0  0  0  0  0  0  0  0
  145.3322  139.0279  153.2413 H   0  0  0  0  0  0  0  0  0  0  0  0
  146.2503  138.1438  152.0501 H   0  0  0  0  0  0  0  0  0  0  0  0
  145.9103  136.1813  153.9428 H   0  0  0  0  0  0  0  0  0  0  0  0
  143.6834  136.2874  154.9421 H   0  0  0  0  0  0  0  0  0  0  0  0
  144.6419  137.6581  155.4265 H   0  0  0  0  0  0  0  0  0  0  0  0
  143.5709  138.7407  153.5654 H   0  0  0  0  0  0  0  0  0  0  0  0
  143.8196  136.7478  151.7931 H   0  0  0  0  0  0  0  0  0  0  0  0
  145.8580  136.4317  150.5049 H   0  0  0  0  0  0  0  0  0  0  0  0
  146.4413  135.2182  151.6479 H   0  0  0  0  0  0  0  0  0  0  0  0
  144.2061  134.9798  149.6261 H   0  0  0  0  0  0  0  0  0  0  0  0
  145.4137  133.7728  150.0740 H   0  0  0  0  0  0  0  0  0  0  0  0
  144.5571  134.2129  153.3127 H   0  0  0  0  0  0  0  0  0  0  0  0
  142.9427  134.8876  153.0767 H   0  0  0  0  0  0  0  0  0  0  0  0
  152.3917  139.7155  158.2554 H   0  0  0  0  0  0  0  0  0  0  0  0
  153.1830  141.0450  157.4375 H   0  0  0  0  0  0  0  0  0  0  0  0
  151.4442  141.2602  159.9287 H   0  0  0  0  0  0  0  0  0  0  0  0
  153.7719  140.2262  160.1467 H   0  0  0  0  0  0  0  0  0  0  0  0
  153.5366  141.6398  161.1340 H   0  0  0  0  0  0  0  0  0  0  0  0
  154.4502  141.7617  159.6251 H   0  0  0  0  0  0  0  0  0  0  0  0
  152.8718  143.3388  158.4595 H   0  0  0  0  0  0  0  0  0  0  0  0
  1  2  1  0  0  0  0
  1 30  1  0  0  0  0
  1 31  1  0  0  0  0
  1 32  1  0  0  0  0
  2  3  1  0  0  0  0
  2 33  1  0  0  0  0
  2 34  1  0  0  0  0
  3 28  1  0  0  0  0
  3  4  1  0  0  0  0
  3 64  1  0  0  0  0
  4  5  1  0  0  0  0
  4 35  1  0  0  0  0
  4 36  1  0  0  0  0
  5  6  1  0  0  0  0
  5 37  1  0  0  0  0
  5 38  1  0  0  0  0
  6  7  1  0  0  0  0
  6 27  1  0  0  0  0
  6 39  1  0  0  0  0
  7  8  1  0  0  0  0
  7  9  1  0  0  0  0
  8 40  1  0  0  0  0
  8 41  1  0  0  0  0
  8 42  1  0  0  0  0
  9 14  1  0  0  0  0
  9 10  2  0  0  0  0
 10 11  1  0  0  0  0
 11 12  2  0  0  0  0
 11 43  1  0  0  0  0
 12 13  1  0  0  0  0
 13 17  1  0  0  0  0
 13 14  2  0  0  0  0
 14 15  1  0  0  0  0
 15 16  2  0  0  0  0
 16 17  1  0  0  0  0
 16 44  1  0  0  0  0
 17 18  1  0  0  0  0
 18 19  1  0  0  0  0
 18 45  1  0  0  0  0
 18 46  1  0  0  0  0
 19 20  1  0  0  0  0
 19 22  1  0  0  0  0
 19 47  1  0  0  0  0
 20 21  1  0  0  0  0
 20 48  1  0  0  0  0
 20 49  1  0  0  0  0
 21 50  1  0  0  0  0
 22 26  1  0  0  0  0
 22 23  1  0  0  0  0
 22 51  1  0  0  0  0
 23 24  1  0  0  0  0
 23 52  1  0  0  0  0
 23 53  1  0  0  0  0
 24 25  1  0  0  0  0
 24 54  1  0  0  0  0
 24 55  1  0  0  0  0
 25 26  1  0  0  0  0
 26 56  1  0  0  0  0
 26 57  1  0  0  0  0
 27 28  1  0  0  0  0
 27 58  1  0  0  0  0
 27 59  1  0  0  0  0
 28 29  1  0  0  0  0
 28 60  1  0  0  0  0
 29 61  1  0  0  0  0
 29 62  1  0  0  0  0
 29 63  1  0  0  0  0
M  CHG  1   3   1
M  END
> <s_m_source_file>
AV-unprocessed.smi

> <i_m_source_file_index>
249

> <i_lp_mmshare_version>
43012

> <i_f3d_flags>
0

> <s_epik_input>
W0NIM11bQ0gyXU4xW0NIMl1bQ0gyXVtDQEhdKFtDSDJdW0NASF0xW0NIM10pTihbQ0gzXSljKG5bY0hdbjIpYyhjMjMpbltjSF1uM1tDSDJdW0NASF0oW0NIMl1bT0hdKVtDQEBIXTRbQ0gyXVtDSDJdT1tDSDJdNA==

> <s_epik_cmdline>
J2VwaWtfcHl0aG9uJywgJy1waCcsICc3LjAnLCAnLXRuJywgJzgnLCAnLW1hJywgJzIwMCcsICctbWV0YWxfYmluZGluZycsICctaW1hZScsICc8aW5maWxlLm1hZT4nLCAnLW9tYWUnLCAnPG91dGZpbGUubWFlPic=

> <r_lp_tautomer_probability>
1

> <r_epik_Ionization_Penalty>
0.00294688

> <r_epik_Ionization_Penalty_Charging>
0.00169971

> <r_epik_Ionization_Penalty_Neutral>
0.00124717

> <r_epik_State_Penalty>
-0

> <r_epik_Charging_Adjusted_Penalty>
0.00169971

> <i_epik_Tot_Q>
1

> <i_epik_Tot_abs_Q>
1

> <r_epik_Metal_State_Penalty>
-0

> <b_epik_Metal_Only>
0

> <s_lp_Force_Field>
OPLS_2005

> <r_lp_Energy>
54.6385

> <b_lp_Chiralities_Consistent>
1

> <s_lp_Variant>
AV-unprocessed.smi:249-13

> <Gold.Version>
5.8.1

> <Gold.Id.Protein>
6NUR|6NUR_protein|mol2

> <Gold.PLP.Fitness>
46.4990

> <Gold.PLP.PLP>
-44.9682

> <Gold.PLP.part.hbond>
-2.6767

> <Gold.PLP.part.metal>
0.0000

> <Gold.PLP.part.buried>
-4.7731

> <Gold.PLP.part.nonpolar>
-38.7859

> <Gold.PLP.part.repulsive>
0.8036

> <Gold.PLP.ligand.clash>
0.0000

> <Gold.PLP.ligand.torsion>
1.1944

> <Gold.PLP.Chemscore.Hbond>
1.0000

> <Gold.PLP.Chemscore.CHOScore>
0.0000

> <Gold.PLP.Chemscore.Metal>
0.0000

> <Gold.Chemscore.Hbonds>
donor molecule, donor type, donor heavy atom, donor atom, acceptor molecule, acceptor atom, score
      L1  H    21    50       P1 10175  1.00

> <Gold.PLP.Chemscore.Internal.Correction>
0.9197

> <Gold.Rescore>
     Score         DG    S(hbond)    S(metal)    S(lipo)     H(rot)  DE(clash)    DE(int)     intcor
      9.46     -14.78       0.99        0.00     114.62       2.90       1.29       4.03       ----

> <Gold.Chemscore.Fitness>
9.4584

> <Gold.Chemscore.DG>
-14.7770

> <Gold.Chemscore.ZeroCoef>
-5.4800

> <Gold.Chemscore.Hbond>
0.9916

> <Gold.Chemscore.Metal>
0.0000

> <Gold.Chemscore.Lipo>
114.6220

> <Gold.Chemscore.Internal_Hbond>
0.0000

> <Gold.Chemscore.DEClash>
1.2891

> <Gold.Chemscore.DEInternal>
4.0295

> <Gold.Chemscore.Rot>
2.9006

> <Gold.Chemscore.Internal.Correction>
   9.000000E+99

> <Gold.Chemscore.Hbonds>
donor molecule, donor type, donor heavy atom, donor atom, acceptor molecule, acceptor atom, score
      L1  H    21    50       P1 10175  0.93

> <Gold.Chemscore.Hbond.Weighted>
-3.3119

> <Gold.Chemscore.Metal.Weighted>
-0.0000

> <Gold.Chemscore.Lipo.Weighted>
-13.4108

> <Gold.Chemscore.Internal_Hbond.Weighted>
0.0000

> <Gold.Chemscore.DEClash.Weighted>
1.2891

> <Gold.Chemscore.DEInternal.Weighted>
4.0295

> <Gold.Chemscore.Rot.Weighted>
7.4256

> <Gold.Chemscore.Internal.Correction.Weighted>
   9.000000E+99

> <Gold.Protein.RotatedTorsions>
[ 6907 6896 6895 6894 ] final -164.17 input  -60.11 | X-H torsion
[ 7974 7965 7964 7962 ] final  -22.96 input  175.53 | X-H torsion
[ 8008 7997 7996 7995 ] final   54.21 input   59.86 | X-H torsion
[ 10167 10162 10161 10158 ] final  -55.10 input  -65.29 | X-H torsion
[ 10718 10713 10712 10709 ] final -176.65 input   66.30 | X-H torsion
[ 10763 10752 10751 10750 ] final  122.24 input  -60.55 | X-H torsion
[ 11005 11000 10999 10996 ] final -111.76 input  -57.11 | X-H torsion

> <Gold.Protein.ActiveResidues>
 VAL166  LYS551  ARG553  GLY616  TRP617  ASP618  TYR619  PRO620  LYS621  CYS622 
 ASP623  PHE694  ASN695  SER759  ASP760  ASP761  ALA762  ILE779  LEU786  VAL792 
 PHE793  MET794  SER795  GLU796  ALA797  LYS798  CYS799  TRP800  GLU811  SER814 

> <Gold.Protein.RotatedAtoms>
  151.4076  133.3737  159.2739 H   0  0  0  0  0  0  0  0  0  0  0  0  # atno 6907 bound_to 6896
  150.9387  134.8799  159.7608 H   0  0  0  0  0  0  0  0  0  0  0  0  # atno 6908 bound_to 6896
  152.5061  134.4025  159.9473 H   0  0  0  0  0  0  0  0  0  0  0  0  # atno 6909 bound_to 6896
  146.1645  140.4550  142.8558 H   0  0  0  0  0  0  0  0  0  0  0  0  # atno 7974 bound_to 7965
  155.4809  140.3468  155.4340 H   0  0  0  0  0  0  0  0  0  0  0  0  # atno 8008 bound_to 7997
  156.1039  140.1443  156.9458 H   0  0  0  0  0  0  0  0  0  0  0  0  # atno 8009 bound_to 7997
  154.4712  140.0900  156.7126 H   0  0  0  0  0  0  0  0  0  0  0  0  # atno 8010 bound_to 7997
  140.6394  143.2499  151.5031 H   0  0  0  0  0  0  0  0  0  0  0  0  # atno 10167 bound_to 10162
  156.8178  130.9609  151.3113 H   0  0  0  0  0  0  0  0  0  0  0  0  # atno 10718 bound_to 10713
  153.6266  135.3403  155.3028 H   0  0  0  0  0  0  0  0  0  0  0  0  # atno 10763 bound_to 10752
  154.8589  135.4285  154.2150 H   0  0  0  0  0  0  0  0  0  0  0  0  # atno 10764 bound_to 10752
  153.3036  135.7026  153.7254 H   0  0  0  0  0  0  0  0  0  0  0  0  # atno 10765 bound_to 10752
  141.0715  133.9371  157.2474 H   0  0  0  0  0  0  0  0  0  0  0  0  # atno 11005 bound_to 11000
  144.8073  140.6322  143.6439 LP  0  0  0  0  0  0  0  0  0  0  0  0  # atno 17320 bound_to 7965
  145.4503  139.1524  143.3922 LP  0  0  0  0  0  0  0  0  0  0  0  0  # atno 17321 bound_to 7965
  139.5603  144.2173  152.1680 LP  0  0  0  0  0  0  0  0  0  0  0  0  # atno 17342 bound_to 10162
  140.1439  144.5177  150.6728 LP  0  0  0  0  0  0  0  0  0  0  0  0  # atno 17343 bound_to 10162
  157.6472  130.8854  149.9562 LP  0  0  0  0  0  0  0  0  0  0  0  0  # atno 17370 bound_to 10713
  156.1006  130.3656  150.0225 LP  0  0  0  0  0  0  0  0  0  0  0  0  # atno 17371 bound_to 10713
  139.9529  135.0172  156.9044 LP  0  0  0  0  0  0  0  0  0  0  0  0  # atno 17394 bound_to 11000
  140.5662  134.0487  155.7415 LP  0  0  0  0  0  0  0  0  0  0  0  0  # atno 17395 bound_to 11000

$$$$
