AV-unprocessed.smi:3187|AV-procd|sdf|12178|dock1
  -GOLD-   2272018 13D 1   1.00000     0.00000
 Structure written by MMmdl.
 41 42  0  0  0  0  0  0  0  0  2 V2000
  154.0043  140.2294  159.5425 C   0  0  0  0  0  0  0  0  0  0  0  0
  153.4047  141.4714  160.1832 C   0  0  0  0  0  0  0  0  0  0  0  0
  153.5664  141.7142  161.4988 C   0  0  0  0  0  0  0  0  0  0  0  0
  153.0663  142.9537  162.2200 C   0  0  0  0  0  0  0  0  0  0  0  0
  152.1860  143.8545  161.3378 C   0  0  0  0  0  0  0  0  0  0  0  0
  152.6830  143.8797  159.8816 C   0  0  2  0  0  0  0  0  0  0  0  0
  151.9565  144.9442  159.0416 C   0  0  0  0  0  0  0  0  0  0  0  0
  152.6673  142.4535  159.2624 C   0  0  2  0  0  0  0  0  0  0  0  0
  151.2378  141.9702  158.9016 C   0  0  0  0  0  0  0  0  0  0  0  0
  151.1776  141.2685  157.6054 N   0  3  0  0  0  0  0  0  0  0  0  0
  150.0542  141.6809  156.7404 C   0  0  0  0  0  0  0  0  0  0  0  0
  149.9694  140.8123  155.4758 C   0  0  0  0  0  0  0  0  0  0  0  0
  148.6598  140.8742  154.8551 N   0  0  0  0  0  0  0  0  0  0  0  0
  148.2273  140.1696  153.7393 C   0  0  0  0  0  0  0  0  0  0  0  0
  146.9205  140.5435  153.5206 C   0  0  0  0  0  0  0  0  0  0  0  0
  146.5320  141.4721  154.4835 N   0  0  0  0  0  0  0  0  0  0  0  0
  147.6145  141.6225  155.2346 C   0  0  0  0  0  0  0  0  0  0  0  0
  154.5509  140.4913  158.6364 H   0  0  0  0  0  0  0  0  0  0  0  0
  153.2395  139.4973  159.2897 H   0  0  0  0  0  0  0  0  0  0  0  0
  154.7051  139.7408  160.2206 H   0  0  0  0  0  0  0  0  0  0  0  0
  154.1163  141.0113  162.1079 H   0  0  0  0  0  0  0  0  0  0  0  0
  152.5229  142.6583  163.1178 H   0  0  0  0  0  0  0  0  0  0  0  0
  153.9421  143.5114  162.5527 H   0  0  0  0  0  0  0  0  0  0  0  0
  151.1546  143.5034  161.3702 H   0  0  0  0  0  0  0  0  0  0  0  0
  152.1719  144.8623  161.7545 H   0  0  0  0  0  0  0  0  0  0  0  0
  153.7282  144.1934  159.9125 H   0  0  0  0  0  0  0  0  0  0  0  0
  150.8745  144.8146  159.0639 H   0  0  0  0  0  0  0  0  0  0  0  0
  152.2813  144.9157  158.0011 H   0  0  0  0  0  0  0  0  0  0  0  0
  152.1670  145.9442  159.4216 H   0  0  0  0  0  0  0  0  0  0  0  0
  153.2403  142.5121  158.3359 H   0  0  0  0  0  0  0  0  0  0  0  0
  150.8524  141.3079  159.6771 H   0  0  0  0  0  0  0  0  0  0  0  0
  150.5546  142.8162  158.8357 H   0  0  0  0  0  0  0  0  0  0  0  0
  152.0410  141.4366  157.1087 H   0  0  0  0  0  0  0  0  0  0  0  0
  149.1228  141.5953  157.3015 H   0  0  0  0  0  0  0  0  0  0  0  0
  150.1696  142.7318  156.4709 H   0  0  0  0  0  0  0  0  0  0  0  0
  150.7225  141.1195  154.7487 H   0  0  0  0  0  0  0  0  0  0  0  0
  150.1791  139.7711  155.7236 H   0  0  0  0  0  0  0  0  0  0  0  0
  148.8660  139.4791  153.2078 H   0  0  0  0  0  0  0  0  0  0  0  0
  146.2360  140.2185  152.7509 H   0  0  0  0  0  0  0  0  0  0  0  0
  147.6453  142.2876  156.0855 H   0  0  0  0  0  0  0  0  0  0  0  0
  151.0972  140.2781  157.7864 H   0  0  0  0  0  0  0  0  0  0  0  0
  1  2  1  0  0  0  0
  1 18  1  0  0  0  0
  1 19  1  0  0  0  0
  1 20  1  0  0  0  0
  2  8  1  0  0  0  0
  2  3  2  0  0  0  0
  3  4  1  0  0  0  0
  3 21  1  0  0  0  0
  4  5  1  0  0  0  0
  4 22  1  0  0  0  0
  4 23  1  0  0  0  0
  5  6  1  0  0  0  0
  5 24  1  0  0  0  0
  5 25  1  0  0  0  0
  6  7  1  0  0  0  0
  6  8  1  0  0  0  0
  6 26  1  0  0  0  0
  7 27  1  0  0  0  0
  7 28  1  0  0  0  0
  7 29  1  0  0  0  0
  8  9  1  0  0  0  0
  8 30  1  0  0  0  0
  9 10  1  0  0  0  0
  9 31  1  0  0  0  0
  9 32  1  0  0  0  0
 10 11  1  0  0  0  0
 10 33  1  0  0  0  0
 10 41  1  0  0  0  0
 11 12  1  0  0  0  0
 11 34  1  0  0  0  0
 11 35  1  0  0  0  0
 12 13  1  0  0  0  0
 12 36  1  0  0  0  0
 12 37  1  0  0  0  0
 13 17  1  0  0  0  0
 13 14  1  0  0  0  0
 14 15  2  0  0  0  0
 14 38  1  0  0  0  0
 15 16  1  0  0  0  0
 15 39  1  0  0  0  0
 16 17  2  0  0  0  0
 17 40  1  0  0  0  0
M  CHG  1  10   1
M  END
> <s_m_source_file>
AV-unprocessed.smi

> <i_m_source_file_index>
3187

> <i_lp_mmshare_version>
43012

> <i_f3d_flags>
0

> <s_epik_input>
W0NIM11DMT1bQ0hdW0NIMl1bQ0gyXVtDQEBIXShbQ0gzXSlbQ0BIXTFbQ0gyXVtOSF1bQ0gyXVtDSDJdbjJbY0hdW2NIXW5bY0hdMg==

> <s_epik_cmdline>
J2VwaWtfcHl0aG9uJywgJy1waCcsICc3LjAnLCAnLXRuJywgJzgnLCAnLW1hJywgJzIwMCcsICctbWV0YWxfYmluZGluZycsICctaW1hZScsICc8aW5maWxlLm1hZT4nLCAnLW9tYWUnLCAnPG91dGZpbGUubWFlPic=

> <r_lp_tautomer_probability>
1

> <r_epik_Ionization_Penalty>
0.0501625

> <r_epik_Ionization_Penalty_Charging>
0.0501625

> <r_epik_Ionization_Penalty_Neutral>
0

> <r_epik_State_Penalty>
0.0972392

> <r_epik_Charging_Adjusted_Penalty>
0.147402

> <i_epik_Tot_Q>
1

> <i_epik_Tot_abs_Q>
1

> <r_epik_Metal_State_Penalty>
0.000104376

> <b_epik_Metal_Only>
0

> <s_lp_Force_Field>
OPLS_2005

> <r_lp_Energy>
17.7506

> <b_lp_Chiralities_Consistent>
1

> <s_lp_Variant>
AV-unprocessed.smi:3187-4

> <Gold.Version>
5.8.1

> <Gold.Id.Protein>
6NUR|6NUR_protein|mol2

> <Gold.PLP.Fitness>
49.9220

> <Gold.PLP.PLP>
-43.7944

> <Gold.PLP.part.hbond>
0.0000

> <Gold.PLP.part.metal>
0.0000

> <Gold.PLP.part.buried>
-1.6736

> <Gold.PLP.part.nonpolar>
-42.2365

> <Gold.PLP.part.repulsive>
0.2130

> <Gold.PLP.ligand.clash>
0.0000

> <Gold.PLP.ligand.torsion>
0.9750

> <Gold.PLP.Chemscore.Hbond>
0.0000

> <Gold.PLP.Chemscore.CHOScore>
2.6587

> <Gold.PLP.Chemscore.Metal>
0.0000

> <Gold.Chemscore.Hbonds>
donor molecule, donor type, donor heavy atom, donor atom, acceptor molecule, acceptor atom, score
      L1  C    14    38       P1  7957  0.78
      L1  C    15    39       P1 10175  0.89
      L1  C    17    40       P1  8028  0.34

> <Gold.PLP.Chemscore.Internal.Correction>
0.1014

> <Gold.Rescore>
     Score         DG    S(hbond)    S(metal)    S(lipo)     H(rot)  DE(clash)    DE(int)     intcor
     14.38     -15.40       0.00        0.00     126.04       1.89       0.22       0.80       ----

> <Gold.Chemscore.Fitness>
14.3777

> <Gold.Chemscore.DG>
-15.4005

> <Gold.Chemscore.ZeroCoef>
-5.4800

> <Gold.Chemscore.Hbond>
0.0000

> <Gold.Chemscore.Metal>
0.0000

> <Gold.Chemscore.Lipo>
126.0407

> <Gold.Chemscore.Internal_Hbond>
0.0000

> <Gold.Chemscore.DEClash>
0.2216

> <Gold.Chemscore.DEInternal>
0.8013

> <Gold.Chemscore.Rot>
1.8853

> <Gold.Chemscore.Internal.Correction>
   9.000000E+99

> <Gold.Chemscore.Hbond.Weighted>
-0.0000

> <Gold.Chemscore.Metal.Weighted>
-0.0000

> <Gold.Chemscore.Lipo.Weighted>
-14.7468

> <Gold.Chemscore.Internal_Hbond.Weighted>
0.0000

> <Gold.Chemscore.DEClash.Weighted>
0.2216

> <Gold.Chemscore.DEInternal.Weighted>
0.8013

> <Gold.Chemscore.Rot.Weighted>
4.8263

> <Gold.Chemscore.Internal.Correction.Weighted>
   9.000000E+99

> <Gold.Protein.RotatedTorsions>
[ 6907 6896 6895 6894 ] final  162.59 input  -60.11 | X-H torsion
[ 7974 7965 7964 7962 ] final   18.42 input  175.53 | X-H torsion
[ 8008 7997 7996 7995 ] final -120.01 input   59.86 | X-H torsion
[ 10167 10162 10161 10158 ] final  -54.77 input  -65.29 | X-H torsion
[ 10718 10713 10712 10709 ] final -128.21 input   66.30 | X-H torsion
[ 10763 10752 10751 10750 ] final   84.79 input  -60.55 | X-H torsion
[ 11005 11000 10999 10996 ] final -143.25 input  -57.11 | X-H torsion

> <Gold.Protein.ActiveResidues>
 VAL166  LYS551  ARG553  GLY616  TRP617  ASP618  TYR619  PRO620  LYS621  CYS622 
 ASP623  PHE694  ASN695  SER759  ASP760  ASP761  ALA762  ILE779  LEU786  VAL792 
 PHE793  MET794  SER795  GLU796  ALA797  LYS798  CYS799  TRP800  GLU811  SER814 

> <Gold.Protein.RotatedAtoms>
  151.9381  133.3630  159.3954 H   0  0  0  0  0  0  0  0  0  0  0  0  # atno 6907 bound_to 6896
  150.7004  134.4468  159.5327 H   0  0  0  0  0  0  0  0  0  0  0  0  # atno 6908 bound_to 6896
  152.2120  134.8493  160.0547 H   0  0  0  0  0  0  0  0  0  0  0  0  # atno 6909 bound_to 6896
  146.2185  139.8460  142.8632 H   0  0  0  0  0  0  0  0  0  0  0  0  # atno 7974 bound_to 7965
  155.1250  140.0399  157.2760 H   0  0  0  0  0  0  0  0  0  0  0  0  # atno 8008 bound_to 7997
  154.6585  140.2585  155.7109 H   0  0  0  0  0  0  0  0  0  0  0  0  # atno 8009 bound_to 7997
  156.2609  140.2821  156.1048 H   0  0  0  0  0  0  0  0  0  0  0  0  # atno 8010 bound_to 7997
  140.6412  143.2509  151.4984 H   0  0  0  0  0  0  0  0  0  0  0  0  # atno 10167 bound_to 10162
  156.1929  130.6807  151.0446 H   0  0  0  0  0  0  0  0  0  0  0  0  # atno 10718 bound_to 10713
  153.1414  135.4641  154.9501 H   0  0  0  0  0  0  0  0  0  0  0  0  # atno 10763 bound_to 10752
  154.7750  135.3170  154.8113 H   0  0  0  0  0  0  0  0  0  0  0  0  # atno 10764 bound_to 10752
  153.8635  135.6910  153.4835 H   0  0  0  0  0  0  0  0  0  0  0  0  # atno 10765 bound_to 10752
  140.8144  134.2706  157.4927 H   0  0  0  0  0  0  0  0  0  0  0  0  # atno 11005 bound_to 11000
  145.2850  141.0150  143.3695 LP  0  0  0  0  0  0  0  0  0  0  0  0  # atno 17320 bound_to 7965
  144.9120  139.4516  143.6582 LP  0  0  0  0  0  0  0  0  0  0  0  0  # atno 17321 bound_to 7965
  139.5621  144.2131  152.1708 LP  0  0  0  0  0  0  0  0  0  0  0  0  # atno 17342 bound_to 10162
  140.1402  144.5209  150.6749 LP  0  0  0  0  0  0  0  0  0  0  0  0  # atno 17343 bound_to 10162
  157.6940  131.0800  150.7024 LP  0  0  0  0  0  0  0  0  0  0  0  0  # atno 17370 bound_to 10713
  156.7081  130.4643  149.5554 LP  0  0  0  0  0  0  0  0  0  0  0  0  # atno 17371 bound_to 10713
  139.8712  134.9501  156.4045 LP  0  0  0  0  0  0  0  0  0  0  0  0  # atno 17394 bound_to 11000
  140.9164  133.7675  155.9853 LP  0  0  0  0  0  0  0  0  0  0  0  0  # atno 17395 bound_to 11000

$$$$
