AV-unprocessed.smi:1007|AV-procd|sdf|4409|dock1
  -GOLD-   22720 2353D 1   1.00000     0.00000
 Structure written by MMmdl.
 57 59  0  0  0  0  0  0  0  0  3 V2000
  141.3448  144.8503  156.1927 C   0  0  0  0  0  0  0  0  0  0  0  0
  142.5743  144.2421  156.5487 O   0  0  0  0  0  0  0  0  0  0  0  0
  142.7286  142.9535  155.9779 C   0  0  0  0  0  0  0  0  0  0  0  0
  144.0017  142.3096  156.5479 C   0  0  0  0  0  0  0  0  0  0  0  0
  145.1844  143.2053  156.4402 N   0  3  2  0  0  0  0  0  0  0  0  0
  145.4883  143.6729  155.0620 C   0  0  0  0  0  0  0  0  0  0  0  0
  146.1717  142.5819  154.2112 C   0  0  0  0  0  0  0  0  0  0  0  0
  147.3780  142.0380  154.8889 N   0  3  2  0  0  0  0  0  0  0  0  0
  148.1010  141.0194  154.0833 C   0  0  0  0  0  0  0  0  0  0  0  0
  149.4584  140.6316  154.7019 C   0  0  1  0  0  0  0  0  0  0  0  0
  150.2738  140.0706  153.6902 O   0  0  0  0  0  0  0  0  0  0  0  0
  150.1728  141.8464  155.3252 C   0  0  0  0  0  0  0  0  0  0  0  0
  151.0991  141.4674  156.3771 N   0  0  0  0  0  0  0  0  0  0  0  0
  151.9351  140.4115  156.3778 C   0  0  0  0  0  0  0  0  0  0  0  0
  152.7069  140.2461  157.4477 N   0  0  0  0  0  0  0  0  0  0  0  0
  152.3250  141.3181  158.2357 C   0  0  0  0  0  0  0  0  0  0  0  0
  152.7692  141.7200  159.5144 C   0  0  0  0  0  0  0  0  0  0  0  0
  152.2318  142.8669  160.1409 C   0  0  0  0  0  0  0  0  0  0  0  0
  152.7390  143.2632  161.5164 C   0  0  0  0  0  0  0  0  0  0  0  0
  151.2330  143.6319  159.4867 C   0  0  0  0  0  0  0  0  0  0  0  0
  150.6400  144.8669  160.1419 C   0  0  0  0  0  0  0  0  0  0  0  0
  150.7781  143.2449  158.2087 C   0  0  0  0  0  0  0  0  0  0  0  0
  151.3203  142.1014  157.5954 C   0  0  0  0  0  0  0  0  0  0  0  0
  147.0572  141.5538  156.2547 C   0  0  0  0  0  0  0  0  0  0  0  0
  146.3997  142.6631  157.0969 C   0  0  0  0  0  0  0  0  0  0  0  0
  141.2757  145.8349  156.6551 H   0  0  0  0  0  0  0  0  0  0  0  0
  140.4972  144.2571  156.5378 H   0  0  0  0  0  0  0  0  0  0  0  0
  141.2659  144.9796  155.1126 H   0  0  0  0  0  0  0  0  0  0  0  0
  141.8665  142.3363  156.2360 H   0  0  0  0  0  0  0  0  0  0  0  0
  142.7626  143.0155  154.8899 H   0  0  0  0  0  0  0  0  0  0  0  0
  143.8147  142.0718  157.5960 H   0  0  0  0  0  0  0  0  0  0  0  0
  144.1965  141.3581  156.0539 H   0  0  0  0  0  0  0  0  0  0  0  0
  144.5888  144.0341  154.5647 H   0  0  0  0  0  0  0  0  0  0  0  0
  146.1535  144.5341  155.1381 H   0  0  0  0  0  0  0  0  0  0  0  0
  145.4734  141.7705  154.0021 H   0  0  0  0  0  0  0  0  0  0  0  0
  146.4422  143.0096  153.2467 H   0  0  0  0  0  0  0  0  0  0  0  0
  147.4931  140.1174  153.9941 H   0  0  0  0  0  0  0  0  0  0  0  0
  148.2351  141.3939  153.0674 H   0  0  0  0  0  0  0  0  0  0  0  0
  149.3198  139.8799  155.4783 H   0  0  0  0  0  0  0  0  0  0  0  0
  149.8598  140.2116  152.8517 H   0  0  0  0  0  0  0  0  0  0  0  0
  150.7170  142.4061  154.5633 H   0  0  0  0  0  0  0  0  0  0  0  0
  149.4411  142.5345  155.7507 H   0  0  0  0  0  0  0  0  0  0  0  0
  151.9816  139.7260  155.5441 H   0  0  0  0  0  0  0  0  0  0  0  0
  153.5304  141.1371  160.0120 H   0  0  0  0  0  0  0  0  0  0  0  0
  151.9196  143.2826  162.2349 H   0  0  0  0  0  0  0  0  0  0  0  0
  153.1967  144.2522  161.4848 H   0  0  0  0  0  0  0  0  0  0  0  0
  153.4877  142.5601  161.8824 H   0  0  0  0  0  0  0  0  0  0  0  0
  149.8962  145.3399  159.4999 H   0  0  0  0  0  0  0  0  0  0  0  0
  151.4184  145.6015  160.3497 H   0  0  0  0  0  0  0  0  0  0  0  0
  150.1519  144.6039  161.0807 H   0  0  0  0  0  0  0  0  0  0  0  0
  150.0185  143.8197  157.7006 H   0  0  0  0  0  0  0  0  0  0  0  0
  146.4019  140.6836  156.1912 H   0  0  0  0  0  0  0  0  0  0  0  0
  147.9712  141.2248  156.7507 H   0  0  0  0  0  0  0  0  0  0  0  0
  147.1084  143.4809  157.2348 H   0  0  0  0  0  0  0  0  0  0  0  0
  146.1623  142.2985  158.0970 H   0  0  0  0  0  0  0  0  0  0  0  0
  148.0228  142.8070  155.0081 H   0  0  0  0  0  0  0  0  0  0  0  0
  144.9318  144.0263  156.9732 H   0  0  0  0  0  0  0  0  0  0  0  0
  1  2  1  0  0  0  0
  1 26  1  0  0  0  0
  1 27  1  0  0  0  0
  1 28  1  0  0  0  0
  2  3  1  0  0  0  0
  3  4  1  0  0  0  0
  3 29  1  0  0  0  0
  3 30  1  0  0  0  0
  4  5  1  0  0  0  0
  4 31  1  0  0  0  0
  4 32  1  0  0  0  0
  5 25  1  0  0  0  0
  5  6  1  0  0  0  0
  5 57  1  0  0  0  0
  6  7  1  0  0  0  0
  6 33  1  0  0  0  0
  6 34  1  0  0  0  0
  7  8  1  0  0  0  0
  7 35  1  0  0  0  0
  7 36  1  0  0  0  0
  8  9  1  0  0  0  0
  8 24  1  0  0  0  0
  8 56  1  0  0  0  0
  9 10  1  0  0  0  0
  9 37  1  0  0  0  0
  9 38  1  0  0  0  0
 10 11  1  0  0  0  0
 10 12  1  0  0  0  0
 10 39  1  0  0  0  0
 11 40  1  0  0  0  0
 12 13  1  0  0  0  0
 12 41  1  0  0  0  0
 12 42  1  0  0  0  0
 13 23  1  0  0  0  0
 13 14  1  0  0  0  0
 14 15  2  0  0  0  0
 14 43  1  0  0  0  0
 15 16  1  0  0  0  0
 16 23  2  0  0  0  0
 16 17  1  0  0  0  0
 17 18  2  0  0  0  0
 17 44  1  0  0  0  0
 18 19  1  0  0  0  0
 18 20  1  0  0  0  0
 19 45  1  0  0  0  0
 19 46  1  0  0  0  0
 19 47  1  0  0  0  0
 20 21  1  0  0  0  0
 20 22  2  0  0  0  0
 21 48  1  0  0  0  0
 21 49  1  0  0  0  0
 21 50  1  0  0  0  0
 22 23  1  0  0  0  0
 22 51  1  0  0  0  0
 24 25  1  0  0  0  0
 24 52  1  0  0  0  0
 24 53  1  0  0  0  0
 25 54  1  0  0  0  0
 25 55  1  0  0  0  0
M  CHG  1   5   1
M  CHG  1   8   1
M  END
> <s_m_source_file>
AV-unprocessed.smi

> <i_m_source_file_index>
1007

> <i_lp_mmshare_version>
43012

> <i_f3d_flags>
0

> <s_epik_input>
W0NIM11PW0NIMl1bQ0gyXU4xW0NIMl1bQ0gyXU4oW0NIMl1bQ0gyXTEpW0NIMl1bQ0BIXShbT0hdKVtDSDJdbihbY0hdbjIpYyhjMjMpW2NIXWMoW0NIM10pYyhbY0hdMylbQ0gzXQ==

> <s_epik_cmdline>
J2VwaWtfcHl0aG9uJywgJy1waCcsICc3LjAnLCAnLXRuJywgJzgnLCAnLW1hJywgJzIwMCcsICctbWV0YWxfYmluZGluZycsICctaW1hZScsICc8aW5maWxlLm1hZT4nLCAnLW9tYWUnLCAnPG91dGZpbGUubWFlPic=

> <r_epik_Ionization_Penalty>
3.88944

> <r_epik_Ionization_Penalty_Charging>
3.80608

> <r_epik_Ionization_Penalty_Neutral>
0.0833653

> <r_epik_State_Penalty>
2.70739

> <r_epik_Charging_Adjusted_Penalty>
6.51347

> <i_epik_Tot_Q>
2

> <i_epik_Tot_abs_Q>
2

> <r_epik_Metal_State_Penalty>
2.62239

> <b_epik_Metal_Only>
0

> <s_lp_Force_Field>
OPLS_2005

> <r_lp_Energy>
30.9183

> <b_lp_Chiralities_Consistent>
1

> <s_lp_Variant>
AV-unprocessed.smi:1007-12

> <Gold.Version>
5.8.1

> <Gold.Id.Protein>
6NUR|6NUR_protein|mol2

> <Gold.PLP.Fitness>
57.5793

> <Gold.PLP.PLP>
-44.7069

> <Gold.PLP.part.hbond>
-4.0000

> <Gold.PLP.part.metal>
0.0000

> <Gold.PLP.part.buried>
-5.7991

> <Gold.PLP.part.nonpolar>
-32.9119

> <Gold.PLP.part.repulsive>
0.0997

> <Gold.PLP.ligand.clash>
0.0000

> <Gold.PLP.ligand.torsion>
0.8252

> <Gold.PLP.Chemscore.Hbond>
4.7025

> <Gold.PLP.Chemscore.CHOScore>
0.0000

> <Gold.PLP.Chemscore.Metal>
0.0000

> <Gold.Chemscore.Hbonds>
donor molecule, donor type, donor heavy atom, donor atom, acceptor molecule, acceptor atom, score
      L1  H     8    56       P1  8028  1.30
      L1  H    11    40       P1  7957  1.00
      P1  H  7989  7998       L1    11  0.78
      P1  H  7997  8008       L1    15  0.91

> <Gold.PLP.Chemscore.Internal.Correction>
0.4154

> <Gold.Rescore>
     Score         DG    S(hbond)    S(metal)    S(lipo)     H(rot)  DE(clash)    DE(int)     intcor
     18.33     -20.09       2.08        0.00     123.24       2.63       1.06       0.70       ----

> <Gold.Chemscore.Fitness>
18.3346

> <Gold.Chemscore.DG>
-20.0895

> <Gold.Chemscore.ZeroCoef>
-5.4800

> <Gold.Chemscore.Hbond>
2.0763

> <Gold.Chemscore.Metal>
0.0000

> <Gold.Chemscore.Lipo>
123.2424

> <Gold.Chemscore.Internal_Hbond>
0.0000

> <Gold.Chemscore.DEClash>
1.0550

> <Gold.Chemscore.DEInternal>
0.6999

> <Gold.Chemscore.Rot>
2.6347

> <Gold.Chemscore.Internal.Correction>
   9.000000E+99

> <Gold.Chemscore.Hbonds>
donor molecule, donor type, donor heavy atom, donor atom, acceptor molecule, acceptor atom, score
      L1  H     8    56       P1  8028  0.62
      L1  H    11    40       P1  7957  0.99
      P1  H  7989  7998       L1    11  0.14
      P1  H  7997  8008       L1    15  0.60

> <Gold.Chemscore.Hbond.Weighted>
-6.9349

> <Gold.Chemscore.Metal.Weighted>
-0.0000

> <Gold.Chemscore.Lipo.Weighted>
-14.4194

> <Gold.Chemscore.Internal_Hbond.Weighted>
0.0000

> <Gold.Chemscore.DEClash.Weighted>
1.0550

> <Gold.Chemscore.DEInternal.Weighted>
0.6999

> <Gold.Chemscore.Rot.Weighted>
6.7448

> <Gold.Chemscore.Internal.Correction.Weighted>
   9.000000E+99

> <Gold.Protein.RotatedTorsions>
[ 6907 6896 6895 6894 ] final  127.96 input  -60.11 | X-H torsion
[ 7974 7965 7964 7962 ] final  -58.94 input  175.53 | X-H torsion
[ 8008 7997 7996 7995 ] final  -77.31 input   59.86 | X-H torsion
[ 10167 10162 10161 10158 ] final  156.55 input  -65.29 | X-H torsion
[ 10718 10713 10712 10709 ] final  125.86 input   66.30 | X-H torsion
[ 10763 10752 10751 10750 ] final  -48.67 input  -60.55 | X-H torsion
[ 11005 11000 10999 10996 ] final  -63.56 input  -57.11 | X-H torsion

> <Gold.Protein.ActiveResidues>
 VAL166  LYS551  ARG553  GLY616  TRP617  ASP618  TYR619  PRO620  LYS621  CYS622 
 ASP623  PHE694  ASN695  SER759  ASP760  ASP761  ALA762  ILE779  LEU786  VAL792 
 PHE793  MET794  SER795  GLU796  ALA797  LYS798  CYS799  TRP800  GLU811  SER814 

> <Gold.Protein.RotatedAtoms>
  152.3764  133.6487  159.6126 H   0  0  0  0  0  0  0  0  0  0  0  0  # atno 6907 bound_to 6896
  150.7707  133.9186  159.3400 H   0  0  0  0  0  0  0  0  0  0  0  0  # atno 6908 bound_to 6896
  151.7000  135.0933  160.0300 H   0  0  0  0  0  0  0  0  0  0  0  0  # atno 6909 bound_to 6896
  145.8334  140.8465  143.0072 H   0  0  0  0  0  0  0  0  0  0  0  0  # atno 7974 bound_to 7965
  154.5584  140.0712  156.8780 H   0  0  0  0  0  0  0  0  0  0  0  0  # atno 8008 bound_to 7997
  155.2857  140.3374  155.4237 H   0  0  0  0  0  0  0  0  0  0  0  0  # atno 8009 bound_to 7997
  156.2022  140.1726  156.7861 H   0  0  0  0  0  0  0  0  0  0  0  0  # atno 8010 bound_to 7997
  139.4821  144.4998  151.8185 H   0  0  0  0  0  0  0  0  0  0  0  0  # atno 10167 bound_to 10162
  157.5468  131.1095  150.8769 H   0  0  0  0  0  0  0  0  0  0  0  0  # atno 10718 bound_to 10713
  154.0816  135.6590  153.4839 H   0  0  0  0  0  0  0  0  0  0  0  0  # atno 10763 bound_to 10752
  153.0354  135.5181  154.7468 H   0  0  0  0  0  0  0  0  0  0  0  0  # atno 10764 bound_to 10752
  154.6565  135.3008  154.9889 H   0  0  0  0  0  0  0  0  0  0  0  0  # atno 10765 bound_to 10752
  141.1397  133.6653  156.5699 H   0  0  0  0  0  0  0  0  0  0  0  0  # atno 11005 bound_to 11000
  144.6738  140.0706  143.7473 LP  0  0  0  0  0  0  0  0  0  0  0  0  # atno 17320 bound_to 7965
  145.9545  139.2757  143.1192 LP  0  0  0  0  0  0  0  0  0  0  0  0  # atno 17321 bound_to 7965
  140.4490  144.1881  150.5896 LP  0  0  0  0  0  0  0  0  0  0  0  0  # atno 17342 bound_to 10162
  140.4604  143.2451  151.9227 LP  0  0  0  0  0  0  0  0  0  0  0  0  # atno 17343 bound_to 10162
  156.9306  130.5348  149.5279 LP  0  0  0  0  0  0  0  0  0  0  0  0  # atno 17370 bound_to 10713
  156.0542  130.5606  150.9056 LP  0  0  0  0  0  0  0  0  0  0  0  0  # atno 17371 bound_to 10713
  140.3921  134.7431  157.4728 LP  0  0  0  0  0  0  0  0  0  0  0  0  # atno 17394 bound_to 11000
  140.0558  134.6065  155.8806 LP  0  0  0  0  0  0  0  0  0  0  0  0  # atno 17395 bound_to 11000

$$$$
