#       Name:                AV-unprocessed.smi:485
#       Creating user name   scv26
#       Creation time:       Thu Mar 26 23:12:48 2020


#       File generated by GOLD software.
#

@<TRIPOS>MOLECULE
AV-unprocessed.smi:485
    41    43     1
SMALL
NO_CHARGES


@<TRIPOS>ATOM
      1 ****        -1.1038   3.2004  -1.9240 O.3            1 S1                 0.0000
      2 ****        -1.4775   2.7843  -0.6292 C.3            1 S1                 0.0000
      3 ****        -1.9478   1.3676  -0.6036 C.2            1 S1                 0.0000
      4 ****        -3.2469   0.9571  -0.6321 N.pl3          1 S1                 1.0000
      5 ****        -3.3024  -0.4371  -0.6117 C.ar           1 S1                 0.0000
      6 ****        -4.3897  -1.3053  -0.6306 C.ar           1 S1                 0.0000
      7 ****        -4.0987  -2.6851  -0.6007 C.ar           1 S1                 0.0000
      8 ****        -2.7698  -3.1539  -0.5511 C.ar           1 S1                 0.0000
      9 ****        -1.6757  -2.2637  -0.5317 C.ar           1 S1                 0.0000
     10 ****        -1.9714  -0.9008  -0.5656 C.ar           1 S1                 0.0000
     11 ****        -1.1701   0.2476  -0.5638 N.pl3          1 S1                 0.0000
     12 ****         0.2956   0.1160  -0.5315 C.3            1 S1                 0.0000
     13 ****         0.8792   0.2076   0.8928 C.3            1 S1                 0.0000
     14 ****         0.3224  -0.7989   1.7163 O.3            1 S1                 0.0000
     15 ****         2.3988   0.1563   0.8669 C.ar           1 S1                 0.0000
     16 ****         3.0762  -1.0758   0.7297 C.ar           1 S1                 0.0000
     17 ****         4.4838  -1.1125   0.6974 C.ar           1 S1                 0.0000
     18 ****         5.2226   0.0819   0.7986 C.ar           1 S1                 0.0000
     19 ****         4.5528   1.3133   0.9309 C.ar           1 S1                 0.0000
     20 ****         3.1451   1.3506   0.9641 C.ar           1 S1                 0.0000
     21 ****        -0.8024   4.0950  -1.8786 H              1 S1                 0.0000
     22 ****        -0.6271   2.8996   0.0428 H              1 S1                 0.0000
     23 ****        -2.2690   3.4373  -0.2605 H              1 S1                 0.0000
     24 ****        -5.4086  -0.9486  -0.6674 H              1 S1                 0.0000
     25 ****        -4.9105  -3.3977  -0.6148 H              1 S1                 0.0000
     26 ****        -2.5851  -4.2181  -0.5265 H              1 S1                 0.0000
     27 ****        -0.6624  -2.6345  -0.4877 H              1 S1                 0.0000
     28 ****         0.5850  -0.8144  -1.0204 H              1 S1                 0.0000
     29 ****         0.7026   0.9178  -1.1489 H              1 S1                 0.0000
     30 ****         0.5805   1.1604   1.3316 H              1 S1                 0.0000
     31 ****         0.6327  -0.6670   2.5994 H              1 S1                 0.0000
     32 ****         2.5186  -1.9973   0.6464 H              1 S1                 0.0000
     33 ****         4.9971  -2.0571   0.5930 H              1 S1                 0.0000
     34 ****         6.3021   0.0536   0.7728 H              1 S1                 0.0000
     35 ****         5.1190   2.2300   1.0058 H              1 S1                 0.0000
     36 ****         2.6413   2.3009   1.0624 H              1 S1                 0.0000
     37 ****        -4.0364   1.5888  -0.6692 H              1 S1                 0.0000
     38 ****        -1.8915   3.1412  -2.5372 LP             1 S1                 0.0000
     39 ****        -0.3695   2.6147  -2.2671 LP             1 S1                 0.0000
     40 ****         0.6080  -1.6995   1.3888 LP             1 S1                 0.0000
     41 ****        -0.6755  -0.7380   1.6962 LP             1 S1                 0.0000
@<TRIPOS>BOND
    1    1    2 1     
    2    1   21 1     
    3    2    3 1     
    4    2   22 1     
    5    2   23 1     
    6    3   11 1     
    7    3    4 2     
    8    4    5 1     
    9    4   37 1     
   10    5   10 ar    
   11    5    6 ar    
   12    6    7 ar    
   13    6   24 1     
   14    7    8 ar    
   15    7   25 1     
   16    8    9 ar    
   17    8   26 1     
   18    9   10 ar    
   19    9   27 1     
   20   10   11 1     
   21   11   12 1     
   22   12   13 1     
   23   12   28 1     
   24   12   29 1     
   25   13   14 1     
   26   13   15 1     
   27   13   30 1     
   28   14   31 1     
   29   15   20 ar    
   30   15   16 ar    
   31   16   17 ar    
   32   16   32 1     
   33   17   18 ar    
   34   17   33 1     
   35   18   19 ar    
   36   18   34 1     
   37   19   20 ar    
   38   19   35 1     
   39   20   36 1     
   40    1   38 1     
   41    1   39 1     
   42   14   40 1     
   43   14   41 1     
@<TRIPOS>SUBSTRUCTURE
      1 S1             1
@<TRIPOS>SET
LONE_PAIRS      STATIC     ATOMS    <user>   **** ""
4 38 39 40 41
DONOR_HYDROGENS      STATIC     ATOMS    <user>   **** ""
3 21 37 31
ATOM$BLUE        STATIC     ATOMS    COLORGROUP SYSTEM
4 38 39 40 41
ATOM$RED        STATIC     ATOMS    COLORGROUP SYSTEM
3 21 37 31
