AV-unprocessed.smi:2712|AV-procd|sdf|10476|dock4
  -GOLD-   2272014513D 1   1.00000     0.00000
 Structure written by MMmdl.
 52 53  0  0  0  0  0  0  0  0  1 V2000
  146.1388  138.3931  154.0362 C   0  0  0  0  0  0  0  0  0  0  0  0
  147.5426  138.8827  154.2369 C   0  0  0  0  0  0  0  0  0  0  0  0
  147.9102  140.2828  154.1436 C   0  0  0  0  0  0  0  0  0  0  0  0
  149.1976  140.6430  154.3327 C   0  0  0  0  0  0  0  0  0  0  0  0
  150.2347  139.6583  154.6335 C   0  0  0  0  0  0  0  0  0  0  0  0
  151.4168  139.9537  154.8080 O   0  0  0  0  0  0  0  0  0  0  0  0
  149.7696  138.3757  154.7058 N   0  0  0  0  0  0  0  0  0  0  0  0
  150.6688  137.2562  155.0216 C   0  0  0  0  0  0  0  0  0  0  0  0
  149.9315  135.9476  155.3437 C   0  0  0  0  0  0  0  0  0  0  0  0
  150.0205  135.4261  156.4565 O   0  0  0  0  0  0  0  0  0  0  0  0
  149.1893  135.4365  154.3495 N   0  0  0  0  0  0  0  0  0  0  0  0
  148.3957  134.2115  154.4240 C   0  0  2  0  0  0  0  0  0  0  0  0
  148.7099  133.3102  153.2130 C   0  0  0  0  0  0  0  0  0  0  0  0
  147.6767  132.2038  152.9560 C   0  0  0  0  0  0  0  0  0  0  0  0
  146.5233  132.6525  152.0384 C   0  0  0  0  0  0  0  0  0  0  0  0
  145.4692  133.6072  152.6666 C   0  0  2  0  0  0  0  0  0  0  0  0
  144.2915  133.9659  151.6855 C   0  0  0  0  0  0  0  0  0  0  0  0
  143.1523  134.7209  152.4043 C   0  0  0  0  0  0  0  0  0  0  0  0
  143.7052  132.6853  151.0439 C   0  0  0  0  0  0  0  0  0  0  0  0
  144.7887  134.8435  150.5134 C   0  0  0  0  0  0  0  0  0  0  0  0
  146.1364  134.8606  153.3026 C   0  0  0  0  0  0  0  0  0  0  0  0
  146.9056  134.5627  154.6022 C   0  0  0  0  0  0  0  0  0  0  0  0
  148.4509  138.0026  154.5041 N   0  0  0  0  0  0  0  0  0  0  0  0
  145.4691  139.2122  153.7730 H   0  0  0  0  0  0  0  0  0  0  0  0
  145.7570  137.9281  154.9456 H   0  0  0  0  0  0  0  0  0  0  0  0
  146.0948  137.6555  153.2343 H   0  0  0  0  0  0  0  0  0  0  0  0
  147.1551  141.0233  153.9246 H   0  0  0  0  0  0  0  0  0  0  0  0
  149.4701  141.6859  154.2634 H   0  0  0  0  0  0  0  0  0  0  0  0
  151.3415  137.0681  154.1828 H   0  0  0  0  0  0  0  0  0  0  0  0
  151.3158  137.5215  155.8598 H   0  0  0  0  0  0  0  0  0  0  0  0
  149.1744  135.9320  153.4699 H   0  0  0  0  0  0  0  0  0  0  0  0
  148.6872  133.6739  155.3283 H   0  0  0  0  0  0  0  0  0  0  0  0
  148.8272  133.9104  152.3094 H   0  0  0  0  0  0  0  0  0  0  0  0
  149.6846  132.8492  153.3791 H   0  0  0  0  0  0  0  0  0  0  0  0
  148.1906  131.3827  152.4548 H   0  0  0  0  0  0  0  0  0  0  0  0
  147.3005  131.7872  153.8909 H   0  0  0  0  0  0  0  0  0  0  0  0
  146.9407  133.0937  151.1337 H   0  0  0  0  0  0  0  0  0  0  0  0
  146.0306  131.7353  151.7198 H   0  0  0  0  0  0  0  0  0  0  0  0
  145.0098  133.0460  153.4816 H   0  0  0  0  0  0  0  0  0  0  0  0
  142.3545  134.9805  151.7074 H   0  0  0  0  0  0  0  0  0  0  0  0
  143.4988  135.6515  152.8533 H   0  0  0  0  0  0  0  0  0  0  0  0
  142.6999  134.1211  153.1938 H   0  0  0  0  0  0  0  0  0  0  0  0
  143.1746  132.0568  151.7573 H   0  0  0  0  0  0  0  0  0  0  0  0
  144.4846  132.0789  150.5810 H   0  0  0  0  0  0  0  0  0  0  0  0
  142.9820  132.9286  150.2646 H   0  0  0  0  0  0  0  0  0  0  0  0
  144.0156  134.9720  149.7550 H   0  0  0  0  0  0  0  0  0  0  0  0
  145.6547  134.3987  150.0218 H   0  0  0  0  0  0  0  0  0  0  0  0
  145.0634  135.8473  150.8372 H   0  0  0  0  0  0  0  0  0  0  0  0
  146.7790  135.3703  152.5840 H   0  0  0  0  0  0  0  0  0  0  0  0
  145.3755  135.5891  153.5697 H   0  0  0  0  0  0  0  0  0  0  0  0
  146.4047  133.7589  155.1425 H   0  0  0  0  0  0  0  0  0  0  0  0
  146.8287  135.4247  155.2667 H   0  0  0  0  0  0  0  0  0  0  0  0
  1  2  1  0  0  0  0
  1 24  1  0  0  0  0
  1 25  1  0  0  0  0
  1 26  1  0  0  0  0
  2 23  2  0  0  0  0
  2  3  1  0  0  0  0
  3  4  2  0  0  0  0
  3 27  1  0  0  0  0
  4  5  1  0  0  0  0
  4 28  1  0  0  0  0
  5  6  2  0  0  0  0
  5  7  1  0  0  0  0
  7  8  1  0  0  0  0
  7 23  1  0  0  0  0
  8  9  1  0  0  0  0
  8 29  1  0  0  0  0
  8 30  1  0  0  0  0
  9 10  2  0  0  0  0
  9 11  1  0  0  0  0
 11 12  1  0  0  0  0
 11 31  1  0  0  0  0
 12 22  1  0  0  0  0
 12 13  1  0  0  0  0
 12 32  1  0  0  0  0
 13 14  1  0  0  0  0
 13 33  1  0  0  0  0
 13 34  1  0  0  0  0
 14 15  1  0  0  0  0
 14 35  1  0  0  0  0
 14 36  1  0  0  0  0
 15 16  1  0  0  0  0
 15 37  1  0  0  0  0
 15 38  1  0  0  0  0
 16 17  1  0  0  0  0
 16 21  1  0  0  0  0
 16 39  1  0  0  0  0
 17 18  1  0  0  0  0
 17 19  1  0  0  0  0
 17 20  1  0  0  0  0
 18 40  1  0  0  0  0
 18 41  1  0  0  0  0
 18 42  1  0  0  0  0
 19 43  1  0  0  0  0
 19 44  1  0  0  0  0
 19 45  1  0  0  0  0
 20 46  1  0  0  0  0
 20 47  1  0  0  0  0
 20 48  1  0  0  0  0
 21 22  1  0  0  0  0
 21 49  1  0  0  0  0
 21 50  1  0  0  0  0
 22 51  1  0  0  0  0
 22 52  1  0  0  0  0
M  END
> <s_m_source_file>
AV-unprocessed.smi

> <i_m_source_file_index>
2712

> <i_lp_mmshare_version>
43012

> <i_f3d_flags>
0

> <s_epik_input>
W0NIM11jMVtjSF1bY0hdYyg9TyluKG4xKVtDSDJdQyg9TylbTkhdW0NAQEhdMltDSDJdW0NIMl1bQ0gyXVtDQEBIXShDKFtDSDNdKShbQ0gzXSlbQ0gzXSlbQ0gyXVtDSDJdMg==

> <s_epik_cmdline>
J2VwaWtfcHl0aG9uJywgJy1waCcsICc3LjAnLCAnLXRuJywgJzgnLCAnLW1hJywgJzIwMCcsICctbWV0YWxfYmluZGluZycsICctaW1hZScsICc8aW5maWxlLm1hZT4nLCAnLW9tYWUnLCAnPG91dGZpbGUubWFlPic=

> <r_lp_tautomer_probability>
1

> <r_epik_Ionization_Penalty>
8.71758e-07

> <r_epik_Ionization_Penalty_Charging>
8.50442e-07

> <r_epik_Ionization_Penalty_Neutral>
2.13165e-08

> <r_epik_State_Penalty>
-0

> <r_epik_Charging_Adjusted_Penalty>
8.50442e-07

> <i_epik_Tot_Q>
0

> <i_epik_Tot_abs_Q>
0

> <r_epik_Metal_State_Penalty>
-0

> <b_epik_Metal_Only>
0

> <s_lp_Force_Field>
OPLS_2005

> <r_lp_Energy>
39.6201

> <b_lp_Chiralities_Consistent>
1

> <s_lp_Variant>
AV-unprocessed.smi:2712-3

> <Gold.Version>
5.8.1

> <Gold.Id.Protein>
6NUR|6NUR_protein|mol2

> <Gold.PLP.Fitness>
42.6798

> <Gold.PLP.PLP>
-37.3054

> <Gold.PLP.part.hbond>
-2.0000

> <Gold.PLP.part.metal>
0.0000

> <Gold.PLP.part.buried>
-3.0711

> <Gold.PLP.part.nonpolar>
-31.9234

> <Gold.PLP.part.repulsive>
0.2528

> <Gold.PLP.ligand.clash>
0.0000

> <Gold.PLP.ligand.torsion>
0.3679

> <Gold.PLP.Chemscore.Hbond>
2.0000

> <Gold.PLP.Chemscore.CHOScore>
0.0000

> <Gold.PLP.Chemscore.Metal>
0.0000

> <Gold.Chemscore.Hbonds>
donor molecule, donor type, donor heavy atom, donor atom, acceptor molecule, acceptor atom, score
      L1  H    11    31       P1  7948  1.00
      P1  H  7989  7998       L1     6  0.95

> <Gold.PLP.Chemscore.Internal.Correction>
0.1102

> <Gold.Rescore>
     Score         DG    S(hbond)    S(metal)    S(lipo)     H(rot)  DE(clash)    DE(int)     intcor
     15.29     -17.51       1.89        0.00      81.90       1.52       0.27       1.95       ----

> <Gold.Chemscore.Fitness>
15.2873

> <Gold.Chemscore.DG>
-17.5055

> <Gold.Chemscore.ZeroCoef>
-5.4800

> <Gold.Chemscore.Hbond>
1.8935

> <Gold.Chemscore.Metal>
0.0000

> <Gold.Chemscore.Lipo>
81.9044

> <Gold.Chemscore.Internal_Hbond>
0.0000

> <Gold.Chemscore.DEClash>
0.2683

> <Gold.Chemscore.DEInternal>
1.9499

> <Gold.Chemscore.Rot>
1.5162

> <Gold.Chemscore.Internal.Correction>
   9.000000E+99

> <Gold.Chemscore.Hbonds>
donor molecule, donor type, donor heavy atom, donor atom, acceptor molecule, acceptor atom, score
      L1  H    11    31       P1  7948  0.78
      P1  H  7989  7998       L1     6  0.21

> <Gold.Chemscore.Hbond.Weighted>
-6.3241

> <Gold.Chemscore.Metal.Weighted>
-0.0000

> <Gold.Chemscore.Lipo.Weighted>
-9.5828

> <Gold.Chemscore.Internal_Hbond.Weighted>
0.0000

> <Gold.Chemscore.DEClash.Weighted>
0.2683

> <Gold.Chemscore.DEInternal.Weighted>
1.9499

> <Gold.Chemscore.Rot.Weighted>
3.8814

> <Gold.Chemscore.Internal.Correction.Weighted>
   9.000000E+99

> <Gold.Protein.RotatedTorsions>
[ 6907 6896 6895 6894 ] final  -34.58 input  -60.11 | X-H torsion
[ 7974 7965 7964 7962 ] final -148.57 input  175.53 | X-H torsion
[ 8008 7997 7996 7995 ] final  174.19 input   59.86 | X-H torsion
[ 10167 10162 10161 10158 ] final   31.78 input  -65.29 | X-H torsion
[ 10718 10713 10712 10709 ] final -143.33 input   66.30 | X-H torsion
[ 10763 10752 10751 10750 ] final    7.86 input  -60.55 | X-H torsion
[ 11005 11000 10999 10996 ] final -134.66 input  -57.11 | X-H torsion

> <Gold.Protein.ActiveResidues>
 VAL166  LYS551  ARG553  GLY616  TRP617  ASP618  TYR619  PRO620  LYS621  CYS622 
 ASP623  PHE694  ASN695  SER759  ASP760  ASP761  ALA762  ILE779  LEU786  VAL792 
 PHE793  MET794  SER795  GLU796  ALA797  LYS798  CYS799  TRP800  GLU811  SER814 

> <Gold.Protein.RotatedAtoms>
  151.0508  134.9671  159.8210 H   0  0  0  0  0  0  0  0  0  0  0  0  # atno 6907 bound_to 6896
  152.5380  134.2540  159.8919 H   0  0  0  0  0  0  0  0  0  0  0  0  # atno 6908 bound_to 6896
  151.2555  133.4285  159.2647 H   0  0  0  0  0  0  0  0  0  0  0  0  # atno 6909 bound_to 6896
  144.8021  140.5179  143.5700 H   0  0  0  0  0  0  0  0  0  0  0  0  # atno 7974 bound_to 7965
  156.0999  140.1441  156.9481 H   0  0  0  0  0  0  0  0  0  0  0  0  # atno 8008 bound_to 7997
  154.4696  140.0914  156.7155 H   0  0  0  0  0  0  0  0  0  0  0  0  # atno 8009 bound_to 7997
  155.4777  140.3444  155.4337 H   0  0  0  0  0  0  0  0  0  0  0  0  # atno 8010 bound_to 7997
  140.4558  144.0981  150.6201 H   0  0  0  0  0  0  0  0  0  0  0  0  # atno 10167 bound_to 10162
  156.3566  130.7716  151.1877 H   0  0  0  0  0  0  0  0  0  0  0  0  # atno 10718 bound_to 10713
  153.2315  135.6893  153.7884 H   0  0  0  0  0  0  0  0  0  0  0  0  # atno 10763 bound_to 10752
  153.7047  135.3292  155.3233 H   0  0  0  0  0  0  0  0  0  0  0  0  # atno 10764 bound_to 10752
  154.8316  135.4576  154.1203 H   0  0  0  0  0  0  0  0  0  0  0  0  # atno 10765 bound_to 10752
  140.8970  134.1740  157.4488 H   0  0  0  0  0  0  0  0  0  0  0  0  # atno 11005 bound_to 11000
  145.5528  139.1477  143.3385 LP  0  0  0  0  0  0  0  0  0  0  0  0  # atno 17320 bound_to 7965
  146.2305  140.5665  142.8977 LP  0  0  0  0  0  0  0  0  0  0  0  0  # atno 17321 bound_to 7965
  140.4153  143.2637  151.9782 LP  0  0  0  0  0  0  0  0  0  0  0  0  # atno 17342 bound_to 10162
  139.4801  144.5879  151.7822 LP  0  0  0  0  0  0  0  0  0  0  0  0  # atno 17343 bound_to 10162
  157.7468  131.0412  150.4635 LP  0  0  0  0  0  0  0  0  0  0  0  0  # atno 17370 bound_to 10713
  156.4839  130.4080  149.6445 LP  0  0  0  0  0  0  0  0  0  0  0  0  # atno 17371 bound_to 10713
  139.8737  134.9882  156.5402 LP  0  0  0  0  0  0  0  0  0  0  0  0  # atno 17394 bound_to 11000
  140.8277  133.8303  155.8955 LP  0  0  0  0  0  0  0  0  0  0  0  0  # atno 17395 bound_to 11000

$$$$
