AV-unprocessed.smi:1661|AV-procd|sdf|6656|dock8
  -GOLD-   22720 7363D 1   1.00000     0.00000
 Structure written by MMmdl.
 37 38  0  0  0  0  0  0  0  0  3 V2000
  143.7967  134.3293  152.0806 C   0  0  0  0  0  0  0  0  0  0  0  0
  145.2706  134.4492  151.6550 C   0  0  2  0  0  0  0  0  0  0  0  0
  146.2464  134.2928  152.8352 C   0  0  0  0  0  0  0  0  0  0  0  0
  146.2644  135.5339  153.7456 C   0  0  0  0  0  0  0  0  0  0  0  0
  146.5733  136.7656  152.9742 N   0  3  2  0  0  0  0  0  0  0  0  0
  146.7240  137.9523  153.8528 C   0  0  0  0  0  0  0  0  0  0  0  0
  147.2372  139.1866  153.0876 C   0  0  0  0  0  0  0  0  0  0  0  0
  148.6524  139.4205  153.3486 N   0  0  0  0  0  0  0  0  0  0  0  0
  149.2015  139.6265  154.5541 C   0  0  0  0  0  0  0  0  0  0  0  0
  148.4907  139.6208  155.5618 O   0  0  0  0  0  0  0  0  0  0  0  0
  150.5369  139.8319  154.5152 N   0  5  0  0  0  0  0  0  0  0  0  0
  151.2464  139.8520  155.6557 C   0  0  0  0  0  0  0  0  0  0  0  0
  152.5418  139.5014  155.7017 N   0  0  0  0  0  0  0  0  0  0  0  0
  153.0885  139.5971  156.9743 N   0  0  0  0  0  0  0  0  0  0  0  0
  152.1887  140.0273  157.8584 C   0  0  0  0  0  0  0  0  0  0  0  0
  150.5933  140.3570  157.2165 S   0  0  0  0  0  0  0  0  0  0  0  0
  145.6033  136.9755  151.8667 C   0  0  0  0  0  0  0  0  0  0  0  0
  145.5709  135.7655  150.9157 C   0  0  0  0  0  0  0  0  0  0  0  0
  143.5054  135.1098  152.7827 H   0  0  0  0  0  0  0  0  0  0  0  0
  143.6061  133.3682  152.5591 H   0  0  0  0  0  0  0  0  0  0  0  0
  143.1349  134.3998  151.2169 H   0  0  0  0  0  0  0  0  0  0  0  0
  145.4584  133.6297  150.9602 H   0  0  0  0  0  0  0  0  0  0  0  0
  145.9972  133.4047  153.4170 H   0  0  0  0  0  0  0  0  0  0  0  0
  147.2521  134.1262  152.4470 H   0  0  0  0  0  0  0  0  0  0  0  0
  145.3074  135.6507  154.2559 H   0  0  0  0  0  0  0  0  0  0  0  0
  147.0171  135.3894  154.5215 H   0  0  0  0  0  0  0  0  0  0  0  0
  145.7776  138.1694  154.3507 H   0  0  0  0  0  0  0  0  0  0  0  0
  147.4382  137.7176  154.6433 H   0  0  0  0  0  0  0  0  0  0  0  0
  147.0691  139.0727  152.0154 H   0  0  0  0  0  0  0  0  0  0  0  0
  146.7022  140.0849  153.3918 H   0  0  0  0  0  0  0  0  0  0  0  0
  149.2714  139.4275  152.5510 H   0  0  0  0  0  0  0  0  0  0  0  0
  152.4666  140.1547  158.8939 H   0  0  0  0  0  0  0  0  0  0  0  0
  144.6111  137.1630  152.2793 H   0  0  0  0  0  0  0  0  0  0  0  0
  145.8722  137.8609  151.2921 H   0  0  0  0  0  0  0  0  0  0  0  0
  146.5378  135.6827  150.4171 H   0  0  0  0  0  0  0  0  0  0  0  0
  144.8376  135.9303  150.1255 H   0  0  0  0  0  0  0  0  0  0  0  0
  147.4772  136.6109  152.5511 H   0  0  0  0  0  0  0  0  0  0  0  0
  1  2  1  0  0  0  0
  1 19  1  0  0  0  0
  1 20  1  0  0  0  0
  1 21  1  0  0  0  0
  2 18  1  0  0  0  0
  2  3  1  0  0  0  0
  2 22  1  0  0  0  0
  3  4  1  0  0  0  0
  3 23  1  0  0  0  0
  3 24  1  0  0  0  0
  4  5  1  0  0  0  0
  4 25  1  0  0  0  0
  4 26  1  0  0  0  0
  5  6  1  0  0  0  0
  5 17  1  0  0  0  0
  5 37  1  0  0  0  0
  6  7  1  0  0  0  0
  6 27  1  0  0  0  0
  6 28  1  0  0  0  0
  7  8  1  0  0  0  0
  7 29  1  0  0  0  0
  7 30  1  0  0  0  0
  8  9  1  0  0  0  0
  8 31  1  0  0  0  0
  9 10  2  0  0  0  0
  9 11  1  0  0  0  0
 11 12  1  0  0  0  0
 12 16  1  0  0  0  0
 12 13  2  0  0  0  0
 13 14  1  0  0  0  0
 14 15  2  0  0  0  0
 15 16  1  0  0  0  0
 15 32  1  0  0  0  0
 17 18  1  0  0  0  0
 17 33  1  0  0  0  0
 17 34  1  0  0  0  0
 18 35  1  0  0  0  0
 18 36  1  0  0  0  0
M  CHG  1   5   1
M  CHG  1  11  -1
M  END
> <s_m_source_file>
AV-unprocessed.smi

> <i_m_source_file_index>
1661

> <i_lp_mmshare_version>
43012

> <i_f3d_flags>
0

> <s_epik_input>
W0NIM11bQ0hdMVtDSDJdW0NIMl1OKFtDSDJdW0NIMl0xKVtDSDJdW0NIMl1bTkhdQyg9TylbTkhdYzJubltjSF1zMg==

> <s_epik_cmdline>
J2VwaWtfcHl0aG9uJywgJy1waCcsICc3LjAnLCAnLXRuJywgJzgnLCAnLW1hJywgJzIwMCcsICctbWV0YWxfYmluZGluZycsICctaW1hZScsICc8aW5maWxlLm1hZT4nLCAnLW9tYWUnLCAnPG91dGZpbGUubWFlPic=

> <r_lp_tautomer_probability>
1

> <r_epik_Ionization_Penalty>
3.04466

> <r_epik_Ionization_Penalty_Charging>
3.01305

> <r_epik_Ionization_Penalty_Neutral>
0.0316037

> <r_epik_State_Penalty>
3.00821

> <r_epik_Charging_Adjusted_Penalty>
6.02127

> <i_epik_Tot_Q>
0

> <i_epik_Tot_abs_Q>
2

> <r_epik_Metal_State_Penalty>
0.454395

> <b_epik_Metal_Only>
1

> <s_lp_Force_Field>
OPLS_2005

> <r_lp_Energy>
9.834

> <b_lp_Chiralities_Consistent>
1

> <s_lp_Variant>
AV-unprocessed.smi:1661-4

> <Gold.Version>
5.8.1

> <Gold.Id.Protein>
6NUR|6NUR_protein|mol2

> <Gold.PLP.Fitness>
41.9787

> <Gold.PLP.PLP>
-27.9517

> <Gold.PLP.part.hbond>
-4.6138

> <Gold.PLP.part.metal>
0.0000

> <Gold.PLP.part.buried>
-3.4586

> <Gold.PLP.part.nonpolar>
-20.2502

> <Gold.PLP.part.repulsive>
0.2402

> <Gold.PLP.ligand.clash>
0.0000

> <Gold.PLP.ligand.torsion>
0.5196

> <Gold.PLP.Chemscore.Hbond>
5.0000

> <Gold.PLP.Chemscore.CHOScore>
0.0000

> <Gold.PLP.Chemscore.Metal>
0.0000

> <Gold.Chemscore.Hbonds>
donor molecule, donor type, donor heavy atom, donor atom, acceptor molecule, acceptor atom, score
      L1  H     5    37       P1  7948  2.00
      L1  H     8    31       P1  7957  0.96
      P1  H  7989  7998       L1    11  0.95
      P1  H  7997  8010       L1    14  0.91

> <Gold.PLP.Chemscore.Internal.Correction>
0.0662

> <Gold.Rescore>
     Score         DG    S(hbond)    S(metal)    S(lipo)     H(rot)  DE(clash)    DE(int)     intcor
     13.53     -16.63       3.00        0.00      46.37       1.68       0.01       3.09       ----

> <Gold.Chemscore.Fitness>
13.5252

> <Gold.Chemscore.DG>
-16.6253

> <Gold.Chemscore.ZeroCoef>
-5.4800

> <Gold.Chemscore.Hbond>
2.9987

> <Gold.Chemscore.Metal>
0.0000

> <Gold.Chemscore.Lipo>
46.3653

> <Gold.Chemscore.Internal_Hbond>
0.0000

> <Gold.Chemscore.DEClash>
0.0135

> <Gold.Chemscore.DEInternal>
3.0866

> <Gold.Chemscore.Rot>
1.6777

> <Gold.Chemscore.Internal.Correction>
   9.000000E+99

> <Gold.Chemscore.Hbonds>
donor molecule, donor type, donor heavy atom, donor atom, acceptor molecule, acceptor atom, score
      L1  H     5    37       P1  7948  1.00
      L1  H     8    31       P1  7957  0.88
      P1  H  7989  7998       L1    11  0.22
      P1  H  7997  8010       L1    14  0.65

> <Gold.Chemscore.Hbond.Weighted>
-10.0155

> <Gold.Chemscore.Metal.Weighted>
-0.0000

> <Gold.Chemscore.Lipo.Weighted>
-5.4247

> <Gold.Chemscore.Internal_Hbond.Weighted>
0.0000

> <Gold.Chemscore.DEClash.Weighted>
0.0135

> <Gold.Chemscore.DEInternal.Weighted>
3.0866

> <Gold.Chemscore.Rot.Weighted>
4.2950

> <Gold.Chemscore.Internal.Correction.Weighted>
   9.000000E+99

> <Gold.Protein.RotatedTorsions>
[ 6907 6896 6895 6894 ] final  -21.73 input  -60.11 | X-H torsion
[ 7974 7965 7964 7962 ] final -127.22 input  175.53 | X-H torsion
[ 8008 7997 7996 7995 ] final   40.56 input   59.86 | X-H torsion
[ 10167 10162 10161 10158 ] final -135.41 input  -65.29 | X-H torsion
[ 10718 10713 10712 10709 ] final  170.68 input   66.30 | X-H torsion
[ 10763 10752 10751 10750 ] final -140.68 input  -60.55 | X-H torsion
[ 11005 11000 10999 10996 ] final   38.33 input  -57.11 | X-H torsion

> <Gold.Protein.ActiveResidues>
 VAL166  LYS551  ARG553  GLY616  TRP617  ASP618  TYR619  PRO620  LYS621  CYS622 
 ASP623  PHE694  ASN695  SER759  ASP760  ASP761  ALA762  ILE779  LEU786  VAL792 
 PHE793  MET794  SER795  GLU796  ALA797  LYS798  CYS799  TRP800  GLU811  SER814 

> <Gold.Protein.RotatedAtoms>
  151.2290  135.0547  159.8979 H   0  0  0  0  0  0  0  0  0  0  0  0  # atno 6907 bound_to 6896
  152.5407  134.0557  159.8140 H   0  0  0  0  0  0  0  0  0  0  0  0  # atno 6908 bound_to 6896
  151.0734  133.5399  159.2657 H   0  0  0  0  0  0  0  0  0  0  0  0  # atno 6909 bound_to 6896
  144.9793  140.7624  143.4622 H   0  0  0  0  0  0  0  0  0  0  0  0  # atno 7974 bound_to 7965
  155.2551  140.3355  155.4278 H   0  0  0  0  0  0  0  0  0  0  0  0  # atno 8008 bound_to 7997
  156.2199  140.1804  156.7545 H   0  0  0  0  0  0  0  0  0  0  0  0  # atno 8009 bound_to 7997
  154.5809  140.0654  156.9087 H   0  0  0  0  0  0  0  0  0  0  0  0  # atno 8010 bound_to 7997
  139.8781  143.6873  152.2631 H   0  0  0  0  0  0  0  0  0  0  0  0  # atno 10167 bound_to 10162
  157.0046  131.0186  151.2821 H   0  0  0  0  0  0  0  0  0  0  0  0  # atno 10718 bound_to 10713
  154.8570  135.3546  154.5746 H   0  0  0  0  0  0  0  0  0  0  0  0  # atno 10763 bound_to 10752
  153.6358  135.7000  153.5264 H   0  0  0  0  0  0  0  0  0  0  0  0  # atno 10764 bound_to 10752
  153.3011  135.4206  155.1213 H   0  0  0  0  0  0  0  0  0  0  0  0  # atno 10765 bound_to 10752
  140.2137  134.3725  155.8037 H   0  0  0  0  0  0  0  0  0  0  0  0  # atno 11005 bound_to 11000
  145.2444  139.2058  143.4975 LP  0  0  0  0  0  0  0  0  0  0  0  0  # atno 17320 bound_to 7965
  146.3404  140.2345  142.8594 LP  0  0  0  0  0  0  0  0  0  0  0  0  # atno 17321 bound_to 7965
  139.7221  144.7600  151.0938 LP  0  0  0  0  0  0  0  0  0  0  0  0  # atno 17342 bound_to 10162
  140.7749  143.5194  150.9554 LP  0  0  0  0  0  0  0  0  0  0  0  0  # atno 17343 bound_to 10162
  157.5365  130.8092  149.7978 LP  0  0  0  0  0  0  0  0  0  0  0  0  # atno 17370 bound_to 10713
  156.0158  130.3814  150.2115 LP  0  0  0  0  0  0  0  0  0  0  0  0  # atno 17371 bound_to 10713
  141.2225  133.7156  156.8460 LP  0  0  0  0  0  0  0  0  0  0  0  0  # atno 17394 bound_to 11000
  140.1924  134.8956  157.3075 LP  0  0  0  0  0  0  0  0  0  0  0  0  # atno 17395 bound_to 11000

$$$$
