AV-unprocessed.smi:2124|AV-procd|sdf|8653|dock2
  -GOLD-   2272011403D 1   1.00000     0.00000
 Structure written by MMmdl.
 47 49  0  0  0  0  0  0  0  0  1 V2000
  151.2321  142.8176  156.9583 C   0  0  0  0  0  0  0  0  0  0  0  0
  150.6458  141.7860  156.0178 C   0  0  0  0  0  0  0  0  0  0  0  0
  151.2028  140.6494  155.7558 N   0  0  0  0  0  0  0  0  0  0  0  0
  150.5640  139.7759  154.8644 C   0  0  0  0  0  0  0  0  0  0  0  0
  151.2842  138.4648  154.5997 C   0  0  0  0  0  0  0  0  0  0  0  0
  149.3735  140.0963  154.2781 C   0  0  0  0  0  0  0  0  0  0  0  0
  148.6539  139.1693  153.2990 C   0  0  0  0  0  0  0  0  0  0  0  0
  147.3439  138.5492  153.7921 C   0  0  0  0  0  0  0  0  0  0  0  0
  146.6780  139.1057  154.6655 O   0  0  0  0  0  0  0  0  0  0  0  0
  146.9904  137.3920  153.2078 N   0  0  0  0  0  0  0  0  0  0  0  0
  145.7822  136.5997  153.4556 C   0  0  1  0  0  0  0  0  0  0  0  0
  144.5303  137.3492  152.9570 C   0  0  0  0  0  0  0  0  0  0  0  0
  145.9031  135.1554  152.8951 C   0  0  1  0  0  0  0  0  0  0  0  0
  144.7206  134.2299  153.2793 C   0  0  0  0  0  0  0  0  0  0  0  0
  144.2422  133.6824  151.9235 C   0  0  2  0  0  0  0  0  0  0  0  0
  145.3011  132.7230  151.3511 C   0  0  0  0  0  0  0  0  0  0  0  0
  146.4288  133.6811  150.9247 C   0  0  0  0  0  0  0  0  0  0  0  0
  145.8838  135.0588  151.3486 C   0  0  1  0  0  0  0  0  0  0  0  0
  144.4001  134.9045  151.0294 C   0  0  0  0  0  0  0  0  0  0  0  0
  148.7471  141.3966  154.5838 C   0  0  0  0  0  0  0  0  0  0  0  0
  147.6831  141.7878  154.1062 O   0  0  0  0  0  0  0  0  0  0  0  0
  149.4339  142.1751  155.4496 N   0  0  0  0  0  0  0  0  0  0  0  0
  149.0480  143.0768  155.6887 H   0  0  0  0  0  0  0  0  0  0  0  0
  152.2182  143.1255  156.6100 H   0  0  0  0  0  0  0  0  0  0  0  0
  151.3373  142.3971  157.9586 H   0  0  0  0  0  0  0  0  0  0  0  0
  150.6018  143.7055  157.0259 H   0  0  0  0  0  0  0  0  0  0  0  0
  150.7002  137.6255  154.9777 H   0  0  0  0  0  0  0  0  0  0  0  0
  152.2583  138.4422  155.0897 H   0  0  0  0  0  0  0  0  0  0  0  0
  151.4469  138.3220  153.5313 H   0  0  0  0  0  0  0  0  0  0  0  0
  148.4379  139.7276  152.3878 H   0  0  0  0  0  0  0  0  0  0  0  0
  149.3183  138.3652  152.9807 H   0  0  0  0  0  0  0  0  0  0  0  0
  147.6178  137.0260  152.5064 H   0  0  0  0  0  0  0  0  0  0  0  0
  145.7059  136.5359  154.5413 H   0  0  0  0  0  0  0  0  0  0  0  0
  143.6132  136.8780  153.3077 H   0  0  0  0  0  0  0  0  0  0  0  0
  144.4848  137.3827  151.8684 H   0  0  0  0  0  0  0  0  0  0  0  0
  144.5187  138.3769  153.3214 H   0  0  0  0  0  0  0  0  0  0  0  0
  146.8342  134.7230  153.2634 H   0  0  0  0  0  0  0  0  0  0  0  0
  145.0227  133.4375  153.9652 H   0  0  0  0  0  0  0  0  0  0  0  0
  143.9119  134.7857  153.7557 H   0  0  0  0  0  0  0  0  0  0  0  0
  143.2375  133.2596  151.9531 H   0  0  0  0  0  0  0  0  0  0  0  0
  145.6330  131.9891  152.0866 H   0  0  0  0  0  0  0  0  0  0  0  0
  144.9119  132.1815  150.4881 H   0  0  0  0  0  0  0  0  0  0  0  0
  147.3821  133.4426  151.3977 H   0  0  0  0  0  0  0  0  0  0  0  0
  146.5751  133.6407  149.8446 H   0  0  0  0  0  0  0  0  0  0  0  0
  146.3766  135.8818  150.8327 H   0  0  0  0  0  0  0  0  0  0  0  0
  144.2035  134.6980  149.9756 H   0  0  0  0  0  0  0  0  0  0  0  0
  143.7932  135.7547  151.3442 H   0  0  0  0  0  0  0  0  0  0  0  0
  1  2  1  0  0  0  0
  1 24  1  0  0  0  0
  1 25  1  0  0  0  0
  1 26  1  0  0  0  0
  2 22  1  0  0  0  0
  2  3  2  0  0  0  0
  3  4  1  0  0  0  0
  4  5  1  0  0  0  0
  4  6  2  0  0  0  0
  5 27  1  0  0  0  0
  5 28  1  0  0  0  0
  5 29  1  0  0  0  0
  6  7  1  0  0  0  0
  6 20  1  0  0  0  0
  7  8  1  0  0  0  0
  7 30  1  0  0  0  0
  7 31  1  0  0  0  0
  8  9  2  0  0  0  0
  8 10  1  0  0  0  0
 10 11  1  0  0  0  0
 10 32  1  0  0  0  0
 11 12  1  0  0  0  0
 11 13  1  0  0  0  0
 11 33  1  0  0  0  0
 12 34  1  0  0  0  0
 12 35  1  0  0  0  0
 12 36  1  0  0  0  0
 13 18  1  0  0  0  0
 13 14  1  0  0  0  0
 13 37  1  0  0  0  0
 14 15  1  0  0  0  0
 14 38  1  0  0  0  0
 14 39  1  0  0  0  0
 15 19  1  0  0  0  0
 15 16  1  0  0  0  0
 15 40  1  0  0  0  0
 16 17  1  0  0  0  0
 16 41  1  0  0  0  0
 16 42  1  0  0  0  0
 17 18  1  0  0  0  0
 17 43  1  0  0  0  0
 17 44  1  0  0  0  0
 18 19  1  0  0  0  0
 18 45  1  0  0  0  0
 19 46  1  0  0  0  0
 19 47  1  0  0  0  0
 20 21  2  0  0  0  0
 20 22  1  0  0  0  0
 22 23  1  0  0  0  0
M  END
> <s_m_source_file>
AV-unprocessed.smi

> <i_m_source_file_index>
2124

> <i_lp_mmshare_version>
43012

> <i_f3d_flags>
0

> <s_epik_input>
W0NIM11jMW5jKFtDSDNdKWMoYyg9TylbbkhdMSlbQ0gyXUMoPU8pW05IXVtDQEhdKFtDSDNdKVtDQEhdKFtDSDJdW0NASF0yMylbQ0BIXShbQ0gyXTMpW0NIMl1bQ0gyXTI=

> <s_epik_cmdline>
J2VwaWtfcHl0aG9uJywgJy1waCcsICc3LjAnLCAnLXRuJywgJzgnLCAnLW1hJywgJzIwMCcsICctbWV0YWxfYmluZGluZycsICctaW1hZScsICc8aW5maWxlLm1hZT4nLCAnLW9tYWUnLCAnPG91dGZpbGUubWFlPic=

> <r_lp_tautomer_probability>
0.839158

> <r_epik_Ionization_Penalty>
0.000383628

> <r_epik_Ionization_Penalty_Charging>
0.00035045

> <r_epik_Ionization_Penalty_Neutral>
3.31781e-05

> <r_epik_State_Penalty>
0.09125

> <r_epik_Charging_Adjusted_Penalty>
0.0916005

> <i_epik_Tot_Q>
0

> <i_epik_Tot_abs_Q>
0

> <r_epik_Metal_State_Penalty>
0.255229

> <b_epik_Metal_Only>
0

> <s_lp_Force_Field>
OPLS_2005

> <r_lp_Energy>
52.6925

> <b_lp_Chiralities_Consistent>
1

> <s_lp_Variant>
AV-unprocessed.smi:2124-4

> <Gold.Version>
5.8.1

> <Gold.Id.Protein>
6NUR|6NUR_protein|mol2

> <Gold.PLP.Fitness>
40.2759

> <Gold.PLP.PLP>
-35.4165

> <Gold.PLP.part.hbond>
-2.0003

> <Gold.PLP.part.metal>
0.0000

> <Gold.PLP.part.buried>
-1.6332

> <Gold.PLP.part.nonpolar>
-31.7117

> <Gold.PLP.part.repulsive>
0.4220

> <Gold.PLP.ligand.clash>
0.0000

> <Gold.PLP.ligand.torsion>
0.6036

> <Gold.PLP.Chemscore.Hbond>
2.0000

> <Gold.PLP.Chemscore.CHOScore>
0.0000

> <Gold.PLP.Chemscore.Metal>
0.0000

> <Gold.Chemscore.Hbonds>
donor molecule, donor type, donor heavy atom, donor atom, acceptor molecule, acceptor atom, score
      L1  H    10    32       P1  7948  1.00
      L1  H    22    23       P1  8028  1.00

> <Gold.PLP.Chemscore.Internal.Correction>
0.0665

> <Gold.Rescore>
     Score         DG    S(hbond)    S(metal)    S(lipo)     H(rot)  DE(clash)    DE(int)     intcor
     15.39     -17.76       1.98        0.00      84.50       1.65       1.68       0.69       ----

> <Gold.Chemscore.Fitness>
15.3902

> <Gold.Chemscore.DG>
-17.7630

> <Gold.Chemscore.ZeroCoef>
-5.4800

> <Gold.Chemscore.Hbond>
1.9849

> <Gold.Chemscore.Metal>
0.0000

> <Gold.Chemscore.Lipo>
84.4966

> <Gold.Chemscore.Internal_Hbond>
0.0000

> <Gold.Chemscore.DEClash>
1.6784

> <Gold.Chemscore.DEInternal>
0.6945

> <Gold.Chemscore.Rot>
1.6534

> <Gold.Chemscore.Internal.Correction>
   9.000000E+99

> <Gold.Chemscore.Hbonds>
donor molecule, donor type, donor heavy atom, donor atom, acceptor molecule, acceptor atom, score
      L1  H    10    32       P1  7948  0.99
      L1  H    22    23       P1  8028  0.99

> <Gold.Chemscore.Hbond.Weighted>
-6.6295

> <Gold.Chemscore.Metal.Weighted>
-0.0000

> <Gold.Chemscore.Lipo.Weighted>
-9.8861

> <Gold.Chemscore.Internal_Hbond.Weighted>
0.0000

> <Gold.Chemscore.DEClash.Weighted>
1.6784

> <Gold.Chemscore.DEInternal.Weighted>
0.6945

> <Gold.Chemscore.Rot.Weighted>
4.2326

> <Gold.Chemscore.Internal.Correction.Weighted>
   9.000000E+99

> <Gold.Protein.RotatedTorsions>
[ 6907 6896 6895 6894 ] final  152.54 input  -60.11 | X-H torsion
[ 7974 7965 7964 7962 ] final   78.22 input  175.53 | X-H torsion
[ 8008 7997 7996 7995 ] final    3.03 input   59.86 | X-H torsion
[ 10167 10162 10161 10158 ] final   49.95 input  -65.29 | X-H torsion
[ 10718 10713 10712 10709 ] final -154.81 input   66.30 | X-H torsion
[ 10763 10752 10751 10750 ] final  137.10 input  -60.55 | X-H torsion
[ 11005 11000 10999 10996 ] final   39.14 input  -57.11 | X-H torsion

> <Gold.Protein.ActiveResidues>
 VAL166  LYS551  ARG553  GLY616  TRP617  ASP618  TYR619  PRO620  LYS621  CYS622 
 ASP623  PHE694  ASN695  SER759  ASP760  ASP761  ALA762  ILE779  LEU786  VAL792 
 PHE793  MET794  SER795  GLU796  ALA797  LYS798  CYS799  TRP800  GLU811  SER814 

> <Gold.Protein.RotatedAtoms>
  152.0853  133.4173  159.4519 H   0  0  0  0  0  0  0  0  0  0  0  0  # atno 6907 bound_to 6896
  150.6862  134.2935  159.4685 H   0  0  0  0  0  0  0  0  0  0  0  0  # atno 6908 bound_to 6896
  152.0780  134.9489  160.0624 H   0  0  0  0  0  0  0  0  0  0  0  0  # atno 6909 bound_to 6896
  145.6800  139.2521  143.1820 H   0  0  0  0  0  0  0  0  0  0  0  0  # atno 7974 bound_to 7965
  154.6987  140.2668  155.6740 H   0  0  0  0  0  0  0  0  0  0  0  0  # atno 8008 bound_to 7997
  156.2757  140.2776  156.1514 H   0  0  0  0  0  0  0  0  0  0  0  0  # atno 8009 bound_to 7997
  155.0794  140.0372  157.2624 H   0  0  0  0  0  0  0  0  0  0  0  0  # atno 8010 bound_to 7997
  140.2776  144.3194  150.6273 H   0  0  0  0  0  0  0  0  0  0  0  0  # atno 10167 bound_to 10162
  156.5043  130.8405  151.2621 H   0  0  0  0  0  0  0  0  0  0  0  0  # atno 10718 bound_to 10713
  153.8674  135.3060  155.3440 H   0  0  0  0  0  0  0  0  0  0  0  0  # atno 10763 bound_to 10752
  154.7821  135.4830  153.9870 H   0  0  0  0  0  0  0  0  0  0  0  0  # atno 10764 bound_to 10752
  153.1426  135.6827  153.9099 H   0  0  0  0  0  0  0  0  0  0  0  0  # atno 10765 bound_to 10752
  140.2057  134.3816  155.8074 H   0  0  0  0  0  0  0  0  0  0  0  0  # atno 11005 bound_to 11000
  146.0973  140.7586  142.9566 LP  0  0  0  0  0  0  0  0  0  0  0  0  # atno 17320 bound_to 7965
  144.7029  140.3731  143.7141 LP  0  0  0  0  0  0  0  0  0  0  0  0  # atno 17321 bound_to 7965
  140.5838  143.2171  151.7379 LP  0  0  0  0  0  0  0  0  0  0  0  0  # atno 17342 bound_to 10162
  139.4971  144.4040  152.0151 LP  0  0  0  0  0  0  0  0  0  0  0  0  # atno 17343 bound_to 10162
  157.7459  130.9971  150.2804 LP  0  0  0  0  0  0  0  0  0  0  0  0  # atno 17370 bound_to 10713
  156.3302  130.3799  149.7497 LP  0  0  0  0  0  0  0  0  0  0  0  0  # atno 17371 bound_to 10713
  141.2227  133.7117  156.8333 LP  0  0  0  0  0  0  0  0  0  0  0  0  # atno 17394 bound_to 11000
  140.2005  134.8900  157.3164 LP  0  0  0  0  0  0  0  0  0  0  0  0  # atno 17395 bound_to 11000

$$$$
