AV-unprocessed.smi:3245|AV-procd|sdf|12408|dock8
  -GOLD-   2272018293D 1   1.00000     0.00000
 Structure written by MMmdl.
 34 35  0  0  0  0  0  0  0  0  2 V2000
  154.4992  140.6813  160.8132 C   0  0  0  0  0  0  0  0  0  0  0  0
  153.4565  141.2330  159.8258 C   0  0  2  0  0  0  0  0  0  0  0  0
  152.5544  142.3233  160.4519 C   0  0  0  0  0  0  0  0  0  0  0  0
  152.2100  143.3794  159.5173 N   0  0  0  0  0  0  0  0  0  0  0  0
  152.3224  144.7434  159.6865 C   0  0  0  0  0  0  0  0  0  0  0  0
  151.8648  145.3335  158.5433 C   0  0  0  0  0  0  0  0  0  0  0  0
  151.4832  144.2340  157.7247 C   0  0  0  0  0  0  0  0  0  0  0  0
  151.6873  143.0659  158.3117 N   0  0  0  0  0  0  0  0  0  0  0  0
  152.6482  140.1082  159.3718 N   0  0  0  0  0  0  0  0  0  0  0  0
  152.0594  140.3434  158.0604 C   0  0  0  0  0  0  0  0  0  0  0  0
  150.7917  139.4883  157.8838 C   0  0  0  0  0  0  0  0  0  0  0  0
  150.9024  138.5620  156.7497 N   0  0  0  0  0  0  0  0  0  0  0  0
  150.9527  138.9467  155.4705 C   0  0  0  0  0  0  0  0  0  0  0  0
  150.9252  140.0940  155.0243 O   0  0  0  0  0  0  0  0  0  0  0  0
  151.0483  137.7004  154.6222 C   0  0  0  0  0  0  0  0  0  0  0  0
  151.0399  136.6500  155.6145 N   0  5  0  0  0  0  0  0  0  0  0  0
  150.9493  137.2184  156.8401 C   0  0  0  0  0  0  0  0  0  0  0  0
  150.9110  136.6294  157.9200 O   0  0  0  0  0  0  0  0  0  0  0  0
  155.1939  141.4572  161.1350 H   0  0  0  0  0  0  0  0  0  0  0  0
  155.0933  139.8892  160.3564 H   0  0  0  0  0  0  0  0  0  0  0  0
  154.0241  140.2699  161.7047 H   0  0  0  0  0  0  0  0  0  0  0  0
  153.9954  141.6482  158.9729 H   0  0  0  0  0  0  0  0  0  0  0  0
  151.6232  141.8988  160.8274 H   0  0  0  0  0  0  0  0  0  0  0  0
  153.0554  142.7770  161.3085 H   0  0  0  0  0  0  0  0  0  0  0  0
  152.7156  145.1748  160.5952 H   0  0  0  0  0  0  0  0  0  0  0  0
  151.8091  146.3896  158.3255 H   0  0  0  0  0  0  0  0  0  0  0  0
  151.0646  144.2495  156.7293 H   0  0  0  0  0  0  0  0  0  0  0  0
  153.2180  139.2755  159.3289 H   0  0  0  0  0  0  0  0  0  0  0  0
  151.8234  141.3970  157.9162 H   0  0  0  0  0  0  0  0  0  0  0  0
  152.7874  140.0705  157.2958 H   0  0  0  0  0  0  0  0  0  0  0  0
  150.6268  138.9061  158.7917 H   0  0  0  0  0  0  0  0  0  0  0  0
  149.9120  140.1270  157.7890 H   0  0  0  0  0  0  0  0  0  0  0  0
  150.2011  137.6523  153.9372 H   0  0  0  0  0  0  0  0  0  0  0  0
  151.9621  137.7251  154.0277 H   0  0  0  0  0  0  0  0  0  0  0  0
  1  2  1  0  0  0  0
  1 19  1  0  0  0  0
  1 20  1  0  0  0  0
  1 21  1  0  0  0  0
  2  3  1  0  0  0  0
  2  9  1  0  0  0  0
  2 22  1  0  0  0  0
  3  4  1  0  0  0  0
  3 23  1  0  0  0  0
  3 24  1  0  0  0  0
  4  8  1  0  0  0  0
  4  5  1  0  0  0  0
  5  6  2  0  0  0  0
  5 25  1  0  0  0  0
  6  7  1  0  0  0  0
  6 26  1  0  0  0  0
  7  8  2  0  0  0  0
  7 27  1  0  0  0  0
  9 10  1  0  0  0  0
  9 28  1  0  0  0  0
 10 11  1  0  0  0  0
 10 29  1  0  0  0  0
 10 30  1  0  0  0  0
 11 12  1  0  0  0  0
 11 31  1  0  0  0  0
 11 32  1  0  0  0  0
 12 17  1  0  0  0  0
 12 13  1  0  0  0  0
 13 14  2  0  0  0  0
 13 15  1  0  0  0  0
 15 16  1  0  0  0  0
 15 33  1  0  0  0  0
 15 34  1  0  0  0  0
 16 17  1  0  0  0  0
 17 18  2  0  0  0  0
M  CHG  1  16  -1
M  END
> <s_m_source_file>
AV-unprocessed.smi

> <i_m_source_file_index>
3245

> <i_lp_mmshare_version>
43012

> <i_f3d_flags>
0

> <s_epik_input>
bjFbY0hdW2NIXVtjSF1uMVtDSDJdW0NAQEhdKFtDSDNdKVtOSF1bQ0gyXVtDSDJdTjJDKD1PKVtDSDJdW05IXUMyPU8=

> <s_epik_cmdline>
J2VwaWtfcHl0aG9uJywgJy1waCcsICc3LjAnLCAnLXRuJywgJzgnLCAnLW1hJywgJzIwMCcsICctbWV0YWxfYmluZGluZycsICctaW1hZScsICc8aW5maWxlLm1hZT4nLCAnLW9tYWUnLCAnPG91dGZpbGUubWFlPic=

> <r_lp_tautomer_probability>
1

> <r_epik_Ionization_Penalty>
8.62027

> <r_epik_Ionization_Penalty_Charging>
6.28132

> <r_epik_Ionization_Penalty_Neutral>
2.33895

> <r_epik_State_Penalty>
8.57043

> <r_epik_Charging_Adjusted_Penalty>
14.8517

> <i_epik_Tot_Q>
-1

> <i_epik_Tot_abs_Q>
1

> <r_epik_Metal_State_Penalty>
4.56785

> <b_epik_Metal_Only>
1

> <s_lp_Force_Field>
OPLS_2005

> <r_lp_Energy>
21.0374

> <b_lp_Chiralities_Consistent>
1

> <s_lp_Variant>
AV-unprocessed.smi:3245-7

> <Gold.Version>
5.8.1

> <Gold.Id.Protein>
6NUR|6NUR_protein|mol2

> <Gold.PLP.Fitness>
49.5083

> <Gold.PLP.PLP>
-40.2380

> <Gold.PLP.part.hbond>
-2.0000

> <Gold.PLP.part.metal>
0.0000

> <Gold.PLP.part.buried>
-5.7914

> <Gold.PLP.part.nonpolar>
-32.9808

> <Gold.PLP.part.repulsive>
0.1752

> <Gold.PLP.ligand.clash>
0.0000

> <Gold.PLP.ligand.torsion>
1.3887

> <Gold.PLP.Chemscore.Hbond>
3.0000

> <Gold.PLP.Chemscore.CHOScore>
1.0000

> <Gold.PLP.Chemscore.Metal>
0.0000

> <Gold.Chemscore.Hbonds>
donor molecule, donor type, donor heavy atom, donor atom, acceptor molecule, acceptor atom, score
      P1  H  7989  7998       L1    14  1.00
      P1  H 10752 10765       L1    16  0.16
      L1  C     7    27       P1  8028  1.00

> <Gold.PLP.Chemscore.Internal.Correction>
0.0477

> <Gold.Rescore>
     Score         DG    S(hbond)    S(metal)    S(lipo)     H(rot)  DE(clash)    DE(int)     intcor
     12.64     -15.51       1.94        0.00      86.92       2.58       0.01       2.86       ----

> <Gold.Chemscore.Fitness>
12.6353

> <Gold.Chemscore.DG>
-15.5135

> <Gold.Chemscore.ZeroCoef>
-5.4800

> <Gold.Chemscore.Hbond>
1.9375

> <Gold.Chemscore.Metal>
0.0000

> <Gold.Chemscore.Lipo>
86.9203

> <Gold.Chemscore.Internal_Hbond>
0.0000

> <Gold.Chemscore.DEClash>
0.0147

> <Gold.Chemscore.DEInternal>
2.8636

> <Gold.Chemscore.Rot>
2.5811

> <Gold.Chemscore.Internal.Correction>
   9.000000E+99

> <Gold.Chemscore.Hbonds>
donor molecule, donor type, donor heavy atom, donor atom, acceptor molecule, acceptor atom, score
      P1  H  7989  7998       L1    14  1.00
      P1  H 10752 10765       L1    16  0.01

> <Gold.Chemscore.Hbond.Weighted>
-6.4714

> <Gold.Chemscore.Metal.Weighted>
-0.0000

> <Gold.Chemscore.Lipo.Weighted>
-10.1697

> <Gold.Chemscore.Internal_Hbond.Weighted>
0.0000

> <Gold.Chemscore.DEClash.Weighted>
0.0147

> <Gold.Chemscore.DEInternal.Weighted>
2.8636

> <Gold.Chemscore.Rot.Weighted>
6.6076

> <Gold.Chemscore.Internal.Correction.Weighted>
   9.000000E+99

> <Gold.Protein.RotatedTorsions>
[ 6907 6896 6895 6894 ] final   49.82 input  -60.11 | X-H torsion
[ 7974 7965 7964 7962 ] final   93.30 input  175.53 | X-H torsion
[ 8008 7997 7996 7995 ] final  -85.26 input   59.86 | X-H torsion
[ 10167 10162 10161 10158 ] final  -27.15 input  -65.29 | X-H torsion
[ 10718 10713 10712 10709 ] final -134.65 input   66.30 | X-H torsion
[ 10763 10752 10751 10750 ] final -165.15 input  -60.55 | X-H torsion
[ 11005 11000 10999 10996 ] final   58.79 input  -57.11 | X-H torsion

> <Gold.Protein.ActiveResidues>
 VAL166  LYS551  ARG553  GLY616  TRP617  ASP618  TYR619  PRO620  LYS621  CYS622 
 ASP623  PHE694  ASN695  SER759  ASP760  ASP761  ALA762  ILE779  LEU786  VAL792 
 PHE793  MET794  SER795  GLU796  ALA797  LYS798  CYS799  TRP800  GLU811  SER814 

> <Gold.Protein.RotatedAtoms>
  152.2950  134.7677  160.0369 H   0  0  0  0  0  0  0  0  0  0  0  0  # atno 6907 bound_to 6896
  151.8210  133.3389  159.3592 H   0  0  0  0  0  0  0  0  0  0  0  0  # atno 6908 bound_to 6896
  150.7247  134.5502  159.5835 H   0  0  0  0  0  0  0  0  0  0  0  0  # atno 6909 bound_to 6896
  145.4807  139.2278  143.2884 H   0  0  0  0  0  0  0  0  0  0  0  0  # atno 7974 bound_to 7965
  154.6387  140.0594  156.9820 H   0  0  0  0  0  0  0  0  0  0  0  0  # atno 8008 bound_to 7997
  155.1550  140.3277  155.4404 H   0  0  0  0  0  0  0  0  0  0  0  0  # atno 8009 bound_to 7997
  156.2520  140.1940  156.6660 H   0  0  0  0  0  0  0  0  0  0  0  0  # atno 8010 bound_to 7997
  140.7279  143.4118  151.1094 H   0  0  0  0  0  0  0  0  0  0  0  0  # atno 10167 bound_to 10162
  156.2577  130.7191  151.1114 H   0  0  0  0  0  0  0  0  0  0  0  0  # atno 10718 bound_to 10713
  154.6960  135.2979  154.9411 H   0  0  0  0  0  0  0  0  0  0  0  0  # atno 10763 bound_to 10752
  154.0359  135.6664  153.4789 H   0  0  0  0  0  0  0  0  0  0  0  0  # atno 10764 bound_to 10752
  153.0646  135.5096  154.8077 H   0  0  0  0  0  0  0  0  0  0  0  0  # atno 10765 bound_to 10752
  140.0351  134.5955  155.9455 H   0  0  0  0  0  0  0  0  0  0  0  0  # atno 11005 bound_to 11000
  146.2342  140.5593  142.8962 LP  0  0  0  0  0  0  0  0  0  0  0  0  # atno 17320 bound_to 7965
  144.7890  140.5995  143.6554 LP  0  0  0  0  0  0  0  0  0  0  0  0  # atno 17321 bound_to 7965
  139.7752  143.8436  152.3128 LP  0  0  0  0  0  0  0  0  0  0  0  0  # atno 17342 bound_to 10162
  139.8368  144.7228  150.9381 LP  0  0  0  0  0  0  0  0  0  0  0  0  # atno 17343 bound_to 10162
  157.7239  131.0663  150.6019 LP  0  0  0  0  0  0  0  0  0  0  0  0  # atno 17370 bound_to 10713
  156.6104  130.4378  149.5861 LP  0  0  0  0  0  0  0  0  0  0  0  0  # atno 17371 bound_to 10713
  141.1853  133.6554  156.5191 LP  0  0  0  0  0  0  0  0  0  0  0  0  # atno 17394 bound_to 11000
  140.4161  134.7229  157.4863 LP  0  0  0  0  0  0  0  0  0  0  0  0  # atno 17395 bound_to 11000

$$$$
