AV-unprocessed.smi:109|AV-procd|sdf|1047|dock7
  -GOLD-   2262018 93D 1   1.00000     0.00000
 Structure written by MMmdl.
 58 61  0  0  0  0  0  0  0  0  1 V2000
  143.4917  138.1983  152.5020 O   0  0  0  0  0  0  0  0  0  0  0  0
  142.4850  137.3415  152.9964 C   0  0  0  0  0  0  0  0  0  0  0  0
  142.7381  135.9036  152.5119 C   0  0  0  0  0  0  0  0  0  0  0  0
  143.9679  135.2243  153.1627 C   0  0  2  0  0  0  0  0  0  0  0  0
  145.0559  136.1974  153.2801 N   0  0  0  0  0  0  0  0  0  0  0  0
  145.9725  136.1318  154.2717 C   0  0  0  0  0  0  0  0  0  0  0  0
  145.8832  135.2090  155.2647 N   0  0  0  0  0  0  0  0  0  0  0  0
  146.8068  135.1718  156.2300 C   0  0  0  0  0  0  0  0  0  0  0  0
  147.8811  135.9490  156.3881 N   0  0  0  0  0  0  0  0  0  0  0  0
  147.9718  136.8794  155.3941 C   0  0  0  0  0  0  0  0  0  0  0  0
  147.0653  137.0350  154.3094 C   0  0  0  0  0  0  0  0  0  0  0  0
  147.4817  138.0797  153.4949 N   0  0  0  0  0  0  0  0  0  0  0  0
  148.5750  138.5087  154.0662 C   0  0  0  0  0  0  0  0  0  0  0  0
  148.9425  137.8410  155.2154 N   0  0  0  0  0  0  0  0  0  0  0  0
  150.1298  138.0655  156.1026 C   0  0  2  0  0  0  0  0  0  0  0  0
  150.1148  139.4087  156.4823 O   0  0  0  0  0  0  0  0  0  0  0  0
  151.2560  140.0944  155.9735 C   0  0  2  0  0  0  0  0  0  0  0  0
  150.8580  141.5145  155.5384 C   0  0  0  0  0  0  0  0  0  0  0  0
  150.2419  142.2064  156.6031 O   0  0  0  0  0  0  0  0  0  0  0  0
  151.8029  139.2015  154.8533 C   0  0  1  0  0  0  0  0  0  0  0  0
  153.2048  139.3410  154.7361 O   0  0  0  0  0  0  0  0  0  0  0  0
  151.4523  137.8105  155.3541 C   0  0  2  0  0  0  0  0  0  0  0  0
  151.3469  136.8966  154.2767 O   0  0  0  0  0  0  0  0  0  0  0  0
  144.4762  133.9772  152.3832 C   0  0  0  0  0  0  0  0  0  0  0  0
  145.5551  134.3175  151.3245 C   0  0  0  0  0  0  0  0  0  0  0  0
  146.0173  133.0798  150.5380 C   0  0  0  0  0  0  0  0  0  0  0  0
  144.8366  132.3656  149.8693 C   0  0  0  0  0  0  0  0  0  0  0  0
  143.7728  131.9954  150.9091 C   0  0  0  0  0  0  0  0  0  0  0  0
  143.3052  133.2337  151.6890 C   0  0  0  0  0  0  0  0  0  0  0  0
  149.9705  137.4075  156.9575 H   0  0  0  0  0  0  0  0  0  0  0  0
  151.9719  140.1409  156.7964 H   0  0  0  0  0  0  0  0  0  0  0  0
  151.3073  139.4169  153.9053 H   0  0  0  0  0  0  0  0  0  0  0  0
  152.1863  137.4604  156.0818 H   0  0  0  0  0  0  0  0  0  0  0  0
  143.2997  138.3966  151.5983 H   0  0  0  0  0  0  0  0  0  0  0  0
  142.4858  137.3991  154.0849 H   0  0  0  0  0  0  0  0  0  0  0  0
  141.5149  137.6983  152.6496 H   0  0  0  0  0  0  0  0  0  0  0  0
  141.8378  135.3346  152.7374 H   0  0  0  0  0  0  0  0  0  0  0  0
  142.8449  135.8936  151.4261 H   0  0  0  0  0  0  0  0  0  0  0  0
  143.6641  134.8685  154.1471 H   0  0  0  0  0  0  0  0  0  0  0  0
  145.1632  136.8173  152.4901 H   0  0  0  0  0  0  0  0  0  0  0  0
  146.6653  134.4093  156.9816 H   0  0  0  0  0  0  0  0  0  0  0  0
  149.1455  139.3283  153.6570 H   0  0  0  0  0  0  0  0  0  0  0  0
  151.7210  142.0792  155.1864 H   0  0  0  0  0  0  0  0  0  0  0  0
  150.1473  141.4657  154.7131 H   0  0  0  0  0  0  0  0  0  0  0  0
  149.9817  143.0614  156.2962 H   0  0  0  0  0  0  0  0  0  0  0  0
  153.5604  138.5213  154.4278 H   0  0  0  0  0  0  0  0  0  0  0  0
  150.5825  136.3580  154.4148 H   0  0  0  0  0  0  0  0  0  0  0  0
  144.9267  133.2919  153.1033 H   0  0  0  0  0  0  0  0  0  0  0  0
  145.1681  135.0664  150.6323 H   0  0  0  0  0  0  0  0  0  0  0  0
  146.4366  134.7523  151.7928 H   0  0  0  0  0  0  0  0  0  0  0  0
  146.7488  133.3717  149.7838 H   0  0  0  0  0  0  0  0  0  0  0  0
  146.5275  132.3898  151.2115 H   0  0  0  0  0  0  0  0  0  0  0  0
  144.3983  133.0121  149.1080 H   0  0  0  0  0  0  0  0  0  0  0  0
  145.1840  131.4695  149.3541 H   0  0  0  0  0  0  0  0  0  0  0  0
  142.9218  131.5237  150.4169 H   0  0  0  0  0  0  0  0  0  0  0  0
  144.1774  131.2568  151.6023 H   0  0  0  0  0  0  0  0  0  0  0  0
  142.5618  132.9131  152.4190 H   0  0  0  0  0  0  0  0  0  0  0  0
  142.7905  133.9155  151.0107 H   0  0  0  0  0  0  0  0  0  0  0  0
  1  2  1  0  0  0  0
  1 34  1  0  0  0  0
  2  3  1  0  0  0  0
  2 35  1  0  0  0  0
  2 36  1  0  0  0  0
  3  4  1  0  0  0  0
  3 37  1  0  0  0  0
  3 38  1  0  0  0  0
  4  5  1  0  0  0  0
  4 24  1  0  0  0  0
  4 39  1  0  0  0  0
  5  6  1  0  0  0  0
  5 40  1  0  0  0  0
  6 11  1  0  0  0  0
  6  7  2  0  0  0  0
  7  8  1  0  0  0  0
  8  9  2  0  0  0  0
  8 41  1  0  0  0  0
  9 10  1  0  0  0  0
 10 14  1  0  0  0  0
 10 11  2  0  0  0  0
 11 12  1  0  0  0  0
 12 13  2  0  0  0  0
 13 14  1  0  0  0  0
 13 42  1  0  0  0  0
 14 15  1  0  0  0  0
 15 30  1  0  0  0  0
 15 22  1  0  0  0  0
 15 16  1  0  0  0  0
 16 17  1  0  0  0  0
 17 31  1  0  0  0  0
 17 18  1  0  0  0  0
 17 20  1  0  0  0  0
 18 19  1  0  0  0  0
 18 43  1  0  0  0  0
 18 44  1  0  0  0  0
 19 45  1  0  0  0  0
 20 32  1  0  0  0  0
 20 21  1  0  0  0  0
 20 22  1  0  0  0  0
 21 46  1  0  0  0  0
 22 33  1  0  0  0  0
 22 23  1  0  0  0  0
 23 47  1  0  0  0  0
 24 29  1  0  0  0  0
 24 25  1  0  0  0  0
 24 48  1  0  0  0  0
 25 26  1  0  0  0  0
 25 49  1  0  0  0  0
 25 50  1  0  0  0  0
 26 27  1  0  0  0  0
 26 51  1  0  0  0  0
 26 52  1  0  0  0  0
 27 28  1  0  0  0  0
 27 53  1  0  0  0  0
 27 54  1  0  0  0  0
 28 29  1  0  0  0  0
 28 55  1  0  0  0  0
 28 56  1  0  0  0  0
 29 57  1  0  0  0  0
 29 58  1  0  0  0  0
M  END
> <s_m_source_file>
AV-unprocessed.smi

> <i_m_source_file_index>
109

> <i_lp_mmshare_version>
43012

> <i_f3d_flags>
0

> <s_epik_input>
W0NIMl0xW0NIMl1bQ0gyXVtDSDJdW0NIMl1bQ0hdMVtDQEhdKFtDSDJdW0NIMl1bT0hdKVtOSF1jKG5bY0hdbjIpYyhjMjMpbltjSF1uM1tDQEBIXTRPW0NASF0oW0NIMl1bT0hdKVtDQEBIXShbT0hdKVtDQEhdNFtPSF0=

> <s_epik_cmdline>
J2VwaWtfcHl0aG9uJywgJy1waCcsICc3LjAnLCAnLXRuJywgJzgnLCAnLW1hJywgJzIwMCcsICctbWV0YWxfYmluZGluZycsICctaW1hZScsICc8aW5maWxlLm1hZT4nLCAnLW9tYWUnLCAnPG91dGZpbGUubWFlPic=

> <r_lp_tautomer_probability>
1

> <r_epik_Ionization_Penalty>
0.000793976

> <r_epik_Ionization_Penalty_Charging>
0

> <r_epik_Ionization_Penalty_Neutral>
0.000793976

> <r_epik_State_Penalty>
-0

> <r_epik_Charging_Adjusted_Penalty>
0

> <i_epik_Tot_Q>
0

> <i_epik_Tot_abs_Q>
0

> <r_epik_Metal_State_Penalty>
-0

> <b_epik_Metal_Only>
0

> <s_epik_Chemistry_Notes>
This compound contains an acetal/aminal-like group ( X-CH(R)-Y where X, Y are N, S, or O) that may be acid/base labile, releasing an aldehyde.

> <s_lp_Force_Field>
OPLS_2005

> <r_lp_Energy>
53.0649

> <b_lp_Chiralities_Consistent>
1

> <s_lp_Variant>
AV-unprocessed.smi:109-17

> <Gold.Version>
5.8.1

> <Gold.Id.Protein>
6NUR|6NUR_protein|mol2

> <Gold.PLP.Fitness>
48.9413

> <Gold.PLP.PLP>
-38.3580

> <Gold.PLP.part.hbond>
-6.2059

> <Gold.PLP.part.metal>
0.0000

> <Gold.PLP.part.buried>
-5.4040

> <Gold.PLP.part.nonpolar>
-27.4371

> <Gold.PLP.part.repulsive>
1.4549

> <Gold.PLP.ligand.clash>
0.0000

> <Gold.PLP.ligand.torsion>
1.2930

> <Gold.PLP.Chemscore.Hbond>
3.8613

> <Gold.PLP.Chemscore.CHOScore>
0.4755

> <Gold.PLP.Chemscore.Metal>
0.0000

> <Gold.Chemscore.Hbonds>
donor molecule, donor type, donor heavy atom, donor atom, acceptor molecule, acceptor atom, score
      L1  H     1    34       P1 10171  1.00
      L1  H    19    45       P1  8028  0.86
      P1  H  7997  8009       L1    21  1.00
      P1  H 10752 10765       L1    23  1.00
      L1  C    13    42       P1  7957  0.74

> <Gold.PLP.Chemscore.Internal.Correction>
0.1591

> <Gold.Rescore>
     Score         DG    S(hbond)    S(metal)    S(lipo)     H(rot)  DE(clash)    DE(int)     intcor
     10.89     -12.68       3.35        0.00      85.57       5.47       0.49       1.30       ----

> <Gold.Chemscore.Fitness>
10.8878

> <Gold.Chemscore.DG>
-12.6783

> <Gold.Chemscore.ZeroCoef>
-5.4800

> <Gold.Chemscore.Hbond>
3.3474

> <Gold.Chemscore.Metal>
0.0000

> <Gold.Chemscore.Lipo>
85.5676

> <Gold.Chemscore.Internal_Hbond>
0.0000

> <Gold.Chemscore.DEClash>
0.4939

> <Gold.Chemscore.DEInternal>
1.2965

> <Gold.Chemscore.Rot>
5.4662

> <Gold.Chemscore.Internal.Correction>
   9.000000E+99

> <Gold.Chemscore.Hbonds>
donor molecule, donor type, donor heavy atom, donor atom, acceptor molecule, acceptor atom, score
      L1  H     1    34       P1 10171  0.43
      L1  H    19    45       P1  8028  0.84
      P1  H  7997  8009       L1    21  0.73
      P1  H 10752 10765       L1    23  0.40

> <Gold.Chemscore.Hbond.Weighted>
-11.1804

> <Gold.Chemscore.Metal.Weighted>
-0.0000

> <Gold.Chemscore.Lipo.Weighted>
-10.0114

> <Gold.Chemscore.Internal_Hbond.Weighted>
0.0000

> <Gold.Chemscore.DEClash.Weighted>
0.4939

> <Gold.Chemscore.DEInternal.Weighted>
1.2965

> <Gold.Chemscore.Rot.Weighted>
13.9935

> <Gold.Chemscore.Internal.Correction.Weighted>
   9.000000E+99

> <Gold.Protein.RotatedTorsions>
[ 6907 6896 6895 6894 ] final -120.76 input  -60.11 | X-H torsion
[ 7974 7965 7964 7962 ] final -176.22 input  175.53 | X-H torsion
[ 8008 7997 7996 7995 ] final -149.73 input   59.86 | X-H torsion
[ 10167 10162 10161 10158 ] final -136.60 input  -65.29 | X-H torsion
[ 10718 10713 10712 10709 ] final -111.02 input   66.30 | X-H torsion
[ 10763 10752 10751 10750 ] final  162.84 input  -60.55 | X-H torsion
[ 11005 11000 10999 10996 ] final   39.93 input  -57.11 | X-H torsion

> <Gold.Protein.ActiveResidues>
 VAL166  LYS551  ARG553  GLY616  TRP617  ASP618  TYR619  PRO620  LYS621  CYS622 
 ASP623  PHE694  ASN695  SER759  ASP760  ASP761  ALA762  ILE779  LEU786  VAL792 
 PHE793  MET794  SER795  GLU796  ALA797  LYS798  CYS799  TRP800  GLU811  SER814 

> <Gold.Protein.RotatedAtoms>
  150.8422  133.7918  159.3056 H   0  0  0  0  0  0  0  0  0  0  0  0  # atno 6907 bound_to 6896
  151.5615  135.1063  159.9983 H   0  0  0  0  0  0  0  0  0  0  0  0  # atno 6908 bound_to 6896
  152.4483  133.7538  159.6765 H   0  0  0  0  0  0  0  0  0  0  0  0  # atno 6909 bound_to 6896
  144.7127  140.1203  143.6405 H   0  0  0  0  0  0  0  0  0  0  0  0  # atno 7974 bound_to 7965
  155.6123  140.0673  157.2702 H   0  0  0  0  0  0  0  0  0  0  0  0  # atno 8008 bound_to 7997
  154.4250  140.1799  156.1333 H   0  0  0  0  0  0  0  0  0  0  0  0  # atno 8009 bound_to 7997
  156.0075  140.3330  155.6910 H   0  0  0  0  0  0  0  0  0  0  0  0  # atno 8010 bound_to 7997
  139.8662  143.7015  152.2645 H   0  0  0  0  0  0  0  0  0  0  0  0  # atno 10167 bound_to 10162
  156.0623  130.5845  150.8317 H   0  0  0  0  0  0  0  0  0  0  0  0  # atno 10718 bound_to 10713
  154.2845  135.2762  155.2682 H   0  0  0  0  0  0  0  0  0  0  0  0  # atno 10763 bound_to 10752
  154.5188  135.5762  153.6667 H   0  0  0  0  0  0  0  0  0  0  0  0  # atno 10764 bound_to 10752
  152.9924  135.6199  154.3006 H   0  0  0  0  0  0  0  0  0  0  0  0  # atno 10765 bound_to 10752
  140.1980  134.3905  155.8111 H   0  0  0  0  0  0  0  0  0  0  0  0  # atno 11005 bound_to 11000
  145.9377  139.2648  143.1287 LP  0  0  0  0  0  0  0  0  0  0  0  0  # atno 17320 bound_to 7965
  145.9456  140.8947  143.0285 LP  0  0  0  0  0  0  0  0  0  0  0  0  # atno 17321 bound_to 7965
  139.7327  144.7578  151.0776 LP  0  0  0  0  0  0  0  0  0  0  0  0  # atno 17342 bound_to 10162
  140.7768  143.5068  150.9702 LP  0  0  0  0  0  0  0  0  0  0  0  0  # atno 17343 bound_to 10162
  157.5641  131.0946  150.9516 LP  0  0  0  0  0  0  0  0  0  0  0  0  # atno 17370 bound_to 10713
  156.9747  130.5504  149.5292 LP  0  0  0  0  0  0  0  0  0  0  0  0  # atno 17371 bound_to 10713
  141.2227  133.7079  156.8209 LP  0  0  0  0  0  0  0  0  0  0  0  0  # atno 17394 bound_to 11000
  140.2085  134.8844  157.3249 LP  0  0  0  0  0  0  0  0  0  0  0  0  # atno 17395 bound_to 11000

$$$$
