AV-unprocessed.smi:3029|AV-procd|sdf|11527|dock6
  -GOLD-   2272016473D 1   1.00000     0.00000
 Structure written by MMmdl.
 42 43  0  0  0  0  0  0  0  0  4 V2000
  146.1917  142.1827  153.4946 O   0  0  0  0  0  0  0  0  0  0  0  0
  147.1340  141.4508  153.7973 C   0  0  0  0  0  0  0  0  0  0  0  0
  148.0440  141.7670  154.9028 C   0  0  0  0  0  0  0  0  0  0  0  0
  149.0623  140.9502  155.2376 C   0  0  0  0  0  0  0  0  0  0  0  0
  149.2880  139.7185  154.5064 C   0  0  0  0  0  0  0  0  0  0  0  0
  150.3684  138.8266  154.8661 N   0  3  0  0  0  0  0  0  0  0  0  0
  151.4934  139.2902  155.0279 O   0  0  0  0  0  0  0  0  0  0  0  0
  150.1257  137.6316  154.9985 O   0  5  0  0  0  0  0  0  0  0  0  0
  148.4544  139.4339  153.4864 C   0  0  0  0  0  0  0  0  0  0  0  0
  147.3954  140.2890  153.1255 N   0  0  0  0  0  0  0  0  0  0  0  0
  146.5543  139.8713  151.9955 C   0  0  0  0  0  0  0  0  0  0  0  0
  146.3502  138.3479  151.9792 C   0  0  0  0  0  0  0  0  0  0  0  0
  144.9605  138.0016  152.3419 N   0  3  0  0  0  0  0  0  0  0  0  0
  144.8127  136.9711  153.3980 C   0  0  2  0  0  0  0  0  0  0  0  0
  145.9177  135.8955  153.2961 C   0  0  0  0  0  0  0  0  0  0  0  0
  145.7612  135.0236  152.0382 C   0  0  0  0  0  0  0  0  0  0  0  0
  144.3683  134.3796  151.9778 C   0  0  0  0  0  0  0  0  0  0  0  0
  143.2541  135.4336  152.0822 C   0  0  0  0  0  0  0  0  0  0  0  0
  143.4118  136.3041  153.3489 C   0  0  2  0  0  0  0  0  0  0  0  0
  142.2400  137.2941  153.5407 C   0  0  0  0  0  0  0  0  0  0  0  0
  142.3580  137.9782  154.6790 F   0  0  0  0  0  0  0  0  0  0  0  0
  142.2123  138.1593  152.5274 F   0  0  0  0  0  0  0  0  0  0  0  0
  141.0830  136.6328  153.5536 F   0  0  0  0  0  0  0  0  0  0  0  0
  147.8934  142.6791  155.4615 H   0  0  0  0  0  0  0  0  0  0  0  0
  149.7072  141.2264  156.0589 H   0  0  0  0  0  0  0  0  0  0  0  0
  148.5346  138.5400  152.8844 H   0  0  0  0  0  0  0  0  0  0  0  0
  145.5887  140.3797  152.0324 H   0  0  0  0  0  0  0  0  0  0  0  0
  147.0048  140.1910  151.0543 H   0  0  0  0  0  0  0  0  0  0  0  0
  146.5846  137.9580  150.9889 H   0  0  0  0  0  0  0  0  0  0  0  0
  147.0314  137.8698  152.6841 H   0  0  0  0  0  0  0  0  0  0  0  0
  144.5230  138.8473  152.6801 H   0  0  0  0  0  0  0  0  0  0  0  0
  144.9108  137.4715  154.3623 H   0  0  0  0  0  0  0  0  0  0  0  0
  146.9101  136.3447  153.3182 H   0  0  0  0  0  0  0  0  0  0  0  0
  145.8685  135.2529  154.1763 H   0  0  0  0  0  0  0  0  0  0  0  0
  145.9259  135.6275  151.1453 H   0  0  0  0  0  0  0  0  0  0  0  0
  146.5270  134.2475  152.0280 H   0  0  0  0  0  0  0  0  0  0  0  0
  144.2598  133.8141  151.0518 H   0  0  0  0  0  0  0  0  0  0  0  0
  144.2653  133.6600  152.7910 H   0  0  0  0  0  0  0  0  0  0  0  0
  143.2602  136.0627  151.1915 H   0  0  0  0  0  0  0  0  0  0  0  0
  142.2869  134.9303  152.0922 H   0  0  0  0  0  0  0  0  0  0  0  0
  143.3675  135.6233  154.2009 H   0  0  0  0  0  0  0  0  0  0  0  0
  144.4648  137.6953  151.5167 H   0  0  0  0  0  0  0  0  0  0  0  0
  1  2  2  0  0  0  0
  2 10  1  0  0  0  0
  2  3  1  0  0  0  0
  3  4  2  0  0  0  0
  3 24  1  0  0  0  0
  4  5  1  0  0  0  0
  4 25  1  0  0  0  0
  5  6  1  0  0  0  0
  5  9  2  0  0  0  0
  6  7  2  0  0  0  0
  6  8  1  0  0  0  0
  9 10  1  0  0  0  0
  9 26  1  0  0  0  0
 10 11  1  0  0  0  0
 11 12  1  0  0  0  0
 11 27  1  0  0  0  0
 11 28  1  0  0  0  0
 12 13  1  0  0  0  0
 12 29  1  0  0  0  0
 12 30  1  0  0  0  0
 13 14  1  0  0  0  0
 13 31  1  0  0  0  0
 13 42  1  0  0  0  0
 14 19  1  0  0  0  0
 14 15  1  0  0  0  0
 14 32  1  0  0  0  0
 15 16  1  0  0  0  0
 15 33  1  0  0  0  0
 15 34  1  0  0  0  0
 16 17  1  0  0  0  0
 16 35  1  0  0  0  0
 16 36  1  0  0  0  0
 17 18  1  0  0  0  0
 17 37  1  0  0  0  0
 17 38  1  0  0  0  0
 18 19  1  0  0  0  0
 18 39  1  0  0  0  0
 18 40  1  0  0  0  0
 19 20  1  0  0  0  0
 19 41  1  0  0  0  0
 20 21  1  0  0  0  0
 20 22  1  0  0  0  0
 20 23  1  0  0  0  0
M  CHG  1   6   1
M  CHG  1   8  -1
M  CHG  1  13   1
M  END
> <s_m_source_file>
AV-unprocessed.smi

> <i_m_source_file_index>
3029

> <i_lp_mmshare_version>
43012

> <i_f3d_flags>
0

> <s_epik_input>
Tz1jMVtjSF1bY0hdYyhbTitdKD1PKVtPLV0pW2NIXW4xW0NIMl1bQ0gyXVtOSF1bQ0BASF0yW0NIMl1bQ0gyXVtDSDJdW0NIMl1bQ0BIXTJDKEYpKEYpRg==

> <s_epik_cmdline>
J2VwaWtfcHl0aG9uJywgJy1waCcsICc3LjAnLCAnLXRuJywgJzgnLCAnLW1hJywgJzIwMCcsICctbWV0YWxfYmluZGluZycsICctaW1hZScsICc8aW5maWxlLm1hZT4nLCAnLW9tYWUnLCAnPG91dGZpbGUubWFlPic=

> <r_lp_tautomer_probability>
1

> <r_epik_Ionization_Penalty>
0.037386

> <r_epik_Ionization_Penalty_Charging>
0.037386

> <r_epik_Ionization_Penalty_Neutral>
0

> <r_epik_State_Penalty>
0.0312892

> <r_epik_Charging_Adjusted_Penalty>
0.0686752

> <i_epik_Tot_Q>
1

> <i_epik_Tot_abs_Q>
3

> <r_epik_Metal_State_Penalty>
0.0312892

> <b_epik_Metal_Only>
0

> <s_lp_Force_Field>
OPLS_2005

> <r_lp_Energy>
34.7992

> <b_lp_Chiralities_Consistent>
1

> <s_lp_Variant>
AV-unprocessed.smi:3029-3

> <Gold.Version>
5.8.1

> <Gold.Id.Protein>
6NUR|6NUR_protein|mol2

> <Gold.PLP.Fitness>
44.5529

> <Gold.PLP.PLP>
-34.0789

> <Gold.PLP.part.hbond>
-3.0000

> <Gold.PLP.part.metal>
0.0000

> <Gold.PLP.part.buried>
8.1635

> <Gold.PLP.part.nonpolar>
-39.0829

> <Gold.PLP.part.repulsive>
0.4505

> <Gold.PLP.ligand.clash>
0.0000

> <Gold.PLP.ligand.torsion>
2.1264

> <Gold.PLP.Chemscore.Hbond>
3.7200

> <Gold.PLP.Chemscore.CHOScore>
1.1602

> <Gold.PLP.Chemscore.Metal>
0.0000

> <Gold.Chemscore.Hbonds>
donor molecule, donor type, donor heavy atom, donor atom, acceptor molecule, acceptor atom, score
      L1  H    13    31       P1 10175  2.00
      L1  H    13    42       P1 10171  0.69
      P1  H  7989  7998       L1     7  0.59
      L1  C     9    26       P1  7948  1.00
      L1  C     9    26       P1  7957  0.13

> <Gold.PLP.Chemscore.Internal.Correction>
0.0862

> <Gold.Rescore>
     Score         DG    S(hbond)    S(metal)    S(lipo)     H(rot)  DE(clash)    DE(int)     intcor
     10.24     -17.70       2.56        0.00      72.99       1.90       3.76       3.70       ----

> <Gold.Chemscore.Fitness>
10.2410

> <Gold.Chemscore.DG>
-17.6978

> <Gold.Chemscore.ZeroCoef>
-5.4800

> <Gold.Chemscore.Hbond>
2.5602

> <Gold.Chemscore.Metal>
0.0000

> <Gold.Chemscore.Lipo>
72.9940

> <Gold.Chemscore.Internal_Hbond>
0.0000

> <Gold.Chemscore.DEClash>
3.7614

> <Gold.Chemscore.DEInternal>
3.6954

> <Gold.Chemscore.Rot>
1.9037

> <Gold.Chemscore.Internal.Correction>
   9.000000E+99

> <Gold.Chemscore.Hbonds>
donor molecule, donor type, donor heavy atom, donor atom, acceptor molecule, acceptor atom, score
      L1  H    13    31       P1 10175  0.97
      L1  H    13    42       P1 10171  0.67
      P1  H  7989  7998       L1     7  0.26

> <Gold.Chemscore.Hbond.Weighted>
-8.5510

> <Gold.Chemscore.Metal.Weighted>
-0.0000

> <Gold.Chemscore.Lipo.Weighted>
-8.5403

> <Gold.Chemscore.Internal_Hbond.Weighted>
0.0000

> <Gold.Chemscore.DEClash.Weighted>
3.7614

> <Gold.Chemscore.DEInternal.Weighted>
3.6954

> <Gold.Chemscore.Rot.Weighted>
4.8736

> <Gold.Chemscore.Internal.Correction.Weighted>
   9.000000E+99

> <Gold.Protein.RotatedTorsions>
[ 6907 6896 6895 6894 ] final  -19.14 input  -60.11 | X-H torsion
[ 7974 7965 7964 7962 ] final  -13.18 input  175.53 | X-H torsion
[ 8008 7997 7996 7995 ] final -141.69 input   59.86 | X-H torsion
[ 10167 10162 10161 10158 ] final  -20.25 input  -65.29 | X-H torsion
[ 10718 10713 10712 10709 ] final   71.06 input   66.30 | X-H torsion
[ 10763 10752 10751 10750 ] final   47.28 input  -60.55 | X-H torsion
[ 11005 11000 10999 10996 ] final -113.01 input  -57.11 | X-H torsion

> <Gold.Protein.ActiveResidues>
 VAL166  LYS551  ARG553  GLY616  TRP617  ASP618  TYR619  PRO620  LYS621  CYS622 
 ASP623  PHE694  ASN695  SER759  ASP760  ASP761  ALA762  ILE779  LEU786  VAL792 
 PHE793  MET794  SER795  GLU796  ALA797  LYS798  CYS799  TRP800  GLU811  SER814 

> <Gold.Protein.RotatedAtoms>
  151.2675  135.0674  159.9121 H   0  0  0  0  0  0  0  0  0  0  0  0  # atno 6907 bound_to 6896
  152.5356  134.0165  159.7972 H   0  0  0  0  0  0  0  0  0  0  0  0  # atno 6908 bound_to 6896
  151.0398  133.5666  159.2683 H   0  0  0  0  0  0  0  0  0  0  0  0  # atno 6909 bound_to 6896
  146.2124  140.3166  142.8387 H   0  0  0  0  0  0  0  0  0  0  0  0  # atno 7974 bound_to 7965
  155.4819  140.0561  157.2966 H   0  0  0  0  0  0  0  0  0  0  0  0  # atno 8008 bound_to 7997
  154.4657  140.2017  156.0077 H   0  0  0  0  0  0  0  0  0  0  0  0  # atno 8009 bound_to 7997
  156.0970  140.3225  155.7895 H   0  0  0  0  0  0  0  0  0  0  0  0  # atno 8010 bound_to 7997
  140.7275  143.4740  151.0207 H   0  0  0  0  0  0  0  0  0  0  0  0  # atno 10167 bound_to 10162
  157.6432  130.9509  150.0737 H   0  0  0  0  0  0  0  0  0  0  0  0  # atno 10718 bound_to 10713
  152.9801  135.5981  154.3737 H   0  0  0  0  0  0  0  0  0  0  0  0  # atno 10763 bound_to 10752
  154.3408  135.2767  155.2425 H   0  0  0  0  0  0  0  0  0  0  0  0  # atno 10764 bound_to 10752
  154.4508  135.5990  153.6245 H   0  0  0  0  0  0  0  0  0  0  0  0  # atno 10765 bound_to 10752
  141.0640  133.9488  157.2613 H   0  0  0  0  0  0  0  0  0  0  0  0  # atno 11005 bound_to 11000
  144.8950  140.7571  143.5903 LP  0  0  0  0  0  0  0  0  0  0  0  0  # atno 17320 bound_to 7965
  145.3090  139.1825  143.4649 LP  0  0  0  0  0  0  0  0  0  0  0  0  # atno 17321 bound_to 7965
  139.8434  143.7533  152.3180 LP  0  0  0  0  0  0  0  0  0  0  0  0  # atno 17342 bound_to 10162
  139.7690  144.7483  151.0252 LP  0  0  0  0  0  0  0  0  0  0  0  0  # atno 17343 bound_to 10162
  156.1734  130.3647  149.9134 LP  0  0  0  0  0  0  0  0  0  0  0  0  # atno 17370 bound_to 10713
  156.7104  130.8968  151.3609 LP  0  0  0  0  0  0  0  0  0  0  0  0  # atno 17371 bound_to 10713
  139.9459  135.0184  156.8851 LP  0  0  0  0  0  0  0  0  0  0  0  0  # atno 17394 bound_to 11000
  140.5810  134.0352  155.7464 LP  0  0  0  0  0  0  0  0  0  0  0  0  # atno 17395 bound_to 11000

$$$$
