#       Name:                AV-unprocessed.smi:2089
#       Creating user name   scv26
#       Creation time:       Fri Mar 27 11:25:04 2020


#       File generated by GOLD software.
#

@<TRIPOS>MOLECULE
AV-unprocessed.smi:2089
    43    44     1
SMALL
NO_CHARGES


@<TRIPOS>ATOM
      1 ****        -2.2307   3.5406   1.8496 C.3            1 S1                 0.0000
      2 ****        -2.6737   1.7748   1.5894 S.o2           1 S1                 0.0000
      3 ****        -1.6072   0.9419   2.1666 O.2            1 S1                 0.0000
      4 ****        -4.0709   1.5625   1.9965 O.2            1 S1                 0.0000
      5 ****        -2.5930   1.6058  -0.1309 N.3            1 S1                 0.0000
      6 ****        -3.4772   2.4318  -0.9645 C.3            1 S1                 0.0000
      7 ****        -3.6344   1.6707  -2.2785 C.3            1 S1                 0.0000
      8 ****        -3.5131   0.2162  -1.8468 C.3            1 S1                 0.0000
      9 ****        -2.4878   0.2517  -0.6995 C.3            1 S1                 0.0000
     10 ****        -1.0582  -0.0931  -1.1408 C.2            1 S1                 0.0000
     11 ****        -0.6669   0.1665  -2.2792 O.2            1 S1                 0.0000
     12 ****        -0.2785  -0.6691  -0.2148 N.am           1 S1                 0.0000
     13 ****         1.1117  -1.0441  -0.4259 C.3            1 S1                 0.0000
     14 ****         1.7391  -1.5496   0.8803 C.3            1 S1                 0.0000
     15 ****         3.1940  -1.9392   0.7034 C.ar           1 S1                 0.0000
     16 ****         3.6001  -3.2834   0.5553 C.ar           1 S1                 0.0000
     17 ****         4.9700  -3.5744   0.3862 C.ar           1 S1                 0.0000
     18 ****         5.9034  -2.5171   0.3671 C.ar           1 S1                 0.0000
     19 ****         5.4426  -1.1933   0.5184 C.ar           1 S1                 0.0000
     20 ****         4.1222  -0.9552   0.6792 N.pl3          1 S1                 1.0000
     21 ****        -2.2095   3.7539   2.9180 H              1 S1                 0.0000
     22 ****        -2.9713   4.1802   1.3703 H              1 S1                 0.0000
     23 ****        -1.2482   3.7369   1.4213 H              1 S1                 0.0000
     24 ****        -4.4461   2.5351  -0.4746 H              1 S1                 0.0000
     25 ****        -3.0582   3.4279  -1.1078 H              1 S1                 0.0000
     26 ****        -4.5766   1.8866  -2.7827 H              1 S1                 0.0000
     27 ****        -2.8210   1.9281  -2.9583 H              1 S1                 0.0000
     28 ****        -4.4731  -0.1367  -1.4675 H              1 S1                 0.0000
     29 ****        -3.2324  -0.4392  -2.6726 H              1 S1                 0.0000
     30 ****        -2.7944  -0.4790   0.0513 H              1 S1                 0.0000
     31 ****        -0.6713  -0.8382   0.7005 H              1 S1                 0.0000
     32 ****         1.1633  -1.8182  -1.1932 H              1 S1                 0.0000
     33 ****         1.6661  -0.1810  -0.7984 H              1 S1                 0.0000
     34 ****         1.6712  -0.7802   1.6512 H              1 S1                 0.0000
     35 ****         1.1817  -2.4098   1.2540 H              1 S1                 0.0000
     36 ****         2.8733  -4.0827   0.5686 H              1 S1                 0.0000
     37 ****         5.3006  -4.5963   0.2711 H              1 S1                 0.0000
     38 ****         6.9568  -2.7189   0.2381 H              1 S1                 0.0000
     39 ****         6.0845  -0.3245   0.5152 H              1 S1                 0.0000
     40 ****         3.8113   0.0107   0.7858 H              1 S1                 0.0000
     41 ****        -1.6830   2.0156  -0.1950 LP             1 S1                 0.0000
     42 ****        -1.2832   0.6082  -2.9312 LP             1 S1                 0.0000
     43 ****         0.2672  -0.0643  -2.5517 LP             1 S1                 0.0000
@<TRIPOS>BOND
    1    1    2 1     
    2    1   21 1     
    3    1   22 1     
    4    1   23 1     
    5    2    3 2     
    6    2    4 2     
    7    2    5 1     
    8    5    9 1     
    9    5    6 1     
   10    6    7 1     
   11    6   24 1     
   12    6   25 1     
   13    7    8 1     
   14    7   26 1     
   15    7   27 1     
   16    8    9 1     
   17    8   28 1     
   18    8   29 1     
   19    9   10 1     
   20    9   30 1     
   21   10   11 2     
   22   10   12 am    
   23   12   13 1     
   24   12   31 1     
   25   13   14 1     
   26   13   32 1     
   27   13   33 1     
   28   14   15 1     
   29   14   34 1     
   30   14   35 1     
   31   15   20 ar    
   32   15   16 ar    
   33   16   17 ar    
   34   16   36 1     
   35   17   18 ar    
   36   17   37 1     
   37   18   19 ar    
   38   18   38 1     
   39   19   20 ar    
   40   19   39 1     
   41   20   40 1     
   42    5   41 1     
   43   11   42 1     
   44   11   43 1     
@<TRIPOS>SUBSTRUCTURE
      1 S1             1
@<TRIPOS>SET
LONE_PAIRS      STATIC     ATOMS    <user>   **** ""
5 3 4 41 42 43
DONOR_HYDROGENS      STATIC     ATOMS    <user>   **** ""
2 31 40
ATOM$BLUE        STATIC     ATOMS    COLORGROUP SYSTEM
5 3 4 41 42 43
ATOM$RED        STATIC     ATOMS    COLORGROUP SYSTEM
2 31 40
