AV-unprocessed.smi:3298|AV-procd|sdf|12640|dock10
  -GOLD-   2272018573D 1   1.00000     0.00000
 Structure written by MMmdl.
 35 36  0  0  0  0  0  0  0  0  1 V2000
  143.7136  143.7660  162.9903 C   0  0  0  0  0  0  0  0  0  0  0  0
  144.0806  144.1640  161.5759 C   0  0  0  0  0  0  0  0  0  0  0  0
  145.4216  144.4261  161.2256 C   0  0  0  0  0  0  0  0  0  0  0  0
  145.7181  144.7992  159.8982 C   0  0  0  0  0  0  0  0  0  0  0  0
  147.0793  145.0448  159.5710 N   0  0  0  0  0  0  0  0  0  0  0  0
  148.1794  144.8092  160.3072 C   0  0  0  0  0  0  0  0  0  0  0  0
  148.1946  144.3092  161.4319 O   0  0  0  0  0  0  0  0  0  0  0  0
  149.2889  145.1720  159.6478 N   0  0  0  0  0  0  0  0  0  0  0  0
  150.6471  145.0247  160.1586 C   0  0  2  0  0  0  0  0  0  0  0  0
  151.6499  145.4262  159.1120 C   0  0  0  0  0  0  0  0  0  0  0  0
  152.5335  144.4657  158.8514 C   0  0  0  0  0  0  0  0  0  0  0  0
  152.3001  143.2187  159.6658 C   0  0  2  0  0  0  0  0  0  0  0  0
  152.1624  141.9548  158.7994 C   0  0  0  0  0  0  0  0  0  0  0  0
  151.1545  142.1269  157.8251 O   0  0  0  0  0  0  0  0  0  0  0  0
  151.0161  143.5497  160.4688 C   0  0  0  0  0  0  0  0  0  0  0  0
  144.6502  144.8686  158.9714 C   0  0  0  0  0  0  0  0  0  0  0  0
  143.3462  144.5845  159.4235 C   0  0  0  0  0  0  0  0  0  0  0  0
  143.0585  144.2411  160.6968 N   0  0  0  0  0  0  0  0  0  0  0  0
  150.7935  145.6572  161.0359 H   0  0  0  0  0  0  0  0  0  0  0  0
  153.1397  143.1044  160.3529 H   0  0  0  0  0  0  0  0  0  0  0  0
  144.4949  144.0555  163.6935 H   0  0  0  0  0  0  0  0  0  0  0  0
  143.5779  142.6862  163.0540 H   0  0  0  0  0  0  0  0  0  0  0  0
  142.7859  144.2486  163.2999 H   0  0  0  0  0  0  0  0  0  0  0  0
  146.2066  144.3470  161.9637 H   0  0  0  0  0  0  0  0  0  0  0  0
  147.2403  145.3914  158.6368 H   0  0  0  0  0  0  0  0  0  0  0  0
  149.1894  145.5705  158.7258 H   0  0  0  0  0  0  0  0  0  0  0  0
  151.6407  146.4024  158.6496 H   0  0  0  0  0  0  0  0  0  0  0  0
  153.3468  144.5466  158.1452 H   0  0  0  0  0  0  0  0  0  0  0  0
  153.1024  141.7421  158.2893 H   0  0  0  0  0  0  0  0  0  0  0  0
  151.9235  141.0856  159.4135 H   0  0  0  0  0  0  0  0  0  0  0  0
  151.5461  142.4977  157.0490 H   0  0  0  0  0  0  0  0  0  0  0  0
  151.1787  143.4086  161.5381 H   0  0  0  0  0  0  0  0  0  0  0  0
  150.2046  142.8764  160.1876 H   0  0  0  0  0  0  0  0  0  0  0  0
  144.8014  145.1183  157.9328 H   0  0  0  0  0  0  0  0  0  0  0  0
  142.5110  144.6286  158.7404 H   0  0  0  0  0  0  0  0  0  0  0  0
  1  2  1  0  0  0  0
  1 21  1  0  0  0  0
  1 22  1  0  0  0  0
  1 23  1  0  0  0  0
  2 18  1  0  0  0  0
  2  3  2  0  0  0  0
  3  4  1  0  0  0  0
  3 24  1  0  0  0  0
  4  5  1  0  0  0  0
  4 16  2  0  0  0  0
  5  6  1  0  0  0  0
  5 25  1  0  0  0  0
  6  7  2  0  0  0  0
  6  8  1  0  0  0  0
  8  9  1  0  0  0  0
  8 26  1  0  0  0  0
  9 19  1  0  0  0  0
  9 15  1  0  0  0  0
  9 10  1  0  0  0  0
 10 11  2  0  0  0  0
 10 27  1  0  0  0  0
 11 12  1  0  0  0  0
 11 28  1  0  0  0  0
 12 20  1  0  0  0  0
 12 13  1  0  0  0  0
 12 15  1  0  0  0  0
 13 14  1  0  0  0  0
 13 29  1  0  0  0  0
 13 30  1  0  0  0  0
 14 31  1  0  0  0  0
 15 32  1  0  0  0  0
 15 33  1  0  0  0  0
 16 17  1  0  0  0  0
 16 34  1  0  0  0  0
 17 18  2  0  0  0  0
 17 35  1  0  0  0  0
M  END
> <s_m_source_file>
AV-unprocessed.smi

> <i_m_source_file_index>
3298

> <i_lp_mmshare_version>
43012

> <i_f3d_flags>
0

> <s_epik_input>
W0NIM11jMVtjSF1jKFtjSF1bY0hdbjEpW05IXUMoPU8pW05IXVtDQEBIXTJbQ0hdPVtDSF1bQ0BASF0oW0NIMl0yKVtDSDJdW09IXQ==

> <s_epik_cmdline>
J2VwaWtfcHl0aG9uJywgJy1waCcsICc3LjAnLCAnLXRuJywgJzgnLCAnLW1hJywgJzIwMCcsICctbWV0YWxfYmluZGluZycsICctaW1hZScsICc8aW5maWxlLm1hZT4nLCAnLW9tYWUnLCAnPG91dGZpbGUubWFlPic=

> <r_epik_Ionization_Penalty>
0.379275

> <r_epik_Ionization_Penalty_Charging>
0

> <r_epik_Ionization_Penalty_Neutral>
0.379275

> <r_epik_State_Penalty>
0.377195

> <r_epik_Charging_Adjusted_Penalty>
0.377195

> <i_epik_Tot_Q>
0

> <i_epik_Tot_abs_Q>
0

> <r_epik_Metal_State_Penalty>
0.22815

> <b_epik_Metal_Only>
0

> <s_lp_Force_Field>
OPLS_2005

> <r_lp_Energy>
20.8901

> <b_lp_Chiralities_Consistent>
1

> <s_lp_Variant>
AV-unprocessed.smi:3298-1

> <Gold.Version>
5.8.1

> <Gold.Id.Protein>
6NUR|6NUR_protein|mol2

> <Gold.PLP.Fitness>
42.6560

> <Gold.PLP.PLP>
-34.2142

> <Gold.PLP.part.hbond>
-2.9837

> <Gold.PLP.part.metal>
0.0000

> <Gold.PLP.part.buried>
-3.2318

> <Gold.PLP.part.nonpolar>
-29.5920

> <Gold.PLP.part.repulsive>
0.5854

> <Gold.PLP.ligand.clash>
0.0000

> <Gold.PLP.ligand.torsion>
0.0462

> <Gold.PLP.Chemscore.Hbond>
2.8400

> <Gold.PLP.Chemscore.CHOScore>
0.0000

> <Gold.PLP.Chemscore.Metal>
0.0000

> <Gold.Chemscore.Hbonds>
donor molecule, donor type, donor heavy atom, donor atom, acceptor molecule, acceptor atom, score
      L1  H     5    25       P1  8029  1.00
      L1  H     8    26       P1  8029  0.90
      P1  H  6933  6944       L1     7  0.98

> <Gold.PLP.Chemscore.Internal.Correction>
0.0142

> <Gold.Rescore>
     Score         DG    S(hbond)    S(metal)    S(lipo)     H(rot)  DE(clash)    DE(int)     intcor
     19.91     -22.28       2.81        0.00     102.17       1.78       0.10       2.26       ----

> <Gold.Chemscore.Fitness>
19.9113

> <Gold.Chemscore.DG>
-22.2776

> <Gold.Chemscore.ZeroCoef>
-5.4800

> <Gold.Chemscore.Hbond>
2.8143

> <Gold.Chemscore.Metal>
0.0000

> <Gold.Chemscore.Lipo>
102.1690

> <Gold.Chemscore.Internal_Hbond>
0.0000

> <Gold.Chemscore.DEClash>
0.1039

> <Gold.Chemscore.DEInternal>
2.2624

> <Gold.Chemscore.Rot>
1.7796

> <Gold.Chemscore.Internal.Correction>
   9.000000E+99

> <Gold.Chemscore.Hbonds>
donor molecule, donor type, donor heavy atom, donor atom, acceptor molecule, acceptor atom, score
      L1  H     5    25       P1  8029  0.98
      L1  H     8    26       P1  8029  0.86
      P1  H  6933  6944       L1     7  0.83

> <Gold.Chemscore.Hbond.Weighted>
-9.3997

> <Gold.Chemscore.Metal.Weighted>
-0.0000

> <Gold.Chemscore.Lipo.Weighted>
-11.9538

> <Gold.Chemscore.Internal_Hbond.Weighted>
0.0000

> <Gold.Chemscore.DEClash.Weighted>
0.1039

> <Gold.Chemscore.DEInternal.Weighted>
2.2624

> <Gold.Chemscore.Rot.Weighted>
4.5558

> <Gold.Chemscore.Internal.Correction.Weighted>
   9.000000E+99

> <Gold.Protein.RotatedTorsions>
[ 6907 6896 6895 6894 ] final  155.45 input  -60.11 | X-H torsion
[ 7974 7965 7964 7962 ] final  170.52 input  175.53 | X-H torsion
[ 8008 7997 7996 7995 ] final   -5.80 input   59.86 | X-H torsion
[ 10167 10162 10161 10158 ] final  -41.64 input  -65.29 | X-H torsion
[ 10718 10713 10712 10709 ] final -126.13 input   66.30 | X-H torsion
[ 10763 10752 10751 10750 ] final -160.27 input  -60.55 | X-H torsion
[ 11005 11000 10999 10996 ] final   60.37 input  -57.11 | X-H torsion

> <Gold.Protein.ActiveResidues>
 VAL166  LYS551  ARG553  GLY616  TRP617  ASP618  TYR619  PRO620  LYS621  CYS622 
 ASP623  PHE694  ASN695  SER759  ASP760  ASP761  ALA762  ILE779  LEU786  VAL792 
 PHE793  MET794  SER795  GLU796  ALA797  LYS798  CYS799  TRP800  GLU811  SER814 

> <Gold.Protein.RotatedAtoms>
  152.0440  133.3990  159.4348 H   0  0  0  0  0  0  0  0  0  0  0  0  # atno 6907 bound_to 6896
  150.6874  134.3383  159.4866 H   0  0  0  0  0  0  0  0  0  0  0  0  # atno 6908 bound_to 6896
  152.1185  134.9223  160.0614 H   0  0  0  0  0  0  0  0  0  0  0  0  # atno 6909 bound_to 6896
  144.7321  139.9215  143.6420 H   0  0  0  0  0  0  0  0  0  0  0  0  # atno 7974 bound_to 7965
  154.6002  140.2449  155.7802 H   0  0  0  0  0  0  0  0  0  0  0  0  # atno 8008 bound_to 7997
  156.2306  140.2968  156.0131 H   0  0  0  0  0  0  0  0  0  0  0  0  # atno 8009 bound_to 7997
  155.2223  140.0401  157.2940 H   0  0  0  0  0  0  0  0  0  0  0  0  # atno 8010 bound_to 7997
  140.6996  143.3083  151.3095 H   0  0  0  0  0  0  0  0  0  0  0  0  # atno 10167 bound_to 10162
  156.1738  130.6685  151.0214 H   0  0  0  0  0  0  0  0  0  0  0  0  # atno 10718 bound_to 10713
  154.7404  135.3067  154.8738 H   0  0  0  0  0  0  0  0  0  0  0  0  # atno 10763 bound_to 10752
  153.9554  135.6759  153.4748 H   0  0  0  0  0  0  0  0  0  0  0  0  # atno 10764 bound_to 10752
  153.1003  135.4915  154.8780 H   0  0  0  0  0  0  0  0  0  0  0  0  # atno 10765 bound_to 10752
  140.0237  134.6115  155.9603 H   0  0  0  0  0  0  0  0  0  0  0  0  # atno 11005 bound_to 11000
  146.0926  139.3917  143.0396 LP  0  0  0  0  0  0  0  0  0  0  0  0  # atno 17320 bound_to 7965
  145.7690  140.9904  143.1160 LP  0  0  0  0  0  0  0  0  0  0  0  0  # atno 17321 bound_to 7965
  139.6497  144.0386  152.2617 LP  0  0  0  0  0  0  0  0  0  0  0  0  # atno 17342 bound_to 10162
  139.9918  144.6356  150.7807 LP  0  0  0  0  0  0  0  0  0  0  0  0  # atno 17343 bound_to 10162
  157.6821  131.0835  150.7342 LP  0  0  0  0  0  0  0  0  0  0  0  0  # atno 17370 bound_to 10713
  156.7400  130.4736  149.5479 LP  0  0  0  0  0  0  0  0  0  0  0  0  # atno 17371 bound_to 10713
  141.1789  133.6543  156.4941 LP  0  0  0  0  0  0  0  0  0  0  0  0  # atno 17394 bound_to 11000
  140.4344  134.7073  157.4959 LP  0  0  0  0  0  0  0  0  0  0  0  0  # atno 17395 bound_to 11000

$$$$
