AV-unprocessed.smi:414|AV-procd|sdf|2515|dock1
  -GOLD-   2262022463D 1   1.00000     0.00000
 Structure written by MMmdl.
 38 39  0  0  0  0  0  0  0  0  1 V2000
  144.3751  134.4766  151.0662 C   0  0  0  0  0  0  0  0  0  0  0  0
  144.5757  135.7107  151.9572 C   0  0  2  0  0  0  0  0  0  0  0  0
  145.7881  136.5436  151.4993 C   0  0  0  0  0  0  0  0  0  0  0  0
  145.9976  137.7783  152.3932 C   0  0  0  0  0  0  0  0  0  0  0  0
  146.1341  137.4020  153.8845 C   0  0  2  0  0  0  0  0  0  0  0  0
  147.3849  136.6929  154.1496 N   0  0  0  0  0  0  0  0  0  0  0  0
  147.8066  136.2735  155.3521 C   0  0  0  0  0  0  0  0  0  0  0  0
  147.1641  136.4461  156.3890 O   0  0  0  0  0  0  0  0  0  0  0  0
  149.1683  135.5636  155.3694 C   0  0  0  0  0  0  0  0  0  0  0  0
  150.3118  136.4882  155.3664 N   0  0  0  0  0  0  0  0  0  0  0  0
  150.3927  137.4932  154.4129 C   0  0  0  0  0  0  0  0  0  0  0  0
  151.4086  138.3866  154.3552 C   0  0  0  0  0  0  0  0  0  0  0  0
  152.4971  138.3306  155.3249 C   0  0  0  0  0  0  0  0  0  0  0  0
  153.4607  139.0930  155.3541 O   0  0  0  0  0  0  0  0  0  0  0  0
  152.3783  137.3078  156.2698 N   0  0  0  0  0  0  0  0  0  0  0  0
  151.3332  136.3849  156.3358 C   0  0  0  0  0  0  0  0  0  0  0  0
  151.3226  135.5248  157.2156 O   0  0  0  0  0  0  0  0  0  0  0  0
  144.9345  136.5485  154.3393 C   0  0  0  0  0  0  0  0  0  0  0  0
  144.7199  135.3173  153.4399 C   0  0  0  0  0  0  0  0  0  0  0  0
  153.1073  137.2320  156.9643 H   0  0  0  0  0  0  0  0  0  0  0  0
  145.2337  133.8063  151.1178 H   0  0  0  0  0  0  0  0  0  0  0  0
  144.2388  134.7633  150.0231 H   0  0  0  0  0  0  0  0  0  0  0  0
  143.4934  133.9120  151.3703 H   0  0  0  0  0  0  0  0  0  0  0  0
  143.6852  136.3335  151.8602 H   0  0  0  0  0  0  0  0  0  0  0  0
  146.6874  135.9265  151.5102 H   0  0  0  0  0  0  0  0  0  0  0  0
  145.6501  136.8641  150.4661 H   0  0  0  0  0  0  0  0  0  0  0  0
  146.8696  138.3392  152.0556 H   0  0  0  0  0  0  0  0  0  0  0  0
  145.1466  138.4498  152.2738 H   0  0  0  0  0  0  0  0  0  0  0  0
  146.1372  138.3184  154.4775 H   0  0  0  0  0  0  0  0  0  0  0  0
  147.9776  136.5105  153.3529 H   0  0  0  0  0  0  0  0  0  0  0  0
  149.2138  134.9011  156.2360 H   0  0  0  0  0  0  0  0  0  0  0  0
  149.2228  134.9039  154.5018 H   0  0  0  0  0  0  0  0  0  0  0  0
  149.6056  137.5751  153.6767 H   0  0  0  0  0  0  0  0  0  0  0  0
  151.4150  139.1476  153.5882 H   0  0  0  0  0  0  0  0  0  0  0  0
  145.0646  136.2358  155.3760 H   0  0  0  0  0  0  0  0  0  0  0  0
  144.0331  137.1623  154.3206 H   0  0  0  0  0  0  0  0  0  0  0  0
  143.8305  134.7788  153.7690 H   0  0  0  0  0  0  0  0  0  0  0  0
  145.5556  134.6264  153.5585 H   0  0  0  0  0  0  0  0  0  0  0  0
  1  2  1  0  0  0  0
  1 21  1  0  0  0  0
  1 22  1  0  0  0  0
  1 23  1  0  0  0  0
  2 19  1  0  0  0  0
  2  3  1  0  0  0  0
  2 24  1  0  0  0  0
  3  4  1  0  0  0  0
  3 25  1  0  0  0  0
  3 26  1  0  0  0  0
  4  5  1  0  0  0  0
  4 27  1  0  0  0  0
  4 28  1  0  0  0  0
  5  6  1  0  0  0  0
  5 18  1  0  0  0  0
  5 29  1  0  0  0  0
  6  7  1  0  0  0  0
  6 30  1  0  0  0  0
  7  8  2  0  0  0  0
  7  9  1  0  0  0  0
  9 10  1  0  0  0  0
  9 31  1  0  0  0  0
  9 32  1  0  0  0  0
 10 16  1  0  0  0  0
 10 11  1  0  0  0  0
 11 12  2  0  0  0  0
 11 33  1  0  0  0  0
 12 13  1  0  0  0  0
 12 34  1  0  0  0  0
 13 14  2  0  0  0  0
 13 15  1  0  0  0  0
 15 20  1  0  0  0  0
 15 16  1  0  0  0  0
 16 17  2  0  0  0  0
 18 19  1  0  0  0  0
 18 35  1  0  0  0  0
 18 36  1  0  0  0  0
 19 37  1  0  0  0  0
 19 38  1  0  0  0  0
M  END
> <s_m_source_file>
AV-unprocessed.smi

> <i_m_source_file_index>
414

> <i_lp_mmshare_version>
43012

> <i_f3d_flags>
0

> <s_epik_input>
W0NIM11bQ0BASF0xW0NIMl1bQ0gyXVtDQEhdKFtDSDJdW0NIMl0xKVtOSF1DKD1PKVtDSDJdbjJbY0hdW2NIXWMoPU8pW25IXWMyPU8=

> <s_epik_cmdline>
J2VwaWtfcHl0aG9uJywgJy1waCcsICc3LjAnLCAnLXRuJywgJzgnLCAnLW1hJywgJzIwMCcsICctbWV0YWxfYmluZGluZycsICctaW1hZScsICc8aW5maWxlLm1hZT4nLCAnLW9tYWUnLCAnPG91dGZpbGUubWFlPic=

> <r_lp_tautomer_probability>
0.999537

> <r_epik_Ionization_Penalty>
0.00309124

> <r_epik_Ionization_Penalty_Charging>
0.00309122

> <r_epik_Ionization_Penalty_Neutral>
1.90469e-08

> <r_epik_State_Penalty>
0.00217484

> <r_epik_Charging_Adjusted_Penalty>
0.00526606

> <i_epik_Tot_Q>
0

> <i_epik_Tot_abs_Q>
0

> <r_epik_Metal_State_Penalty>
0.362537

> <b_epik_Metal_Only>
0

> <s_lp_Force_Field>
OPLS_2005

> <r_lp_Energy>
7.68142

> <b_lp_Chiralities_Consistent>
1

> <s_lp_Variant>
AV-unprocessed.smi:414-2

> <Gold.Version>
5.8.1

> <Gold.Id.Protein>
6NUR|6NUR_protein|mol2

> <Gold.PLP.Fitness>
33.4756

> <Gold.PLP.PLP>
-25.2479

> <Gold.PLP.part.hbond>
-2.5779

> <Gold.PLP.part.metal>
0.0000

> <Gold.PLP.part.buried>
-0.8552

> <Gold.PLP.part.nonpolar>
-22.6940

> <Gold.PLP.part.repulsive>
0.1441

> <Gold.PLP.ligand.clash>
0.0000

> <Gold.PLP.ligand.torsion>
0.3649

> <Gold.PLP.Chemscore.Hbond>
1.9833

> <Gold.PLP.Chemscore.CHOScore>
1.0000

> <Gold.PLP.Chemscore.Metal>
0.0000

> <Gold.Chemscore.Hbonds>
donor molecule, donor type, donor heavy atom, donor atom, acceptor molecule, acceptor atom, score
      L1  H     6    30       P1  7948  1.00
      P1  H  7997  8010       L1    14  1.00
      L1  C    11    33       P1  7948  1.00

> <Gold.PLP.Chemscore.Internal.Correction>
0.0075

> <Gold.Rescore>
     Score         DG    S(hbond)    S(metal)    S(lipo)     H(rot)  DE(clash)    DE(int)     intcor
     12.66     -13.94       1.98        0.00      52.56       1.69       0.02       1.25       ----

> <Gold.Chemscore.Fitness>
12.6619

> <Gold.Chemscore.DG>
-13.9376

> <Gold.Chemscore.ZeroCoef>
-5.4800

> <Gold.Chemscore.Hbond>
1.9843

> <Gold.Chemscore.Metal>
0.0000

> <Gold.Chemscore.Lipo>
52.5627

> <Gold.Chemscore.Internal_Hbond>
0.0000

> <Gold.Chemscore.DEClash>
0.0243

> <Gold.Chemscore.DEInternal>
1.2514

> <Gold.Chemscore.Rot>
1.6874

> <Gold.Chemscore.Internal.Correction>
   9.000000E+99

> <Gold.Chemscore.Hbonds>
donor molecule, donor type, donor heavy atom, donor atom, acceptor molecule, acceptor atom, score
      L1  H     6    30       P1  7948  1.00
      P1  H  7997  8010       L1    14  0.94

> <Gold.Chemscore.Hbond.Weighted>
-6.6276

> <Gold.Chemscore.Metal.Weighted>
-0.0000

> <Gold.Chemscore.Lipo.Weighted>
-6.1498

> <Gold.Chemscore.Internal_Hbond.Weighted>
0.0000

> <Gold.Chemscore.DEClash.Weighted>
0.0243

> <Gold.Chemscore.DEInternal.Weighted>
1.2514

> <Gold.Chemscore.Rot.Weighted>
4.3198

> <Gold.Chemscore.Internal.Correction.Weighted>
   9.000000E+99

> <Gold.Protein.RotatedTorsions>
[ 6907 6896 6895 6894 ] final -163.58 input  -60.11 | X-H torsion
[ 7974 7965 7964 7962 ] final   80.13 input  175.53 | X-H torsion
[ 8008 7997 7996 7995 ] final  105.15 input   59.86 | X-H torsion
[ 10167 10162 10161 10158 ] final  122.33 input  -65.29 | X-H torsion
[ 10718 10713 10712 10709 ] final  168.73 input   66.30 | X-H torsion
[ 10763 10752 10751 10750 ] final  170.58 input  -60.55 | X-H torsion
[ 11005 11000 10999 10996 ] final  103.70 input  -57.11 | X-H torsion

> <Gold.Protein.ActiveResidues>
 VAL166  LYS551  ARG553  GLY616  TRP617  ASP618  TYR619  PRO620  LYS621  CYS622 
 ASP623  PHE694  ASN695  SER759  ASP760  ASP761  ALA762  ILE779  LEU786  VAL792 
 PHE793  MET794  SER795  GLU796  ALA797  LYS798  CYS799  TRP800  GLU811  SER814 

> <Gold.Protein.RotatedAtoms>
  151.3983  133.3766  159.2728 H   0  0  0  0  0  0  0  0  0  0  0  0  # atno 6907 bound_to 6896
  150.9453  134.8859  159.7648 H   0  0  0  0  0  0  0  0  0  0  0  0  # atno 6908 bound_to 6896
  152.5089  134.3935  159.9444 H   0  0  0  0  0  0  0  0  0  0  0  0  # atno 6909 bound_to 6896
  145.6551  139.2457  143.1954 H   0  0  0  0  0  0  0  0  0  0  0  0  # atno 7974 bound_to 7965
  156.1634  140.3135  155.8847 H   0  0  0  0  0  0  0  0  0  0  0  0  # atno 8008 bound_to 7997
  155.3735  140.0483  157.3062 H   0  0  0  0  0  0  0  0  0  0  0  0  # atno 8009 bound_to 7997
  154.5169  140.2184  155.9060 H   0  0  0  0  0  0  0  0  0  0  0  0  # atno 8010 bound_to 7997
  139.5865  144.7008  151.3395 H   0  0  0  0  0  0  0  0  0  0  0  0  # atno 10167 bound_to 10162
  157.0328  131.0264  151.2739 H   0  0  0  0  0  0  0  0  0  0  0  0  # atno 10718 bound_to 10713
  154.3997  135.2755  155.2104 H   0  0  0  0  0  0  0  0  0  0  0  0  # atno 10763 bound_to 10752
  154.4135  135.6017  153.5970 H   0  0  0  0  0  0  0  0  0  0  0  0  # atno 10764 bound_to 10752
  152.9831  135.5955  154.4263 H   0  0  0  0  0  0  0  0  0  0  0  0  # atno 10765 bound_to 10752
  139.8786  134.9273  156.5249 H   0  0  0  0  0  0  0  0  0  0  0  0  # atno 11005 bound_to 11000
  146.1171  140.7356  142.9475 LP  0  0  0  0  0  0  0  0  0  0  0  0  # atno 17320 bound_to 7965
  144.7108  140.4032  143.7082 LP  0  0  0  0  0  0  0  0  0  0  0  0  # atno 17321 bound_to 7965
  140.7136  143.7325  150.7613 LP  0  0  0  0  0  0  0  0  0  0  0  0  # atno 17342 bound_to 10162
  140.0871  143.4913  152.2499 LP  0  0  0  0  0  0  0  0  0  0  0  0  # atno 17343 bound_to 10162
  157.5164  130.7971  149.7761 LP  0  0  0  0  0  0  0  0  0  0  0  0  # atno 17370 bound_to 10713
  156.0064  130.3854  150.2418 LP  0  0  0  0  0  0  0  0  0  0  0  0  # atno 17371 bound_to 10713
  140.8423  133.8195  155.9087 LP  0  0  0  0  0  0  0  0  0  0  0  0  # atno 17394 bound_to 11000
  140.9225  134.2124  157.4917 LP  0  0  0  0  0  0  0  0  0  0  0  0  # atno 17395 bound_to 11000

$$$$
