AV-unprocessed.smi:2482|AV-procd|sdf|9777|dock9
  -GOLD-   2272013423D 1   1.00000     0.00000
 Structure written by MMmdl.
 35 36  0  0  0  0  0  0  0  0  2 V2000
  152.5306  144.5550  161.2498 C   0  0  0  0  0  0  0  0  0  0  0  0
  152.6409  143.1866  160.5985 C   0  0  0  0  0  0  0  0  0  0  0  0
  153.3443  142.2836  161.3165 N   0  0  0  0  0  0  0  0  0  0  0  0
  153.4904  141.0401  160.8160 C   0  0  0  0  0  0  0  0  0  0  0  0
  152.9539  140.6375  159.5791 C   0  0  0  0  0  0  0  0  0  0  0  0
  152.2293  141.5827  158.8165 C   0  0  0  0  0  0  0  0  0  0  0  0
  151.6276  141.2621  157.5702 N   0  0  0  0  0  0  0  0  0  0  0  0
  151.9281  140.2447  156.7427 C   0  0  0  0  0  0  0  0  0  0  0  0
  152.7946  139.4002  156.9712 O   0  0  0  0  0  0  0  0  0  0  0  0
  151.1174  140.1901  155.4321 C   0  0  2  0  0  0  0  0  0  0  0  0
  149.7469  139.4816  155.5518 C   0  0  0  0  0  0  0  0  0  0  0  0
  149.9149  138.0204  155.7347 N   0  3  1  0  0  0  0  0  0  0  0  0
  148.6279  137.3171  155.9211 C   0  0  0  0  0  0  0  0  0  0  0  0
  150.7281  137.4458  154.6393 C   0  0  0  0  0  0  0  0  0  0  0  0
  152.0818  138.1680  154.5424 C   0  0  0  0  0  0  0  0  0  0  0  0
  151.8725  139.5719  154.3838 O   0  0  0  0  0  0  0  0  0  0  0  0
  152.0550  142.8840  159.3431 C   0  0  0  0  0  0  0  0  0  0  0  0
  151.1558  144.0674  158.4517 Cl  0  0  0  0  0  0  0  0  0  0  0  0
  151.9838  145.2775  160.6469 H   0  0  0  0  0  0  0  0  0  0  0  0
  153.5256  144.9628  161.4300 H   0  0  0  0  0  0  0  0  0  0  0  0
  152.0212  144.4715  162.2102 H   0  0  0  0  0  0  0  0  0  0  0  0
  154.0470  140.3420  161.4236 H   0  0  0  0  0  0  0  0  0  0  0  0
  153.0922  139.6200  159.2458 H   0  0  0  0  0  0  0  0  0  0  0  0
  150.9702  141.9432  157.2180 H   0  0  0  0  0  0  0  0  0  0  0  0
  150.9424  141.2250  155.1365 H   0  0  0  0  0  0  0  0  0  0  0  0
  149.1707  139.8960  156.3805 H   0  0  0  0  0  0  0  0  0  0  0  0
  149.1616  139.6654  154.6494 H   0  0  0  0  0  0  0  0  0  0  0  0
  147.9944  137.4170  155.0388 H   0  0  0  0  0  0  0  0  0  0  0  0
  148.0893  137.7240  156.7776 H   0  0  0  0  0  0  0  0  0  0  0  0
  148.7931  136.2551  156.1063 H   0  0  0  0  0  0  0  0  0  0  0  0
  150.8890  136.3818  154.8164 H   0  0  0  0  0  0  0  0  0  0  0  0
  150.1880  137.5367  153.6956 H   0  0  0  0  0  0  0  0  0  0  0  0
  152.6965  137.9589  155.4188 H   0  0  0  0  0  0  0  0  0  0  0  0
  152.6392  137.8005  153.6806 H   0  0  0  0  0  0  0  0  0  0  0  0
  150.4402  137.8927  156.5883 H   0  0  0  0  0  0  0  0  0  0  0  0
  1  2  1  0  0  0  0
  1 19  1  0  0  0  0
  1 20  1  0  0  0  0
  1 21  1  0  0  0  0
  2 17  1  0  0  0  0
  2  3  2  0  0  0  0
  3  4  1  0  0  0  0
  4  5  2  0  0  0  0
  4 22  1  0  0  0  0
  5  6  1  0  0  0  0
  5 23  1  0  0  0  0
  6  7  1  0  0  0  0
  6 17  2  0  0  0  0
  7  8  1  0  0  0  0
  7 24  1  0  0  0  0
  8  9  2  0  0  0  0
  8 10  1  0  0  0  0
 10 16  1  0  0  0  0
 10 11  1  0  0  0  0
 10 25  1  0  0  0  0
 11 12  1  0  0  0  0
 11 26  1  0  0  0  0
 11 27  1  0  0  0  0
 12 13  1  0  0  0  0
 12 14  1  0  0  0  0
 12 35  1  0  0  0  0
 13 28  1  0  0  0  0
 13 29  1  0  0  0  0
 13 30  1  0  0  0  0
 14 15  1  0  0  0  0
 14 31  1  0  0  0  0
 14 32  1  0  0  0  0
 15 16  1  0  0  0  0
 15 33  1  0  0  0  0
 15 34  1  0  0  0  0
 17 18  1  0  0  0  0
M  CHG  1  12   1
M  END
> <s_m_source_file>
AV-unprocessed.smi

> <i_m_source_file_index>
2482

> <i_lp_mmshare_version>
43012

> <i_f3d_flags>
0

> <s_epik_input>
W0NIM11jMW5bY0hdW2NIXWMoYzFDbClbTkhdQyg9TylbQ0BASF0yW0NIMl1OKFtDSDNdKVtDSDJdW0NIMl1PMg==

> <s_epik_cmdline>
J2VwaWtfcHl0aG9uJywgJy1waCcsICc3LjAnLCAnLXRuJywgJzgnLCAnLW1hJywgJzIwMCcsICctbWV0YWxfYmluZGluZycsICctaW1hZScsICc8aW5maWxlLm1hZT4nLCAnLW9tYWUnLCAnPG91dGZpbGUubWFlPic=

> <r_epik_Ionization_Penalty>
0.314226

> <r_epik_Ionization_Penalty_Charging>
0.314023

> <r_epik_Ionization_Penalty_Neutral>
0.00020299

> <r_epik_State_Penalty>
0.308208

> <r_epik_Charging_Adjusted_Penalty>
0.62223

> <i_epik_Tot_Q>
1

> <i_epik_Tot_abs_Q>
1

> <r_epik_Metal_State_Penalty>
0.314444

> <b_epik_Metal_Only>
0

> <s_lp_Force_Field>
OPLS_2005

> <r_lp_Energy>
21.5381

> <b_lp_Chiralities_Consistent>
1

> <s_lp_Variant>
AV-unprocessed.smi:2482-3

> <Gold.Version>
5.8.1

> <Gold.Id.Protein>
6NUR|6NUR_protein|mol2

> <Gold.PLP.Fitness>
37.6557

> <Gold.PLP.PLP>
-33.2327

> <Gold.PLP.part.hbond>
-1.9687

> <Gold.PLP.part.metal>
0.0000

> <Gold.PLP.part.buried>
-3.5851

> <Gold.PLP.part.nonpolar>
-27.4748

> <Gold.PLP.part.repulsive>
0.1980

> <Gold.PLP.ligand.clash>
0.0000

> <Gold.PLP.ligand.torsion>
0.7978

> <Gold.PLP.Chemscore.Hbond>
2.0000

> <Gold.PLP.Chemscore.CHOScore>
0.0000

> <Gold.PLP.Chemscore.Metal>
0.0000

> <Gold.Chemscore.Hbonds>
donor molecule, donor type, donor heavy atom, donor atom, acceptor molecule, acceptor atom, score
      P1  H  7989  7998       L1    16  0.47
      P1  H  7997  8010       L1     9  1.00

> <Gold.PLP.Chemscore.Internal.Correction>
0.0187

> <Gold.Rescore>
     Score         DG    S(hbond)    S(metal)    S(lipo)     H(rot)  DE(clash)    DE(int)     intcor
     16.99     -20.48       1.96        0.00      93.98       1.00       0.06       3.42       ----

> <Gold.Chemscore.Fitness>
16.9928

> <Gold.Chemscore.DG>
-20.4753

> <Gold.Chemscore.ZeroCoef>
-5.4800

> <Gold.Chemscore.Hbond>
1.9638

> <Gold.Chemscore.Metal>
0.0000

> <Gold.Chemscore.Lipo>
93.9841

> <Gold.Chemscore.Internal_Hbond>
0.0000

> <Gold.Chemscore.DEClash>
0.0580

> <Gold.Chemscore.DEInternal>
3.4245

> <Gold.Chemscore.Rot>
1.0000

> <Gold.Chemscore.Internal.Correction>
   9.000000E+99

> <Gold.Chemscore.Hbonds>
donor molecule, donor type, donor heavy atom, donor atom, acceptor molecule, acceptor atom, score
      P1  H  7989  7998       L1    16  0.02
      P1  H  7997  8010       L1     9  0.60

> <Gold.Chemscore.Hbond.Weighted>
-6.5592

> <Gold.Chemscore.Metal.Weighted>
-0.0000

> <Gold.Chemscore.Lipo.Weighted>
-10.9961

> <Gold.Chemscore.Internal_Hbond.Weighted>
0.0000

> <Gold.Chemscore.DEClash.Weighted>
0.0580

> <Gold.Chemscore.DEInternal.Weighted>
3.4245

> <Gold.Chemscore.Rot.Weighted>
2.5600

> <Gold.Chemscore.Internal.Correction.Weighted>
   9.000000E+99

> <Gold.Protein.RotatedTorsions>
[ 6907 6896 6895 6894 ] final    1.75 input  -60.11 | X-H torsion
[ 7974 7965 7964 7962 ] final   74.22 input  175.53 | X-H torsion
[ 8008 7997 7996 7995 ] final   70.88 input   59.86 | X-H torsion
[ 10167 10162 10161 10158 ] final -169.43 input  -65.29 | X-H torsion
[ 10718 10713 10712 10709 ] final  172.99 input   66.30 | X-H torsion
[ 10763 10752 10751 10750 ] final -147.34 input  -60.55 | X-H torsion
[ 11005 11000 10999 10996 ] final  142.05 input  -57.11 | X-H torsion

> <Gold.Protein.ActiveResidues>
 VAL166  LYS551  ARG553  GLY616  TRP617  ASP618  TYR619  PRO620  LYS621  CYS622 
 ASP623  PHE694  ASN695  SER759  ASP760  ASP761  ALA762  ILE779  LEU786  VAL792 
 PHE793  MET794  SER795  GLU796  ALA797  LYS798  CYS799  TRP800  GLU811  SER814 

> <Gold.Protein.RotatedAtoms>
  151.5977  135.1049  160.0052 H   0  0  0  0  0  0  0  0  0  0  0  0  # atno 6907 bound_to 6896
  152.4274  133.7214  159.6546 H   0  0  0  0  0  0  0  0  0  0  0  0  # atno 6908 bound_to 6896
  150.8164  133.8259  159.3181 H   0  0  0  0  0  0  0  0  0  0  0  0  # atno 6909 bound_to 6896
  145.7310  139.2683  143.1541 H   0  0  0  0  0  0  0  0  0  0  0  0  # atno 7974 bound_to 7965
  155.7455  140.3489  155.5125 H   0  0  0  0  0  0  0  0  0  0  0  0  # atno 8008 bound_to 7997
  155.9053  140.1041  157.1341 H   0  0  0  0  0  0  0  0  0  0  0  0  # atno 8009 bound_to 7997
  154.4049  140.1278  156.4475 H   0  0  0  0  0  0  0  0  0  0  0  0  # atno 8010 bound_to 7997
  139.5923  144.1186  152.1649 H   0  0  0  0  0  0  0  0  0  0  0  0  # atno 10167 bound_to 10162
  156.9709  131.0089  151.2905 H   0  0  0  0  0  0  0  0  0  0  0  0  # atno 10718 bound_to 10713
  154.8291  135.3363  154.6802 H   0  0  0  0  0  0  0  0  0  0  0  0  # atno 10763 bound_to 10752
  153.7424  135.6945  153.4968 H   0  0  0  0  0  0  0  0  0  0  0  0  # atno 10764 bound_to 10752
  153.2234  135.4441  155.0466 H   0  0  0  0  0  0  0  0  0  0  0  0  # atno 10765 bound_to 10752
  140.0448  134.9286  157.0909 H   0  0  0  0  0  0  0  0  0  0  0  0  # atno 11005 bound_to 11000
  146.0538  140.8042  142.9768 LP  0  0  0  0  0  0  0  0  0  0  0  0  # atno 17320 bound_to 7965
  144.6893  140.3093  143.7251 LP  0  0  0  0  0  0  0  0  0  0  0  0  # atno 17321 bound_to 7965
  140.0764  144.5737  150.7154 LP  0  0  0  0  0  0  0  0  0  0  0  0  # atno 17342 bound_to 10162
  140.7183  143.2565  151.4361 LP  0  0  0  0  0  0  0  0  0  0  0  0  # atno 17343 bound_to 10162
  157.5593  130.8235  149.8245 LP  0  0  0  0  0  0  0  0  0  0  0  0  # atno 17370 bound_to 10713
  156.0283  130.3772  150.1759 LP  0  0  0  0  0  0  0  0  0  0  0  0  # atno 17371 bound_to 10713
  140.4011  134.2081  155.7163 LP  0  0  0  0  0  0  0  0  0  0  0  0  # atno 17394 bound_to 11000
  141.1901  133.8224  157.0930 LP  0  0  0  0  0  0  0  0  0  0  0  0  # atno 17395 bound_to 11000

$$$$
