AV-unprocessed.smi:1070|AV-procd|sdf|4676|dock10
  -GOLD-   22720 3193D 1   1.00000     0.00000
 Structure written by MMmdl.
 48 49  0  0  0  0  0  0  0  0  1 V2000
  145.5890  136.7360  151.9574 C   0  0  0  0  0  0  0  0  0  0  0  0
  145.1268  135.5852  151.0607 C   0  0  0  0  0  0  0  0  0  0  0  0
  144.6528  134.5299  151.8783 O   0  0  0  0  0  0  0  0  0  0  0  0
  143.7524  133.6669  151.1976 C   0  0  0  0  0  0  0  0  0  0  0  0
  144.3926  132.2863  151.0537 C   0  0  0  0  0  0  0  0  0  0  0  0
  143.9297  131.4837  150.2441 O   0  0  0  0  0  0  0  0  0  0  0  0
  145.4506  132.0459  151.8482 N   0  0  0  0  0  0  0  0  0  0  0  0
  146.1717  130.8307  152.0102 C   0  0  0  0  0  0  0  0  0  0  0  0
  145.8954  129.6774  151.2388 C   0  0  0  0  0  0  0  0  0  0  0  0
  146.6813  128.5255  151.4222 C   0  0  0  0  0  0  0  0  0  0  0  0
  147.7274  128.5623  152.3624 C   0  0  0  0  0  0  0  0  0  0  0  0
  148.4978  127.4317  152.5414 O   0  0  0  0  0  0  0  0  0  0  0  0
  148.4365  126.4102  151.5519 C   0  0  0  0  0  0  0  0  0  0  0  0
  148.0071  129.6673  153.0946 N   0  0  0  0  0  0  0  0  0  0  0  0
  147.2537  130.7803  152.9283 C   0  0  0  0  0  0  0  0  0  0  0  0
  147.5697  131.8988  153.7249 N   0  0  0  0  0  0  0  0  0  0  0  0
  148.8353  132.5812  153.4502 C   0  0  0  0  0  0  0  0  0  0  0  0
  148.9064  133.9161  154.2162 C   0  0  0  0  0  0  0  0  0  0  0  0
  148.6714  133.6635  155.6443 N   0  0  0  0  0  0  0  0  0  0  0  0
  149.6244  133.8427  156.5896 C   0  0  0  0  0  0  0  0  0  0  0  0
  150.9941  134.3865  156.1774 C   0  0  0  0  0  0  0  0  0  0  0  0
  149.4385  133.5852  157.7790 O   0  0  0  0  0  0  0  0  0  0  0  0
  147.3381  133.0891  155.8736 C   0  0  0  0  0  0  0  0  0  0  0  0
  147.2437  131.7376  155.1422 C   0  0  0  0  0  0  0  0  0  0  0  0
  145.9435  137.5766  151.3608 H   0  0  0  0  0  0  0  0  0  0  0  0
  146.4051  136.4207  152.6076 H   0  0  0  0  0  0  0  0  0  0  0  0
  144.7747  137.0927  152.5887 H   0  0  0  0  0  0  0  0  0  0  0  0
  144.3342  135.9263  150.3931 H   0  0  0  0  0  0  0  0  0  0  0  0
  145.9563  135.2405  150.4414 H   0  0  0  0  0  0  0  0  0  0  0  0
  142.8162  133.5810  151.7521 H   0  0  0  0  0  0  0  0  0  0  0  0
  143.5218  134.0592  150.2060 H   0  0  0  0  0  0  0  0  0  0  0  0
  145.6684  132.7712  152.5166 H   0  0  0  0  0  0  0  0  0  0  0  0
  145.1084  129.6645  150.5003 H   0  0  0  0  0  0  0  0  0  0  0  0
  146.4895  127.6324  150.8460 H   0  0  0  0  0  0  0  0  0  0  0  0
  149.1019  125.5943  151.8336 H   0  0  0  0  0  0  0  0  0  0  0  0
  148.7600  126.7788  150.5773 H   0  0  0  0  0  0  0  0  0  0  0  0
  147.4293  126.0005  151.4632 H   0  0  0  0  0  0  0  0  0  0  0  0
  149.6680  131.9414  153.7464 H   0  0  0  0  0  0  0  0  0  0  0  0
  148.9307  132.7620  152.3787 H   0  0  0  0  0  0  0  0  0  0  0  0
  149.8637  134.4008  154.0211 H   0  0  0  0  0  0  0  0  0  0  0  0
  148.1434  134.6020  153.8451 H   0  0  0  0  0  0  0  0  0  0  0  0
  150.8981  135.3738  155.7246 H   0  0  0  0  0  0  0  0  0  0  0  0
  151.4787  133.7151  155.4680 H   0  0  0  0  0  0  0  0  0  0  0  0
  151.6476  134.4808  157.0454 H   0  0  0  0  0  0  0  0  0  0  0  0
  147.0899  132.9545  156.9251 H   0  0  0  0  0  0  0  0  0  0  0  0
  146.5859  133.7743  155.4809 H   0  0  0  0  0  0  0  0  0  0  0  0
  146.2442  131.3222  155.2690 H   0  0  0  0  0  0  0  0  0  0  0  0
  147.9385  131.0231  155.5856 H   0  0  0  0  0  0  0  0  0  0  0  0
  1  2  1  0  0  0  0
  1 25  1  0  0  0  0
  1 26  1  0  0  0  0
  1 27  1  0  0  0  0
  2  3  1  0  0  0  0
  2 28  1  0  0  0  0
  2 29  1  0  0  0  0
  3  4  1  0  0  0  0
  4  5  1  0  0  0  0
  4 30  1  0  0  0  0
  4 31  1  0  0  0  0
  5  6  2  0  0  0  0
  5  7  1  0  0  0  0
  7  8  1  0  0  0  0
  7 32  1  0  0  0  0
  8 15  1  0  0  0  0
  8  9  2  0  0  0  0
  9 10  1  0  0  0  0
  9 33  1  0  0  0  0
 10 11  2  0  0  0  0
 10 34  1  0  0  0  0
 11 12  1  0  0  0  0
 11 14  1  0  0  0  0
 12 13  1  0  0  0  0
 13 35  1  0  0  0  0
 13 36  1  0  0  0  0
 13 37  1  0  0  0  0
 14 15  2  0  0  0  0
 15 16  1  0  0  0  0
 16 24  1  0  0  0  0
 16 17  1  0  0  0  0
 17 18  1  0  0  0  0
 17 38  1  0  0  0  0
 17 39  1  0  0  0  0
 18 19  1  0  0  0  0
 18 40  1  0  0  0  0
 18 41  1  0  0  0  0
 19 20  1  0  0  0  0
 19 23  1  0  0  0  0
 20 21  1  0  0  0  0
 20 22  2  0  0  0  0
 21 42  1  0  0  0  0
 21 43  1  0  0  0  0
 21 44  1  0  0  0  0
 23 24  1  0  0  0  0
 23 45  1  0  0  0  0
 23 46  1  0  0  0  0
 24 47  1  0  0  0  0
 24 48  1  0  0  0  0
M  END
> <s_m_source_file>
AV-unprocessed.smi

> <i_m_source_file_index>
1070

> <i_lp_mmshare_version>
43012

> <i_f3d_flags>
0

> <s_epik_input>
W0NIM11bQ0gyXU9bQ0gyXUMoPU8pW05IXWMxW2NIXVtjSF1jKE9bQ0gzXSluYzFOMltDSDJdW0NIMl1OKEMoPU8pW0NIM10pW0NIMl1bQ0gyXTI=

> <s_epik_cmdline>
J2VwaWtfcHl0aG9uJywgJy1waCcsICc3LjAnLCAnLXRuJywgJzgnLCAnLW1hJywgJzIwMCcsICctbWV0YWxfYmluZGluZycsICctaW1hZScsICc8aW5maWxlLm1hZT4nLCAnLW9tYWUnLCAnPG91dGZpbGUubWFlPic=

> <r_lp_tautomer_probability>
1

> <r_epik_Ionization_Penalty>
0.000131804

> <r_epik_Ionization_Penalty_Charging>
0

> <r_epik_Ionization_Penalty_Neutral>
0.000131804

> <r_epik_State_Penalty>
-0

> <r_epik_Charging_Adjusted_Penalty>
0

> <i_epik_Tot_Q>
0

> <i_epik_Tot_abs_Q>
0

> <r_epik_Metal_State_Penalty>
-0

> <b_epik_Metal_Only>
0

> <s_lp_Force_Field>
OPLS_2005

> <r_lp_Energy>
37.3921

> <b_lp_Chiralities_Consistent>
1

> <s_lp_Variant>
AV-unprocessed.smi:1070-1

> <Gold.Version>
5.8.1

> <Gold.Id.Protein>
6NUR|6NUR_protein|mol2

> <Gold.PLP.Fitness>
39.8988

> <Gold.PLP.PLP>
-36.9725

> <Gold.PLP.part.hbond>
-2.0000

> <Gold.PLP.part.metal>
0.0000

> <Gold.PLP.part.buried>
-5.5143

> <Gold.PLP.part.nonpolar>
-30.0588

> <Gold.PLP.part.repulsive>
0.5795

> <Gold.PLP.ligand.clash>
0.0000

> <Gold.PLP.ligand.torsion>
1.0875

> <Gold.PLP.Chemscore.Hbond>
1.5502

> <Gold.PLP.Chemscore.CHOScore>
0.0000

> <Gold.PLP.Chemscore.Metal>
0.0000

> <Gold.Chemscore.Hbonds>
donor molecule, donor type, donor heavy atom, donor atom, acceptor molecule, acceptor atom, score
      P1  H  6896  6907       L1    22  1.00
      P1  H 10785 10796       L1     6  0.54

> <Gold.PLP.Chemscore.Internal.Correction>
0.4509

> <Gold.Rescore>
     Score         DG    S(hbond)    S(metal)    S(lipo)     H(rot)  DE(clash)    DE(int)     intcor
     12.16     -14.58       1.48        0.00      76.16       1.86       0.19       2.23       ----

> <Gold.Chemscore.Fitness>
12.1569

> <Gold.Chemscore.DG>
-14.5750

> <Gold.Chemscore.ZeroCoef>
-5.4800

> <Gold.Chemscore.Hbond>
1.4833

> <Gold.Chemscore.Metal>
0.0000

> <Gold.Chemscore.Lipo>
76.1567

> <Gold.Chemscore.Internal_Hbond>
0.0000

> <Gold.Chemscore.DEClash>
0.1873

> <Gold.Chemscore.DEInternal>
2.2308

> <Gold.Chemscore.Rot>
1.8631

> <Gold.Chemscore.Internal.Correction>
   9.000000E+99

> <Gold.Chemscore.Hbonds>
donor molecule, donor type, donor heavy atom, donor atom, acceptor molecule, acceptor atom, score
      P1  H  6896  6907       L1    22  0.93
      P1  H 10785 10796       L1     6  0.52

> <Gold.Chemscore.Hbond.Weighted>
-4.9543

> <Gold.Chemscore.Metal.Weighted>
-0.0000

> <Gold.Chemscore.Lipo.Weighted>
-8.9103

> <Gold.Chemscore.Internal_Hbond.Weighted>
0.0000

> <Gold.Chemscore.DEClash.Weighted>
0.1873

> <Gold.Chemscore.DEInternal.Weighted>
2.2308

> <Gold.Chemscore.Rot.Weighted>
4.7696

> <Gold.Chemscore.Internal.Correction.Weighted>
   9.000000E+99

> <Gold.Protein.RotatedTorsions>
[ 6907 6896 6895 6894 ] final -124.81 input  -60.11 | X-H torsion
[ 7974 7965 7964 7962 ] final  -29.91 input  175.53 | X-H torsion
[ 8008 7997 7996 7995 ] final -146.63 input   59.86 | X-H torsion
[ 10167 10162 10161 10158 ] final   80.58 input  -65.29 | X-H torsion
[ 10718 10713 10712 10709 ] final  -96.63 input   66.30 | X-H torsion
[ 10763 10752 10751 10750 ] final   65.07 input  -60.55 | X-H torsion
[ 11005 11000 10999 10996 ] final   18.35 input  -57.11 | X-H torsion

> <Gold.Protein.ActiveResidues>
 VAL166  LYS551  ARG553  GLY616  TRP617  ASP618  TYR619  PRO620  LYS621  CYS622 
 ASP623  PHE694  ASN695  SER759  ASP760  ASP761  ALA762  ILE779  LEU786  VAL792 
 PHE793  MET794  SER795  GLU796  ALA797  LYS798  CYS799  TRP800  GLU811  SER814 

> <Gold.Protein.RotatedAtoms>
  150.8805  133.7379  159.2933 H   0  0  0  0  0  0  0  0  0  0  0  0  # atno 6907 bound_to 6896
  151.4962  135.1058  159.9826 H   0  0  0  0  0  0  0  0  0  0  0  0  # atno 6908 bound_to 6896
  152.4756  133.8085  159.7046 H   0  0  0  0  0  0  0  0  0  0  0  0  # atno 6909 bound_to 6896
  146.1182  140.5473  142.8747 H   0  0  0  0  0  0  0  0  0  0  0  0  # atno 7974 bound_to 7965
  155.5626  140.0626  157.2825 H   0  0  0  0  0  0  0  0  0  0  0  0  # atno 8008 bound_to 7997
  154.4386  140.1883  156.0843 H   0  0  0  0  0  0  0  0  0  0  0  0  # atno 8009 bound_to 7997
  156.0436  140.3292  155.7275 H   0  0  0  0  0  0  0  0  0  0  0  0  # atno 8010 bound_to 7997
  139.9482  144.6044  150.8186 H   0  0  0  0  0  0  0  0  0  0  0  0  # atno 10167 bound_to 10162
  156.0066  130.5159  150.6254 H   0  0  0  0  0  0  0  0  0  0  0  0  # atno 10718 bound_to 10713
  153.0081  135.5370  154.6609 H   0  0  0  0  0  0  0  0  0  0  0  0  # atno 10763 bound_to 10752
  154.5818  135.2850  155.0727 H   0  0  0  0  0  0  0  0  0  0  0  0  # atno 10764 bound_to 10752
  154.1853  135.6509  153.5097 H   0  0  0  0  0  0  0  0  0  0  0  0  # atno 10765 bound_to 10752
  140.4258  134.1471  155.7676 H   0  0  0  0  0  0  0  0  0  0  0  0  # atno 11005 bound_to 11000
  144.7572  140.5336  143.6760 LP  0  0  0  0  0  0  0  0  0  0  0  0  # atno 17320 bound_to 7965
  145.5522  139.1477  143.3388 LP  0  0  0  0  0  0  0  0  0  0  0  0  # atno 17321 bound_to 7965
  140.7591  143.3121  151.2821 LP  0  0  0  0  0  0  0  0  0  0  0  0  # atno 17342 bound_to 10162
  139.6649  144.0122  152.2717 LP  0  0  0  0  0  0  0  0  0  0  0  0  # atno 17343 bound_to 10162
  157.4062  131.0817  151.1263 LP  0  0  0  0  0  0  0  0  0  0  0  0  # atno 17370 bound_to 10713
  157.1909  130.6351  149.5704 LP  0  0  0  0  0  0  0  0  0  0  0  0  # atno 17371 bound_to 10713
  141.1766  133.8502  157.1401 LP  0  0  0  0  0  0  0  0  0  0  0  0  # atno 17394 bound_to 11000
  140.0168  134.9964  157.0510 LP  0  0  0  0  0  0  0  0  0  0  0  0  # atno 17395 bound_to 11000

$$$$
