AV-unprocessed.smi:40|AV-procd|sdf|377|dock10
  -GOLD-   2262016233D 1   1.00000     0.00000
 Structure written by MMmdl.
 47 48  0  0  0  0  0  0  0  0  1 V2000
  151.7997  145.8157  160.2068 C   0  0  0  0  0  0  0  0  0  0  0  0
  151.6792  144.9984  158.9160 C   0  0  0  0  0  0  0  0  0  0  0  0
  152.6598  143.8177  158.8727 C   0  0  0  0  0  0  0  0  0  0  0  0
  152.2401  142.6678  159.7981 C   0  0  0  0  0  0  0  0  0  0  0  0
  152.7616  141.3075  159.3093 C   0  0  0  0  0  0  0  0  0  0  0  0
  152.3976  141.0823  157.9541 O   0  0  0  0  0  0  0  0  0  0  0  0
  151.2892  140.3759  157.6415 C   0  0  0  0  0  0  0  0  0  0  0  0
  150.8274  139.4723  158.3382 O   0  0  0  0  0  0  0  0  0  0  0  0
  150.7398  140.7825  156.3596 N   0  0  0  0  0  0  0  0  0  0  0  0
  149.6453  140.3090  155.7172 C   0  0  0  0  0  0  0  0  0  0  0  0
  148.4240  140.7495  155.9779 N   0  0  0  0  0  0  0  0  0  0  0  0
  147.2946  140.2828  155.3600 C   0  0  0  0  0  0  0  0  0  0  0  0
  146.1906  140.7526  155.6312 O   0  0  0  0  0  0  0  0  0  0  0  0
  147.4587  139.2570  154.3996 N   0  0  0  0  0  0  0  0  0  0  0  0
  146.2493  138.7006  153.6807 C   0  0  2  0  0  0  0  0  0  0  0  0
  146.2396  137.3161  153.8666 O   0  0  0  0  0  0  0  0  0  0  0  0
  145.9007  136.6662  152.6488 C   0  0  1  0  0  0  0  0  0  0  0  0
  144.3723  136.4740  152.6093 C   0  0  0  0  0  0  0  0  0  0  0  0
  146.4789  137.5977  151.5744 C   0  0  1  0  0  0  0  0  0  0  0  0
  145.8318  137.4457  150.3260 O   0  0  0  0  0  0  0  0  0  0  0  0
  146.2641  138.9870  152.1604 C   0  0  2  0  0  0  0  0  0  0  0  0
  147.2805  139.8797  151.7381 O   0  0  0  0  0  0  0  0  0  0  0  0
  148.7272  138.7708  154.1232 C   0  0  0  0  0  0  0  0  0  0  0  0
  149.8242  139.2512  154.7461 C   0  0  0  0  0  0  0  0  0  0  0  0
  151.0441  138.7623  154.4631 F   0  0  0  0  0  0  0  0  0  0  0  0
  145.3663  139.1109  154.1719 H   0  0  0  0  0  0  0  0  0  0  0  0
  146.3818  135.6884  152.6110 H   0  0  0  0  0  0  0  0  0  0  0  0
  147.5450  137.3937  151.4626 H   0  0  0  0  0  0  0  0  0  0  0  0
  145.2854  139.3817  151.8836 H   0  0  0  0  0  0  0  0  0  0  0  0
  151.0951  146.6477  160.2065 H   0  0  0  0  0  0  0  0  0  0  0  0
  152.8026  146.2289  160.3186 H   0  0  0  0  0  0  0  0  0  0  0  0
  151.5895  145.2017  161.0830 H   0  0  0  0  0  0  0  0  0  0  0  0
  150.6573  144.6305  158.8174 H   0  0  0  0  0  0  0  0  0  0  0  0
  151.8554  145.6522  158.0611 H   0  0  0  0  0  0  0  0  0  0  0  0
  152.7363  143.4479  157.8494 H   0  0  0  0  0  0  0  0  0  0  0  0
  153.6563  144.1617  159.1523 H   0  0  0  0  0  0  0  0  0  0  0  0
  152.6120  142.8566  160.8058 H   0  0  0  0  0  0  0  0  0  0  0  0
  151.1521  142.6408  159.8697 H   0  0  0  0  0  0  0  0  0  0  0  0
  153.8428  141.2357  159.4379 H   0  0  0  0  0  0  0  0  0  0  0  0
  152.3240  140.5111  159.9114 H   0  0  0  0  0  0  0  0  0  0  0  0
  151.2316  141.5490  155.9235 H   0  0  0  0  0  0  0  0  0  0  0  0
  144.0617  135.9488  151.7060 H   0  0  0  0  0  0  0  0  0  0  0  0
  143.8418  137.4261  152.6406 H   0  0  0  0  0  0  0  0  0  0  0  0
  144.0372  135.8811  153.4605 H   0  0  0  0  0  0  0  0  0  0  0  0
  145.1988  138.1407  150.2291 H   0  0  0  0  0  0  0  0  0  0  0  0
  147.4221  140.5167  152.4211 H   0  0  0  0  0  0  0  0  0  0  0  0
  148.8547  137.9883  153.3893 H   0  0  0  0  0  0  0  0  0  0  0  0
  1  2  1  0  0  0  0
  1 30  1  0  0  0  0
  1 31  1  0  0  0  0
  1 32  1  0  0  0  0
  2  3  1  0  0  0  0
  2 33  1  0  0  0  0
  2 34  1  0  0  0  0
  3  4  1  0  0  0  0
  3 35  1  0  0  0  0
  3 36  1  0  0  0  0
  4  5  1  0  0  0  0
  4 37  1  0  0  0  0
  4 38  1  0  0  0  0
  5  6  1  0  0  0  0
  5 39  1  0  0  0  0
  5 40  1  0  0  0  0
  6  7  1  0  0  0  0
  7  8  2  0  0  0  0
  7  9  1  0  0  0  0
  9 10  1  0  0  0  0
  9 41  1  0  0  0  0
 10 24  1  0  0  0  0
 10 11  2  0  0  0  0
 11 12  1  0  0  0  0
 12 13  2  0  0  0  0
 12 14  1  0  0  0  0
 14 15  1  0  0  0  0
 14 23  1  0  0  0  0
 15 26  1  0  0  0  0
 15 21  1  0  0  0  0
 15 16  1  0  0  0  0
 16 17  1  0  0  0  0
 17 27  1  0  0  0  0
 17 18  1  0  0  0  0
 17 19  1  0  0  0  0
 18 42  1  0  0  0  0
 18 43  1  0  0  0  0
 18 44  1  0  0  0  0
 19 28  1  0  0  0  0
 19 20  1  0  0  0  0
 19 21  1  0  0  0  0
 20 45  1  0  0  0  0
 21 29  1  0  0  0  0
 21 22  1  0  0  0  0
 22 46  1  0  0  0  0
 23 24  2  0  0  0  0
 23 47  1  0  0  0  0
 24 25  1  0  0  0  0
M  END
> <s_m_source_file>
AV-unprocessed.smi

> <i_m_source_file_index>
40

> <i_lp_mmshare_version>
43012

> <i_f3d_flags>
0

> <s_epik_input>
W0NIM11bQ0gyXVtDSDJdW0NIMl1bQ0gyXU9DKD1PKVtOSF1jMW5jKD1PKW4oW2NIXWMxRilbQ0BASF0yT1tDQEhdKFtDSDNdKVtDQEBIXShbT0hdKVtDQEhdMltPSF0=

> <s_epik_cmdline>
J2VwaWtfcHl0aG9uJywgJy1waCcsICc3LjAnLCAnLXRuJywgJzgnLCAnLW1hJywgJzIwMCcsICctbWV0YWxfYmluZGluZycsICctaW1hZScsICc8aW5maWxlLm1hZT4nLCAnLW9tYWUnLCAnPG91dGZpbGUubWFlPic=

> <r_lp_tautomer_probability>
1

> <r_epik_Ionization_Penalty>
2.29506e-06

> <r_epik_Ionization_Penalty_Charging>
8.26867e-09

> <r_epik_Ionization_Penalty_Neutral>
2.2868e-06

> <r_epik_State_Penalty>
-0

> <r_epik_Charging_Adjusted_Penalty>
8.26867e-09

> <i_epik_Tot_Q>
0

> <i_epik_Tot_abs_Q>
0

> <r_epik_Metal_State_Penalty>
-0

> <b_epik_Metal_Only>
0

> <s_epik_Chemistry_Notes>
This compound has an ester and may undergo hydrolysis at high or low pH. This compound contains an acetal/aminal-like group ( X-CH(R)-Y where X, Y are N, S, or O) that may be acid/base labile, releasing an aldehyde.

> <s_lp_Force_Field>
OPLS_2005

> <r_lp_Energy>
38.4453

> <b_lp_Chiralities_Consistent>
1

> <s_lp_Variant>
AV-unprocessed.smi:40-11

> <Gold.Version>
5.8.1

> <Gold.Id.Protein>
6NUR|6NUR_protein|mol2

> <Gold.PLP.Fitness>
42.8039

> <Gold.PLP.PLP>
-39.9287

> <Gold.PLP.part.hbond>
-1.3730

> <Gold.PLP.part.metal>
0.0000

> <Gold.PLP.part.buried>
-0.0923

> <Gold.PLP.part.nonpolar>
-38.5230

> <Gold.PLP.part.repulsive>
0.3257

> <Gold.PLP.ligand.clash>
0.0000

> <Gold.PLP.ligand.torsion>
1.6251

> <Gold.PLP.Chemscore.Hbond>
0.9920

> <Gold.PLP.Chemscore.CHOScore>
1.0000

> <Gold.PLP.Chemscore.Metal>
0.0000

> <Gold.Chemscore.Hbonds>
donor molecule, donor type, donor heavy atom, donor atom, acceptor molecule, acceptor atom, score
      L1  H    20    45       P1 10171  0.79
      L1  C    23    47       P1  7948  1.00

> <Gold.PLP.Chemscore.Internal.Correction>
0.1495

> <Gold.Rescore>
     Score         DG    S(hbond)    S(metal)    S(lipo)     H(rot)  DE(clash)    DE(int)     intcor
      6.15     -10.57       0.99        0.00      96.15       3.70       1.78       2.64       ----

> <Gold.Chemscore.Fitness>
6.1543

> <Gold.Chemscore.DG>
-10.5703

> <Gold.Chemscore.ZeroCoef>
-5.4800

> <Gold.Chemscore.Hbond>
0.9884

> <Gold.Chemscore.Metal>
0.0000

> <Gold.Chemscore.Lipo>
96.1530

> <Gold.Chemscore.Internal_Hbond>
0.0000

> <Gold.Chemscore.DEClash>
1.7801

> <Gold.Chemscore.DEInternal>
2.6359

> <Gold.Chemscore.Rot>
3.6957

> <Gold.Chemscore.Internal.Correction>
   9.000000E+99

> <Gold.Chemscore.Hbonds>
donor molecule, donor type, donor heavy atom, donor atom, acceptor molecule, acceptor atom, score
      L1  H    20    45       P1 10171  0.74

> <Gold.Chemscore.Hbond.Weighted>
-3.3014

> <Gold.Chemscore.Metal.Weighted>
-0.0000

> <Gold.Chemscore.Lipo.Weighted>
-11.2499

> <Gold.Chemscore.Internal_Hbond.Weighted>
0.0000

> <Gold.Chemscore.DEClash.Weighted>
1.7801

> <Gold.Chemscore.DEInternal.Weighted>
2.6359

> <Gold.Chemscore.Rot.Weighted>
9.4610

> <Gold.Chemscore.Internal.Correction.Weighted>
   9.000000E+99

> <Gold.Protein.RotatedTorsions>
[ 6907 6896 6895 6894 ] final   95.32 input  -60.11 | X-H torsion
[ 7974 7965 7964 7962 ] final -109.50 input  175.53 | X-H torsion
[ 8008 7997 7996 7995 ] final   23.00 input   59.86 | X-H torsion
[ 10167 10162 10161 10158 ] final  147.14 input  -65.29 | X-H torsion
[ 10718 10713 10712 10709 ] final   20.93 input   66.30 | X-H torsion
[ 10763 10752 10751 10750 ] final   20.29 input  -60.55 | X-H torsion
[ 11005 11000 10999 10996 ] final -154.48 input  -57.11 | X-H torsion

> <Gold.Protein.ActiveResidues>
 VAL166  LYS551  ARG553  GLY616  TRP617  ASP618  TYR619  PRO620  LYS621  CYS622 
 ASP623  PHE694  ASN695  SER759  ASP760  ASP761  ALA762  ILE779  LEU786  VAL792 
 PHE793  MET794  SER795  GLU796  ALA797  LYS798  CYS799  TRP800  GLU811  SER814 

> <Gold.Protein.RotatedAtoms>
  152.5444  134.1058  159.8337 H   0  0  0  0  0  0  0  0  0  0  0  0  # atno 6907 bound_to 6896
  151.1130  133.5151  159.2612 H   0  0  0  0  0  0  0  0  0  0  0  0  # atno 6908 bound_to 6896
  151.1863  135.0392  159.8868 H   0  0  0  0  0  0  0  0  0  0  0  0  # atno 6909 bound_to 6896
  145.1798  140.8965  143.3487 H   0  0  0  0  0  0  0  0  0  0  0  0  # atno 7974 bound_to 7965
  154.9743  140.3094  155.4974 H   0  0  0  0  0  0  0  0  0  0  0  0  # atno 8008 bound_to 7997
  156.2962  140.2278  156.4777 H   0  0  0  0  0  0  0  0  0  0  0  0  # atno 8009 bound_to 7997
  154.7848  140.0443  157.1143 H   0  0  0  0  0  0  0  0  0  0  0  0  # atno 8010 bound_to 7997
  139.4895  144.5778  151.6931 H   0  0  0  0  0  0  0  0  0  0  0  0  # atno 10167 bound_to 10162
  157.1313  130.6592  149.5952 H   0  0  0  0  0  0  0  0  0  0  0  0  # atno 10718 bound_to 10713
  153.1090  135.6692  153.9534 H   0  0  0  0  0  0  0  0  0  0  0  0  # atno 10763 bound_to 10752
  153.9083  135.3028  155.3450 H   0  0  0  0  0  0  0  0  0  0  0  0  # atno 10764 bound_to 10752
  154.7510  135.5034  153.9366 H   0  0  0  0  0  0  0  0  0  0  0  0  # atno 10765 bound_to 10752
  140.6969  134.3980  157.5214 H   0  0  0  0  0  0  0  0  0  0  0  0  # atno 11005 bound_to 11000
  145.0148  139.3477  143.6102 LP  0  0  0  0  0  0  0  0  0  0  0  0  # atno 17320 bound_to 7965
  146.3455  139.9425  142.8739 LP  0  0  0  0  0  0  0  0  0  0  0  0  # atno 17321 bound_to 7965
  140.5378  144.0628  150.6077 LP  0  0  0  0  0  0  0  0  0  0  0  0  # atno 17342 bound_to 10162
  140.3640  143.2892  152.0352 LP  0  0  0  0  0  0  0  0  0  0  0  0  # atno 17343 bound_to 10162
  155.9807  130.4810  150.6789 LP  0  0  0  0  0  0  0  0  0  0  0  0  # atno 17370 bound_to 10713
  157.4390  131.0859  151.0963 LP  0  0  0  0  0  0  0  0  0  0  0  0  # atno 17371 bound_to 10713
  139.8908  134.8796  156.2353 LP  0  0  0  0  0  0  0  0  0  0  0  0  # atno 17394 bound_to 11000
  141.0196  133.7049  156.1246 LP  0  0  0  0  0  0  0  0  0  0  0  0  # atno 17395 bound_to 11000

$$$$
