AV-unprocessed.smi:157|AV-procd|sdf|1297|dock10
  -GOLD-   2262018583D 1   1.00000     0.00000
 Structure written by MMmdl.
 35 37  0  0  0  0  0  0  0  0  1 V2000
  148.0590  136.5110  154.5863 O   0  0  0  0  0  0  0  0  0  0  0  0
  148.8977  136.6700  155.7104 C   0  0  0  0  0  0  0  0  0  0  0  0
  149.6555  138.0026  155.6155 C   0  0  1  0  0  0  0  0  0  0  0  0
  150.5343  138.1403  156.7279 O   0  0  0  0  0  0  0  0  0  0  0  0
  151.5959  138.9880  156.3987 C   0  0  2  0  0  0  0  0  0  0  0  0
  151.3964  140.3084  157.0823 N   0  0  0  0  0  0  0  0  0  0  0  0
  150.3973  141.1794  156.8821 C   0  0  0  0  0  0  0  0  0  0  0  0
  150.4696  142.2772  157.6160 N   0  0  0  0  0  0  0  0  0  0  0  0
  151.6266  142.1007  158.3720 C   0  0  0  0  0  0  0  0  0  0  0  0
  152.2148  140.8838  158.0586 C   0  0  0  0  0  0  0  0  0  0  0  0
  153.3417  140.1901  158.4566 N   0  0  0  0  0  0  0  0  0  0  0  0
  153.9021  140.5300  159.5744 C   0  0  0  0  0  0  0  0  0  0  0  0
  153.6127  141.5750  160.4402 N   0  0  0  0  0  0  0  0  0  0  0  0
  153.4168  142.9456  159.9994 C   0  0  0  0  0  0  0  0  0  0  0  0
  152.0634  143.1821  159.3175 C   0  0  2  0  0  0  0  0  0  0  0  0
  151.0582  143.3003  160.3038 O   0  0  0  0  0  0  0  0  0  0  0  0
  151.5696  139.1772  154.8770 C   0  0  0  0  0  0  0  0  0  0  0  0
  150.6269  138.0745  154.4368 C   0  0  2  0  0  0  0  0  0  0  0  0
  149.9826  138.4110  153.2251 O   0  0  0  0  0  0  0  0  0  0  0  0
  148.9685  138.8509  155.5813 H   0  0  0  0  0  0  0  0  0  0  0  0
  152.5345  138.5940  156.7898 H   0  0  0  0  0  0  0  0  0  0  0  0
  152.1041  144.1373  158.7930 H   0  0  0  0  0  0  0  0  0  0  0  0
  151.1711  137.1350  154.3278 H   0  0  0  0  0  0  0  0  0  0  0  0
  148.5948  136.5200  153.8080 H   0  0  0  0  0  0  0  0  0  0  0  0
  148.3177  136.6077  156.6317 H   0  0  0  0  0  0  0  0  0  0  0  0
  149.6014  135.8370  155.7137 H   0  0  0  0  0  0  0  0  0  0  0  0
  149.5958  141.0116  156.1781 H   0  0  0  0  0  0  0  0  0  0  0  0
  154.7441  139.9361  159.9328 H   0  0  0  0  0  0  0  0  0  0  0  0
  153.9895  141.5424  161.3767 H   0  0  0  0  0  0  0  0  0  0  0  0
  153.5533  143.6286  160.8385 H   0  0  0  0  0  0  0  0  0  0  0  0
  154.2129  143.1741  159.2890 H   0  0  0  0  0  0  0  0  0  0  0  0
  150.7047  144.1760  160.2609 H   0  0  0  0  0  0  0  0  0  0  0  0
  151.1653  140.1615  154.6320 H   0  0  0  0  0  0  0  0  0  0  0  0
  152.5700  139.0901  154.4522 H   0  0  0  0  0  0  0  0  0  0  0  0
  149.6859  137.6146  152.8115 H   0  0  0  0  0  0  0  0  0  0  0  0
  1  2  1  0  0  0  0
  1 24  1  0  0  0  0
  2  3  1  0  0  0  0
  2 25  1  0  0  0  0
  2 26  1  0  0  0  0
  3 20  1  0  0  0  0
  3 18  1  0  0  0  0
  3  4  1  0  0  0  0
  4  5  1  0  0  0  0
  5 21  1  0  0  0  0
  5  6  1  0  0  0  0
  5 17  1  0  0  0  0
  6 10  1  0  0  0  0
  6  7  1  0  0  0  0
  7  8  2  0  0  0  0
  7 27  1  0  0  0  0
  8  9  1  0  0  0  0
  9 15  1  0  0  0  0
  9 10  2  0  0  0  0
 10 11  1  0  0  0  0
 11 12  2  0  0  0  0
 12 13  1  0  0  0  0
 12 28  1  0  0  0  0
 13 14  1  0  0  0  0
 13 29  1  0  0  0  0
 14 15  1  0  0  0  0
 14 30  1  0  0  0  0
 14 31  1  0  0  0  0
 15 22  1  0  0  0  0
 15 16  1  0  0  0  0
 16 32  1  0  0  0  0
 17 18  1  0  0  0  0
 17 33  1  0  0  0  0
 17 34  1  0  0  0  0
 18 23  1  0  0  0  0
 18 19  1  0  0  0  0
 19 35  1  0  0  0  0
M  END
> <s_m_source_file>
AV-unprocessed.smi

> <i_m_source_file_index>
157

> <i_lp_mmshare_version>
43012

> <i_f3d_flags>
0

> <s_epik_input>
W09IXVtDSDJdW0NASF0xT1tDQEhdKFtDSDJdW0NAQEhdMVtPSF0pbihbY0hdbjIpYyhjMjMpTj1bQ0hdW05IXVtDSDJdW0NASF0zW09IXQ==

> <s_epik_cmdline>
J2VwaWtfcHl0aG9uJywgJy1waCcsICc3LjAnLCAnLXRuJywgJzgnLCAnLW1hJywgJzIwMCcsICctbWV0YWxfYmluZGluZycsICctaW1hZScsICc8aW5maWxlLm1hZT4nLCAnLW9tYWUnLCAnPG91dGZpbGUubWFlPic=

> <r_lp_tautomer_probability>
1

> <r_epik_Ionization_Penalty>
0.0357149

> <r_epik_Ionization_Penalty_Charging>
0.0355056

> <r_epik_Ionization_Penalty_Neutral>
0.000209255

> <r_epik_State_Penalty>
0.0296046

> <r_epik_Charging_Adjusted_Penalty>
0.0651102

> <i_epik_Tot_Q>
0

> <i_epik_Tot_abs_Q>
0

> <r_epik_Metal_State_Penalty>
3.03559e-05

> <b_epik_Metal_Only>
0

> <s_epik_Chemistry_Notes>
This compound has an imine and may undergo hydrolysis. This compound contains an acetal/aminal-like group ( X-CH(R)-Y where X, Y are N, S, or O) that may be acid/base labile, releasing an aldehyde.

> <s_lp_Force_Field>
OPLS_2005

> <r_lp_Energy>
44.0158

> <b_lp_Chiralities_Consistent>
1

> <s_lp_Variant>
AV-unprocessed.smi:157-7

> <Gold.Version>
5.8.1

> <Gold.Id.Protein>
6NUR|6NUR_protein|mol2

> <Gold.PLP.Fitness>
39.9052

> <Gold.PLP.PLP>
-31.0385

> <Gold.PLP.part.hbond>
-5.6477

> <Gold.PLP.part.metal>
0.0000

> <Gold.PLP.part.buried>
-1.9978

> <Gold.PLP.part.nonpolar>
-22.5535

> <Gold.PLP.part.repulsive>
0.1499

> <Gold.PLP.ligand.clash>
0.0000

> <Gold.PLP.ligand.torsion>
0.0642

> <Gold.PLP.Chemscore.Hbond>
2.9920

> <Gold.PLP.Chemscore.CHOScore>
0.0000

> <Gold.PLP.Chemscore.Metal>
0.0000

> <Gold.Chemscore.Hbonds>
donor molecule, donor type, donor heavy atom, donor atom, acceptor molecule, acceptor atom, score
      L1  H     1    24       P1  7948  1.00
      L1  H    19    35       P1  7948  1.00
      P1  H  7997  8009       L1    11  0.96

> <Gold.PLP.Chemscore.Internal.Correction>
0.0191

> <Gold.Rescore>
     Score         DG    S(hbond)    S(metal)    S(lipo)     H(rot)  DE(clash)    DE(int)     intcor
      8.66      -8.97       2.02        0.00      51.72       3.64       0.13       0.18       ----

> <Gold.Chemscore.Fitness>
8.6593

> <Gold.Chemscore.DG>
-8.9720

> <Gold.Chemscore.ZeroCoef>
-5.4800

> <Gold.Chemscore.Hbond>
2.0209

> <Gold.Chemscore.Metal>
0.0000

> <Gold.Chemscore.Lipo>
51.7159

> <Gold.Chemscore.Internal_Hbond>
0.0000

> <Gold.Chemscore.DEClash>
0.1337

> <Gold.Chemscore.DEInternal>
0.1789

> <Gold.Chemscore.Rot>
3.6362

> <Gold.Chemscore.Internal.Correction>
   9.000000E+99

> <Gold.Chemscore.Hbonds>
donor molecule, donor type, donor heavy atom, donor atom, acceptor molecule, acceptor atom, score
      L1  H     1    24       P1  7948  0.95
      L1  H    19    35       P1  7948  0.50
      P1  H  7997  8009       L1    11  0.58

> <Gold.Chemscore.Hbond.Weighted>
-6.7499

> <Gold.Chemscore.Metal.Weighted>
-0.0000

> <Gold.Chemscore.Lipo.Weighted>
-6.0508

> <Gold.Chemscore.Internal_Hbond.Weighted>
0.0000

> <Gold.Chemscore.DEClash.Weighted>
0.1337

> <Gold.Chemscore.DEInternal.Weighted>
0.1789

> <Gold.Chemscore.Rot.Weighted>
9.3087

> <Gold.Chemscore.Internal.Correction.Weighted>
   9.000000E+99

> <Gold.Protein.RotatedTorsions>
[ 6907 6896 6895 6894 ] final   28.22 input  -60.11 | X-H torsion
[ 7974 7965 7964 7962 ] final   41.67 input  175.53 | X-H torsion
[ 8008 7997 7996 7995 ] final  150.43 input   59.86 | X-H torsion
[ 10167 10162 10161 10158 ] final  158.36 input  -65.29 | X-H torsion
[ 10718 10713 10712 10709 ] final  -88.79 input   66.30 | X-H torsion
[ 10763 10752 10751 10750 ] final   53.99 input  -60.55 | X-H torsion
[ 11005 11000 10999 10996 ] final    4.90 input  -57.11 | X-H torsion

> <Gold.Protein.ActiveResidues>
 VAL166  LYS551  ARG553  GLY616  TRP617  ASP618  TYR619  PRO620  LYS621  CYS622 
 ASP623  PHE694  ASN695  SER759  ASP760  ASP761  ALA762  ILE779  LEU786  VAL792 
 PHE793  MET794  SER795  GLU796  ALA797  LYS798  CYS799  TRP800  GLU811  SER814 

> <Gold.Protein.RotatedAtoms>
  152.0137  134.9862  160.0568 H   0  0  0  0  0  0  0  0  0  0  0  0  # atno 6907 bound_to 6896
  152.1404  133.4456  159.4772 H   0  0  0  0  0  0  0  0  0  0  0  0  # atno 6908 bound_to 6896
  150.6864  134.2231  159.4447 H   0  0  0  0  0  0  0  0  0  0  0  0  # atno 6909 bound_to 6896
  146.0804  139.5389  142.9540 H   0  0  0  0  0  0  0  0  0  0  0  0  # atno 7974 bound_to 7965
  156.2716  140.2075  156.6016 H   0  0  0  0  0  0  0  0  0  0  0  0  # atno 8008 bound_to 7997
  154.6902  140.0531  157.0379 H   0  0  0  0  0  0  0  0  0  0  0  0  # atno 8009 bound_to 7997
  155.0877  140.3193  155.4585 H   0  0  0  0  0  0  0  0  0  0  0  0  # atno 8010 bound_to 7997
  139.4826  144.4831  151.8416 H   0  0  0  0  0  0  0  0  0  0  0  0  # atno 10167 bound_to 10162
  155.9983  130.4848  150.5073 H   0  0  0  0  0  0  0  0  0  0  0  0  # atno 10718 bound_to 10713
  152.9800  135.5760  154.4831 H   0  0  0  0  0  0  0  0  0  0  0  0  # atno 10763 bound_to 10752
  154.4377  135.2775  155.1871 H   0  0  0  0  0  0  0  0  0  0  0  0  # atno 10764 bound_to 10752
  154.3553  135.6200  153.5716 H   0  0  0  0  0  0  0  0  0  0  0  0  # atno 10765 bound_to 10752
  140.5767  134.0051  155.8031 H   0  0  0  0  0  0  0  0  0  0  0  0  # atno 11005 bound_to 11000
  145.6227  141.0319  143.1906 LP  0  0  0  0  0  0  0  0  0  0  0  0  # atno 17320 bound_to 7965
  144.7290  139.7785  143.7354 LP  0  0  0  0  0  0  0  0  0  0  0  0  # atno 17321 bound_to 7965
  140.4309  144.2117  150.5888 LP  0  0  0  0  0  0  0  0  0  0  0  0  # atno 17342 bound_to 10162
  140.4780  143.2389  151.8995 LP  0  0  0  0  0  0  0  0  0  0  0  0  # atno 17343 bound_to 10162
  157.3050  131.0652  151.2041 LP  0  0  0  0  0  0  0  0  0  0  0  0  # atno 17370 bound_to 10713
  157.3007  130.6841  149.6163 LP  0  0  0  0  0  0  0  0  0  0  0  0  # atno 17371 bound_to 10713
  141.1022  133.9750  157.3059 LP  0  0  0  0  0  0  0  0  0  0  0  0  # atno 17394 bound_to 11000
  139.9336  135.0198  156.8482 LP  0  0  0  0  0  0  0  0  0  0  0  0  # atno 17395 bound_to 11000

$$$$
