AV-unprocessed.smi:227|AV-procd|sdf|1730|dock9
  -GOLD-   2262020223D 1   1.00000     0.00000
 Structure written by MMmdl.
 54 58  0  0  0  0  0  0  0  0  1 V2000
  147.9798  139.6980  153.3156 O   0  0  0  0  0  0  0  0  0  0  0  0
  148.0094  138.3987  153.8701 C   0  0  0  0  0  0  0  0  0  0  0  0
  149.1473  138.2523  154.9103 C   0  0  1  0  0  0  0  0  0  0  0  0
  149.4204  136.7769  155.2955 C   0  0  0  0  0  0  0  0  0  0  0  0
  148.7189  136.3626  156.4982 N   0  0  0  0  0  0  0  0  0  0  0  0
  147.6569  135.4923  156.5672 C   0  0  0  0  0  0  0  0  0  0  0  0
  147.1988  135.2725  157.7685 N   0  0  0  0  0  0  0  0  0  0  0  0
  148.0041  136.0482  158.5960 C   0  0  0  0  0  0  0  0  0  0  0  0
  148.0685  136.2799  160.0025 C   0  0  0  0  0  0  0  0  0  0  0  0
  147.2439  135.7007  160.9194 N   0  0  0  0  0  0  0  0  0  0  0  0
  147.3353  136.0379  162.3310 C   0  0  1  0  0  0  0  0  0  0  0  0
  146.7179  137.4475  162.4196 C   0  0  0  0  0  0  0  0  0  0  0  0
  145.6218  137.3623  161.3456 C   0  0  0  0  0  0  0  0  0  0  0  0
  145.8035  135.9136  160.8430 C   0  0  2  0  0  0  0  0  0  0  0  0
  145.2525  134.9440  161.9092 C   0  0  1  0  0  0  0  0  0  0  0  0
  145.0201  133.5260  161.3575 C   0  0  0  0  0  0  0  0  0  0  0  0
  144.6787  132.6434  162.4053 O   0  0  0  0  0  0  0  0  0  0  0  0
  146.3721  135.0220  162.9677 C   0  0  0  0  0  0  0  0  0  0  0  0
  149.0067  137.1605  160.4423 N   0  0  0  0  0  0  0  0  0  0  0  0
  149.8401  137.7541  159.5843 C   0  0  0  0  0  0  0  0  0  0  0  0
  149.9055  137.6197  158.2598 N   0  0  0  0  0  0  0  0  0  0  0  0
  148.9580  136.7521  157.8045 C   0  0  0  0  0  0  0  0  0  0  0  0
  150.4431  138.9770  154.4668 C   0  0  2  0  0  0  0  0  0  0  0  0
  151.6510  138.0739  154.2895 C   0  0  0  0  0  0  0  0  0  0  0  0
  152.8032  139.0709  154.3266 C   0  0  0  0  0  0  0  0  0  0  0  0
  152.3921  140.0944  155.2253 O   0  0  0  0  0  0  0  0  0  0  0  0
  150.9950  139.9850  155.4812 C   0  0  0  0  0  0  0  0  0  0  0  0
  148.6162  139.7424  152.6184 H   0  0  0  0  0  0  0  0  0  0  0  0
  147.0400  138.1922  154.3232 H   0  0  0  0  0  0  0  0  0  0  0  0
  148.1201  137.6754  153.0623 H   0  0  0  0  0  0  0  0  0  0  0  0
  148.7966  138.7514  155.8152 H   0  0  0  0  0  0  0  0  0  0  0  0
  149.1376  136.1129  154.4777 H   0  0  0  0  0  0  0  0  0  0  0  0
  150.4846  136.6152  155.4663 H   0  0  0  0  0  0  0  0  0  0  0  0
  147.2334  135.0200  155.6926 H   0  0  0  0  0  0  0  0  0  0  0  0
  148.3283  135.9737  162.7712 H   0  0  0  0  0  0  0  0  0  0  0  0
  146.3244  137.6723  163.4115 H   0  0  0  0  0  0  0  0  0  0  0  0
  147.4505  138.2138  162.1627 H   0  0  0  0  0  0  0  0  0  0  0  0
  144.6235  137.5529  161.7404 H   0  0  0  0  0  0  0  0  0  0  0  0
  145.8099  138.0824  160.5481 H   0  0  0  0  0  0  0  0  0  0  0  0
  145.3628  135.7455  159.8594 H   0  0  0  0  0  0  0  0  0  0  0  0
  144.3101  135.3220  162.3090 H   0  0  0  0  0  0  0  0  0  0  0  0
  144.2043  133.5318  160.6340 H   0  0  0  0  0  0  0  0  0  0  0  0
  145.9053  133.1526  160.8412 H   0  0  0  0  0  0  0  0  0  0  0  0
  145.4702  132.3948  162.8579 H   0  0  0  0  0  0  0  0  0  0  0  0
  146.8683  134.0590  163.0955 H   0  0  0  0  0  0  0  0  0  0  0  0
  146.0081  135.3423  163.9445 H   0  0  0  0  0  0  0  0  0  0  0  0
  150.5562  138.4340  160.0219 H   0  0  0  0  0  0  0  0  0  0  0  0
  150.2660  139.4965  153.5236 H   0  0  0  0  0  0  0  0  0  0  0  0
  151.7331  137.3752  155.1235 H   0  0  0  0  0  0  0  0  0  0  0  0
  151.6296  137.5002  153.3623 H   0  0  0  0  0  0  0  0  0  0  0  0
  153.7420  138.6148  154.6413 H   0  0  0  0  0  0  0  0  0  0  0  0
  152.9542  139.5137  153.3411 H   0  0  0  0  0  0  0  0  0  0  0  0
  150.5079  140.9576  155.4072 H   0  0  0  0  0  0  0  0  0  0  0  0
  150.8648  139.6203  156.5010 H   0  0  0  0  0  0  0  0  0  0  0  0
  1  2  1  0  0  0  0
  1 28  1  0  0  0  0
  2  3  1  0  0  0  0
  2 29  1  0  0  0  0
  2 30  1  0  0  0  0
  3  4  1  0  0  0  0
  3 23  1  0  0  0  0
  3 31  1  0  0  0  0
  4  5  1  0  0  0  0
  4 32  1  0  0  0  0
  4 33  1  0  0  0  0
  5 22  1  0  0  0  0
  5  6  1  0  0  0  0
  6  7  2  0  0  0  0
  6 34  1  0  0  0  0
  7  8  1  0  0  0  0
  8 22  2  0  0  0  0
  8  9  1  0  0  0  0
  9 10  1  0  0  0  0
  9 19  2  0  0  0  0
 10 14  1  0  0  0  0
 10 11  1  0  0  0  0
 11 18  1  0  0  0  0
 11 12  1  0  0  0  0
 11 35  1  0  0  0  0
 12 13  1  0  0  0  0
 12 36  1  0  0  0  0
 12 37  1  0  0  0  0
 13 14  1  0  0  0  0
 13 38  1  0  0  0  0
 13 39  1  0  0  0  0
 14 15  1  0  0  0  0
 14 40  1  0  0  0  0
 15 16  1  0  0  0  0
 15 18  1  0  0  0  0
 15 41  1  0  0  0  0
 16 17  1  0  0  0  0
 16 42  1  0  0  0  0
 16 43  1  0  0  0  0
 17 44  1  0  0  0  0
 18 45  1  0  0  0  0
 18 46  1  0  0  0  0
 19 20  1  0  0  0  0
 20 21  2  0  0  0  0
 20 47  1  0  0  0  0
 21 22  1  0  0  0  0
 23 27  1  0  0  0  0
 23 24  1  0  0  0  0
 23 48  1  0  0  0  0
 24 25  1  0  0  0  0
 24 49  1  0  0  0  0
 24 50  1  0  0  0  0
 25 26  1  0  0  0  0
 25 51  1  0  0  0  0
 25 52  1  0  0  0  0
 26 27  1  0  0  0  0
 27 53  1  0  0  0  0
 27 54  1  0  0  0  0
M  END
> <s_m_source_file>
AV-unprocessed.smi

> <i_m_source_file_index>
227

> <i_lp_mmshare_version>
43012

> <i_f3d_flags>
0

> <s_epik_input>
W0NIMl0xT1tDSDJdW0NIMl1bQ0BIXTFbQ0BIXShbQ0gyXVtPSF0pW0NIMl1uKFtjSF1uMiljKGMyMyluW2NIXW5jM04oW0NASF00NSlbQ0BASF0oW0NIMl1bQ0gyXTQpW0NASF0oW0NIMl01KVtDSDJdW09IXQ==

> <s_epik_cmdline>
J2VwaWtfcHl0aG9uJywgJy1waCcsICc3LjAnLCAnLXRuJywgJzgnLCAnLW1hJywgJzIwMCcsICctbWV0YWxfYmluZGluZycsICctaW1hZScsICc8aW5maWxlLm1hZT4nLCAnLW9tYWUnLCAnPG91dGZpbGUubWFlPic=

> <r_lp_tautomer_probability>
1

> <r_epik_Ionization_Penalty>
0.0055791

> <r_epik_Ionization_Penalty_Charging>
0

> <r_epik_Ionization_Penalty_Neutral>
0.0055791

> <r_epik_State_Penalty>
0.00401299

> <r_epik_Charging_Adjusted_Penalty>
0.00401299

> <i_epik_Tot_Q>
0

> <i_epik_Tot_abs_Q>
0

> <r_epik_Metal_State_Penalty>
-0

> <b_epik_Metal_Only>
0

> <s_lp_Force_Field>
OPLS_2005

> <r_lp_Energy>
89.0098

> <b_lp_Chiralities_Consistent>
1

> <s_lp_Variant>
AV-unprocessed.smi:227-4

> <Gold.Version>
5.8.1

> <Gold.Id.Protein>
6NUR|6NUR_protein|mol2

> <Gold.PLP.Fitness>
42.4915

> <Gold.PLP.PLP>
-38.7619

> <Gold.PLP.part.hbond>
-4.4006

> <Gold.PLP.part.metal>
0.0000

> <Gold.PLP.part.buried>
-2.8182

> <Gold.PLP.part.nonpolar>
-31.2309

> <Gold.PLP.part.repulsive>
0.0000

> <Gold.PLP.ligand.clash>
0.0000

> <Gold.PLP.ligand.torsion>
2.2278

> <Gold.PLP.Chemscore.Hbond>
2.6635

> <Gold.PLP.Chemscore.CHOScore>
0.0000

> <Gold.PLP.Chemscore.Metal>
0.0000

> <Gold.Chemscore.Hbonds>
donor molecule, donor type, donor heavy atom, donor atom, acceptor molecule, acceptor atom, score
      L1  H     1    28       P1  7957  1.00
      P1  H  6931  6943       L1    19  0.61
      P1  H  7997  8009       L1    26  0.38

> <Gold.PLP.Chemscore.Internal.Correction>
0.1946

> <Gold.Rescore>
     Score         DG    S(hbond)    S(metal)    S(lipo)     H(rot)  DE(clash)    DE(int)     intcor
     10.18     -13.55       1.99        0.00      91.19       3.61       0.16       3.21       ----

> <Gold.Chemscore.Fitness>
10.1787

> <Gold.Chemscore.DG>
-13.5486

> <Gold.Chemscore.ZeroCoef>
-5.4800

> <Gold.Chemscore.Hbond>
1.9860

> <Gold.Chemscore.Metal>
0.0000

> <Gold.Chemscore.Lipo>
91.1918

> <Gold.Chemscore.Internal_Hbond>
0.0000

> <Gold.Chemscore.DEClash>
0.1622

> <Gold.Chemscore.DEInternal>
3.2076

> <Gold.Chemscore.Rot>
3.6071

> <Gold.Chemscore.Internal.Correction>
   9.000000E+99

> <Gold.Chemscore.Hbonds>
donor molecule, donor type, donor heavy atom, donor atom, acceptor molecule, acceptor atom, score
      L1  H     1    28       P1  7957  1.00
      P1  H  6931  6943       L1    19  0.22
      P1  H  7997  8009       L1    26  0.03

> <Gold.Chemscore.Hbond.Weighted>
-6.6333

> <Gold.Chemscore.Metal.Weighted>
-0.0000

> <Gold.Chemscore.Lipo.Weighted>
-10.6694

> <Gold.Chemscore.Internal_Hbond.Weighted>
0.0000

> <Gold.Chemscore.DEClash.Weighted>
0.1622

> <Gold.Chemscore.DEInternal.Weighted>
3.2076

> <Gold.Chemscore.Rot.Weighted>
9.2342

> <Gold.Chemscore.Internal.Correction.Weighted>
   9.000000E+99

> <Gold.Protein.RotatedTorsions>
[ 6907 6896 6895 6894 ] final   48.39 input  -60.11 | X-H torsion
[ 7974 7965 7964 7962 ] final  146.22 input  175.53 | X-H torsion
[ 8008 7997 7996 7995 ] final -154.41 input   59.86 | X-H torsion
[ 10167 10162 10161 10158 ] final  -12.96 input  -65.29 | X-H torsion
[ 10718 10713 10712 10709 ] final   13.62 input   66.30 | X-H torsion
[ 10763 10752 10751 10750 ] final -138.41 input  -60.55 | X-H torsion
[ 11005 11000 10999 10996 ] final  -12.14 input  -57.11 | X-H torsion

> <Gold.Protein.ActiveResidues>
 VAL166  LYS551  ARG553  GLY616  TRP617  ASP618  TYR619  PRO620  LYS621  CYS622 
 ASP623  PHE694  ASN695  SER759  ASP760  ASP761  ALA762  ILE779  LEU786  VAL792 
 PHE793  MET794  SER795  GLU796  ALA797  LYS798  CYS799  TRP800  GLU811  SER814 

> <Gold.Protein.RotatedAtoms>
  152.2789  134.7850  160.0400 H   0  0  0  0  0  0  0  0  0  0  0  0  # atno 6907 bound_to 6896
  151.8436  133.3422  159.3659 H   0  0  0  0  0  0  0  0  0  0  0  0  # atno 6908 bound_to 6896
  150.7182  134.5295  159.5737 H   0  0  0  0  0  0  0  0  0  0  0  0  # atno 6909 bound_to 6896
  144.8688  139.5879  143.5896 H   0  0  0  0  0  0  0  0  0  0  0  0  # atno 7974 bound_to 7965
  155.6860  140.0750  157.2466 H   0  0  0  0  0  0  0  0  0  0  0  0  # atno 8008 bound_to 7997
  154.4097  140.1673  156.2086 H   0  0  0  0  0  0  0  0  0  0  0  0  # atno 8009 bound_to 7997
  155.9493  140.3378  155.6397 H   0  0  0  0  0  0  0  0  0  0  0  0  # atno 8010 bound_to 7997
  140.7172  143.5477  150.9337 H   0  0  0  0  0  0  0  0  0  0  0  0  # atno 10167 bound_to 10162
  157.0273  130.6178  149.5730 H   0  0  0  0  0  0  0  0  0  0  0  0  # atno 10718 bound_to 10713
  154.8637  135.3613  154.5380 H   0  0  0  0  0  0  0  0  0  0  0  0  # atno 10763 bound_to 10752
  153.6002  135.7013  153.5392 H   0  0  0  0  0  0  0  0  0  0  0  0  # atno 10764 bound_to 10752
  153.3297  135.4128  155.1446 H   0  0  0  0  0  0  0  0  0  0  0  0  # atno 10765 bound_to 10752
  140.7627  133.8502  155.9138 H   0  0  0  0  0  0  0  0  0  0  0  0  # atno 11005 bound_to 11000
  146.2915  139.7154  142.9157 LP  0  0  0  0  0  0  0  0  0  0  0  0  # atno 17320 bound_to 7965
  145.4170  141.0402  143.2985 LP  0  0  0  0  0  0  0  0  0  0  0  0  # atno 17321 bound_to 7965
  139.9200  143.6617  152.3098 LP  0  0  0  0  0  0  0  0  0  0  0  0  # atno 17342 bound_to 10162
  139.7030  144.7632  151.1240 LP  0  0  0  0  0  0  0  0  0  0  0  0  # atno 17343 bound_to 10162
  156.0082  130.5170  150.7900 LP  0  0  0  0  0  0  0  0  0  0  0  0  # atno 17370 bound_to 10713
  157.5205  131.0931  151.0085 LP  0  0  0  0  0  0  0  0  0  0  0  0  # atno 17371 bound_to 10713
  140.9648  134.1608  157.4624 LP  0  0  0  0  0  0  0  0  0  0  0  0  # atno 17394 bound_to 11000
  139.8768  134.9958  156.5761 LP  0  0  0  0  0  0  0  0  0  0  0  0  # atno 17395 bound_to 11000

$$$$
