AV-unprocessed.smi:3250|AV-procd|sdf|12432|dock7
  -GOLD-   2272018323D 1   1.00000     0.00000
 Structure written by MMmdl.
 40 41  0  0  0  0  0  0  0  0  3 V2000
  146.4498  138.6119  151.9369 C   0  0  0  0  0  0  0  0  0  0  0  0
  147.6375  139.3383  152.5833 C   0  0  0  0  0  0  0  0  0  0  0  0
  148.2647  138.5429  153.6725 N   0  3  2  0  0  0  0  0  0  0  0  0
  147.3576  138.2086  154.8001 C   0  0  0  0  0  0  0  0  0  0  0  0
  147.1615  139.4113  155.7425 C   0  0  0  0  0  0  0  0  0  0  0  0
  148.4273  139.8842  156.1875 O   0  0  0  0  0  0  0  0  0  0  0  0
  149.2512  140.3297  155.1148 C   0  0  1  0  0  0  0  0  0  0  0  0
  150.5507  140.8976  155.7108 C   0  0  0  0  0  0  0  0  0  0  0  0
  150.3553  142.2027  156.3288 N   0  0  0  0  0  0  0  0  0  0  0  0
  150.9926  142.6225  157.4834 C   0  0  0  0  0  0  0  0  0  0  0  0
  150.7194  143.8567  157.9310 N   0  3  0  0  0  0  0  0  0  0  0  0
  151.3258  144.3159  159.0536 C   0  0  0  0  0  0  0  0  0  0  0  0
  152.2419  143.5058  159.7488 C   0  0  0  0  0  0  0  0  0  0  0  0
  152.4829  142.2249  159.2264 C   0  0  0  0  0  0  0  0  0  0  0  0
  153.3764  141.3858  159.8596 O   0  0  0  0  0  0  0  0  0  0  0  0
  153.8142  141.7301  161.1700 C   0  0  0  0  0  0  0  0  0  0  0  0
  151.8539  141.8034  158.1041 N   0  0  0  0  0  0  0  0  0  0  0  0
  149.5275  139.1313  154.1831 C   0  0  0  0  0  0  0  0  0  0  0  0
  146.0758  139.1762  151.0824 H   0  0  0  0  0  0  0  0  0  0  0  0
  145.6181  138.4890  152.6298 H   0  0  0  0  0  0  0  0  0  0  0  0
  146.7391  137.6240  151.5775 H   0  0  0  0  0  0  0  0  0  0  0  0
  148.3781  139.5169  151.8027 H   0  0  0  0  0  0  0  0  0  0  0  0
  147.3307  140.3205  152.9425 H   0  0  0  0  0  0  0  0  0  0  0  0
  146.3973  137.8399  154.4423 H   0  0  0  0  0  0  0  0  0  0  0  0
  147.8060  137.3875  155.3614 H   0  0  0  0  0  0  0  0  0  0  0  0
  146.6089  140.2157  155.2554 H   0  0  0  0  0  0  0  0  0  0  0  0
  146.5750  139.1113  156.6111 H   0  0  0  0  0  0  0  0  0  0  0  0
  148.7342  141.1111  154.5561 H   0  0  0  0  0  0  0  0  0  0  0  0
  150.9524  140.2118  156.4572 H   0  0  0  0  0  0  0  0  0  0  0  0
  151.3119  140.9882  154.9349 H   0  0  0  0  0  0  0  0  0  0  0  0
  149.7765  142.8745  155.8456 H   0  0  0  0  0  0  0  0  0  0  0  0
  151.0594  145.3178  159.3571 H   0  0  0  0  0  0  0  0  0  0  0  0
  152.7376  143.8533  160.6434 H   0  0  0  0  0  0  0  0  0  0  0  0
  154.5055  140.9688  161.5310 H   0  0  0  0  0  0  0  0  0  0  0  0
  152.9796  141.7788  161.8713 H   0  0  0  0  0  0  0  0  0  0  0  0
  154.3419  142.6850  161.1757 H   0  0  0  0  0  0  0  0  0  0  0  0
  150.0679  138.3584  154.7319 H   0  0  0  0  0  0  0  0  0  0  0  0
  150.1730  139.4237  153.3539 H   0  0  0  0  0  0  0  0  0  0  0  0
  148.5230  137.6665  153.2410 H   0  0  0  0  0  0  0  0  0  0  0  0
  150.0589  144.4586  157.4383 H   0  0  0  0  0  0  0  0  0  0  0  0
  1  2  1  0  0  0  0
  1 19  1  0  0  0  0
  1 20  1  0  0  0  0
  1 21  1  0  0  0  0
  2  3  1  0  0  0  0
  2 22  1  0  0  0  0
  2 23  1  0  0  0  0
  3 18  1  0  0  0  0
  3  4  1  0  0  0  0
  3 39  1  0  0  0  0
  4  5  1  0  0  0  0
  4 24  1  0  0  0  0
  4 25  1  0  0  0  0
  5  6  1  0  0  0  0
  5 26  1  0  0  0  0
  5 27  1  0  0  0  0
  6  7  1  0  0  0  0
  7  8  1  0  0  0  0
  7 18  1  0  0  0  0
  7 28  1  0  0  0  0
  8  9  1  0  0  0  0
  8 29  1  0  0  0  0
  8 30  1  0  0  0  0
  9 10  1  0  0  0  0
  9 31  1  0  0  0  0
 10 17  1  0  0  0  0
 10 11  2  0  0  0  0
 11 12  1  0  0  0  0
 11 40  1  0  0  0  0
 12 13  2  0  0  0  0
 12 32  1  0  0  0  0
 13 14  1  0  0  0  0
 13 33  1  0  0  0  0
 14 15  1  0  0  0  0
 14 17  2  0  0  0  0
 15 16  1  0  0  0  0
 16 34  1  0  0  0  0
 16 35  1  0  0  0  0
 16 36  1  0  0  0  0
 18 37  1  0  0  0  0
 18 38  1  0  0  0  0
M  CHG  1   3   1
M  CHG  1  11   1
M  END
> <s_m_source_file>
AV-unprocessed.smi

> <i_m_source_file_index>
3250

> <i_lp_mmshare_version>
43012

> <i_f3d_flags>
0

> <s_epik_input>
W0NIM11bQ0gyXU4xW0NIMl1bQ0gyXU9bQ0BIXShbQ0gyXTEpW0NIMl1bTkhdYzJuW2NIXVtjSF1jKG4yKU9bQ0gzXQ==

> <s_epik_cmdline>
J2VwaWtfcHl0aG9uJywgJy1waCcsICc3LjAnLCAnLXRuJywgJzgnLCAnLW1hJywgJzIwMCcsICctbWV0YWxfYmluZGluZycsICctaW1hZScsICc8aW5maWxlLm1hZT4nLCAnLW9tYWUnLCAnPG91dGZpbGUubWFlPic=

> <r_lp_tautomer_probability>
0.999985

> <r_epik_Ionization_Penalty>
2.24691

> <r_epik_Ionization_Penalty_Charging>
2.24686

> <r_epik_Ionization_Penalty_Neutral>
4.52111e-05

> <r_epik_State_Penalty>
2.24709

> <r_epik_Charging_Adjusted_Penalty>
4.49395

> <i_epik_Tot_Q>
2

> <i_epik_Tot_abs_Q>
2

> <r_epik_Metal_State_Penalty>
2.26327

> <b_epik_Metal_Only>
0

> <s_lp_Force_Field>
OPLS_2005

> <r_lp_Energy>
19.5656

> <b_lp_Chiralities_Consistent>
1

> <s_lp_Variant>
AV-unprocessed.smi:3250-8

> <Gold.Version>
5.8.1

> <Gold.Id.Protein>
6NUR|6NUR_protein|mol2

> <Gold.PLP.Fitness>
49.7971

> <Gold.PLP.PLP>
-33.1920

> <Gold.PLP.part.hbond>
-3.6178

> <Gold.PLP.part.metal>
0.0000

> <Gold.PLP.part.buried>
1.3543

> <Gold.PLP.part.nonpolar>
-31.5135

> <Gold.PLP.part.repulsive>
0.1757

> <Gold.PLP.ligand.clash>
0.0000

> <Gold.PLP.ligand.torsion>
0.4200

> <Gold.PLP.Chemscore.Hbond>
5.8080

> <Gold.PLP.Chemscore.CHOScore>
0.0000

> <Gold.PLP.Chemscore.Metal>
0.0000

> <Gold.Chemscore.Hbonds>
donor molecule, donor type, donor heavy atom, donor atom, acceptor molecule, acceptor atom, score
      L1  H     3    39       P1  7948  2.00
      L1  H     9    31       P1  8028  1.85
      L1  H    11    40       P1  8028  1.50

> <Gold.PLP.Chemscore.Internal.Correction>
0.0211

> <Gold.Rescore>
     Score         DG    S(hbond)    S(metal)    S(lipo)     H(rot)  DE(clash)    DE(int)     intcor
     15.50     -17.57       2.26        0.00      77.16       1.75       1.60       0.46       ----

> <Gold.Chemscore.Fitness>
15.5042

> <Gold.Chemscore.DG>
-17.5664

> <Gold.Chemscore.ZeroCoef>
-5.4800

> <Gold.Chemscore.Hbond>
2.2592

> <Gold.Chemscore.Metal>
0.0000

> <Gold.Chemscore.Lipo>
77.1643

> <Gold.Chemscore.Internal_Hbond>
0.0000

> <Gold.Chemscore.DEClash>
1.6020

> <Gold.Chemscore.DEInternal>
0.4602

> <Gold.Chemscore.Rot>
1.7530

> <Gold.Chemscore.Internal.Correction>
   9.000000E+99

> <Gold.Chemscore.Hbonds>
donor molecule, donor type, donor heavy atom, donor atom, acceptor molecule, acceptor atom, score
      L1  H     3    39       P1  7948  0.93
      L1  H     9    31       P1  8028  0.86
      L1  H    11    40       P1  8028  0.25

> <Gold.Chemscore.Hbond.Weighted>
-7.5458

> <Gold.Chemscore.Metal.Weighted>
-0.0000

> <Gold.Chemscore.Lipo.Weighted>
-9.0282

> <Gold.Chemscore.Internal_Hbond.Weighted>
0.0000

> <Gold.Chemscore.DEClash.Weighted>
1.6020

> <Gold.Chemscore.DEInternal.Weighted>
0.4602

> <Gold.Chemscore.Rot.Weighted>
4.4876

> <Gold.Chemscore.Internal.Correction.Weighted>
   9.000000E+99

> <Gold.Protein.RotatedTorsions>
[ 6907 6896 6895 6894 ] final  146.95 input  -60.11 | X-H torsion
[ 7974 7965 7964 7962 ] final  -71.44 input  175.53 | X-H torsion
[ 8008 7997 7996 7995 ] final -167.51 input   59.86 | X-H torsion
[ 10167 10162 10161 10158 ] final  102.89 input  -65.29 | X-H torsion
[ 10718 10713 10712 10709 ] final  102.53 input   66.30 | X-H torsion
[ 10763 10752 10751 10750 ] final   52.40 input  -60.55 | X-H torsion
[ 11005 11000 10999 10996 ] final  -81.53 input  -57.11 | X-H torsion

> <Gold.Protein.ActiveResidues>
 VAL166  LYS551  ARG553  GLY616  TRP617  ASP618  TYR619  PRO620  LYS621  CYS622 
 ASP623  PHE694  ASN695  SER759  ASP760  ASP761  ALA762  ILE779  LEU786  VAL792 
 PHE793  MET794  SER795  GLU796  ALA797  LYS798  CYS799  TRP800  GLU811  SER814 

> <Gold.Protein.RotatedAtoms>
  152.1612  133.4583  159.4861 H   0  0  0  0  0  0  0  0  0  0  0  0  # atno 6907 bound_to 6896
  150.6907  134.2069  159.4353 H   0  0  0  0  0  0  0  0  0  0  0  0  # atno 6908 bound_to 6896
  151.9971  134.9948  160.0614 H   0  0  0  0  0  0  0  0  0  0  0  0  # atno 6909 bound_to 6896
  145.6781  140.9198  143.0847 H   0  0  0  0  0  0  0  0  0  0  0  0  # atno 7974 bound_to 7965
  155.8787  140.1005  157.1500 H   0  0  0  0  0  0  0  0  0  0  0  0  # atno 8008 bound_to 7997
  154.4003  140.1333  156.4233 H   0  0  0  0  0  0  0  0  0  0  0  0  # atno 8009 bound_to 7997
  155.7667  140.3462  155.5228 H   0  0  0  0  0  0  0  0  0  0  0  0  # atno 8010 bound_to 7997
  139.7310  144.7036  151.0721 H   0  0  0  0  0  0  0  0  0  0  0  0  # atno 10167 bound_to 10162
  157.6799  131.0755  150.5417 H   0  0  0  0  0  0  0  0  0  0  0  0  # atno 10718 bound_to 10713
  152.9789  135.5814  154.4572 H   0  0  0  0  0  0  0  0  0  0  0  0  # atno 10763 bound_to 10752
  154.4153  135.2770  155.2012 H   0  0  0  0  0  0  0  0  0  0  0  0  # atno 10764 bound_to 10752
  154.3785  135.6152  153.5832 H   0  0  0  0  0  0  0  0  0  0  0  0  # atno 10765 bound_to 10752
  141.1666  133.7201  156.8436 H   0  0  0  0  0  0  0  0  0  0  0  0  # atno 11005 bound_to 11000
  144.7035  139.8660  143.7437 LP  0  0  0  0  0  0  0  0  0  0  0  0  # atno 17320 bound_to 7965
  146.0988  139.3982  143.0360 LP  0  0  0  0  0  0  0  0  0  0  0  0  # atno 17321 bound_to 7965
  140.7771  143.5043  150.9732 LP  0  0  0  0  0  0  0  0  0  0  0  0  # atno 17342 bound_to 10162
  139.8731  143.7167  152.3164 LP  0  0  0  0  0  0  0  0  0  0  0  0  # atno 17343 bound_to 10162
  156.5724  130.4283  149.6013 LP  0  0  0  0  0  0  0  0  0  0  0  0  # atno 17370 bound_to 10713
  156.2729  130.7027  151.1830 LP  0  0  0  0  0  0  0  0  0  0  0  0  # atno 17371 bound_to 10713
  140.1965  134.8928  157.3121 LP  0  0  0  0  0  0  0  0  0  0  0  0  # atno 17394 bound_to 11000
  140.2233  134.3997  155.7555 LP  0  0  0  0  0  0  0  0  0  0  0  0  # atno 17395 bound_to 11000

$$$$
