AV-unprocessed.smi:2519|AV-procd|sdf|9903|dock7
  -GOLD-   2272013543D 1   1.00000     0.00000
 Structure written by MMmdl.
 43 44  0  0  0  0  0  0  0  0  1 V2000
  154.5031  139.6928  160.5758 C   0  0  0  0  0  0  0  0  0  0  0  0
  153.7788  140.9462  160.4339 N   0  0  0  0  0  0  0  0  0  0  0  0
  152.6056  141.0793  159.7932 C   0  0  0  0  0  0  0  0  0  0  0  0
  152.0193  140.1328  159.2657 O   0  0  0  0  0  0  0  0  0  0  0  0
  152.0241  142.4694  159.7586 C   0  0  0  0  0  0  0  0  0  0  0  0
  152.7785  143.5645  160.2357 C   0  0  0  0  0  0  0  0  0  0  0  0
  152.2065  144.8484  160.1972 C   0  0  0  0  0  0  0  0  0  0  0  0
  150.9046  144.9980  159.6853 C   0  0  0  0  0  0  0  0  0  0  0  0
  150.2082  143.8600  159.2253 C   0  0  0  0  0  0  0  0  0  0  0  0
  148.9050  144.1118  158.7223 N   0  0  0  0  0  0  0  0  0  0  0  0
  147.7923  143.3658  158.8736 C   0  0  0  0  0  0  0  0  0  0  0  0
  147.7231  142.3397  159.5482 O   0  0  0  0  0  0  0  0  0  0  0  0
  146.7156  143.8396  158.2198 N   0  0  0  0  0  0  0  0  0  0  0  0
  145.3578  143.2870  158.1651 C   0  0  2  0  0  0  0  0  0  0  0  0
  145.3739  141.9207  157.4532 C   0  0  0  0  0  0  0  0  0  0  0  0
  145.6497  142.0544  155.9458 C   0  0  0  0  0  0  0  0  0  0  0  0
  144.6579  143.0180  155.2755 C   0  0  0  0  0  0  0  0  0  0  0  0
  144.6583  144.4036  155.9547 C   0  0  1  0  0  0  0  0  0  0  0  0
  143.6745  145.3799  155.2781 C   0  0  0  0  0  0  0  0  0  0  0  0
  143.9075  145.4565  153.9675 F   0  0  0  0  0  0  0  0  0  0  0  0
  142.4205  144.9700  155.4696 F   0  0  0  0  0  0  0  0  0  0  0  0
  143.7997  146.5959  155.8101 F   0  0  0  0  0  0  0  0  0  0  0  0
  144.3729  144.2517  157.4658 C   0  0  0  0  0  0  0  0  0  0  0  0
  150.7703  142.6278  159.2687 N   0  0  0  0  0  0  0  0  0  0  0  0
  155.3842  139.8422  161.2000 H   0  0  0  0  0  0  0  0  0  0  0  0
  154.8316  139.3246  159.6032 H   0  0  0  0  0  0  0  0  0  0  0  0
  153.8788  138.9312  161.0445 H   0  0  0  0  0  0  0  0  0  0  0  0
  154.1919  141.7729  160.8424 H   0  0  0  0  0  0  0  0  0  0  0  0
  153.7774  143.4328  160.6258 H   0  0  0  0  0  0  0  0  0  0  0  0
  152.7575  145.7056  160.5550 H   0  0  0  0  0  0  0  0  0  0  0  0
  150.4503  145.9776  159.6478 H   0  0  0  0  0  0  0  0  0  0  0  0
  148.8111  144.9424  158.1568 H   0  0  0  0  0  0  0  0  0  0  0  0
  146.8509  144.7021  157.7123 H   0  0  0  0  0  0  0  0  0  0  0  0
  145.0164  143.1154  159.1873 H   0  0  0  0  0  0  0  0  0  0  0  0
  146.1134  141.2631  157.9119 H   0  0  0  0  0  0  0  0  0  0  0  0
  144.4083  141.4336  157.5946 H   0  0  0  0  0  0  0  0  0  0  0  0
  146.6687  142.4085  155.7855 H   0  0  0  0  0  0  0  0  0  0  0  0
  145.5893  141.0745  155.4717 H   0  0  0  0  0  0  0  0  0  0  0  0
  144.9107  143.1177  154.2197 H   0  0  0  0  0  0  0  0  0  0  0  0
  143.6557  142.5893  155.3125 H   0  0  0  0  0  0  0  0  0  0  0  0
  145.6579  144.8269  155.8429 H   0  0  0  0  0  0  0  0  0  0  0  0
  143.3582  143.8755  157.6015 H   0  0  0  0  0  0  0  0  0  0  0  0
  144.3921  145.2282  157.9497 H   0  0  0  0  0  0  0  0  0  0  0  0
  1  2  1  0  0  0  0
  1 25  1  0  0  0  0
  1 26  1  0  0  0  0
  1 27  1  0  0  0  0
  2  3  1  0  0  0  0
  2 28  1  0  0  0  0
  3  4  2  0  0  0  0
  3  5  1  0  0  0  0
  5 24  1  0  0  0  0
  5  6  2  0  0  0  0
  6  7  1  0  0  0  0
  6 29  1  0  0  0  0
  7  8  2  0  0  0  0
  7 30  1  0  0  0  0
  8  9  1  0  0  0  0
  8 31  1  0  0  0  0
  9 10  1  0  0  0  0
  9 24  2  0  0  0  0
 10 11  1  0  0  0  0
 10 32  1  0  0  0  0
 11 12  2  0  0  0  0
 11 13  1  0  0  0  0
 13 14  1  0  0  0  0
 13 33  1  0  0  0  0
 14 23  1  0  0  0  0
 14 15  1  0  0  0  0
 14 34  1  0  0  0  0
 15 16  1  0  0  0  0
 15 35  1  0  0  0  0
 15 36  1  0  0  0  0
 16 17  1  0  0  0  0
 16 37  1  0  0  0  0
 16 38  1  0  0  0  0
 17 18  1  0  0  0  0
 17 39  1  0  0  0  0
 17 40  1  0  0  0  0
 18 19  1  0  0  0  0
 18 23  1  0  0  0  0
 18 41  1  0  0  0  0
 19 20  1  0  0  0  0
 19 21  1  0  0  0  0
 19 22  1  0  0  0  0
 23 42  1  0  0  0  0
 23 43  1  0  0  0  0
M  END
> <s_m_source_file>
AV-unprocessed.smi

> <i_m_source_file_index>
2519

> <i_lp_mmshare_version>
43012

> <i_f3d_flags>
0

> <s_epik_input>
W0NIM11bTkhdQyg9TyljMVtjSF1bY0hdW2NIXWMobjEpW05IXUMoPU8pW05IXVtDQEBIXTJbQ0gyXVtDSDJdW0NIMl1bQ0BASF0oQyhGKShGKUYpW0NIMl0y

> <s_epik_cmdline>
J2VwaWtfcHl0aG9uJywgJy1waCcsICc3LjAnLCAnLXRuJywgJzgnLCAnLW1hJywgJzIwMCcsICctbWV0YWxfYmluZGluZycsICctaW1hZScsICc8aW5maWxlLm1hZT4nLCAnLW9tYWUnLCAnPG91dGZpbGUubWFlPic=

> <r_lp_tautomer_probability>
1

> <r_epik_Ionization_Penalty>
3.74915e-05

> <r_epik_Ionization_Penalty_Charging>
0

> <r_epik_Ionization_Penalty_Neutral>
3.74915e-05

> <r_epik_State_Penalty>
-0

> <r_epik_Charging_Adjusted_Penalty>
0

> <i_epik_Tot_Q>
0

> <i_epik_Tot_abs_Q>
0

> <r_epik_Metal_State_Penalty>
-0

> <b_epik_Metal_Only>
0

> <s_lp_Force_Field>
OPLS_2005

> <r_lp_Energy>
26.8043

> <b_lp_Chiralities_Consistent>
1

> <s_lp_Variant>
AV-unprocessed.smi:2519-1

> <Gold.Version>
5.8.1

> <Gold.Id.Protein>
6NUR|6NUR_protein|mol2

> <Gold.PLP.Fitness>
45.7435

> <Gold.PLP.PLP>
-38.3542

> <Gold.PLP.part.hbond>
-5.4290

> <Gold.PLP.part.metal>
0.0000

> <Gold.PLP.part.buried>
-2.4951

> <Gold.PLP.part.nonpolar>
-30.2255

> <Gold.PLP.part.repulsive>
0.2401

> <Gold.PLP.ligand.clash>
0.0000

> <Gold.PLP.ligand.torsion>
0.4035

> <Gold.PLP.Chemscore.Hbond>
2.7211

> <Gold.PLP.Chemscore.CHOScore>
0.0000

> <Gold.PLP.Chemscore.Metal>
0.0000

> <Gold.Chemscore.Hbonds>
donor molecule, donor type, donor heavy atom, donor atom, acceptor molecule, acceptor atom, score
      L1  H    10    32       P1  8029  1.00
      L1  H    13    33       P1  8029  0.99
      P1  H  6933  6944       L1    12  0.43
      P1  H  6934  6946       L1    12  0.43

> <Gold.PLP.Chemscore.Internal.Correction>
0.0329

> <Gold.Rescore>
     Score         DG    S(hbond)    S(metal)    S(lipo)     H(rot)  DE(clash)    DE(int)     intcor
     16.31     -18.44       2.17        0.00      70.66       1.00       0.56       1.57       ----

> <Gold.Chemscore.Fitness>
16.3058

> <Gold.Chemscore.DG>
-18.4411

> <Gold.Chemscore.ZeroCoef>
-5.4800

> <Gold.Chemscore.Hbond>
2.1717

> <Gold.Chemscore.Metal>
0.0000

> <Gold.Chemscore.Lipo>
70.6637

> <Gold.Chemscore.Internal_Hbond>
0.0000

> <Gold.Chemscore.DEClash>
0.5633

> <Gold.Chemscore.DEInternal>
1.5720

> <Gold.Chemscore.Rot>
1.0000

> <Gold.Chemscore.Internal.Correction>
   9.000000E+99

> <Gold.Chemscore.Hbonds>
donor molecule, donor type, donor heavy atom, donor atom, acceptor molecule, acceptor atom, score
      L1  H    10    32       P1  8029  0.57
      L1  H    13    33       P1  8029  0.24
      P1  H  6933  6944       L1    12  0.39
      P1  H  6934  6946       L1    12  0.41

> <Gold.Chemscore.Hbond.Weighted>
-7.2535

> <Gold.Chemscore.Metal.Weighted>
-0.0000

> <Gold.Chemscore.Lipo.Weighted>
-8.2677

> <Gold.Chemscore.Internal_Hbond.Weighted>
0.0000

> <Gold.Chemscore.DEClash.Weighted>
0.5633

> <Gold.Chemscore.DEInternal.Weighted>
1.5720

> <Gold.Chemscore.Rot.Weighted>
2.5600

> <Gold.Chemscore.Internal.Correction.Weighted>
   9.000000E+99

> <Gold.Protein.RotatedTorsions>
[ 6907 6896 6895 6894 ] final  133.65 input  -60.11 | X-H torsion
[ 7974 7965 7964 7962 ] final  -62.26 input  175.53 | X-H torsion
[ 8008 7997 7996 7995 ] final  130.85 input   59.86 | X-H torsion
[ 10167 10162 10161 10158 ] final -112.84 input  -65.29 | X-H torsion
[ 10718 10713 10712 10709 ] final -108.77 input   66.30 | X-H torsion
[ 10763 10752 10751 10750 ] final   81.19 input  -60.55 | X-H torsion
[ 11005 11000 10999 10996 ] final   -1.61 input  -57.11 | X-H torsion

> <Gold.Protein.ActiveResidues>
 VAL166  LYS551  ARG553  GLY616  TRP617  ASP618  TYR619  PRO620  LYS621  CYS622 
 ASP623  PHE694  ASN695  SER759  ASP760  ASP761  ALA762  ILE779  LEU786  VAL792 
 PHE793  MET794  SER795  GLU796  ALA797  LYS798  CYS799  TRP800  GLU811  SER814 

> <Gold.Protein.RotatedAtoms>
  152.3197  133.5840  159.5735 H   0  0  0  0  0  0  0  0  0  0  0  0  # atno 6907 bound_to 6896
  150.7365  134.0029  159.3653 H   0  0  0  0  0  0  0  0  0  0  0  0  # atno 6908 bound_to 6896
  151.7915  135.0735  160.0439 H   0  0  0  0  0  0  0  0  0  0  0  0  # atno 6909 bound_to 6896
  145.7934  140.8696  143.0269 H   0  0  0  0  0  0  0  0  0  0  0  0  # atno 7974 bound_to 7965
  156.2961  140.2586  156.2830 H   0  0  0  0  0  0  0  0  0  0  0  0  # atno 8008 bound_to 7997
  154.9583  140.0393  157.2196 H   0  0  0  0  0  0  0  0  0  0  0  0  # atno 8009 bound_to 7997
  154.7970  140.2821  155.5953 H   0  0  0  0  0  0  0  0  0  0  0  0  # atno 8010 bound_to 7997
  140.1184  143.4465  152.1707 H   0  0  0  0  0  0  0  0  0  0  0  0  # atno 10167 bound_to 10162
  156.0503  130.5730  150.8008 H   0  0  0  0  0  0  0  0  0  0  0  0  # atno 10718 bound_to 10713
  153.1096  135.4775  154.9011 H   0  0  0  0  0  0  0  0  0  0  0  0  # atno 10763 bound_to 10752
  154.7466  135.3095  154.8635 H   0  0  0  0  0  0  0  0  0  0  0  0  # atno 10764 bound_to 10752
  153.9228  135.6853  153.4801 H   0  0  0  0  0  0  0  0  0  0  0  0  # atno 10765 bound_to 10752
  140.6492  133.9419  155.8370 H   0  0  0  0  0  0  0  0  0  0  0  0  # atno 11005 bound_to 11000
  144.6778  140.0156  143.7484 LP  0  0  0  0  0  0  0  0  0  0  0  0  # atno 17320 bound_to 7965
  145.9953  139.3047  143.0960 LP  0  0  0  0  0  0  0  0  0  0  0  0  # atno 17321 bound_to 7965
  139.5582  144.7387  151.4232 LP  0  0  0  0  0  0  0  0  0  0  0  0  # atno 17342 bound_to 10162
  140.6886  143.7915  150.7222 LP  0  0  0  0  0  0  0  0  0  0  0  0  # atno 17343 bound_to 10162
  157.5421  131.0941  150.9812 LP  0  0  0  0  0  0  0  0  0  0  0  0  # atno 17370 bound_to 10713
  157.0093  130.5630  149.5319 LP  0  0  0  0  0  0  0  0  0  0  0  0  # atno 17371 bound_to 10713
  141.0549  134.0431  157.3735 LP  0  0  0  0  0  0  0  0  0  0  0  0  # atno 17394 bound_to 11000
  139.9052  135.0177  156.7452 LP  0  0  0  0  0  0  0  0  0  0  0  0  # atno 17395 bound_to 11000

$$$$
