AV-unprocessed.smi:1644|AV-procd|sdf|6596|dock10
  -GOLD-   22720 7293D 1   1.00000     0.00000
 Structure written by MMmdl.
 49 51  0  0  0  0  0  0  0  0  3 V2000
  147.3854  136.0454  161.3832 C   0  0  0  0  0  0  0  0  0  0  0  0
  147.7722  135.2861  160.1098 C   0  0  0  0  0  0  0  0  0  0  0  0
  148.0672  136.2339  158.9272 C   0  0  0  0  0  0  0  0  0  0  0  0
  148.4679  135.5579  157.5931 C   0  0  2  0  0  0  0  0  0  0  0  0
  149.7602  134.9107  157.6842 N   0  5  0  0  0  0  0  0  0  0  0  0
  150.5615  135.4197  156.7189 C   0  0  0  0  0  0  0  0  0  0  0  0
  151.7358  135.1198  156.5039 O   0  0  0  0  0  0  0  0  0  0  0  0
  149.9143  136.3514  155.9912 N   0  0  0  0  0  0  0  0  0  0  0  0
  150.5095  137.1289  154.9003 C   0  0  0  0  0  0  0  0  0  0  0  0
  150.2472  138.6389  155.0775 C   0  0  2  0  0  0  0  0  0  0  0  0
  149.9324  139.2078  153.8213 O   0  0  0  0  0  0  0  0  0  0  0  0
  151.4747  139.3758  155.6475 C   0  0  0  0  0  0  0  0  0  0  0  0
  151.1376  140.7090  156.1606 N   0  0  0  0  0  0  0  0  0  0  0  0
  150.3909  141.7037  155.6097 C   0  0  0  0  0  0  0  0  0  0  0  0
  150.3750  142.7407  156.4932 N   0  3  0  0  0  0  0  0  0  0  0  0
  151.1188  142.3998  157.6260 C   0  0  0  0  0  0  0  0  0  0  0  0
  151.3879  143.1104  158.7899 C   0  0  0  0  0  0  0  0  0  0  0  0
  152.1826  142.4697  159.7678 C   0  0  0  0  0  0  0  0  0  0  0  0
  152.4881  143.2147  161.0558 C   0  0  0  0  0  0  0  0  0  0  0  0
  152.6854  141.1592  159.5569 C   0  0  0  0  0  0  0  0  0  0  0  0
  153.5382  140.4786  160.6138 C   0  0  0  0  0  0  0  0  0  0  0  0
  152.4038  140.4550  158.3651 C   0  0  0  0  0  0  0  0  0  0  0  0
  151.6138  141.0988  157.4161 C   0  0  0  0  0  0  0  0  0  0  0  0
  148.6678  136.5213  156.4409 C   0  0  0  0  0  0  0  0  0  0  0  0
  147.8166  137.3109  156.0304 O   0  0  0  0  0  0  0  0  0  0  0  0
  147.1734  135.3534  162.1984 H   0  0  0  0  0  0  0  0  0  0  0  0
  146.4951  136.6542  161.2233 H   0  0  0  0  0  0  0  0  0  0  0  0
  148.1905  136.7054  161.7068 H   0  0  0  0  0  0  0  0  0  0  0  0
  148.6422  134.6651  160.3240 H   0  0  0  0  0  0  0  0  0  0  0  0
  146.9638  134.6035  159.8464 H   0  0  0  0  0  0  0  0  0  0  0  0
  147.1927  136.8613  158.7501 H   0  0  0  0  0  0  0  0  0  0  0  0
  148.8629  136.9203  159.2202 H   0  0  0  0  0  0  0  0  0  0  0  0
  147.6879  134.8502  157.3091 H   0  0  0  0  0  0  0  0  0  0  0  0
  151.5835  136.9357  154.9073 H   0  0  0  0  0  0  0  0  0  0  0  0
  150.1672  136.7792  153.9244 H   0  0  0  0  0  0  0  0  0  0  0  0
  149.3984  138.7959  155.7438 H   0  0  0  0  0  0  0  0  0  0  0  0
  150.1683  140.1226  153.8389 H   0  0  0  0  0  0  0  0  0  0  0  0
  151.9257  138.8091  156.4633 H   0  0  0  0  0  0  0  0  0  0  0  0
  152.2468  139.4917  154.8856 H   0  0  0  0  0  0  0  0  0  0  0  0
  149.8965  141.6736  154.6496 H   0  0  0  0  0  0  0  0  0  0  0  0
  151.0026  144.1078  158.9438 H   0  0  0  0  0  0  0  0  0  0  0  0
  152.1411  142.6463  161.9193 H   0  0  0  0  0  0  0  0  0  0  0  0
  151.9978  144.1884  161.0802 H   0  0  0  0  0  0  0  0  0  0  0  0
  153.5614  143.3781  161.1565 H   0  0  0  0  0  0  0  0  0  0  0  0
  153.8793  139.4979  160.2798 H   0  0  0  0  0  0  0  0  0  0  0  0
  152.9674  140.3378  161.5320 H   0  0  0  0  0  0  0  0  0  0  0  0
  154.4204  141.0775  160.8406 H   0  0  0  0  0  0  0  0  0  0  0  0
  152.7810  139.4548  158.2058 H   0  0  0  0  0  0  0  0  0  0  0  0
  149.8879  143.6134  156.3340 H   0  0  0  0  0  0  0  0  0  0  0  0
  1  2  1  0  0  0  0
  1 26  1  0  0  0  0
  1 27  1  0  0  0  0
  1 28  1  0  0  0  0
  2  3  1  0  0  0  0
  2 29  1  0  0  0  0
  2 30  1  0  0  0  0
  3  4  1  0  0  0  0
  3 31  1  0  0  0  0
  3 32  1  0  0  0  0
  4 24  1  0  0  0  0
  4  5  1  0  0  0  0
  4 33  1  0  0  0  0
  5  6  1  0  0  0  0
  6  7  2  0  0  0  0
  6  8  1  0  0  0  0
  8  9  1  0  0  0  0
  8 24  1  0  0  0  0
  9 10  1  0  0  0  0
  9 34  1  0  0  0  0
  9 35  1  0  0  0  0
 10 11  1  0  0  0  0
 10 12  1  0  0  0  0
 10 36  1  0  0  0  0
 11 37  1  0  0  0  0
 12 13  1  0  0  0  0
 12 38  1  0  0  0  0
 12 39  1  0  0  0  0
 13 23  1  0  0  0  0
 13 14  1  0  0  0  0
 14 15  2  0  0  0  0
 14 40  1  0  0  0  0
 15 16  1  0  0  0  0
 15 49  1  0  0  0  0
 16 23  2  0  0  0  0
 16 17  1  0  0  0  0
 17 18  2  0  0  0  0
 17 41  1  0  0  0  0
 18 19  1  0  0  0  0
 18 20  1  0  0  0  0
 19 42  1  0  0  0  0
 19 43  1  0  0  0  0
 19 44  1  0  0  0  0
 20 21  1  0  0  0  0
 20 22  2  0  0  0  0
 21 45  1  0  0  0  0
 21 46  1  0  0  0  0
 21 47  1  0  0  0  0
 22 23  1  0  0  0  0
 22 48  1  0  0  0  0
 24 25  2  0  0  0  0
M  CHG  1   5  -1
M  CHG  1  15   1
M  END
> <s_m_source_file>
AV-unprocessed.smi

> <i_m_source_file_index>
1644

> <i_lp_mmshare_version>
43012

> <i_f3d_flags>
0

> <s_epik_input>
W0NIM11bQ0gyXVtDSDJdW0NAQEhdMVtOSF1DKD1PKU4oQzE9TylbQ0gyXVtDQEhdKFtPSF0pW0NIMl1uKFtjSF1uMiljKGMyMylbY0hdYyhbQ0gzXSljKFtjSF0zKVtDSDNd

> <s_epik_cmdline>
J2VwaWtfcHl0aG9uJywgJy1waCcsICc3LjAnLCAnLXRuJywgJzgnLCAnLW1hJywgJzIwMCcsICctbWV0YWxfYmluZGluZycsICctaW1hZScsICc8aW5maWxlLm1hZT4nLCAnLW9tYWUnLCAnPG91dGZpbGUubWFlPic=

> <r_lp_tautomer_probability>
1

> <r_epik_Ionization_Penalty>
6.86868

> <r_epik_Ionization_Penalty_Charging>
6.86868

> <r_epik_Ionization_Penalty_Neutral>
5.84798e-07

> <r_epik_State_Penalty>
6.92818

> <r_epik_Charging_Adjusted_Penalty>
13.7969

> <i_epik_Tot_Q>
0

> <i_epik_Tot_abs_Q>
2

> <r_epik_Metal_State_Penalty>
2.98017

> <b_epik_Metal_Only>
1

> <s_lp_Force_Field>
OPLS_2005

> <r_lp_Energy>
22.7735

> <b_lp_Chiralities_Consistent>
1

> <s_lp_Variant>
AV-unprocessed.smi:1644-13

> <Gold.Version>
5.8.1

> <Gold.Id.Protein>
6NUR|6NUR_protein|mol2

> <Gold.PLP.Fitness>
58.3666

> <Gold.PLP.PLP>
-45.9729

> <Gold.PLP.part.hbond>
-4.0000

> <Gold.PLP.part.metal>
0.0000

> <Gold.PLP.part.buried>
-6.8827

> <Gold.PLP.part.nonpolar>
-35.2405

> <Gold.PLP.part.repulsive>
0.0984

> <Gold.PLP.ligand.clash>
0.0000

> <Gold.PLP.ligand.torsion>
0.9847

> <Gold.PLP.Chemscore.Hbond>
4.7600

> <Gold.PLP.Chemscore.CHOScore>
0.0000

> <Gold.PLP.Chemscore.Metal>
0.0000

> <Gold.Chemscore.Hbonds>
donor molecule, donor type, donor heavy atom, donor atom, acceptor molecule, acceptor atom, score
      L1  H    15    49       P1  8028  2.00
      P1  H  6896  6909       L1     5  1.90
      P1  H 10752 10764       L1     7  0.99

> <Gold.PLP.Chemscore.Internal.Correction>
0.0831

> <Gold.Rescore>
     Score         DG    S(hbond)    S(metal)    S(lipo)     H(rot)  DE(clash)    DE(int)     intcor
     18.96     -20.86       2.81        0.00     110.70       2.72       0.01       1.89       ----

> <Gold.Chemscore.Fitness>
18.9563

> <Gold.Chemscore.DG>
-20.8574

> <Gold.Chemscore.ZeroCoef>
-5.4800

> <Gold.Chemscore.Hbond>
2.8145

> <Gold.Chemscore.Metal>
0.0000

> <Gold.Chemscore.Lipo>
110.6982

> <Gold.Chemscore.Internal_Hbond>
0.0000

> <Gold.Chemscore.DEClash>
0.0073

> <Gold.Chemscore.DEInternal>
1.8937

> <Gold.Chemscore.Rot>
2.7245

> <Gold.Chemscore.Internal.Correction>
   9.000000E+99

> <Gold.Chemscore.Hbonds>
donor molecule, donor type, donor heavy atom, donor atom, acceptor molecule, acceptor atom, score
      L1  H    15    49       P1  8028  0.99
      P1  H  6896  6909       L1     5  0.80
      P1  H 10752 10764       L1     7  0.91

> <Gold.Chemscore.Hbond.Weighted>
-9.4005

> <Gold.Chemscore.Metal.Weighted>
-0.0000

> <Gold.Chemscore.Lipo.Weighted>
-12.9517

> <Gold.Chemscore.Internal_Hbond.Weighted>
0.0000

> <Gold.Chemscore.DEClash.Weighted>
0.0073

> <Gold.Chemscore.DEInternal.Weighted>
1.8937

> <Gold.Chemscore.Rot.Weighted>
6.9748

> <Gold.Chemscore.Internal.Correction.Weighted>
   9.000000E+99

> <Gold.Protein.RotatedTorsions>
[ 6907 6896 6895 6894 ] final   30.21 input  -60.11 | X-H torsion
[ 7974 7965 7964 7962 ] final  -69.71 input  175.53 | X-H torsion
[ 8008 7997 7996 7995 ] final   92.53 input   59.86 | X-H torsion
[ 10167 10162 10161 10158 ] final -142.84 input  -65.29 | X-H torsion
[ 10718 10713 10712 10709 ] final   72.31 input   66.30 | X-H torsion
[ 10763 10752 10751 10750 ] final  -25.63 input  -60.55 | X-H torsion
[ 11005 11000 10999 10996 ] final   58.88 input  -57.11 | X-H torsion

> <Gold.Protein.ActiveResidues>
 VAL166  LYS551  ARG553  GLY616  TRP617  ASP618  TYR619  PRO620  LYS621  CYS622 
 ASP623  PHE694  ASN695  SER759  ASP760  ASP761  ALA762  ILE779  LEU786  VAL792 
 PHE793  MET794  SER795  GLU796  ALA797  LYS798  CYS799  TRP800  GLU811  SER814 

> <Gold.Protein.RotatedAtoms>
  152.0427  134.9702  160.0573 H   0  0  0  0  0  0  0  0  0  0  0  0  # atno 6907 bound_to 6896
  152.1134  133.4308  159.4650 H   0  0  0  0  0  0  0  0  0  0  0  0  # atno 6908 bound_to 6896
  150.6845  134.2540  159.4565 H   0  0  0  0  0  0  0  0  0  0  0  0  # atno 6909 bound_to 6896
  145.7002  140.9119  143.0735 H   0  0  0  0  0  0  0  0  0  0  0  0  # atno 7974 bound_to 7965
  156.0364  140.3324  155.7196 H   0  0  0  0  0  0  0  0  0  0  0  0  # atno 8008 bound_to 7997
  155.5808  140.0637  157.2801 H   0  0  0  0  0  0  0  0  0  0  0  0  # atno 8009 bound_to 7997
  154.4374  140.1844  156.0963 H   0  0  0  0  0  0  0  0  0  0  0  0  # atno 8010 bound_to 7997
  139.8050  143.7781  152.2660 H   0  0  0  0  0  0  0  0  0  0  0  0  # atno 10167 bound_to 10162
  157.6495  130.9572  150.0911 H   0  0  0  0  0  0  0  0  0  0  0  0  # atno 10718 bound_to 10713
  153.7030  135.6955  153.5058 H   0  0  0  0  0  0  0  0  0  0  0  0  # atno 10763 bound_to 10752
  153.2328  135.4332  155.0613 H   0  0  0  0  0  0  0  0  0  0  0  0  # atno 10764 bound_to 10752
  154.8338  135.3488  154.6569 H   0  0  0  0  0  0  0  0  0  0  0  0  # atno 10765 bound_to 10752
  140.0345  134.5964  155.9463 H   0  0  0  0  0  0  0  0  0  0  0  0  # atno 11005 bound_to 11000
  144.6971  139.8938  143.7454 LP  0  0  0  0  0  0  0  0  0  0  0  0  # atno 17320 bound_to 7965
  146.0804  139.3792  143.0468 LP  0  0  0  0  0  0  0  0  0  0  0  0  # atno 17321 bound_to 7965
  139.7912  144.7409  150.9952 LP  0  0  0  0  0  0  0  0  0  0  0  0  # atno 17342 bound_to 10162
  140.7819  143.4440  151.0510 LP  0  0  0  0  0  0  0  0  0  0  0  0  # atno 17343 bound_to 10162
  156.1860  130.3652  149.8972 LP  0  0  0  0  0  0  0  0  0  0  0  0  # atno 17370 bound_to 10713
  156.6913  130.8897  151.3588 LP  0  0  0  0  0  0  0  0  0  0  0  0  # atno 17371 bound_to 10713
  141.1849  133.6554  156.5178 LP  0  0  0  0  0  0  0  0  0  0  0  0  # atno 17394 bound_to 11000
  140.4171  134.7221  157.4869 LP  0  0  0  0  0  0  0  0  0  0  0  0  # atno 17395 bound_to 11000

$$$$
