AV-unprocessed.smi:3336|AV-procd|sdf|12857|dock1
  -GOLD-   2272019253D 1   1.00000     0.00000
 Structure written by MMmdl.
 41 42  0  0  0  0  0  0  0  0  1 V2000
  149.2487  142.8846  158.7272 C   0  0  0  0  0  0  0  0  0  0  0  0
  150.5200  142.4041  158.0089 C   0  0  2  0  0  0  0  0  0  0  0  0
  151.7527  143.2899  158.3246 C   0  0  0  0  0  0  0  0  0  0  0  0
  152.1561  143.2720  159.7220 N   0  0  0  0  0  0  0  0  0  0  0  0
  152.0100  144.2633  160.6701 C   0  0  0  0  0  0  0  0  0  0  0  0
  152.5312  143.7889  161.8395 C   0  0  0  0  0  0  0  0  0  0  0  0
  152.9737  142.4786  161.5050 C   0  0  0  0  0  0  0  0  0  0  0  0
  152.7431  142.1703  160.2394 N   0  0  0  0  0  0  0  0  0  0  0  0
  150.2073  142.3411  156.5780 N   0  0  0  0  0  0  0  0  0  0  0  0
  149.4219  141.1775  156.1139 C   0  0  2  0  0  0  0  0  0  0  0  0
  150.3450  139.9525  156.0178 C   0  0  0  0  0  0  0  0  0  0  0  0
  148.7020  141.4041  154.7636 C   0  0  0  0  0  0  0  0  0  0  0  0
  149.3872  141.4166  153.7388 O   0  0  0  0  0  0  0  0  0  0  0  0
  147.3562  141.5757  154.7225 N   0  0  0  0  0  0  0  0  0  0  0  0
  146.5137  141.5119  155.9222 C   0  0  0  0  0  0  0  0  0  0  0  0
  145.8838  142.8953  156.1581 C   0  0  0  0  0  0  0  0  0  0  0  0
  145.1252  143.2724  155.0130 O   0  0  0  0  0  0  0  0  0  0  0  0
  145.9067  143.3237  153.8230 C   0  0  0  0  0  0  0  0  0  0  0  0
  146.5469  141.9492  153.5554 C   0  0  0  0  0  0  0  0  0  0  0  0
  149.4139  142.9638  159.8020 H   0  0  0  0  0  0  0  0  0  0  0  0
  148.4247  142.1867  158.5751 H   0  0  0  0  0  0  0  0  0  0  0  0
  148.9224  143.8611  158.3680 H   0  0  0  0  0  0  0  0  0  0  0  0
  150.7266  141.4008  158.3799 H   0  0  0  0  0  0  0  0  0  0  0  0
  152.6004  142.9416  157.7334 H   0  0  0  0  0  0  0  0  0  0  0  0
  151.5944  144.3225  158.0130 H   0  0  0  0  0  0  0  0  0  0  0  0
  151.5545  145.2140  160.4344 H   0  0  0  0  0  0  0  0  0  0  0  0
  152.5873  144.2995  162.7894 H   0  0  0  0  0  0  0  0  0  0  0  0
  153.4502  141.7464  162.1403 H   0  0  0  0  0  0  0  0  0  0  0  0
  149.7710  143.2069  156.2948 H   0  0  0  0  0  0  0  0  0  0  0  0
  148.6890  140.9756  156.8895 H   0  0  0  0  0  0  0  0  0  0  0  0
  149.7963  139.0570  155.7249 H   0  0  0  0  0  0  0  0  0  0  0  0
  150.8145  139.7431  156.9796 H   0  0  0  0  0  0  0  0  0  0  0  0
  151.1406  140.1075  155.2879 H   0  0  0  0  0  0  0  0  0  0  0  0
  145.7325  140.7648  155.7736 H   0  0  0  0  0  0  0  0  0  0  0  0
  147.0584  141.2006  156.8143 H   0  0  0  0  0  0  0  0  0  0  0  0
  145.2236  142.8672  157.0249 H   0  0  0  0  0  0  0  0  0  0  0  0
  146.6512  143.6433  156.3633 H   0  0  0  0  0  0  0  0  0  0  0  0
  145.2629  143.6081  152.9908 H   0  0  0  0  0  0  0  0  0  0  0  0
  146.6716  144.0967  153.9136 H   0  0  0  0  0  0  0  0  0  0  0  0
  147.0984  142.0077  152.6211 H   0  0  0  0  0  0  0  0  0  0  0  0
  145.7723  141.1969  153.4001 H   0  0  0  0  0  0  0  0  0  0  0  0
  1  2  1  0  0  0  0
  1 20  1  0  0  0  0
  1 21  1  0  0  0  0
  1 22  1  0  0  0  0
  2  3  1  0  0  0  0
  2  9  1  0  0  0  0
  2 23  1  0  0  0  0
  3  4  1  0  0  0  0
  3 24  1  0  0  0  0
  3 25  1  0  0  0  0
  4  8  1  0  0  0  0
  4  5  1  0  0  0  0
  5  6  2  0  0  0  0
  5 26  1  0  0  0  0
  6  7  1  0  0  0  0
  6 27  1  0  0  0  0
  7  8  2  0  0  0  0
  7 28  1  0  0  0  0
  9 10  1  0  0  0  0
  9 29  1  0  0  0  0
 10 11  1  0  0  0  0
 10 12  1  0  0  0  0
 10 30  1  0  0  0  0
 11 31  1  0  0  0  0
 11 32  1  0  0  0  0
 11 33  1  0  0  0  0
 12 13  2  0  0  0  0
 12 14  1  0  0  0  0
 14 19  1  0  0  0  0
 14 15  1  0  0  0  0
 15 16  1  0  0  0  0
 15 34  1  0  0  0  0
 15 35  1  0  0  0  0
 16 17  1  0  0  0  0
 16 36  1  0  0  0  0
 16 37  1  0  0  0  0
 17 18  1  0  0  0  0
 18 19  1  0  0  0  0
 18 38  1  0  0  0  0
 18 39  1  0  0  0  0
 19 40  1  0  0  0  0
 19 41  1  0  0  0  0
M  END
> <s_m_source_file>
AV-unprocessed.smi

> <i_m_source_file_index>
3336

> <i_lp_mmshare_version>
43012

> <i_f3d_flags>
0

> <s_epik_input>
bjFbY0hdW2NIXVtjSF1uMVtDSDJdW0NAQEhdKFtDSDNdKVtOSF1bQ0BIXShbQ0gzXSlDKD1PKU4yW0NIMl1bQ0gyXU9bQ0gyXVtDSDJdMg==

> <s_epik_cmdline>
J2VwaWtfcHl0aG9uJywgJy1waCcsICc3LjAnLCAnLXRuJywgJzgnLCAnLW1hJywgJzIwMCcsICctbWV0YWxfYmluZGluZycsICctaW1hZScsICc8aW5maWxlLm1hZT4nLCAnLW9tYWUnLCAnPG91dGZpbGUubWFlPic=

> <r_lp_tautomer_probability>
1

> <r_epik_Ionization_Penalty>
0.739958

> <r_epik_Ionization_Penalty_Charging>
0

> <r_epik_Ionization_Penalty_Neutral>
0.739958

> <r_epik_State_Penalty>
0.765967

> <r_epik_Charging_Adjusted_Penalty>
0.765967

> <i_epik_Tot_Q>
0

> <i_epik_Tot_abs_Q>
0

> <r_epik_Metal_State_Penalty>
0.765947

> <b_epik_Metal_Only>
0

> <s_lp_Force_Field>
OPLS_2005

> <r_lp_Energy>
28.3859

> <b_lp_Chiralities_Consistent>
1

> <s_lp_Variant>
AV-unprocessed.smi:3336-5

> <Gold.Version>
5.8.1

> <Gold.Id.Protein>
6NUR|6NUR_protein|mol2

> <Gold.PLP.Fitness>
44.6752

> <Gold.PLP.PLP>
-40.3834

> <Gold.PLP.part.hbond>
-3.0000

> <Gold.PLP.part.metal>
0.0000

> <Gold.PLP.part.buried>
-7.1491

> <Gold.PLP.part.nonpolar>
-32.2511

> <Gold.PLP.part.repulsive>
1.7361

> <Gold.PLP.ligand.clash>
0.0000

> <Gold.PLP.ligand.torsion>
0.7675

> <Gold.PLP.Chemscore.Hbond>
1.8971

> <Gold.PLP.Chemscore.CHOScore>
0.0000

> <Gold.PLP.Chemscore.Metal>
0.0000

> <Gold.Chemscore.Hbonds>
donor molecule, donor type, donor heavy atom, donor atom, acceptor molecule, acceptor atom, score
      L1  H     9    29       P1  8028  1.00
      P1  H  7989  7998       L1    13  0.07
      P1  H  8011  8017       L1    13  0.82

> <Gold.PLP.Chemscore.Internal.Correction>
0.1355

> <Gold.Rescore>
     Score         DG    S(hbond)    S(metal)    S(lipo)     H(rot)  DE(clash)    DE(int)     intcor
     16.85     -17.81       1.96        0.00      88.72       1.79       0.12       0.83       ----

> <Gold.Chemscore.Fitness>
16.8536

> <Gold.Chemscore.DG>
-17.8083

> <Gold.Chemscore.ZeroCoef>
-5.4800

> <Gold.Chemscore.Hbond>
1.9580

> <Gold.Chemscore.Metal>
0.0000

> <Gold.Chemscore.Lipo>
88.7159

> <Gold.Chemscore.Internal_Hbond>
0.0000

> <Gold.Chemscore.DEClash>
0.1198

> <Gold.Chemscore.DEInternal>
0.8349

> <Gold.Chemscore.Rot>
1.7935

> <Gold.Chemscore.Internal.Correction>
   9.000000E+99

> <Gold.Chemscore.Hbonds>
donor molecule, donor type, donor heavy atom, donor atom, acceptor molecule, acceptor atom, score
      L1  H     9    29       P1  8028  1.00
      P1  H  7989  7998       L1    13  0.07
      P1  H  8011  8017       L1    13  0.80

> <Gold.Chemscore.Hbond.Weighted>
-6.5397

> <Gold.Chemscore.Metal.Weighted>
-0.0000

> <Gold.Chemscore.Lipo.Weighted>
-10.3798

> <Gold.Chemscore.Internal_Hbond.Weighted>
0.0000

> <Gold.Chemscore.DEClash.Weighted>
0.1198

> <Gold.Chemscore.DEInternal.Weighted>
0.8349

> <Gold.Chemscore.Rot.Weighted>
4.5912

> <Gold.Chemscore.Internal.Correction.Weighted>
   9.000000E+99

> <Gold.Protein.RotatedTorsions>
[ 6907 6896 6895 6894 ] final  -30.41 input  -60.11 | X-H torsion
[ 7974 7965 7964 7962 ] final   91.21 input  175.53 | X-H torsion
[ 8008 7997 7996 7995 ] final  -88.93 input   59.86 | X-H torsion
[ 10167 10162 10161 10158 ] final   47.97 input  -65.29 | X-H torsion
[ 10718 10713 10712 10709 ] final  -52.01 input   66.30 | X-H torsion
[ 10763 10752 10751 10750 ] final   81.10 input  -60.55 | X-H torsion
[ 11005 11000 10999 10996 ] final  -52.21 input  -57.11 | X-H torsion

> <Gold.Protein.ActiveResidues>
 VAL166  LYS551  ARG553  GLY616  TRP617  ASP618  TYR619  PRO620  LYS621  CYS622 
 ASP623  PHE694  ASN695  SER759  ASP760  ASP761  ALA762  ILE779  LEU786  VAL792 
 PHE793  MET794  SER795  GLU796  ALA797  LYS798  CYS799  TRP800  GLU811  SER814 

> <Gold.Protein.RotatedAtoms>
  151.1059  134.9999  159.8470 H   0  0  0  0  0  0  0  0  0  0  0  0  # atno 6907 bound_to 6896
  152.5440  134.1894  159.8678 H   0  0  0  0  0  0  0  0  0  0  0  0  # atno 6908 bound_to 6896
  151.1941  133.4605  159.2628 H   0  0  0  0  0  0  0  0  0  0  0  0  # atno 6909 bound_to 6896
  145.5087  139.2276  143.2737 H   0  0  0  0  0  0  0  0  0  0  0  0  # atno 7974 bound_to 7965
  154.6806  140.0547  157.0262 H   0  0  0  0  0  0  0  0  0  0  0  0  # atno 8008 bound_to 7997
  155.0957  140.3224  155.4542 H   0  0  0  0  0  0  0  0  0  0  0  0  # atno 8009 bound_to 7997
  156.2693  140.2040  156.6083 H   0  0  0  0  0  0  0  0  0  0  0  0  # atno 8010 bound_to 7997
  140.2982  144.2966  150.6225 H   0  0  0  0  0  0  0  0  0  0  0  0  # atno 10167 bound_to 10162
  156.1659  130.4149  149.9721 H   0  0  0  0  0  0  0  0  0  0  0  0  # atno 10718 bound_to 10713
  153.1088  135.4778  154.8999 H   0  0  0  0  0  0  0  0  0  0  0  0  # atno 10763 bound_to 10752
  154.7459  135.3094  154.8648 H   0  0  0  0  0  0  0  0  0  0  0  0  # atno 10764 bound_to 10752
  153.9243  135.6851  153.4800 H   0  0  0  0  0  0  0  0  0  0  0  0  # atno 10765 bound_to 10752
  141.0912  133.6632  156.3991 H   0  0  0  0  0  0  0  0  0  0  0  0  # atno 11005 bound_to 11000
  146.2180  140.5892  142.9030 LP  0  0  0  0  0  0  0  0  0  0  0  0  # atno 17320 bound_to 7965
  144.7739  140.5698  143.6651 LP  0  0  0  0  0  0  0  0  0  0  0  0  # atno 17321 bound_to 7965
  140.5674  143.2184  151.7659 LP  0  0  0  0  0  0  0  0  0  0  0  0  # atno 17342 bound_to 10162
  139.4921  144.4264  151.9920 LP  0  0  0  0  0  0  0  0  0  0  0  0  # atno 17343 bound_to 10162
  156.7536  130.9125  151.3638 LP  0  0  0  0  0  0  0  0  0  0  0  0  # atno 17370 bound_to 10713
  157.6767  130.9101  150.0168 LP  0  0  0  0  0  0  0  0  0  0  0  0  # atno 17371 bound_to 10713
  140.5246  134.6271  157.5330 LP  0  0  0  0  0  0  0  0  0  0  0  0  # atno 17394 bound_to 11000
  139.9739  134.7248  155.9988 LP  0  0  0  0  0  0  0  0  0  0  0  0  # atno 17395 bound_to 11000

$$$$
