AV-unprocessed.smi:713|AV-procd|sdf|3479|dock2
  -GOLD-   22720 0473D 1   1.00000     0.00000
 Structure written by MMmdl.
 41 42  0  0  0  0  0  0  0  0  1 V2000
  144.8630  135.2598  152.8271 C   0  0  0  0  0  0  0  0  0  0  0  0
  145.8134  134.3707  151.9987 C   0  0  1  0  0  0  0  0  0  0  0  0
  146.7638  133.5497  152.8828 C   0  0  0  0  0  0  0  0  0  0  0  0
  146.3538  133.0080  153.9101 O   0  0  0  0  0  0  0  0  0  0  0  0
  148.0361  133.4594  152.4635 N   0  0  0  0  0  0  0  0  0  0  0  0
  149.0950  132.7166  153.1390 C   0  0  2  0  0  0  0  0  0  0  0  0
  148.5947  131.3026  153.4839 C   0  0  0  0  0  0  0  0  0  0  0  0
  149.6619  130.5045  154.2479 C   0  0  0  0  0  0  0  0  0  0  0  0
  150.1138  131.2501  155.5126 C   0  0  0  0  0  0  0  0  0  0  0  0
  150.6215  132.6658  155.1824 C   0  0  2  0  0  0  0  0  0  0  0  0
  151.1064  133.5330  156.7436 S   0  0  0  0  0  0  0  0  0  0  0  0
  150.0130  135.0144  156.7465 C   0  0  0  0  0  0  0  0  0  0  0  0
  150.7285  132.6884  157.8870 O   0  0  0  0  0  0  0  0  0  0  0  0
  152.4994  133.9846  156.6056 O   0  0  0  0  0  0  0  0  0  0  0  0
  149.5526  133.4631  154.4085 C   0  0  0  0  0  0  0  0  0  0  0  0
  145.0996  133.4908  151.0795 N   0  0  0  0  0  0  0  0  0  0  0  0
  145.6301  132.5226  150.2508 C   0  0  0  0  0  0  0  0  0  0  0  0
  144.5901  131.9167  149.6062 C   0  0  0  0  0  0  0  0  0  0  0  0
  143.4419  132.5786  150.1222 C   0  0  0  0  0  0  0  0  0  0  0  0
  143.7477  133.5101  151.0099 N   0  0  0  0  0  0  0  0  0  0  0  0
  145.4237  135.9469  153.4617 H   0  0  0  0  0  0  0  0  0  0  0  0
  144.2093  134.6744  153.4750 H   0  0  0  0  0  0  0  0  0  0  0  0
  144.2287  135.8618  152.1759 H   0  0  0  0  0  0  0  0  0  0  0  0
  146.4236  135.0392  151.3889 H   0  0  0  0  0  0  0  0  0  0  0  0
  148.2874  133.9326  151.6079 H   0  0  0  0  0  0  0  0  0  0  0  0
  149.9463  132.6165  152.4627 H   0  0  0  0  0  0  0  0  0  0  0  0
  147.6891  131.3666  154.0891 H   0  0  0  0  0  0  0  0  0  0  0  0
  148.3210  130.7697  152.5722 H   0  0  0  0  0  0  0  0  0  0  0  0
  149.2707  129.5226  154.5155 H   0  0  0  0  0  0  0  0  0  0  0  0
  150.5217  130.3286  153.6002 H   0  0  0  0  0  0  0  0  0  0  0  0
  149.2808  131.3133  156.2143 H   0  0  0  0  0  0  0  0  0  0  0  0
  150.8962  130.6795  156.0138 H   0  0  0  0  0  0  0  0  0  0  0  0
  151.5212  132.5843  154.5714 H   0  0  0  0  0  0  0  0  0  0  0  0
  150.2859  135.6595  157.5814 H   0  0  0  0  0  0  0  0  0  0  0  0
  148.9729  134.7114  156.8601 H   0  0  0  0  0  0  0  0  0  0  0  0
  150.1363  135.5632  155.8133 H   0  0  0  0  0  0  0  0  0  0  0  0
  149.9448  134.4412  154.1319 H   0  0  0  0  0  0  0  0  0  0  0  0
  148.6925  133.6461  155.0541 H   0  0  0  0  0  0  0  0  0  0  0  0
  146.6939  132.3467  150.1895 H   0  0  0  0  0  0  0  0  0  0  0  0
  144.6412  131.1182  148.8809 H   0  0  0  0  0  0  0  0  0  0  0  0
  142.4023  132.4072  149.8845 H   0  0  0  0  0  0  0  0  0  0  0  0
  1  2  1  0  0  0  0
  1 21  1  0  0  0  0
  1 22  1  0  0  0  0
  1 23  1  0  0  0  0
  2  3  1  0  0  0  0
  2 16  1  0  0  0  0
  2 24  1  0  0  0  0
  3  4  2  0  0  0  0
  3  5  1  0  0  0  0
  5  6  1  0  0  0  0
  5 25  1  0  0  0  0
  6 15  1  0  0  0  0
  6  7  1  0  0  0  0
  6 26  1  0  0  0  0
  7  8  1  0  0  0  0
  7 27  1  0  0  0  0
  7 28  1  0  0  0  0
  8  9  1  0  0  0  0
  8 29  1  0  0  0  0
  8 30  1  0  0  0  0
  9 10  1  0  0  0  0
  9 31  1  0  0  0  0
  9 32  1  0  0  0  0
 10 11  1  0  0  0  0
 10 15  1  0  0  0  0
 10 33  1  0  0  0  0
 11 12  1  0  0  0  0
 11 13  2  0  0  0  0
 11 14  2  0  0  0  0
 12 34  1  0  0  0  0
 12 35  1  0  0  0  0
 12 36  1  0  0  0  0
 15 37  1  0  0  0  0
 15 38  1  0  0  0  0
 16 20  1  0  0  0  0
 16 17  1  0  0  0  0
 17 18  2  0  0  0  0
 17 39  1  0  0  0  0
 18 19  1  0  0  0  0
 18 40  1  0  0  0  0
 19 20  2  0  0  0  0
 19 41  1  0  0  0  0
M  END
> <s_m_source_file>
AV-unprocessed.smi

> <i_m_source_file_index>
713

> <i_lp_mmshare_version>
43012

> <i_f3d_flags>
0

> <s_epik_input>
bjFbY0hdW2NIXVtjSF1uMVtDQEhdKFtDSDNdKUMoPU8pW05IXVtDQEBIXTJbQ0gyXVtDSDJdW0NIMl1bQ0BIXShbQ0gyXTIpUyg9TykoPU8pW0NIM10=

> <s_epik_cmdline>
J2VwaWtfcHl0aG9uJywgJy1waCcsICc3LjAnLCAnLXRuJywgJzgnLCAnLW1hJywgJzIwMCcsICctbWV0YWxfYmluZGluZycsICctaW1hZScsICc8aW5maWxlLm1hZT4nLCAnLW9tYWUnLCAnPG91dGZpbGUubWFlPic=

> <r_lp_tautomer_probability>
1

> <r_epik_Ionization_Penalty>
4.07816e-05

> <r_epik_Ionization_Penalty_Charging>
0

> <r_epik_Ionization_Penalty_Neutral>
4.07816e-05

> <r_epik_State_Penalty>
-0

> <r_epik_Charging_Adjusted_Penalty>
0

> <i_epik_Tot_Q>
0

> <i_epik_Tot_abs_Q>
0

> <r_epik_Metal_State_Penalty>
-0

> <b_epik_Metal_Only>
0

> <s_lp_Force_Field>
OPLS_2005

> <r_lp_Energy>
7.30822

> <b_lp_Chiralities_Consistent>
1

> <s_lp_Variant>
AV-unprocessed.smi:713-6

> <Gold.Version>
5.8.1

> <Gold.Id.Protein>
6NUR|6NUR_protein|mol2

> <Gold.PLP.Fitness>
38.3594

> <Gold.PLP.PLP>
-30.6338

> <Gold.PLP.part.hbond>
-3.4344

> <Gold.PLP.part.metal>
0.0000

> <Gold.PLP.part.buried>
-0.2211

> <Gold.PLP.part.nonpolar>
-27.9175

> <Gold.PLP.part.repulsive>
0.3067

> <Gold.PLP.ligand.clash>
0.0000

> <Gold.PLP.ligand.torsion>
0.8860

> <Gold.PLP.Chemscore.Hbond>
1.0473

> <Gold.PLP.Chemscore.CHOScore>
2.0349

> <Gold.PLP.Chemscore.Metal>
0.0000

> <Gold.Chemscore.Hbonds>
donor molecule, donor type, donor heavy atom, donor atom, acceptor molecule, acceptor atom, score
      P1  H  6896  6909       L1    13  1.00
      L1  C    17    39       P1 10747  0.53
      L1  C    19    41       P1 10186  0.74
      L1  C    19    41       P1 10952  0.81

> <Gold.PLP.Chemscore.Internal.Correction>
0.2510

> <Gold.Rescore>
     Score         DG    S(hbond)    S(metal)    S(lipo)     H(rot)  DE(clash)    DE(int)     intcor
     10.64     -12.97       0.77        0.00      79.85       1.72       0.04       2.30       ----

> <Gold.Chemscore.Fitness>
10.6389

> <Gold.Chemscore.DG>
-12.9737

> <Gold.Chemscore.ZeroCoef>
-5.4800

> <Gold.Chemscore.Hbond>
0.7684

> <Gold.Chemscore.Metal>
0.0000

> <Gold.Chemscore.Lipo>
79.8534

> <Gold.Chemscore.Internal_Hbond>
0.0000

> <Gold.Chemscore.DEClash>
0.0362

> <Gold.Chemscore.DEInternal>
2.2987

> <Gold.Chemscore.Rot>
1.7249

> <Gold.Chemscore.Internal.Correction>
   9.000000E+99

> <Gold.Chemscore.Hbonds>
donor molecule, donor type, donor heavy atom, donor atom, acceptor molecule, acceptor atom, score
      P1  H  6896  6909       L1    13  0.64

> <Gold.Chemscore.Hbond.Weighted>
-2.5666

> <Gold.Chemscore.Metal.Weighted>
-0.0000

> <Gold.Chemscore.Lipo.Weighted>
-9.3428

> <Gold.Chemscore.Internal_Hbond.Weighted>
0.0000

> <Gold.Chemscore.DEClash.Weighted>
0.0362

> <Gold.Chemscore.DEInternal.Weighted>
2.2987

> <Gold.Chemscore.Rot.Weighted>
4.4157

> <Gold.Chemscore.Internal.Correction.Weighted>
   9.000000E+99

> <Gold.Protein.RotatedTorsions>
[ 6907 6896 6895 6894 ] final  -38.20 input  -60.11 | X-H torsion
[ 7974 7965 7964 7962 ] final  -20.58 input  175.53 | X-H torsion
[ 8008 7997 7996 7995 ] final  -12.72 input   59.86 | X-H torsion
[ 10167 10162 10161 10158 ] final  141.72 input  -65.29 | X-H torsion
[ 10718 10713 10712 10709 ] final  115.16 input   66.30 | X-H torsion
[ 10763 10752 10751 10750 ] final  163.03 input  -60.55 | X-H torsion
[ 11005 11000 10999 10996 ] final -145.48 input  -57.11 | X-H torsion

> <Gold.Protein.ActiveResidues>
 VAL166  LYS551  ARG553  GLY616  TRP617  ASP618  TYR619  PRO620  LYS621  CYS622 
 ASP623  PHE694  ASN695  SER759  ASP760  ASP761  ALA762  ILE779  LEU786  VAL792 
 PHE793  MET794  SER795  GLU796  ALA797  LYS798  CYS799  TRP800  GLU811  SER814 

> <Gold.Protein.RotatedAtoms>
  151.0053  134.9354  159.7976 H   0  0  0  0  0  0  0  0  0  0  0  0  # atno 6907 bound_to 6896
  152.5288  134.3100  159.9120 H   0  0  0  0  0  0  0  0  0  0  0  0  # atno 6908 bound_to 6896
  151.3106  133.4040  159.2681 H   0  0  0  0  0  0  0  0  0  0  0  0  # atno 6909 bound_to 6896
  146.1780  140.4221  142.8505 H   0  0  0  0  0  0  0  0  0  0  0  0  # atno 7974 bound_to 7965
  154.5353  140.2268  155.8734 H   0  0  0  0  0  0  0  0  0  0  0  0  # atno 8008 bound_to 7997
  156.1805  140.3101  155.9102 H   0  0  0  0  0  0  0  0  0  0  0  0  # atno 8009 bound_to 7997
  155.3368  140.0448  157.3034 H   0  0  0  0  0  0  0  0  0  0  0  0  # atno 8010 bound_to 7997
  139.5013  144.6153  151.6177 H   0  0  0  0  0  0  0  0  0  0  0  0  # atno 10167 bound_to 10162
  157.6238  131.1009  150.7290 H   0  0  0  0  0  0  0  0  0  0  0  0  # atno 10718 bound_to 10713
  154.2875  135.2762  155.2670 H   0  0  0  0  0  0  0  0  0  0  0  0  # atno 10763 bound_to 10752
  154.5164  135.5768  153.6649 H   0  0  0  0  0  0  0  0  0  0  0  0  # atno 10764 bound_to 10752
  152.9919  135.6193  154.3037 H   0  0  0  0  0  0  0  0  0  0  0  0  # atno 10765 bound_to 10752
  140.7918  134.2959  157.5010 H   0  0  0  0  0  0  0  0  0  0  0  0  # atno 11005 bound_to 11000
  144.8268  140.6642  143.6317 LP  0  0  0  0  0  0  0  0  0  0  0  0  # atno 17320 bound_to 7965
  145.4156  139.1572  143.4102 LP  0  0  0  0  0  0  0  0  0  0  0  0  # atno 17321 bound_to 7965
  140.5840  143.9897  150.6284 LP  0  0  0  0  0  0  0  0  0  0  0  0  # atno 17342 bound_to 10162
  140.3055  143.3232  152.0930 LP  0  0  0  0  0  0  0  0  0  0  0  0  # atno 17343 bound_to 10162
  156.7642  130.4808  149.5431 LP  0  0  0  0  0  0  0  0  0  0  0  0  # atno 17370 bound_to 10713
  156.1398  130.6237  151.0452 LP  0  0  0  0  0  0  0  0  0  0  0  0  # atno 17371 bound_to 10713
  139.8730  134.9379  156.3700 LP  0  0  0  0  0  0  0  0  0  0  0  0  # atno 17394 bound_to 11000
  140.9381  133.7533  156.0111 LP  0  0  0  0  0  0  0  0  0  0  0  0  # atno 17395 bound_to 11000

$$$$
