AV-unprocessed.smi:155|AV-procd|sdf|1271|dock4
  -GOLD-   2262018533D 1   1.00000     0.00000
 Structure written by MMmdl.
 63 66  0  0  0  0  0  0  0  0  2 V2000
  143.4291  132.6987  151.2508 C   0  0  0  0  0  0  0  0  0  0  0  0
  144.6989  133.4100  151.3522 N   0  0  0  0  0  0  0  0  0  0  0  0
  145.6119  132.8591  150.3595 C   0  0  0  0  0  0  0  0  0  0  0  0
  144.5281  134.8405  151.1055 C   0  0  0  0  0  0  0  0  0  0  0  0
  145.8776  135.5680  150.8888 C   0  0  0  0  0  0  0  0  0  0  0  0
  146.3627  136.3089  152.0828 N   0  3  2  0  0  0  0  0  0  0  0  0
  146.1674  135.5651  153.3525 C   0  0  0  0  0  0  0  0  0  0  0  0
  146.9564  136.1629  154.5293 C   0  0  0  0  0  0  0  0  0  0  0  0
  146.3388  137.4547  155.0895 C   0  0  0  0  0  0  0  0  0  0  0  0
  146.6801  138.6555  154.3230 N   0  0  0  0  0  0  0  0  0  0  0  0
  147.1630  139.7242  155.0115 C   0  0  0  0  0  0  0  0  0  0  0  0
  146.2858  140.5911  155.5856 N   0  0  0  0  0  0  0  0  0  0  0  0
  146.7276  141.6567  156.2598 C   0  0  0  0  0  0  0  0  0  0  0  0
  147.9856  142.0389  156.4838 N   0  0  0  0  0  0  0  0  0  0  0  0
  148.8722  141.1701  155.9202 C   0  0  0  0  0  0  0  0  0  0  0  0
  148.5524  139.9991  155.1758 C   0  0  0  0  0  0  0  0  0  0  0  0
  149.7238  139.3635  154.7766 N   0  0  0  0  0  0  0  0  0  0  0  0
  150.6774  140.1224  155.2443 C   0  0  0  0  0  0  0  0  0  0  0  0
  150.2532  141.2295  155.9421 N   0  0  0  0  0  0  0  0  0  0  0  0
  151.0849  142.2408  156.5678 C   0  0  0  0  0  0  0  0  0  0  0  0
  151.1227  142.0935  158.1035 C   0  0  2  0  0  0  0  0  0  0  0  0
  149.8123  142.1015  158.6342 O   0  0  0  0  0  0  0  0  0  0  0  0
  151.9593  143.1705  158.8232 C   0  0  1  0  0  0  0  0  0  0  0  0
  151.4232  144.5939  158.6517 C   0  0  0  0  0  0  0  0  0  0  0  0
  151.9699  145.2796  159.8822 C   0  0  0  0  0  0  0  0  0  0  0  0
  151.8210  144.1839  160.9318 C   0  0  0  0  0  0  0  0  0  0  0  0
  151.9953  142.9538  160.2341 O   0  0  0  0  0  0  0  0  0  0  0  0
  146.8893  138.6165  152.8741 C   0  0  0  0  0  0  0  0  0  0  0  0
  145.8929  137.7165  152.1287 C   0  0  0  0  0  0  0  0  0  0  0  0
  142.7218  133.0380  152.0062 H   0  0  0  0  0  0  0  0  0  0  0  0
  143.5789  131.6298  151.4075 H   0  0  0  0  0  0  0  0  0  0  0  0
  142.9729  132.8363  150.2695 H   0  0  0  0  0  0  0  0  0  0  0  0
  146.5873  133.3433  150.4239 H   0  0  0  0  0  0  0  0  0  0  0  0
  145.2291  132.9951  149.3470 H   0  0  0  0  0  0  0  0  0  0  0  0
  145.7641  131.7923  150.5272 H   0  0  0  0  0  0  0  0  0  0  0  0
  143.9240  134.9838  150.2084 H   0  0  0  0  0  0  0  0  0  0  0  0
  143.9550  135.2783  151.9237 H   0  0  0  0  0  0  0  0  0  0  0  0
  146.6600  134.8781  150.5704 H   0  0  0  0  0  0  0  0  0  0  0  0
  145.7749  136.2694  150.0600 H   0  0  0  0  0  0  0  0  0  0  0  0
  145.1076  135.4983  153.6010 H   0  0  0  0  0  0  0  0  0  0  0  0
  146.5148  134.5420  153.2059 H   0  0  0  0  0  0  0  0  0  0  0  0
  146.9496  135.4243  155.3316 H   0  0  0  0  0  0  0  0  0  0  0  0
  148.0067  136.3068  154.2717 H   0  0  0  0  0  0  0  0  0  0  0  0
  145.2543  137.3653  155.1596 H   0  0  0  0  0  0  0  0  0  0  0  0
  146.7016  137.5612  156.1125 H   0  0  0  0  0  0  0  0  0  0  0  0
  145.9639  142.2962  156.6778 H   0  0  0  0  0  0  0  0  0  0  0  0
  151.7224  139.8953  155.0907 H   0  0  0  0  0  0  0  0  0  0  0  0
  152.0876  142.1566  156.1485 H   0  0  0  0  0  0  0  0  0  0  0  0
  150.7107  143.2248  156.2821 H   0  0  0  0  0  0  0  0  0  0  0  0
  151.5413  141.1180  158.3557 H   0  0  0  0  0  0  0  0  0  0  0  0
  149.2680  141.5519  158.0911 H   0  0  0  0  0  0  0  0  0  0  0  0
  152.9877  143.1570  158.4570 H   0  0  0  0  0  0  0  0  0  0  0  0
  151.7502  145.0606  157.7222 H   0  0  0  0  0  0  0  0  0  0  0  0
  150.3332  144.6110  158.6732 H   0  0  0  0  0  0  0  0  0  0  0  0
  153.0231  145.5253  159.7387 H   0  0  0  0  0  0  0  0  0  0  0  0
  151.4351  146.1941  160.1394 H   0  0  0  0  0  0  0  0  0  0  0  0
  152.5364  144.2864  161.7480 H   0  0  0  0  0  0  0  0  0  0  0  0
  150.8168  144.1997  161.3574 H   0  0  0  0  0  0  0  0  0  0  0  0
  146.7633  139.6301  152.4902 H   0  0  0  0  0  0  0  0  0  0  0  0
  147.9169  138.3278  152.6491 H   0  0  0  0  0  0  0  0  0  0  0  0
  145.8327  138.0872  151.1045 H   0  0  0  0  0  0  0  0  0  0  0  0
  144.8853  137.7957  152.5398 H   0  0  0  0  0  0  0  0  0  0  0  0
  147.3630  136.3646  151.9543 H   0  0  0  0  0  0  0  0  0  0  0  0
  1  2  1  0  0  0  0
  1 30  1  0  0  0  0
  1 31  1  0  0  0  0
  1 32  1  0  0  0  0
  2  3  1  0  0  0  0
  2  4  1  0  0  0  0
  3 33  1  0  0  0  0
  3 34  1  0  0  0  0
  3 35  1  0  0  0  0
  4  5  1  0  0  0  0
  4 36  1  0  0  0  0
  4 37  1  0  0  0  0
  5  6  1  0  0  0  0
  5 38  1  0  0  0  0
  5 39  1  0  0  0  0
  6 29  1  0  0  0  0
  6  7  1  0  0  0  0
  6 63  1  0  0  0  0
  7  8  1  0  0  0  0
  7 40  1  0  0  0  0
  7 41  1  0  0  0  0
  8  9  1  0  0  0  0
  8 42  1  0  0  0  0
  8 43  1  0  0  0  0
  9 10  1  0  0  0  0
  9 44  1  0  0  0  0
  9 45  1  0  0  0  0
 10 11  1  0  0  0  0
 10 28  1  0  0  0  0
 11 16  1  0  0  0  0
 11 12  2  0  0  0  0
 12 13  1  0  0  0  0
 13 14  2  0  0  0  0
 13 46  1  0  0  0  0
 14 15  1  0  0  0  0
 15 19  1  0  0  0  0
 15 16  2  0  0  0  0
 16 17  1  0  0  0  0
 17 18  2  0  0  0  0
 18 19  1  0  0  0  0
 18 47  1  0  0  0  0
 19 20  1  0  0  0  0
 20 21  1  0  0  0  0
 20 48  1  0  0  0  0
 20 49  1  0  0  0  0
 21 22  1  0  0  0  0
 21 23  1  0  0  0  0
 21 50  1  0  0  0  0
 22 51  1  0  0  0  0
 23 27  1  0  0  0  0
 23 24  1  0  0  0  0
 23 52  1  0  0  0  0
 24 25  1  0  0  0  0
 24 53  1  0  0  0  0
 24 54  1  0  0  0  0
 25 26  1  0  0  0  0
 25 55  1  0  0  0  0
 25 56  1  0  0  0  0
 26 27  1  0  0  0  0
 26 57  1  0  0  0  0
 26 58  1  0  0  0  0
 28 29  1  0  0  0  0
 28 59  1  0  0  0  0
 28 60  1  0  0  0  0
 29 61  1  0  0  0  0
 29 62  1  0  0  0  0
M  CHG  1   6   1
M  END
> <s_m_source_file>
AV-unprocessed.smi

> <i_m_source_file_index>
155

> <i_lp_mmshare_version>
43012

> <i_f3d_flags>
0

> <s_epik_input>
W0NIM11OKFtDSDNdKVtDSDJdW0NIMl1OMVtDSDJdW0NIMl1bQ0gyXU4oW0NIMl1bQ0gyXTEpYyhuW2NIXW4yKWMoYzIzKW5bY0hdbjNbQ0gyXVtDQEhdKFtPSF0pW0NAQEhdNFtDSDJdW0NIMl1bQ0gyXU80

> <s_epik_cmdline>
J2VwaWtfcHl0aG9uJywgJy1waCcsICc3LjAnLCAnLXRuJywgJzgnLCAnLW1hJywgJzIwMCcsICctbWV0YWxfYmluZGluZycsICctaW1hZScsICc8aW5maWxlLm1hZT4nLCAnLW9tYWUnLCAnPG91dGZpbGUubWFlPic=

> <r_epik_Ionization_Penalty>
0.0619615

> <r_epik_Ionization_Penalty_Charging>
0.0161638

> <r_epik_Ionization_Penalty_Neutral>
0.0457976

> <r_epik_State_Penalty>
0.403408

> <r_epik_Charging_Adjusted_Penalty>
0.419572

> <i_epik_Tot_Q>
1

> <i_epik_Tot_abs_Q>
1

> <r_epik_Metal_State_Penalty>
0.404222

> <b_epik_Metal_Only>
0

> <s_lp_Force_Field>
OPLS_2005

> <r_lp_Energy>
57.0558

> <b_lp_Chiralities_Consistent>
1

> <s_lp_Variant>
AV-unprocessed.smi:155-5

> <Gold.Version>
5.8.1

> <Gold.Id.Protein>
6NUR|6NUR_protein|mol2

> <Gold.PLP.Fitness>
49.1712

> <Gold.PLP.PLP>
-47.2889

> <Gold.PLP.part.hbond>
-1.2360

> <Gold.PLP.part.metal>
0.0000

> <Gold.PLP.part.buried>
-4.8876

> <Gold.PLP.part.nonpolar>
-40.8293

> <Gold.PLP.part.repulsive>
1.8254

> <Gold.PLP.ligand.clash>
0.0000

> <Gold.PLP.ligand.torsion>
2.2154

> <Gold.PLP.Chemscore.Hbond>
2.0000

> <Gold.PLP.Chemscore.CHOScore>
0.0000

> <Gold.PLP.Chemscore.Metal>
0.0000

> <Gold.Chemscore.Hbonds>
donor molecule, donor type, donor heavy atom, donor atom, acceptor molecule, acceptor atom, score
      L1  H     6    63       P1  7948  2.00

> <Gold.PLP.Chemscore.Internal.Correction>
0.3131

> <Gold.Rescore>
     Score         DG    S(hbond)    S(metal)    S(lipo)     H(rot)  DE(clash)    DE(int)     intcor
     12.35     -15.40       1.00        0.00     113.92       2.63       0.73       2.32       ----

> <Gold.Chemscore.Fitness>
12.3489

> <Gold.Chemscore.DG>
-15.3969

> <Gold.Chemscore.ZeroCoef>
-5.4800

> <Gold.Chemscore.Hbond>
0.9961

> <Gold.Chemscore.Metal>
0.0000

> <Gold.Chemscore.Lipo>
113.9216

> <Gold.Chemscore.Internal_Hbond>
0.0000

> <Gold.Chemscore.DEClash>
0.7261

> <Gold.Chemscore.DEInternal>
2.3219

> <Gold.Chemscore.Rot>
2.6324

> <Gold.Chemscore.Internal.Correction>
   9.000000E+99

> <Gold.Chemscore.Hbonds>
donor molecule, donor type, donor heavy atom, donor atom, acceptor molecule, acceptor atom, score
      L1  H     6    63       P1  7948  0.97

> <Gold.Chemscore.Hbond.Weighted>
-3.3270

> <Gold.Chemscore.Metal.Weighted>
-0.0000

> <Gold.Chemscore.Lipo.Weighted>
-13.3288

> <Gold.Chemscore.Internal_Hbond.Weighted>
0.0000

> <Gold.Chemscore.DEClash.Weighted>
0.7261

> <Gold.Chemscore.DEInternal.Weighted>
2.3219

> <Gold.Chemscore.Rot.Weighted>
6.7389

> <Gold.Chemscore.Internal.Correction.Weighted>
   9.000000E+99

> <Gold.Protein.RotatedTorsions>
[ 6907 6896 6895 6894 ] final   -9.45 input  -60.11 | X-H torsion
[ 7974 7965 7964 7962 ] final  -83.58 input  175.53 | X-H torsion
[ 8008 7997 7996 7995 ] final  178.57 input   59.86 | X-H torsion
[ 10167 10162 10161 10158 ] final  -66.43 input  -65.29 | X-H torsion
[ 10718 10713 10712 10709 ] final  102.60 input   66.30 | X-H torsion
[ 10763 10752 10751 10750 ] final   24.07 input  -60.55 | X-H torsion
[ 11005 11000 10999 10996 ] final  -82.50 input  -57.11 | X-H torsion

> <Gold.Protein.ActiveResidues>
 VAL166  LYS551  ARG553  GLY616  TRP617  ASP618  TYR619  PRO620  LYS621  CYS622 
 ASP623  PHE694  ASN695  SER759  ASP760  ASP761  ALA762  ILE779  LEU786  VAL792 
 PHE793  MET794  SER795  GLU796  ALA797  LYS798  CYS799  TRP800  GLU811  SER814 

> <Gold.Protein.RotatedAtoms>
  151.4175  135.0993  159.9603 H   0  0  0  0  0  0  0  0  0  0  0  0  # atno 6907 bound_to 6896
  152.4999  133.8738  159.7322 H   0  0  0  0  0  0  0  0  0  0  0  0  # atno 6908 bound_to 6896
  150.9247  133.6781  159.2852 H   0  0  0  0  0  0  0  0  0  0  0  0  # atno 6909 bound_to 6896
  145.5181  140.9534  143.1670 H   0  0  0  0  0  0  0  0  0  0  0  0  # atno 7974 bound_to 7965
  156.0532  140.1330  157.0027 H   0  0  0  0  0  0  0  0  0  0  0  0  # atno 8008 bound_to 7997
  154.4445  140.1006  156.6477 H   0  0  0  0  0  0  0  0  0  0  0  0  # atno 8009 bound_to 7997
  155.5492  140.3462  155.4467 H   0  0  0  0  0  0  0  0  0  0  0  0  # atno 8010 bound_to 7997
  140.5657  143.2314  151.6639 H   0  0  0  0  0  0  0  0  0  0  0  0  # atno 10167 bound_to 10162
  157.6797  131.0757  150.5429 H   0  0  0  0  0  0  0  0  0  0  0  0  # atno 10718 bound_to 10713
  153.0791  135.6613  154.0083 H   0  0  0  0  0  0  0  0  0  0  0  0  # atno 10763 bound_to 10752
  153.9709  135.2964  155.3429 H   0  0  0  0  0  0  0  0  0  0  0  0  # atno 10764 bound_to 10752
  154.7186  135.5174  153.8848 H   0  0  0  0  0  0  0  0  0  0  0  0  # atno 10765 bound_to 10752
  141.1663  133.7248  156.8581 H   0  0  0  0  0  0  0  0  0  0  0  0  # atno 11005 bound_to 11000
  144.7691  139.6777  143.7202 LP  0  0  0  0  0  0  0  0  0  0  0  0  # atno 17320 bound_to 7965
  146.2123  139.5489  142.9672 LP  0  0  0  0  0  0  0  0  0  0  0  0  # atno 17321 bound_to 7965
  139.5092  144.3586  152.0584 LP  0  0  0  0  0  0  0  0  0  0  0  0  # atno 17342 bound_to 10162
  140.2717  144.3957  150.6149 LP  0  0  0  0  0  0  0  0  0  0  0  0  # atno 17343 bound_to 10162
  156.5736  130.4286  149.6008 LP  0  0  0  0  0  0  0  0  0  0  0  0  # atno 17370 bound_to 10713
  156.2720  130.7022  151.1822 LP  0  0  0  0  0  0  0  0  0  0  0  0  # atno 17371 bound_to 10713
  140.1868  134.8994  157.3013 LP  0  0  0  0  0  0  0  0  0  0  0  0  # atno 17394 bound_to 11000
  140.2334  134.3881  155.7511 LP  0  0  0  0  0  0  0  0  0  0  0  0  # atno 17395 bound_to 11000

$$$$
