AV-unprocessed.smi:2973|AV-procd|sdf|11341|dock7
  -GOLD-   2272016253D 1   1.00000     0.00000
 Structure written by MMmdl.
 50 52  0  0  0  0  0  0  0  0  2 V2000
  149.9280  141.1939  154.2932 C   0  0  0  0  0  0  0  0  0  0  0  0
  149.9456  141.2812  155.8344 C   0  0  2  0  0  0  0  0  0  0  0  0
  151.2197  142.0026  156.3251 C   0  0  0  0  0  0  0  0  0  0  0  0
  151.2163  142.1869  157.8506 C   0  0  0  0  0  0  0  0  0  0  0  0
  151.0502  140.8458  158.5786 C   0  0  0  0  0  0  0  0  0  0  0  0
  149.7846  140.1085  158.1055 C   0  0  0  0  0  0  0  0  0  0  0  0
  149.7292  139.9194  156.5686 C   0  0  1  0  0  0  0  0  0  0  0  0
  148.4589  139.3213  156.1960 N   0  0  0  0  0  0  0  0  0  0  0  0
  148.5883  138.1177  155.6248 C   0  0  0  0  0  0  0  0  0  0  0  0
  147.6597  137.4248  155.2117 O   0  0  0  0  0  0  0  0  0  0  0  0
  149.8967  137.8131  155.5745 N   0  0  0  0  0  0  0  0  0  0  0  0
  150.4318  136.5885  154.9662 C   0  0  0  0  0  0  0  0  0  0  0  0
  149.5567  135.3567  155.2372 C   0  0  0  0  0  0  0  0  0  0  0  0
  149.6460  134.7379  156.2989 O   0  0  0  0  0  0  0  0  0  0  0  0
  148.7015  135.0159  154.2618 N   0  0  0  0  0  0  0  0  0  0  0  0
  147.7902  133.8787  154.3103 C   0  0  0  0  0  0  0  0  0  0  0  0
  147.7884  133.0937  152.9867 C   0  0  0  0  0  0  0  0  0  0  0  0
  146.7105  133.5749  152.0356 C   0  0  0  0  0  0  0  0  0  0  0  0
  145.7070  132.7128  151.5429 C   0  0  0  0  0  0  0  0  0  0  0  0
  144.7275  133.2258  150.6671 C   0  0  0  0  0  0  0  0  0  0  0  0
  144.7716  134.5878  150.3039 C   0  0  0  0  0  0  0  0  0  0  0  0
  145.7949  135.4042  150.8273 C   0  0  0  0  0  0  0  0  0  0  0  0
  146.7149  134.8757  151.6643 N   0  3  0  0  0  0  0  0  0  0  0  0
  150.6496  138.7931  156.0929 C   0  0  0  0  0  0  0  0  0  0  0  0
  151.8781  138.8129  156.1708 O   0  0  0  0  0  0  0  0  0  0  0  0
  150.7648  140.6093  153.9104 H   0  0  0  0  0  0  0  0  0  0  0  0
  149.9964  142.1867  153.8481 H   0  0  0  0  0  0  0  0  0  0  0  0
  149.0079  140.7400  153.9247 H   0  0  0  0  0  0  0  0  0  0  0  0
  149.1029  141.9187  156.1068 H   0  0  0  0  0  0  0  0  0  0  0  0
  152.1099  141.4504  156.0231 H   0  0  0  0  0  0  0  0  0  0  0  0
  151.2969  142.9805  155.8483 H   0  0  0  0  0  0  0  0  0  0  0  0
  152.1412  142.6689  158.1683 H   0  0  0  0  0  0  0  0  0  0  0  0
  150.4052  142.8582  158.1351 H   0  0  0  0  0  0  0  0  0  0  0  0
  151.9323  140.2268  158.4149 H   0  0  0  0  0  0  0  0  0  0  0  0
  150.9961  141.0149  159.6543 H   0  0  0  0  0  0  0  0  0  0  0  0
  149.7209  139.1437  158.6114 H   0  0  0  0  0  0  0  0  0  0  0  0
  148.9081  140.6714  158.4297 H   0  0  0  0  0  0  0  0  0  0  0  0
  147.5743  139.7838  156.3479 H   0  0  0  0  0  0  0  0  0  0  0  0
  150.5325  136.7112  153.8866 H   0  0  0  0  0  0  0  0  0  0  0  0
  151.4413  136.4066  155.3397 H   0  0  0  0  0  0  0  0  0  0  0  0
  148.6844  135.5829  153.4263 H   0  0  0  0  0  0  0  0  0  0  0  0
  148.0578  133.2248  155.1422 H   0  0  0  0  0  0  0  0  0  0  0  0
  146.7900  134.2573  154.5223 H   0  0  0  0  0  0  0  0  0  0  0  0
  148.7592  133.1827  152.4971 H   0  0  0  0  0  0  0  0  0  0  0  0
  147.6377  132.0300  153.1756 H   0  0  0  0  0  0  0  0  0  0  0  0
  145.6850  131.6721  151.8330 H   0  0  0  0  0  0  0  0  0  0  0  0
  143.9513  132.5820  150.2793 H   0  0  0  0  0  0  0  0  0  0  0  0
  144.0307  135.0001  149.6343 H   0  0  0  0  0  0  0  0  0  0  0  0
  145.9049  136.4554  150.6036 H   0  0  0  0  0  0  0  0  0  0  0  0
  147.4465  135.4853  152.0310 H   0  0  0  0  0  0  0  0  0  0  0  0
  1  2  1  0  0  0  0
  1 26  1  0  0  0  0
  1 27  1  0  0  0  0
  1 28  1  0  0  0  0
  2  7  1  0  0  0  0
  2  3  1  0  0  0  0
  2 29  1  0  0  0  0
  3  4  1  0  0  0  0
  3 30  1  0  0  0  0
  3 31  1  0  0  0  0
  4  5  1  0  0  0  0
  4 32  1  0  0  0  0
  4 33  1  0  0  0  0
  5  6  1  0  0  0  0
  5 34  1  0  0  0  0
  5 35  1  0  0  0  0
  6  7  1  0  0  0  0
  6 36  1  0  0  0  0
  6 37  1  0  0  0  0
  7 24  1  0  0  0  0
  7  8  1  0  0  0  0
  8  9  1  0  0  0  0
  8 38  1  0  0  0  0
  9 10  2  0  0  0  0
  9 11  1  0  0  0  0
 11 12  1  0  0  0  0
 11 24  1  0  0  0  0
 12 13  1  0  0  0  0
 12 39  1  0  0  0  0
 12 40  1  0  0  0  0
 13 14  2  0  0  0  0
 13 15  1  0  0  0  0
 15 16  1  0  0  0  0
 15 41  1  0  0  0  0
 16 17  1  0  0  0  0
 16 42  1  0  0  0  0
 16 43  1  0  0  0  0
 17 18  1  0  0  0  0
 17 44  1  0  0  0  0
 17 45  1  0  0  0  0
 18 23  1  0  0  0  0
 18 19  2  0  0  0  0
 19 20  1  0  0  0  0
 19 46  1  0  0  0  0
 20 21  2  0  0  0  0
 20 47  1  0  0  0  0
 21 22  1  0  0  0  0
 21 48  1  0  0  0  0
 22 23  2  0  0  0  0
 22 49  1  0  0  0  0
 23 50  1  0  0  0  0
 24 25  2  0  0  0  0
M  CHG  1  23   1
M  END
> <s_m_source_file>
AV-unprocessed.smi

> <i_m_source_file_index>
2973

> <i_lp_mmshare_version>
43012

> <i_f3d_flags>
0

> <s_epik_input>
W0NIMl0xW0NIMl1bQ0gyXVtDSDJdW0NAQEhdKFtDSDNdKVtDQF0xMltOSF1DKD1PKU4oQzI9TylbQ0gyXUMoPU8pW05IXVtDSDJdW0NIMl1jM1tjSF1bY0hdW2NIXVtjSF1uMw==

> <s_epik_cmdline>
J2VwaWtfcHl0aG9uJywgJy1waCcsICc3LjAnLCAnLXRuJywgJzgnLCAnLW1hJywgJzIwMCcsICctbWV0YWxfYmluZGluZycsICctaW1hZScsICc8aW5maWxlLm1hZT4nLCAnLW9tYWUnLCAnPG91dGZpbGUubWFlPic=

> <r_lp_tautomer_probability>
1

> <r_epik_Ionization_Penalty>
1.90043

> <r_epik_Ionization_Penalty_Charging>
1.90039

> <r_epik_Ionization_Penalty_Neutral>
4.65525e-05

> <r_epik_State_Penalty>
2.02162

> <r_epik_Charging_Adjusted_Penalty>
3.922

> <i_epik_Tot_Q>
1

> <i_epik_Tot_abs_Q>
1

> <r_epik_Metal_State_Penalty>
2.06631

> <b_epik_Metal_Only>
0

> <s_lp_Force_Field>
OPLS_2005

> <r_lp_Energy>
22.6609

> <b_lp_Chiralities_Consistent>
1

> <s_lp_Variant>
AV-unprocessed.smi:2973-5

> <Gold.Version>
5.8.1

> <Gold.Id.Protein>
6NUR|6NUR_protein|mol2

> <Gold.PLP.Fitness>
44.9822

> <Gold.PLP.PLP>
-37.8692

> <Gold.PLP.part.hbond>
-2.0000

> <Gold.PLP.part.metal>
0.0000

> <Gold.PLP.part.buried>
-4.6685

> <Gold.PLP.part.nonpolar>
-31.1238

> <Gold.PLP.part.repulsive>
0.1573

> <Gold.PLP.ligand.clash>
0.0000

> <Gold.PLP.ligand.torsion>
0.9556

> <Gold.PLP.Chemscore.Hbond>
3.0000

> <Gold.PLP.Chemscore.CHOScore>
0.0000

> <Gold.PLP.Chemscore.Metal>
0.0000

> <Gold.Chemscore.Hbonds>
donor molecule, donor type, donor heavy atom, donor atom, acceptor molecule, acceptor atom, score
      L1  H    15    41       P1  7948  1.00
      L1  H    23    50       P1  7948  1.92

> <Gold.PLP.Chemscore.Internal.Correction>
0.0243

> <Gold.Rescore>
     Score         DG    S(hbond)    S(metal)    S(lipo)     H(rot)  DE(clash)    DE(int)     intcor
     14.56     -17.18       1.87        0.00      89.51       1.96       0.25       2.37       ----

> <Gold.Chemscore.Fitness>
14.5625

> <Gold.Chemscore.DG>
-17.1816

> <Gold.Chemscore.ZeroCoef>
-5.4800

> <Gold.Chemscore.Hbond>
1.8732

> <Gold.Chemscore.Metal>
0.0000

> <Gold.Chemscore.Lipo>
89.5093

> <Gold.Chemscore.Internal_Hbond>
0.0000

> <Gold.Chemscore.DEClash>
0.2526

> <Gold.Chemscore.DEInternal>
2.3666

> <Gold.Chemscore.Rot>
1.9638

> <Gold.Chemscore.Internal.Correction>
   9.000000E+99

> <Gold.Chemscore.Hbonds>
donor molecule, donor type, donor heavy atom, donor atom, acceptor molecule, acceptor atom, score
      L1  H    15    41       P1  7948  0.97
      L1  H    23    50       P1  7948  0.92

> <Gold.Chemscore.Hbond.Weighted>
-6.2565

> <Gold.Chemscore.Metal.Weighted>
-0.0000

> <Gold.Chemscore.Lipo.Weighted>
-10.4726

> <Gold.Chemscore.Internal_Hbond.Weighted>
0.0000

> <Gold.Chemscore.DEClash.Weighted>
0.2526

> <Gold.Chemscore.DEInternal.Weighted>
2.3666

> <Gold.Chemscore.Rot.Weighted>
5.0274

> <Gold.Chemscore.Internal.Correction.Weighted>
   9.000000E+99

> <Gold.Protein.RotatedTorsions>
[ 6907 6896 6895 6894 ] final  -54.62 input  -60.11 | X-H torsion
[ 7974 7965 7964 7962 ] final   -3.52 input  175.53 | X-H torsion
[ 8008 7997 7996 7995 ] final   11.80 input   59.86 | X-H torsion
[ 10167 10162 10161 10158 ] final   92.81 input  -65.29 | X-H torsion
[ 10718 10713 10712 10709 ] final  -62.95 input   66.30 | X-H torsion
[ 10763 10752 10751 10750 ] final -126.60 input  -60.55 | X-H torsion
[ 11005 11000 10999 10996 ] final   16.97 input  -57.11 | X-H torsion

> <Gold.Protein.ActiveResidues>
 VAL166  LYS551  ARG553  GLY616  TRP617  ASP618  TYR619  PRO620  LYS621  CYS622 
 ASP623  PHE694  ASN695  SER759  ASP760  ASP761  ALA762  ILE779  LEU786  VAL792 
 PHE793  MET794  SER795  GLU796  ALA797  LYS798  CYS799  TRP800  GLU811  SER814 

> <Gold.Protein.RotatedAtoms>
  150.8322  134.7580  159.6862 H   0  0  0  0  0  0  0  0  0  0  0  0  # atno 6907 bound_to 6896
  152.4425  134.5559  159.9890 H   0  0  0  0  0  0  0  0  0  0  0  0  # atno 6908 bound_to 6896
  151.5718  133.3351  159.3027 H   0  0  0  0  0  0  0  0  0  0  0  0  # atno 6909 bound_to 6896
  146.2388  140.1733  142.8332 H   0  0  0  0  0  0  0  0  0  0  0  0  # atno 7974 bound_to 7965
  154.8119  140.2869  155.5847 H   0  0  0  0  0  0  0  0  0  0  0  0  # atno 8008 bound_to 7997
  156.2989  140.2566  156.2939 H   0  0  0  0  0  0  0  0  0  0  0  0  # atno 8009 bound_to 7997
  154.9437  140.0381  157.2099 H   0  0  0  0  0  0  0  0  0  0  0  0  # atno 8010 bound_to 7997
  139.8240  144.6718  150.9483 H   0  0  0  0  0  0  0  0  0  0  0  0  # atno 10167 bound_to 10162
  156.0822  130.4215  150.1207 H   0  0  0  0  0  0  0  0  0  0  0  0  # atno 10718 bound_to 10713
  154.8747  135.3990  154.3458 H   0  0  0  0  0  0  0  0  0  0  0  0  # atno 10763 bound_to 10752
  153.4250  135.7024  153.6273 H   0  0  0  0  0  0  0  0  0  0  0  0  # atno 10764 bound_to 10752
  153.4919  135.3746  155.2466 H   0  0  0  0  0  0  0  0  0  0  0  0  # atno 10765 bound_to 10752
  140.4412  134.1320  155.7690 H   0  0  0  0  0  0  0  0  0  0  0  0  # atno 11005 bound_to 11000
  144.9993  140.8618  143.5291 LP  0  0  0  0  0  0  0  0  0  0  0  0  # atno 17320 bound_to 7965
  145.1750  139.2383  143.5322 LP  0  0  0  0  0  0  0  0  0  0  0  0  # atno 17321 bound_to 7965
  140.7811  143.4064  151.1064 LP  0  0  0  0  0  0  0  0  0  0  0  0  # atno 17342 bound_to 10162
  139.7722  143.8477  152.3122 LP  0  0  0  0  0  0  0  0  0  0  0  0  # atno 17343 bound_to 10162
  156.9236  130.9691  151.3544 LP  0  0  0  0  0  0  0  0  0  0  0  0  # atno 17370 bound_to 10713
  157.5944  130.8466  149.8706 LP  0  0  0  0  0  0  0  0  0  0  0  0  # atno 17371 bound_to 10713
  141.1705  133.8618  157.1586 LP  0  0  0  0  0  0  0  0  0  0  0  0  # atno 17394 bound_to 11000
  140.0069  135.0005  157.0311 LP  0  0  0  0  0  0  0  0  0  0  0  0  # atno 17395 bound_to 11000

$$$$
