AV-unprocessed.smi:178|AV-procd|sdf|1447|dock4
  -GOLD-   2262019243D 1   1.00000     0.00000
 Structure written by MMmdl.
 50 52  0  0  0  0  0  0  0  0  1 V2000
  151.9508  143.6358  161.5293 C   0  0  0  0  0  0  0  0  0  0  0  0
  152.8274  143.5558  160.4188 O   0  0  0  0  0  0  0  0  0  0  0  0
  152.2836  142.7988  159.3513 C   0  0  0  0  0  0  0  0  0  0  0  0
  152.0273  141.3661  159.8444 C   0  0  0  0  0  0  0  0  0  0  0  0
  152.7086  140.3569  159.0304 N   0  0  0  0  0  0  0  0  0  0  0  0
  153.9157  139.7276  159.5597 C   0  0  0  0  0  0  0  0  0  0  0  0
  153.6203  138.7653  160.7177 C   0  0  0  0  0  0  0  0  0  0  0  0
  153.2474  137.4236  160.2472 C   0  0  0  0  0  0  0  0  0  0  0  0
  152.9544  136.3677  159.8765 N   0  0  0  0  0  0  0  0  0  0  0  0
  152.3087  140.1418  157.7435 C   0  0  0  0  0  0  0  0  0  0  0  0
  153.0189  139.2536  156.9972 N   0  0  0  0  0  0  0  0  0  0  0  0
  152.6841  138.9975  155.7307 C   0  0  0  0  0  0  0  0  0  0  0  0
  151.6846  139.5103  155.0145 N   0  0  0  0  0  0  0  0  0  0  0  0
  150.9599  140.4015  155.7476 C   0  0  0  0  0  0  0  0  0  0  0  0
  151.1949  140.7723  157.1050 C   0  0  0  0  0  0  0  0  0  0  0  0
  150.2267  141.6904  157.5013 N   0  0  0  0  0  0  0  0  0  0  0  0
  149.4779  141.8577  156.4473 C   0  0  0  0  0  0  0  0  0  0  0  0
  149.8547  141.1302  155.3435 N   0  0  0  0  0  0  0  0  0  0  0  0
  149.2089  141.1294  154.0402 C   0  0  0  0  0  0  0  0  0  0  0  0
  147.6915  140.8298  154.1020 C   0  0  1  0  0  0  0  0  0  0  0  0
  147.2520  140.4514  152.8075 O   0  0  0  0  0  0  0  0  0  0  0  0
  147.3648  139.6933  155.0599 C   0  0  0  0  0  0  0  0  0  0  0  0
  145.9203  139.9863  155.4415 C   0  0  0  0  0  0  0  0  0  0  0  0
  145.8793  141.4007  155.5541 O   0  0  0  0  0  0  0  0  0  0  0  0
  146.8280  141.9882  154.6647 C   0  0  2  0  0  0  0  0  0  0  0  0
  146.1061  142.8777  153.6370 C   0  0  0  0  0  0  0  0  0  0  0  0
  152.4112  144.2334  162.3163 H   0  0  0  0  0  0  0  0  0  0  0  0
  151.7400  142.6465  161.9373 H   0  0  0  0  0  0  0  0  0  0  0  0
  151.0075  144.1098  161.2549 H   0  0  0  0  0  0  0  0  0  0  0  0
  151.3547  143.2566  159.0084 H   0  0  0  0  0  0  0  0  0  0  0  0
  152.9774  142.7954  158.5101 H   0  0  0  0  0  0  0  0  0  0  0  0
  152.3759  141.2795  160.8740 H   0  0  0  0  0  0  0  0  0  0  0  0
  150.9564  141.1631  159.8811 H   0  0  0  0  0  0  0  0  0  0  0  0
  154.3987  139.1753  158.7530 H   0  0  0  0  0  0  0  0  0  0  0  0
  154.6423  140.4832  159.8566 H   0  0  0  0  0  0  0  0  0  0  0  0
  154.4873  138.6576  161.3690 H   0  0  0  0  0  0  0  0  0  0  0  0
  152.8009  139.1409  161.3300 H   0  0  0  0  0  0  0  0  0  0  0  0
  153.3071  138.2795  155.2181 H   0  0  0  0  0  0  0  0  0  0  0  0
  148.6294  142.5262  156.4461 H   0  0  0  0  0  0  0  0  0  0  0  0
  149.3859  142.0959  153.5660 H   0  0  0  0  0  0  0  0  0  0  0  0
  149.7125  140.3888  153.4172 H   0  0  0  0  0  0  0  0  0  0  0  0
  148.0102  140.2549  152.2789 H   0  0  0  0  0  0  0  0  0  0  0  0
  147.5019  138.7010  154.6283 H   0  0  0  0  0  0  0  0  0  0  0  0
  147.9889  139.7572  155.9526 H   0  0  0  0  0  0  0  0  0  0  0  0
  145.2383  139.6678  154.6519 H   0  0  0  0  0  0  0  0  0  0  0  0
  145.6213  139.5002  156.3702 H   0  0  0  0  0  0  0  0  0  0  0  0
  147.4529  142.6260  155.2906 H   0  0  0  0  0  0  0  0  0  0  0  0
  146.8093  143.3244  152.9341 H   0  0  0  0  0  0  0  0  0  0  0  0
  145.5772  143.6900  154.1361 H   0  0  0  0  0  0  0  0  0  0  0  0
  145.3699  142.3137  153.0639 H   0  0  0  0  0  0  0  0  0  0  0  0
  1  2  1  0  0  0  0
  1 27  1  0  0  0  0
  1 28  1  0  0  0  0
  1 29  1  0  0  0  0
  2  3  1  0  0  0  0
  3  4  1  0  0  0  0
  3 30  1  0  0  0  0
  3 31  1  0  0  0  0
  4  5  1  0  0  0  0
  4 32  1  0  0  0  0
  4 33  1  0  0  0  0
  5  6  1  0  0  0  0
  5 10  1  0  0  0  0
  6  7  1  0  0  0  0
  6 34  1  0  0  0  0
  6 35  1  0  0  0  0
  7  8  1  0  0  0  0
  7 36  1  0  0  0  0
  7 37  1  0  0  0  0
  8  9  3  0  0  0  0
 10 15  1  0  0  0  0
 10 11  2  0  0  0  0
 11 12  1  0  0  0  0
 12 13  2  0  0  0  0
 12 38  1  0  0  0  0
 13 14  1  0  0  0  0
 14 18  1  0  0  0  0
 14 15  2  0  0  0  0
 15 16  1  0  0  0  0
 16 17  2  0  0  0  0
 17 18  1  0  0  0  0
 17 39  1  0  0  0  0
 18 19  1  0  0  0  0
 19 20  1  0  0  0  0
 19 40  1  0  0  0  0
 19 41  1  0  0  0  0
 20 25  1  0  0  0  0
 20 21  1  0  0  0  0
 20 22  1  0  0  0  0
 21 42  1  0  0  0  0
 22 23  1  0  0  0  0
 22 43  1  0  0  0  0
 22 44  1  0  0  0  0
 23 24  1  0  0  0  0
 23 45  1  0  0  0  0
 23 46  1  0  0  0  0
 24 25  1  0  0  0  0
 25 26  1  0  0  0  0
 25 47  1  0  0  0  0
 26 48  1  0  0  0  0
 26 49  1  0  0  0  0
 26 50  1  0  0  0  0
M  END
> <s_m_source_file>
AV-unprocessed.smi

> <i_m_source_file_index>
178

> <i_lp_mmshare_version>
43012

> <i_f3d_flags>
0

> <s_epik_input>
W0NIM11PW0NIMl1bQ0gyXU4oW0NIMl1bQ0gyXUMjTiljKG5bY0hdbjEpYyhjMTIpbltjSF1uMltDSDJdW0NAQF0zKFtPSF0pW0NIMl1bQ0gyXU9bQ0BIXTNbQ0gzXQ==

> <s_epik_cmdline>
J2VwaWtfcHl0aG9uJywgJy1waCcsICc3LjAnLCAnLXRuJywgJzgnLCAnLW1hJywgJzIwMCcsICctbWV0YWxfYmluZGluZycsICctaW1hZScsICc8aW5maWxlLm1hZT4nLCAnLW9tYWUnLCAnPG91dGZpbGUubWFlPic=

> <r_lp_tautomer_probability>
1

> <r_epik_Ionization_Penalty>
0.000885317

> <r_epik_Ionization_Penalty_Charging>
0

> <r_epik_Ionization_Penalty_Neutral>
0.000885317

> <r_epik_State_Penalty>
0.00047273

> <r_epik_Charging_Adjusted_Penalty>
0.00047273

> <i_epik_Tot_Q>
0

> <i_epik_Tot_abs_Q>
0

> <r_epik_Metal_State_Penalty>
-0

> <b_epik_Metal_Only>
0

> <s_lp_Force_Field>
OPLS_2005

> <r_lp_Energy>
28.3017

> <b_lp_Chiralities_Consistent>
1

> <s_lp_Variant>
AV-unprocessed.smi:178-3

> <Gold.Version>
5.8.1

> <Gold.Id.Protein>
6NUR|6NUR_protein|mol2

> <Gold.PLP.Fitness>
54.7233

> <Gold.PLP.PLP>
-43.7776

> <Gold.PLP.part.hbond>
-4.0000

> <Gold.PLP.part.metal>
0.0000

> <Gold.PLP.part.buried>
0.7446

> <Gold.PLP.part.nonpolar>
-38.5983

> <Gold.PLP.part.repulsive>
0.1743

> <Gold.PLP.ligand.clash>
0.0000

> <Gold.PLP.ligand.torsion>
0.9328

> <Gold.PLP.Chemscore.Hbond>
3.3500

> <Gold.PLP.Chemscore.CHOScore>
0.8324

> <Gold.PLP.Chemscore.Metal>
0.0000

> <Gold.Chemscore.Hbonds>
donor molecule, donor type, donor heavy atom, donor atom, acceptor molecule, acceptor atom, score
      L1  H    21    42       P1  7957  1.00
      P1  H  6896  6909       L1     9  1.00
      P1  H  7989  7998       L1    13  0.40
      P1  H  7997  8008       L1    11  0.85
      L1  C    17    39       P1  8028  0.81

> <Gold.PLP.Chemscore.Internal.Correction>
0.2640

> <Gold.Rescore>
     Score         DG    S(hbond)    S(metal)    S(lipo)     H(rot)  DE(clash)    DE(int)     intcor
     10.75     -13.53       2.17        0.00      80.62       3.37       0.80       1.98       ----

> <Gold.Chemscore.Fitness>
10.7468

> <Gold.Chemscore.DG>
-13.5309

> <Gold.Chemscore.ZeroCoef>
-5.4800

> <Gold.Chemscore.Hbond>
2.1717

> <Gold.Chemscore.Metal>
0.0000

> <Gold.Chemscore.Lipo>
80.6231

> <Gold.Chemscore.Internal_Hbond>
0.0000

> <Gold.Chemscore.DEClash>
0.8023

> <Gold.Chemscore.DEInternal>
1.9818

> <Gold.Chemscore.Rot>
3.3732

> <Gold.Chemscore.Internal.Correction>
   9.000000E+99

> <Gold.Chemscore.Hbonds>
donor molecule, donor type, donor heavy atom, donor atom, acceptor molecule, acceptor atom, score
      L1  H    21    42       P1  7957  0.99
      P1  H  6896  6909       L1     9  0.99
      P1  H  7989  7998       L1    13  0.01
      P1  H  7997  8008       L1    11  0.06

> <Gold.Chemscore.Hbond.Weighted>
-7.2533

> <Gold.Chemscore.Metal.Weighted>
-0.0000

> <Gold.Chemscore.Lipo.Weighted>
-9.4329

> <Gold.Chemscore.Internal_Hbond.Weighted>
0.0000

> <Gold.Chemscore.DEClash.Weighted>
0.8023

> <Gold.Chemscore.DEInternal.Weighted>
1.9818

> <Gold.Chemscore.Rot.Weighted>
8.6354

> <Gold.Chemscore.Internal.Correction.Weighted>
   9.000000E+99

> <Gold.Protein.RotatedTorsions>
[ 6907 6896 6895 6894 ] final  152.79 input  -60.11 | X-H torsion
[ 7974 7965 7964 7962 ] final  -29.74 input  175.53 | X-H torsion
[ 8008 7997 7996 7995 ] final  -62.27 input   59.86 | X-H torsion
[ 10167 10162 10161 10158 ] final  -61.33 input  -65.29 | X-H torsion
[ 10718 10713 10712 10709 ] final   72.57 input   66.30 | X-H torsion
[ 10763 10752 10751 10750 ] final  -41.00 input  -60.55 | X-H torsion
[ 11005 11000 10999 10996 ] final  115.61 input  -57.11 | X-H torsion

> <Gold.Protein.ActiveResidues>
 VAL166  LYS551  ARG553  GLY616  TRP617  ASP618  TYR619  PRO620  LYS621  CYS622 
 ASP623  PHE694  ASN695  SER759  ASP760  ASP761  ALA762  ILE779  LEU786  VAL792 
 PHE793  MET794  SER795  GLU796  ALA797  LYS798  CYS799  TRP800  GLU811  SER814 

> <Gold.Protein.RotatedAtoms>
  152.0817  133.4156  159.4504 H   0  0  0  0  0  0  0  0  0  0  0  0  # atno 6907 bound_to 6896
  150.6862  134.2974  159.4701 H   0  0  0  0  0  0  0  0  0  0  0  0  # atno 6908 bound_to 6896
  152.0816  134.9466  160.0624 H   0  0  0  0  0  0  0  0  0  0  0  0  # atno 6909 bound_to 6896
  146.1194  140.5451  142.8742 H   0  0  0  0  0  0  0  0  0  0  0  0  # atno 7974 bound_to 7965
  154.4491  140.0999  156.6561 H   0  0  0  0  0  0  0  0  0  0  0  0  # atno 8008 bound_to 7997
  155.5344  140.3482  155.4415 H   0  0  0  0  0  0  0  0  0  0  0  0  # atno 8009 bound_to 7997
  156.0641  140.1333  156.9895 H   0  0  0  0  0  0  0  0  0  0  0  0  # atno 8010 bound_to 7997
  140.6013  143.2362  151.5923 H   0  0  0  0  0  0  0  0  0  0  0  0  # atno 10167 bound_to 10162
  157.6507  130.9585  150.0947 H   0  0  0  0  0  0  0  0  0  0  0  0  # atno 10718 bound_to 10713
  153.9553  135.6746  153.4744 H   0  0  0  0  0  0  0  0  0  0  0  0  # atno 10763 bound_to 10752
  153.0864  135.4896  154.8602 H   0  0  0  0  0  0  0  0  0  0  0  0  # atno 10764 bound_to 10752
  154.7303  135.3136  154.8862 H   0  0  0  0  0  0  0  0  0  0  0  0  # atno 10765 bound_to 10752
  139.9015  134.9586  156.7071 H   0  0  0  0  0  0  0  0  0  0  0  0  # atno 11005 bound_to 11000
  144.7583  140.5361  143.6753 LP  0  0  0  0  0  0  0  0  0  0  0  0  # atno 17320 bound_to 7965
  145.5498  139.1476  143.3400 LP  0  0  0  0  0  0  0  0  0  0  0  0  # atno 17321 bound_to 7965
  139.5293  144.2965  152.1109 LP  0  0  0  0  0  0  0  0  0  0  0  0  # atno 17342 bound_to 10162
  140.2146  144.4528  150.6370 LP  0  0  0  0  0  0  0  0  0  0  0  0  # atno 17343 bound_to 10162
  156.1886  130.3653  149.8939 LP  0  0  0  0  0  0  0  0  0  0  0  0  # atno 17370 bound_to 10713
  156.6873  130.8882  151.3584 LP  0  0  0  0  0  0  0  0  0  0  0  0  # atno 17371 bound_to 10713
  140.7104  133.9228  155.8081 LP  0  0  0  0  0  0  0  0  0  0  0  0  # atno 17394 bound_to 11000
  141.0304  134.0764  157.4020 LP  0  0  0  0  0  0  0  0  0  0  0  0  # atno 17395 bound_to 11000

$$$$
