AV-unprocessed.smi:94|AV-procd|sdf|853|dock6
  -GOLD-   2262017293D 1   1.00000     0.00000
 Structure written by MMmdl.
 53 55  0  0  0  0  0  0  0  0  1 V2000
  154.8726  138.8523  159.4654 C   0  0  0  0  0  0  0  0  0  0  0  0
  153.8387  139.5879  158.8276 O   0  0  0  0  0  0  0  0  0  0  0  0
  153.4255  140.7746  159.3995 C   0  0  0  0  0  0  0  0  0  0  0  0
  154.0065  141.3152  160.5755 C   0  0  0  0  0  0  0  0  0  0  0  0
  153.5502  142.5348  161.1094 C   0  0  0  0  0  0  0  0  0  0  0  0
  152.5100  143.2383  160.4748 C   0  0  0  0  0  0  0  0  0  0  0  0
  152.0154  144.5564  161.0334 C   0  0  0  0  0  0  0  0  0  0  0  0
  151.9296  142.7126  159.3068 C   0  0  0  0  0  0  0  0  0  0  0  0
  152.3696  141.4791  158.7683 C   0  0  0  0  0  0  0  0  0  0  0  0
  151.7228  140.9205  157.4996 C   0  0  2  0  0  0  0  0  0  0  0  0
  150.6457  141.8805  156.9672 C   0  0  0  0  0  0  0  0  0  0  0  0
  151.1547  139.5982  157.7354 N   0  0  0  0  0  0  0  0  0  0  0  0
  151.1588  138.5410  156.9086 C   0  0  0  0  0  0  0  0  0  0  0  0
  151.6537  138.5704  155.7829 O   0  0  0  0  0  0  0  0  0  0  0  0
  150.5121  137.2407  157.4236 C   0  0  0  0  0  0  0  0  0  0  0  0
  149.0927  137.3865  157.8309 N   0  0  0  0  0  0  0  0  0  0  0  0
  148.1710  137.9130  156.8917 C   0  0  0  0  0  0  0  0  0  0  0  0
  148.5335  138.2653  155.7686 O   0  0  0  0  0  0  0  0  0  0  0  0
  146.7870  137.9921  157.3440 C   0  0  0  0  0  0  0  0  0  0  0  0
  145.8482  138.5039  156.5301 F   0  0  0  0  0  0  0  0  0  0  0  0
  146.4310  137.5535  158.5684 C   0  0  0  0  0  0  0  0  0  0  0  0
  147.3306  137.0039  159.4606 N   0  0  0  0  0  0  0  0  0  0  0  0
  146.8307  136.5392  160.8106 C   0  0  1  0  0  0  0  0  0  0  0  0
  147.1267  135.0595  161.0965 C   0  0  0  0  0  0  0  0  0  0  0  0
  147.3847  135.0940  162.5872 C   0  0  0  0  0  0  0  0  0  0  0  0
  148.0652  136.4476  162.7617 C   0  0  0  0  0  0  0  0  0  0  0  0
  147.4311  137.3047  161.8153 O   0  0  0  0  0  0  0  0  0  0  0  0
  148.7011  136.9399  159.1168 C   0  0  0  0  0  0  0  0  0  0  0  0
  149.5357  136.4908  159.9030 O   0  0  0  0  0  0  0  0  0  0  0  0
  155.0753  137.9476  158.8922 H   0  0  0  0  0  0  0  0  0  0  0  0
  154.5818  138.5466  160.4713 H   0  0  0  0  0  0  0  0  0  0  0  0
  155.7995  139.4253  159.5137 H   0  0  0  0  0  0  0  0  0  0  0  0
  154.8100  140.8123  161.0914 H   0  0  0  0  0  0  0  0  0  0  0  0
  154.0067  142.9289  162.0054 H   0  0  0  0  0  0  0  0  0  0  0  0
  152.3540  145.3804  160.4048 H   0  0  0  0  0  0  0  0  0  0  0  0
  152.3855  144.7226  162.0458 H   0  0  0  0  0  0  0  0  0  0  0  0
  150.9250  144.5729  161.0633 H   0  0  0  0  0  0  0  0  0  0  0  0
  151.1412  143.2741  158.8266 H   0  0  0  0  0  0  0  0  0  0  0  0
  152.4989  140.8056  156.7410 H   0  0  0  0  0  0  0  0  0  0  0  0
  151.0693  142.8617  156.7510 H   0  0  0  0  0  0  0  0  0  0  0  0
  149.8441  142.0175  157.6938 H   0  0  0  0  0  0  0  0  0  0  0  0
  150.1991  141.5092  156.0445 H   0  0  0  0  0  0  0  0  0  0  0  0
  150.7211  139.4651  158.6371 H   0  0  0  0  0  0  0  0  0  0  0  0
  150.6130  136.4827  156.6456 H   0  0  0  0  0  0  0  0  0  0  0  0
  151.1211  136.8557  158.2428 H   0  0  0  0  0  0  0  0  0  0  0  0
  145.3917  137.6326  158.8523 H   0  0  0  0  0  0  0  0  0  0  0  0
  145.7601  136.7478  160.8244 H   0  0  0  0  0  0  0  0  0  0  0  0
  146.2819  134.4310  160.8144 H   0  0  0  0  0  0  0  0  0  0  0  0
  148.0111  134.7156  160.5616 H   0  0  0  0  0  0  0  0  0  0  0  0
  146.4394  135.0778  163.1312 H   0  0  0  0  0  0  0  0  0  0  0  0
  147.9957  134.2610  162.9360 H   0  0  0  0  0  0  0  0  0  0  0  0
  147.9693  136.8359  163.7756 H   0  0  0  0  0  0  0  0  0  0  0  0
  149.1281  136.3737  162.5309 H   0  0  0  0  0  0  0  0  0  0  0  0
  1  2  1  0  0  0  0
  1 30  1  0  0  0  0
  1 31  1  0  0  0  0
  1 32  1  0  0  0  0
  2  3  1  0  0  0  0
  3  9  1  0  0  0  0
  3  4  2  0  0  0  0
  4  5  1  0  0  0  0
  4 33  1  0  0  0  0
  5  6  2  0  0  0  0
  5 34  1  0  0  0  0
  6  7  1  0  0  0  0
  6  8  1  0  0  0  0
  7 35  1  0  0  0  0
  7 36  1  0  0  0  0
  7 37  1  0  0  0  0
  8  9  2  0  0  0  0
  8 38  1  0  0  0  0
  9 10  1  0  0  0  0
 10 11  1  0  0  0  0
 10 12  1  0  0  0  0
 10 39  1  0  0  0  0
 11 40  1  0  0  0  0
 11 41  1  0  0  0  0
 11 42  1  0  0  0  0
 12 13  1  0  0  0  0
 12 43  1  0  0  0  0
 13 14  2  0  0  0  0
 13 15  1  0  0  0  0
 15 16  1  0  0  0  0
 15 44  1  0  0  0  0
 15 45  1  0  0  0  0
 16 28  1  0  0  0  0
 16 17  1  0  0  0  0
 17 18  2  0  0  0  0
 17 19  1  0  0  0  0
 19 20  1  0  0  0  0
 19 21  2  0  0  0  0
 21 22  1  0  0  0  0
 21 46  1  0  0  0  0
 22 23  1  0  0  0  0
 22 28  1  0  0  0  0
 23 27  1  0  0  0  0
 23 24  1  0  0  0  0
 23 47  1  0  0  0  0
 24 25  1  0  0  0  0
 24 48  1  0  0  0  0
 24 49  1  0  0  0  0
 25 26  1  0  0  0  0
 25 50  1  0  0  0  0
 25 51  1  0  0  0  0
 26 27  1  0  0  0  0
 26 52  1  0  0  0  0
 26 53  1  0  0  0  0
 28 29  2  0  0  0  0
M  END
> <s_m_source_file>
AV-unprocessed.smi

> <i_m_source_file_index>
94

> <i_lp_mmshare_version>
43012

> <i_f3d_flags>
0

> <s_epik_input>
W0NIM11PYzFbY0hdW2NIXWMoW0NIM10pW2NIXWMxW0NASF0oW0NIM10pW05IXUMoPU8pW0NIMl1uMmMoPU8pYyhGKVtjSF1uKGMyPU8pW0NAQEhdM1tDSDJdW0NIMl1bQ0gyXU8z

> <s_epik_cmdline>
J2VwaWtfcHl0aG9uJywgJy1waCcsICc3LjAnLCAnLXRuJywgJzgnLCAnLW1hJywgJzIwMCcsICctbWV0YWxfYmluZGluZycsICctaW1hZScsICc8aW5maWxlLm1hZT4nLCAnLW9tYWUnLCAnPG91dGZpbGUubWFlPic=

> <r_lp_tautomer_probability>
1

> <r_epik_Ionization_Penalty>
3.37009e-08

> <r_epik_Ionization_Penalty_Charging>
3.59856e-09

> <r_epik_Ionization_Penalty_Neutral>
3.01024e-08

> <r_epik_State_Penalty>
-0

> <r_epik_Charging_Adjusted_Penalty>
3.59856e-09

> <i_epik_Tot_Q>
0

> <i_epik_Tot_abs_Q>
0

> <r_epik_Metal_State_Penalty>
-0

> <b_epik_Metal_Only>
0

> <s_epik_Chemistry_Notes>
This compound contains an acetal/aminal-like group ( X-CH(R)-Y where X, Y are N, S, or O) that may be acid/base labile, releasing an aldehyde.

> <s_lp_Force_Field>
OPLS_2005

> <r_lp_Energy>
25.2965

> <b_lp_Chiralities_Consistent>
1

> <s_lp_Variant>
AV-unprocessed.smi:94-3

> <Gold.Version>
5.8.1

> <Gold.Id.Protein>
6NUR|6NUR_protein|mol2

> <Gold.PLP.Fitness>
54.4698

> <Gold.PLP.PLP>
-46.0315

> <Gold.PLP.part.hbond>
-4.0000

> <Gold.PLP.part.metal>
0.0000

> <Gold.PLP.part.buried>
-7.1043

> <Gold.PLP.part.nonpolar>
-35.5701

> <Gold.PLP.part.repulsive>
0.0811

> <Gold.PLP.ligand.clash>
0.0000

> <Gold.PLP.ligand.torsion>
0.3938

> <Gold.PLP.Chemscore.Hbond>
3.0527

> <Gold.PLP.Chemscore.CHOScore>
0.0000

> <Gold.PLP.Chemscore.Metal>
0.0000

> <Gold.Chemscore.Hbonds>
donor molecule, donor type, donor heavy atom, donor atom, acceptor molecule, acceptor atom, score
      P1  H  6896  6908       L1    29  0.86
      P1  H  6931  6943       L1    27  0.17
      P1  H  6934  6947       L1    27  0.64
      P1  H  7997  8008       L1     2  1.00

> <Gold.PLP.Chemscore.Internal.Correction>
0.0677

> <Gold.Rescore>
     Score         DG    S(hbond)    S(metal)    S(lipo)     H(rot)  DE(clash)    DE(int)     intcor
     18.20     -22.25       2.61        0.00     119.90       2.34       0.00       4.05       ----

> <Gold.Chemscore.Fitness>
18.2035

> <Gold.Chemscore.DG>
-22.2516

> <Gold.Chemscore.ZeroCoef>
-5.4800

> <Gold.Chemscore.Hbond>
2.6127

> <Gold.Chemscore.Metal>
0.0000

> <Gold.Chemscore.Lipo>
119.8968

> <Gold.Chemscore.Internal_Hbond>
0.0000

> <Gold.Chemscore.DEClash>
0.0000

> <Gold.Chemscore.DEInternal>
4.0481

> <Gold.Chemscore.Rot>
2.3370

> <Gold.Chemscore.Internal.Correction>
   9.000000E+99

> <Gold.Chemscore.Hbonds>
donor molecule, donor type, donor heavy atom, donor atom, acceptor molecule, acceptor atom, score
      P1  H  6896  6908       L1    29  0.84
      P1  H  6934  6947       L1    27  0.11
      P1  H  7997  8008       L1     2  0.25

> <Gold.Chemscore.Hbond.Weighted>
-8.7263

> <Gold.Chemscore.Metal.Weighted>
-0.0000

> <Gold.Chemscore.Lipo.Weighted>
-14.0279

> <Gold.Chemscore.Internal_Hbond.Weighted>
0.0000

> <Gold.Chemscore.DEClash.Weighted>
0.0000

> <Gold.Chemscore.DEInternal.Weighted>
4.0481

> <Gold.Chemscore.Rot.Weighted>
5.9827

> <Gold.Chemscore.Internal.Correction.Weighted>
   9.000000E+99

> <Gold.Protein.RotatedTorsions>
[ 6907 6896 6895 6894 ] final -169.83 input  -60.11 | X-H torsion
[ 7974 7965 7964 7962 ] final -153.46 input  175.53 | X-H torsion
[ 8008 7997 7996 7995 ] final  -85.22 input   59.86 | X-H torsion
[ 10167 10162 10161 10158 ] final  121.02 input  -65.29 | X-H torsion
[ 10718 10713 10712 10709 ] final  -28.34 input   66.30 | X-H torsion
[ 10763 10752 10751 10750 ] final -165.90 input  -60.55 | X-H torsion
[ 11005 11000 10999 10996 ] final -164.86 input  -57.11 | X-H torsion

> <Gold.Protein.ActiveResidues>
 VAL166  LYS551  ARG553  GLY616  TRP617  ASP618  TYR619  PRO620  LYS621  CYS622 
 ASP623  PHE694  ASN695  SER759  ASP760  ASP761  ALA762  ILE779  LEU786  VAL792 
 PHE793  MET794  SER795  GLU796  ALA797  LYS798  CYS799  TRP800  GLU811  SER814 

> <Gold.Protein.RotatedAtoms>
  151.4980  133.3510  159.2863 H   0  0  0  0  0  0  0  0  0  0  0  0  # atno 6907 bound_to 6896
  150.8791  134.8182  159.7223 H   0  0  0  0  0  0  0  0  0  0  0  0  # atno 6908 bound_to 6896
  152.4751  134.4875  159.9737 H   0  0  0  0  0  0  0  0  0  0  0  0  # atno 6909 bound_to 6896
  144.7740  140.4523  143.5887 H   0  0  0  0  0  0  0  0  0  0  0  0  # atno 7974 bound_to 7965
  154.6383  140.0594  156.9815 H   0  0  0  0  0  0  0  0  0  0  0  0  # atno 8008 bound_to 7997
  155.1557  140.3278  155.4403 H   0  0  0  0  0  0  0  0  0  0  0  0  # atno 8009 bound_to 7997
  156.2518  140.1939  156.6666 H   0  0  0  0  0  0  0  0  0  0  0  0  # atno 8010 bound_to 7997
  139.5946  144.7037  151.3208 H   0  0  0  0  0  0  0  0  0  0  0  0  # atno 10167 bound_to 10162
  156.4265  130.4436  149.7147 H   0  0  0  0  0  0  0  0  0  0  0  0  # atno 10718 bound_to 10713
  154.6886  135.2967  154.9512 H   0  0  0  0  0  0  0  0  0  0  0  0  # atno 10763 bound_to 10752
  154.0482  135.6648  153.4801 H   0  0  0  0  0  0  0  0  0  0  0  0  # atno 10764 bound_to 10752
  153.0596  135.5123  154.7966 H   0  0  0  0  0  0  0  0  0  0  0  0  # atno 10765 bound_to 10752
  140.5822  134.5130  157.5180 H   0  0  0  0  0  0  0  0  0  0  0  0  # atno 11005 bound_to 11000
  145.6241  139.1528  143.3006 LP  0  0  0  0  0  0  0  0  0  0  0  0  # atno 17320 bound_to 7965
  146.1906  140.6349  142.9147 LP  0  0  0  0  0  0  0  0  0  0  0  0  # atno 17321 bound_to 7965
  140.7201  143.7159  150.7733 LP  0  0  0  0  0  0  0  0  0  0  0  0  # atno 17342 bound_to 10162
  140.0723  143.5049  152.2573 LP  0  0  0  0  0  0  0  0  0  0  0  0  # atno 17343 bound_to 10162
  156.4067  130.7702  151.2712 LP  0  0  0  0  0  0  0  0  0  0  0  0  # atno 17370 bound_to 10713
  157.7508  131.0223  150.3788 LP  0  0  0  0  0  0  0  0  0  0  0  0  # atno 17371 bound_to 10713
  139.9312  134.7960  156.0926 LP  0  0  0  0  0  0  0  0  0  0  0  0  # atno 17394 bound_to 11000
  141.0989  133.6685  156.2708 LP  0  0  0  0  0  0  0  0  0  0  0  0  # atno 17395 bound_to 11000

$$$$
