#       Name:                AV-unprocessed.smi:1921
#       Creating user name   scv26
#       Creation time:       Fri Mar 27 09:53:06 2020


#       File generated by GOLD software.
#

@<TRIPOS>MOLECULE
AV-unprocessed.smi:1921
    30    31     1
SMALL
NO_CHARGES


@<TRIPOS>ATOM
      1 ****        -2.1613  -1.8413  -1.5036 C.3            1 S1                 0.0000
      2 ****        -1.6280  -0.8157  -0.4940 C.3            1 S1                 0.0000
      3 ****        -0.1843  -0.6942  -0.6703 N.am           1 S1                 0.0000
      4 ****         0.5477   0.3873  -0.3648 C.2            1 S1                 0.0000
      5 ****         0.0714   1.4219   0.1033 O.2            1 S1                 0.0000
      6 ****         1.8489   0.1854  -0.6372 N.am           1 S1                 0.0000
      7 ****         2.9342   1.0816  -0.4516 C.2            1 S1                 0.0000
      8 ****         2.8181   2.3125   0.0604 N.2            1 S1                 0.0000
      9 ****         4.0486   2.9710   0.1271 C.2            1 S1                 0.0000
     10 ****         5.0986   2.2210  -0.3410 C.2            1 S1                 0.0000
     11 ****         4.5811   0.6481  -0.8867 S.3            1 S1                 0.0000
     12 ****        -2.0349  -1.1882   0.9221 C.3            1 S1                 0.0000
     13 ****        -3.4446  -0.9539   1.4119 C.3            1 S1                 0.0000
     14 ****        -2.3046  -0.1324   1.9684 C.3            1 S1                 0.0000
     15 ****        -3.2469  -1.9229  -1.4438 H              1 S1                 0.0000
     16 ****        -1.7438  -2.8323  -1.3219 H              1 S1                 0.0000
     17 ****        -1.9109  -1.5553  -2.5258 H              1 S1                 0.0000
     18 ****        -2.0883   0.1445  -0.7360 H              1 S1                 0.0000
     19 ****         0.2936  -1.4978  -1.0509 H              1 S1                 0.0000
     20 ****         2.0920  -0.7149  -1.0232 H              1 S1                 0.0000
     21 ****         4.0858   3.9751   0.5229 H              1 S1                 0.0000
     22 ****         6.1409   2.4974  -0.3972 H              1 S1                 0.0000
     23 ****        -1.5637  -2.1014   1.2816 H              1 S1                 0.0000
     24 ****        -4.1399  -0.4542   0.7401 H              1 S1                 0.0000
     25 ****        -3.8833  -1.7105   2.0592 H              1 S1                 0.0000
     26 ****        -1.9810  -0.3413   2.9858 H              1 S1                 0.0000
     27 ****        -2.2463   0.9114   1.6662 H              1 S1                 0.0000
     28 ****        -0.9116   1.4867   0.2751 LP             1 S1                 0.0000
     29 ****         0.6676   2.1972   0.3116 LP             1 S1                 0.0000
     30 ****         1.9526   2.7138   0.3600 LP             1 S1                 0.0000
@<TRIPOS>BOND
    1    1    2 1     
    2    1   15 1     
    3    1   16 1     
    4    1   17 1     
    5    2    3 1     
    6    2   12 1     
    7    2   18 1     
    8    3    4 am    
    9    3   19 1     
   10    4    5 2     
   11    4    6 am    
   12    6    7 1     
   13    6   20 1     
   14    7   11 1     
   15    7    8 2     
   16    8    9 1     
   17    9   10 2     
   18    9   21 1     
   19   10   11 1     
   20   10   22 1     
   21   12   14 1     
   22   12   13 1     
   23   12   23 1     
   24   13   14 1     
   25   13   24 1     
   26   13   25 1     
   27   14   26 1     
   28   14   27 1     
   29    5   28 1     
   30    5   29 1     
   31    8   30 1     
@<TRIPOS>SUBSTRUCTURE
      1 S1             1
@<TRIPOS>SET
LONE_PAIRS      STATIC     ATOMS    <user>   **** ""
3 28 29 30
DONOR_HYDROGENS      STATIC     ATOMS    <user>   **** ""
2 19 20
ATOM$BLUE        STATIC     ATOMS    COLORGROUP SYSTEM
3 28 29 30
ATOM$RED        STATIC     ATOMS    COLORGROUP SYSTEM
2 19 20
