#       Name:                AV-unprocessed.smi:2682
#       Creating user name   scv26
#       Creation time:       Fri Mar 27 14:40:23 2020


#       File generated by GOLD software.
#

@<TRIPOS>MOLECULE
AV-unprocessed.smi:2682
    38    38     1
SMALL
NO_CHARGES


@<TRIPOS>ATOM
      1 ****        -3.7233   2.8831   0.4759 C.3            1 S1                 0.0000
      2 ****        -3.3005   1.5325   0.4095 O.3            1 S1                 0.0000
      3 ****        -3.5281   0.9566  -0.8659 C.3            1 S1                 0.0000
      4 ****        -3.0306  -0.4916  -0.8594 C.3            1 S1                 0.0000
      5 ****        -1.6132  -0.4938  -0.8920 O.3            1 S1                 0.0000
      6 ****        -1.0687  -1.8040  -0.9080 C.3            1 S1                 0.0000
      7 ****         0.4560  -1.7098  -0.9008 C.2            1 S1                 0.0000
      8 ****         1.0975  -2.3284  -1.7487 O.2            1 S1                 0.0000
      9 ****         0.9823  -0.9324   0.0668 N.am           1 S1                 0.0000
     10 ****         2.3272  -0.6624   0.3740 C.2            1 S1                 0.0000
     11 ****         3.3958  -1.3256  -0.1422 C.2            1 S1                 0.0000
     12 ****         4.7476  -0.9817   0.2454 C.2            1 S1                 0.0000
     13 ****         4.9218   0.0059   1.1359 C.2            1 S1                 0.0000
     14 ****         3.8252   0.6845   1.6730 N.am           1 S1                 0.0000
     15 ****         2.5356   0.4193   1.3556 C.2            1 S1                 0.0000
     16 ****         1.6256   1.0634   1.8767 O.2            1 S1                 0.0000
     17 ****        -3.5280   3.2797   1.4720 H              1 S1                 0.0000
     18 ****        -4.7930   2.9716   0.2819 H              1 S1                 0.0000
     19 ****        -3.1844   3.5002  -0.2442 H              1 S1                 0.0000
     20 ****        -4.5979   0.9725  -1.0796 H              1 S1                 0.0000
     21 ****        -3.0282   1.5280  -1.6497 H              1 S1                 0.0000
     22 ****        -3.4033  -1.0204   0.0191 H              1 S1                 0.0000
     23 ****        -3.4115  -1.0097  -1.7406 H              1 S1                 0.0000
     24 ****        -1.3951  -2.3667  -0.0320 H              1 S1                 0.0000
     25 ****        -1.4038  -2.3429  -1.7960 H              1 S1                 0.0000
     26 ****         0.3162  -0.4472   0.6511 H              1 S1                 0.0000
     27 ****         3.2816  -2.1357  -0.8430 H              1 S1                 0.0000
     28 ****         5.5936  -1.5078  -0.1717 H              1 S1                 0.0000
     29 ****         5.8820   0.3443   1.4964 H              1 S1                 0.0000
     30 ****         4.0207   1.4174   2.3397 H              1 S1                 0.0000
     31 ****        -3.8029   1.0048   1.0944 LP             1 S1                 0.0000
     32 ****        -2.3216   1.4923   0.6099 LP             1 S1                 0.0000
     33 ****        -1.2736  -0.0159  -0.0818 LP             1 S1                 0.0000
     34 ****        -1.3112  -0.0116  -1.7143 LP             1 S1                 0.0000
     35 ****         0.6204  -2.8833  -2.4302 LP             1 S1                 0.0000
     36 ****         2.0961  -2.2763  -1.7565 LP             1 S1                 0.0000
     37 ****         0.6742   0.8653   1.6410 LP             1 S1                 0.0000
     38 ****         1.8376   1.7849   2.5359 LP             1 S1                 0.0000
@<TRIPOS>BOND
    1    1    2 1     
    2    1   17 1     
    3    1   18 1     
    4    1   19 1     
    5    2    3 1     
    6    3    4 1     
    7    3   20 1     
    8    3   21 1     
    9    4    5 1     
   10    4   22 1     
   11    4   23 1     
   12    5    6 1     
   13    6    7 1     
   14    6   24 1     
   15    6   25 1     
   16    7    8 2     
   17    7    9 am    
   18    9   26 1     
   19    9   10 1     
   20   10   11 2     
   21   10   15 1     
   22   11   12 1     
   23   11   27 1     
   24   12   13 2     
   25   12   28 1     
   26   13   14 1     
   27   13   29 1     
   28   14   15 am    
   29   14   30 1     
   30   15   16 2     
   31    2   31 1     
   32    2   32 1     
   33    5   33 1     
   34    5   34 1     
   35    8   35 1     
   36    8   36 1     
   37   16   37 1     
   38   16   38 1     
@<TRIPOS>SUBSTRUCTURE
      1 S1             1
@<TRIPOS>SET
LONE_PAIRS      STATIC     ATOMS    <user>   **** ""
8 31 32 33 34 35 36 37 38
DONOR_HYDROGENS      STATIC     ATOMS    <user>   **** ""
2 26 30
ATOM$BLUE        STATIC     ATOMS    COLORGROUP SYSTEM
8 31 32 33 34 35 36 37 38
ATOM$RED        STATIC     ATOMS    COLORGROUP SYSTEM
2 26 30
