AV-unprocessed.smi:1830|AV-procd|sdf|7444|dock7
  -GOLD-   22720 9133D 1   1.00000     0.00000
 Structure written by MMmdl.
 54 57  0  0  0  0  0  0  0  0  3 V2000
  152.8160  136.9645  156.0683 O   0  0  0  0  0  0  0  0  0  0  0  0
  151.6497  136.8817  155.6844 C   0  0  0  0  0  0  0  0  0  0  0  0
  150.9018  137.9434  155.3569 N   0  0  0  0  0  0  0  0  0  0  0  0
  151.3590  139.3263  155.4251 C   0  0  0  0  0  0  0  0  0  0  0  0
  151.3772  139.8278  156.8762 C   0  0  2  0  0  0  0  0  0  0  0  0
  150.9800  141.3204  156.9721 C   0  0  0  0  0  0  0  0  0  0  0  0
  151.1302  141.7500  158.3740 N   0  3  2  0  0  0  0  0  0  0  0  0
  150.7889  143.1400  158.7213 C   0  0  0  0  0  0  0  0  0  0  0  0
  151.5849  143.4292  160.0099 C   0  0  0  0  0  0  0  0  0  0  0  0
  152.4959  142.2059  160.2229 C   0  0  0  0  0  0  0  0  0  0  0  0
  152.4971  141.5344  158.8532 C   0  0  1  0  0  0  0  0  0  0  0  0
  152.8239  140.0375  158.7771 C   0  0  0  0  0  0  0  0  0  0  0  0
  152.6923  139.6356  157.4119 O   0  0  0  0  0  0  0  0  0  0  0  0
  150.9699  135.7344  155.5213 N   0  0  0  0  0  0  0  0  0  0  0  0
  151.4469  134.4049  155.7022 C   0  0  0  0  0  0  0  0  0  0  0  0
  152.4802  134.1185  156.6314 C   0  0  0  0  0  0  0  0  0  0  0  0
  152.8876  132.7881  156.8431 C   0  0  0  0  0  0  0  0  0  0  0  0
  152.2441  131.7595  156.1348 C   0  0  0  0  0  0  0  0  0  0  0  0
  151.2554  132.0618  155.2684 N   0  3  0  0  0  0  0  0  0  0  0  0
  150.8281  133.3232  155.0096 C   0  0  0  0  0  0  0  0  0  0  0  0
  149.7865  133.4847  154.0671 N   0  0  0  0  0  0  0  0  0  0  0  0
  148.4290  133.7810  154.5098 C   0  0  0  0  0  0  0  0  0  0  0  0
  147.5518  133.5383  153.2849 C   0  0  0  0  0  0  0  0  0  0  0  0
  148.2519  132.3639  152.6080 C   0  0  0  0  0  0  0  0  0  0  0  0
  149.7360  132.6071  152.9018 C   0  0  0  0  0  0  0  0  0  0  0  0
  149.9511  137.7900  155.0542 H   0  0  0  0  0  0  0  0  0  0  0  0
  152.3544  139.3972  154.9845 H   0  0  0  0  0  0  0  0  0  0  0  0
  150.7002  139.9624  154.8314 H   0  0  0  0  0  0  0  0  0  0  0  0
  150.6725  139.2346  157.4624 H   0  0  0  0  0  0  0  0  0  0  0  0
  151.6120  141.9317  156.3256 H   0  0  0  0  0  0  0  0  0  0  0  0
  149.9474  141.4655  156.6523 H   0  0  0  0  0  0  0  0  0  0  0  0
  151.1078  143.8137  157.9242 H   0  0  0  0  0  0  0  0  0  0  0  0
  149.7135  143.2574  158.8566 H   0  0  0  0  0  0  0  0  0  0  0  0
  152.1758  144.3381  159.8902 H   0  0  0  0  0  0  0  0  0  0  0  0
  150.9258  143.5771  160.8660 H   0  0  0  0  0  0  0  0  0  0  0  0
  153.4966  142.4768  160.5610 H   0  0  0  0  0  0  0  0  0  0  0  0
  152.0563  141.5417  160.9685 H   0  0  0  0  0  0  0  0  0  0  0  0
  153.1852  142.0814  158.2041 H   0  0  0  0  0  0  0  0  0  0  0  0
  153.8449  139.8508  159.1100 H   0  0  0  0  0  0  0  0  0  0  0  0
  152.1595  139.4492  159.4124 H   0  0  0  0  0  0  0  0  0  0  0  0
  150.0489  135.8154  155.1160 H   0  0  0  0  0  0  0  0  0  0  0  0
  152.9541  134.9001  157.2058 H   0  0  0  0  0  0  0  0  0  0  0  0
  153.6733  132.5603  157.5486 H   0  0  0  0  0  0  0  0  0  0  0  0
  152.4835  130.7109  156.2373 H   0  0  0  0  0  0  0  0  0  0  0  0
  148.1328  133.1035  155.3120 H   0  0  0  0  0  0  0  0  0  0  0  0
  148.3419  134.8052  154.8735 H   0  0  0  0  0  0  0  0  0  0  0  0
  146.5125  133.3284  153.5401 H   0  0  0  0  0  0  0  0  0  0  0  0
  147.5721  134.4115  152.6309 H   0  0  0  0  0  0  0  0  0  0  0  0
  147.9333  131.4307  153.0744 H   0  0  0  0  0  0  0  0  0  0  0  0
  148.0365  132.2966  151.5412 H   0  0  0  0  0  0  0  0  0  0  0  0
  150.2022  133.1177  152.0588 H   0  0  0  0  0  0  0  0  0  0  0  0
  150.2668  131.6688  153.0678 H   0  0  0  0  0  0  0  0  0  0  0  0
  150.5331  141.1603  158.9361 H   0  0  0  0  0  0  0  0  0  0  0  0
  150.8062  131.2924  154.7717 H   0  0  0  0  0  0  0  0  0  0  0  0
  1  2  2  0  0  0  0
  2  3  1  0  0  0  0
  2 14  1  0  0  0  0
  3  4  1  0  0  0  0
  3 26  1  0  0  0  0
  4  5  1  0  0  0  0
  4 27  1  0  0  0  0
  4 28  1  0  0  0  0
  5 13  1  0  0  0  0
  5  6  1  0  0  0  0
  5 29  1  0  0  0  0
  6  7  1  0  0  0  0
  6 30  1  0  0  0  0
  6 31  1  0  0  0  0
  7 11  1  0  0  0  0
  7  8  1  0  0  0  0
  7 53  1  0  0  0  0
  8  9  1  0  0  0  0
  8 32  1  0  0  0  0
  8 33  1  0  0  0  0
  9 10  1  0  0  0  0
  9 34  1  0  0  0  0
  9 35  1  0  0  0  0
 10 11  1  0  0  0  0
 10 36  1  0  0  0  0
 10 37  1  0  0  0  0
 11 12  1  0  0  0  0
 11 38  1  0  0  0  0
 12 13  1  0  0  0  0
 12 39  1  0  0  0  0
 12 40  1  0  0  0  0
 14 15  1  0  0  0  0
 14 41  1  0  0  0  0
 15 20  1  0  0  0  0
 15 16  2  0  0  0  0
 16 17  1  0  0  0  0
 16 42  1  0  0  0  0
 17 18  2  0  0  0  0
 17 43  1  0  0  0  0
 18 19  1  0  0  0  0
 18 44  1  0  0  0  0
 19 20  2  0  0  0  0
 19 54  1  0  0  0  0
 20 21  1  0  0  0  0
 21 25  1  0  0  0  0
 21 22  1  0  0  0  0
 22 23  1  0  0  0  0
 22 45  1  0  0  0  0
 22 46  1  0  0  0  0
 23 24  1  0  0  0  0
 23 47  1  0  0  0  0
 23 48  1  0  0  0  0
 24 25  1  0  0  0  0
 24 49  1  0  0  0  0
 24 50  1  0  0  0  0
 25 51  1  0  0  0  0
 25 52  1  0  0  0  0
M  CHG  1   7   1
M  CHG  1  19   1
M  END
> <s_m_source_file>
AV-unprocessed.smi

> <i_m_source_file_index>
1830

> <i_lp_mmshare_version>
43012

> <i_f3d_flags>
0

> <s_epik_input>
W0NIMl0xW0NIMl1bQ0gyXVtDQEhdKE4xMilbQ0gyXU9bQ0BASF0oW0NIMl0yKVtDSDJdW05IXUMoPU8pW05IXWMzW2NIXVtjSF1bY0hdbmMzTjRbQ0gyXVtDSDJdW0NIMl1bQ0gyXTQ=

> <s_epik_cmdline>
J2VwaWtfcHl0aG9uJywgJy1waCcsICc3LjAnLCAnLXRuJywgJzgnLCAnLW1hJywgJzIwMCcsICctbWV0YWxfYmluZGluZycsICctaW1hZScsICc8aW5maWxlLm1hZT4nLCAnLW9tYWUnLCAnPG91dGZpbGUubWFlPic=

> <r_lp_tautomer_probability>
0.999994

> <r_epik_Ionization_Penalty>
1.29113

> <r_epik_Ionization_Penalty_Charging>
1.29111

> <r_epik_Ionization_Penalty_Neutral>
1.88144e-05

> <r_epik_State_Penalty>
1.32676

> <r_epik_Charging_Adjusted_Penalty>
2.61787

> <i_epik_Tot_Q>
2

> <i_epik_Tot_abs_Q>
2

> <r_epik_Metal_State_Penalty>
1.40425

> <b_epik_Metal_Only>
0

> <s_lp_Force_Field>
OPLS_2005

> <r_lp_Energy>
74.3766

> <b_lp_Chiralities_Consistent>
1

> <s_lp_Variant>
AV-unprocessed.smi:1830-13

> <Gold.Version>
5.8.1

> <Gold.Id.Protein>
6NUR|6NUR_protein|mol2

> <Gold.PLP.Fitness>
43.4865

> <Gold.PLP.PLP>
-39.6278

> <Gold.PLP.part.hbond>
-2.0000

> <Gold.PLP.part.metal>
0.0000

> <Gold.PLP.part.buried>
-6.0447

> <Gold.PLP.part.nonpolar>
-31.8060

> <Gold.PLP.part.repulsive>
0.3898

> <Gold.PLP.ligand.clash>
0.0000

> <Gold.PLP.ligand.torsion>
1.2709

> <Gold.PLP.Chemscore.Hbond>
2.0000

> <Gold.PLP.Chemscore.CHOScore>
0.0000

> <Gold.PLP.Chemscore.Metal>
0.0000

> <Gold.Chemscore.Hbonds>
donor molecule, donor type, donor heavy atom, donor atom, acceptor molecule, acceptor atom, score
      P1  H  7997  8009       L1    13  1.00
      P1  H 10752 10765       L1     1  0.26

> <Gold.PLP.Chemscore.Internal.Correction>
0.4006

> <Gold.Rescore>
     Score         DG    S(hbond)    S(metal)    S(lipo)     H(rot)  DE(clash)    DE(int)     intcor
     15.84     -18.68       1.57        0.00      99.15       1.43       0.13       2.71       ----

> <Gold.Chemscore.Fitness>
15.8424

> <Gold.Chemscore.DG>
-18.6842

> <Gold.Chemscore.ZeroCoef>
-5.4800

> <Gold.Chemscore.Hbond>
1.5745

> <Gold.Chemscore.Metal>
0.0000

> <Gold.Chemscore.Lipo>
99.1504

> <Gold.Chemscore.Internal_Hbond>
0.0000

> <Gold.Chemscore.DEClash>
0.1305

> <Gold.Chemscore.DEInternal>
2.7113

> <Gold.Chemscore.Rot>
1.4278

> <Gold.Chemscore.Internal.Correction>
   9.000000E+99

> <Gold.Chemscore.Hbonds>
donor molecule, donor type, donor heavy atom, donor atom, acceptor molecule, acceptor atom, score
      P1  H  7997  8009       L1    13  0.40
      P1  H 10752 10765       L1     1  0.01

> <Gold.Chemscore.Hbond.Weighted>
-5.2587

> <Gold.Chemscore.Metal.Weighted>
-0.0000

> <Gold.Chemscore.Lipo.Weighted>
-11.6006

> <Gold.Chemscore.Internal_Hbond.Weighted>
0.0000

> <Gold.Chemscore.DEClash.Weighted>
0.1305

> <Gold.Chemscore.DEInternal.Weighted>
2.7113

> <Gold.Chemscore.Rot.Weighted>
3.6551

> <Gold.Chemscore.Internal.Correction.Weighted>
   9.000000E+99

> <Gold.Protein.RotatedTorsions>
[ 6907 6896 6895 6894 ] final  121.08 input  -60.11 | X-H torsion
[ 7974 7965 7964 7962 ] final -146.36 input  175.53 | X-H torsion
[ 8008 7997 7996 7995 ] final  178.91 input   59.86 | X-H torsion
[ 10167 10162 10161 10158 ] final   76.27 input  -65.29 | X-H torsion
[ 10718 10713 10712 10709 ] final  152.44 input   66.30 | X-H torsion
[ 10763 10752 10751 10750 ] final -151.38 input  -60.55 | X-H torsion
[ 11005 11000 10999 10996 ] final  153.58 input  -57.11 | X-H torsion

> <Gold.Protein.ActiveResidues>
 VAL166  LYS551  ARG553  GLY616  TRP617  ASP618  TYR619  PRO620  LYS621  CYS622 
 ASP623  PHE694  ASN695  SER759  ASP760  ASP761  ALA762  ILE779  LEU786  VAL792 
 PHE793  MET794  SER795  GLU796  ALA797  LYS798  CYS799  TRP800  GLU811  SER814 

> <Gold.Protein.RotatedAtoms>
  152.4349  133.7343  159.6604 H   0  0  0  0  0  0  0  0  0  0  0  0  # atno 6907 bound_to 6896
  150.8232  133.8207  159.3136 H   0  0  0  0  0  0  0  0  0  0  0  0  # atno 6908 bound_to 6896
  151.5883  135.1057  160.0085 H   0  0  0  0  0  0  0  0  0  0  0  0  # atno 6909 bound_to 6896
  144.8165  140.5466  143.5607 H   0  0  0  0  0  0  0  0  0  0  0  0  # atno 7974 bound_to 7965
  156.0494  140.1322  157.0067 H   0  0  0  0  0  0  0  0  0  0  0  0  # atno 8008 bound_to 7997
  154.4427  140.1014  156.6424 H   0  0  0  0  0  0  0  0  0  0  0  0  # atno 8009 bound_to 7997
  155.5547  140.3463  155.4479 H   0  0  0  0  0  0  0  0  0  0  0  0  # atno 8010 bound_to 7997
  139.9941  144.5735  150.7793 H   0  0  0  0  0  0  0  0  0  0  0  0  # atno 10167 bound_to 10162
  157.2578  131.0792  151.1686 H   0  0  0  0  0  0  0  0  0  0  0  0  # atno 10718 bound_to 10713
  154.8061  135.3261  154.7426 H   0  0  0  0  0  0  0  0  0  0  0  0  # atno 10763 bound_to 10752
  153.8084  135.6897  153.4849 H   0  0  0  0  0  0  0  0  0  0  0  0  # atno 10764 bound_to 10752
  153.1808  135.4587  154.9970 H   0  0  0  0  0  0  0  0  0  0  0  0  # atno 10765 bound_to 10752
  140.1410  134.8738  157.2331 H   0  0  0  0  0  0  0  0  0  0  0  0  # atno 11005 bound_to 11000
  145.5203  139.1477  143.3556 LP  0  0  0  0  0  0  0  0  0  0  0  0  # atno 17320 bound_to 7965
  146.2468  140.5344  142.8910 LP  0  0  0  0  0  0  0  0  0  0  0  0  # atno 17321 bound_to 7965
  140.7444  143.2860  151.3464 LP  0  0  0  0  0  0  0  0  0  0  0  0  # atno 17342 bound_to 10162
  139.6319  144.0705  152.2483 LP  0  0  0  0  0  0  0  0  0  0  0  0  # atno 17343 bound_to 10162
  157.3209  130.6936  149.6268 LP  0  0  0  0  0  0  0  0  0  0  0  0  # atno 17370 bound_to 10713
  155.9664  130.4336  150.5012 LP  0  0  0  0  0  0  0  0  0  0  0  0  # atno 17371 bound_to 10713
  140.2722  134.3447  155.7370 LP  0  0  0  0  0  0  0  0  0  0  0  0  # atno 17394 bound_to 11000
  141.2186  133.7429  156.9239 LP  0  0  0  0  0  0  0  0  0  0  0  0  # atno 17395 bound_to 11000

$$$$
