AV-unprocessed.smi:1621|AV-procd|sdf|6496|dock1
  -GOLD-   22720 7153D 1   1.00000     0.00000
 Structure written by MMmdl.
 40 41  0  0  0  0  0  0  0  0  3 V2000
  144.9077  138.7515  155.3540 C   0  0  0  0  0  0  0  0  0  0  0  0
  145.5792  139.7524  154.4973 N   0  3  2  0  0  0  0  0  0  0  0  0
  146.6155  139.1455  153.6254 C   0  0  0  0  0  0  0  0  0  0  0  0
  147.2213  140.1909  152.6699 C   0  0  0  0  0  0  0  0  0  0  0  0
  147.7896  141.4105  153.4217 C   0  0  2  0  0  0  0  0  0  0  0  0
  149.1197  141.0813  154.1399 C   0  0  0  0  0  0  0  0  0  0  0  0
  149.4406  142.0467  155.1880 N   0  0  0  0  0  0  0  0  0  0  0  0
  150.3455  141.8684  156.1616 C   0  0  0  0  0  0  0  0  0  0  0  0
  151.0162  140.8438  156.2825 O   0  0  0  0  0  0  0  0  0  0  0  0
  150.4143  142.9463  156.9628 N   0  0  0  0  0  0  0  0  0  0  0  0
  151.2224  143.1636  158.1137 C   0  0  0  0  0  0  0  0  0  0  0  0
  151.2867  144.4823  158.6170 C   0  0  0  0  0  0  0  0  0  0  0  0
  152.0606  144.7551  159.7633 C   0  0  0  0  0  0  0  0  0  0  0  0
  152.7297  143.7553  160.3757 N   0  3  0  0  0  0  0  0  0  0  0  0
  152.6930  142.4785  159.9388 C   0  0  0  0  0  0  0  0  0  0  0  0
  151.9350  142.1447  158.7979 C   0  0  0  0  0  0  0  0  0  0  0  0
  146.6885  141.9772  154.3437 C   0  0  0  0  0  0  0  0  0  0  0  0
  146.1047  140.9010  155.2758 C   0  0  0  0  0  0  0  0  0  0  0  0
  145.6132  138.2961  156.0502 H   0  0  0  0  0  0  0  0  0  0  0  0
  144.4653  137.9605  154.7477 H   0  0  0  0  0  0  0  0  0  0  0  0
  144.1065  139.2137  155.9316 H   0  0  0  0  0  0  0  0  0  0  0  0
  147.3935  138.6914  154.2405 H   0  0  0  0  0  0  0  0  0  0  0  0
  146.1696  138.3395  153.0413 H   0  0  0  0  0  0  0  0  0  0  0  0
  147.9948  139.7306  152.0542 H   0  0  0  0  0  0  0  0  0  0  0  0
  146.4475  140.5266  151.9780 H   0  0  0  0  0  0  0  0  0  0  0  0
  148.0177  142.1737  152.6761 H   0  0  0  0  0  0  0  0  0  0  0  0
  149.1144  140.0655  154.5364 H   0  0  0  0  0  0  0  0  0  0  0  0
  149.9365  141.1114  153.4181 H   0  0  0  0  0  0  0  0  0  0  0  0
  148.9374  142.9220  155.1628 H   0  0  0  0  0  0  0  0  0  0  0  0
  149.8347  143.7279  156.6937 H   0  0  0  0  0  0  0  0  0  0  0  0
  150.7502  145.2834  158.1290 H   0  0  0  0  0  0  0  0  0  0  0  0
  152.1617  145.7353  160.2061 H   0  0  0  0  0  0  0  0  0  0  0  0
  153.2635  141.7642  160.5144 H   0  0  0  0  0  0  0  0  0  0  0  0
  151.9123  141.1133  158.4835 H   0  0  0  0  0  0  0  0  0  0  0  0
  147.0580  142.8205  154.9264 H   0  0  0  0  0  0  0  0  0  0  0  0
  145.8836  142.3797  153.7270 H   0  0  0  0  0  0  0  0  0  0  0  0
  145.2992  141.3358  155.8690 H   0  0  0  0  0  0  0  0  0  0  0  0
  146.8601  140.5527  155.9811 H   0  0  0  0  0  0  0  0  0  0  0  0
  144.8692  140.1246  153.8825 H   0  0  0  0  0  0  0  0  0  0  0  0
  153.2828  143.9728  161.2053 H   0  0  0  0  0  0  0  0  0  0  0  0
  1  2  1  0  0  0  0
  1 19  1  0  0  0  0
  1 20  1  0  0  0  0
  1 21  1  0  0  0  0
  2 18  1  0  0  0  0
  2  3  1  0  0  0  0
  2 39  1  0  0  0  0
  3  4  1  0  0  0  0
  3 22  1  0  0  0  0
  3 23  1  0  0  0  0
  4  5  1  0  0  0  0
  4 24  1  0  0  0  0
  4 25  1  0  0  0  0
  5  6  1  0  0  0  0
  5 17  1  0  0  0  0
  5 26  1  0  0  0  0
  6  7  1  0  0  0  0
  6 27  1  0  0  0  0
  6 28  1  0  0  0  0
  7  8  1  0  0  0  0
  7 29  1  0  0  0  0
  8  9  2  0  0  0  0
  8 10  1  0  0  0  0
 10 11  1  0  0  0  0
 10 30  1  0  0  0  0
 11 16  1  0  0  0  0
 11 12  2  0  0  0  0
 12 13  1  0  0  0  0
 12 31  1  0  0  0  0
 13 14  2  0  0  0  0
 13 32  1  0  0  0  0
 14 15  1  0  0  0  0
 14 40  1  0  0  0  0
 15 16  2  0  0  0  0
 15 33  1  0  0  0  0
 16 34  1  0  0  0  0
 17 18  1  0  0  0  0
 17 35  1  0  0  0  0
 17 36  1  0  0  0  0
 18 37  1  0  0  0  0
 18 38  1  0  0  0  0
M  CHG  1   2   1
M  CHG  1  14   1
M  END
> <s_m_source_file>
AV-unprocessed.smi

> <i_m_source_file_index>
1621

> <i_lp_mmshare_version>
43012

> <i_f3d_flags>
0

> <s_epik_input>
W0NIM11OMVtDSDJdW0NIMl1bQ0hdKFtDSDJdW0NIMl0xKVtDSDJdW05IXUMoPU8pW05IXWMyW2NIXVtjSF1uW2NIXVtjSF0y

> <s_epik_cmdline>
J2VwaWtfcHl0aG9uJywgJy1waCcsICc3LjAnLCAnLXRuJywgJzgnLCAnLW1hJywgJzIwMCcsICctbWV0YWxfYmluZGluZycsICctaW1hZScsICc8aW5maWxlLm1hZT4nLCAnLW9tYWUnLCAnPG91dGZpbGUubWFlPic=

> <r_epik_Ionization_Penalty>
1.07214

> <r_epik_Ionization_Penalty_Charging>
1.07212

> <r_epik_Ionization_Penalty_Neutral>
1.90829e-05

> <r_epik_State_Penalty>
1.12559

> <r_epik_Charging_Adjusted_Penalty>
2.1977

> <i_epik_Tot_Q>
2

> <i_epik_Tot_abs_Q>
2

> <r_epik_Metal_State_Penalty>
1.21693

> <b_epik_Metal_Only>
0

> <s_lp_Force_Field>
OPLS_2005

> <r_lp_Energy>
29.8708

> <b_lp_Chiralities_Consistent>
1

> <s_lp_Variant>
AV-unprocessed.smi:1621-4

> <Gold.Version>
5.8.1

> <Gold.Id.Protein>
6NUR|6NUR_protein|mol2

> <Gold.PLP.Fitness>
48.1112

> <Gold.PLP.PLP>
-36.7918

> <Gold.PLP.part.hbond>
-3.0000

> <Gold.PLP.part.metal>
0.0000

> <Gold.PLP.part.buried>
-3.3773

> <Gold.PLP.part.nonpolar>
-30.7208

> <Gold.PLP.part.repulsive>
0.2588

> <Gold.PLP.ligand.clash>
0.0000

> <Gold.PLP.ligand.torsion>
0.3447

> <Gold.PLP.Chemscore.Hbond>
4.0000

> <Gold.PLP.Chemscore.CHOScore>
0.0000

> <Gold.PLP.Chemscore.Metal>
0.0000

> <Gold.Chemscore.Hbonds>
donor molecule, donor type, donor heavy atom, donor atom, acceptor molecule, acceptor atom, score
      L1  H     2    39       P1 10175  2.00
      L1  H     7    29       P1  8028  0.96
      L1  H    10    30       P1  8028  1.00

> <Gold.PLP.Chemscore.Internal.Correction>
0.0089

> <Gold.Rescore>
     Score         DG    S(hbond)    S(metal)    S(lipo)     H(rot)  DE(clash)    DE(int)     intcor
     21.49     -23.12       2.93        0.00      94.90       1.26       0.38       1.26       ----

> <Gold.Chemscore.Fitness>
21.4881

> <Gold.Chemscore.DG>
-23.1236

> <Gold.Chemscore.ZeroCoef>
-5.4800

> <Gold.Chemscore.Hbond>
2.9274

> <Gold.Chemscore.Metal>
0.0000

> <Gold.Chemscore.Lipo>
94.8978

> <Gold.Chemscore.Internal_Hbond>
0.0000

> <Gold.Chemscore.DEClash>
0.3751

> <Gold.Chemscore.DEInternal>
1.2604

> <Gold.Chemscore.Rot>
1.2644

> <Gold.Chemscore.Internal.Correction>
   9.000000E+99

> <Gold.Chemscore.Hbonds>
donor molecule, donor type, donor heavy atom, donor atom, acceptor molecule, acceptor atom, score
      L1  H     2    39       P1 10175  1.00
      L1  H     7    29       P1  8028  0.92
      L1  H    10    30       P1  8028  0.99

> <Gold.Chemscore.Hbond.Weighted>
-9.7774

> <Gold.Chemscore.Metal.Weighted>
-0.0000

> <Gold.Chemscore.Lipo.Weighted>
-11.1030

> <Gold.Chemscore.Internal_Hbond.Weighted>
0.0000

> <Gold.Chemscore.DEClash.Weighted>
0.3751

> <Gold.Chemscore.DEInternal.Weighted>
1.2604

> <Gold.Chemscore.Rot.Weighted>
3.2368

> <Gold.Chemscore.Internal.Correction.Weighted>
   9.000000E+99

> <Gold.Protein.RotatedTorsions>
[ 6907 6896 6895 6894 ] final   26.09 input  -60.11 | X-H torsion
[ 7974 7965 7964 7962 ] final -129.31 input  175.53 | X-H torsion
[ 8008 7997 7996 7995 ] final -158.99 input   59.86 | X-H torsion
[ 10167 10162 10161 10158 ] final -160.37 input  -65.29 | X-H torsion
[ 10718 10713 10712 10709 ] final -114.91 input   66.30 | X-H torsion
[ 10763 10752 10751 10750 ] final  -14.75 input  -60.55 | X-H torsion
[ 11005 11000 10999 10996 ] final  130.50 input  -57.11 | X-H torsion

> <Gold.Protein.ActiveResidues>
 VAL166  LYS551  ARG553  GLY616  TRP617  ASP618  TYR619  PRO620  LYS621  CYS622 
 ASP623  PHE694  ASN695  SER759  ASP760  ASP761  ALA762  ILE779  LEU786  VAL792 
 PHE793  MET794  SER795  GLU796  ALA797  LYS798  CYS799  TRP800  GLU811  SER814 

> <Gold.Protein.RotatedAtoms>
  151.9823  135.0022  160.0557 H   0  0  0  0  0  0  0  0  0  0  0  0  # atno 6907 bound_to 6896
  152.1685  133.4623  159.4905 H   0  0  0  0  0  0  0  0  0  0  0  0  # atno 6908 bound_to 6896
  150.6898  134.1901  159.4325 H   0  0  0  0  0  0  0  0  0  0  0  0  # atno 6909 bound_to 6896
  144.9584  140.7421  143.4744 H   0  0  0  0  0  0  0  0  0  0  0  0  # atno 7974 bound_to 7965
  155.7558  140.0832  157.2179 H   0  0  0  0  0  0  0  0  0  0  0  0  # atno 8008 bound_to 7997
  154.4008  140.1552  156.2833 H   0  0  0  0  0  0  0  0  0  0  0  0  # atno 8009 bound_to 7997
  155.8886  140.3416  155.5942 H   0  0  0  0  0  0  0  0  0  0  0  0  # atno 8010 bound_to 7997
  139.6544  144.0025  152.2184 H   0  0  0  0  0  0  0  0  0  0  0  0  # atno 10167 bound_to 10162
  156.0860  130.6052  150.8836 H   0  0  0  0  0  0  0  0  0  0  0  0  # atno 10718 bound_to 10713
  153.5330  135.7014  153.5674 H   0  0  0  0  0  0  0  0  0  0  0  0  # atno 10763 bound_to 10752
  153.3673  135.3954  155.1762 H   0  0  0  0  0  0  0  0  0  0  0  0  # atno 10764 bound_to 10752
  154.8682  135.3803  154.4828 H   0  0  0  0  0  0  0  0  0  0  0  0  # atno 10765 bound_to 10752
  139.9676  134.9586  156.9303 H   0  0  0  0  0  0  0  0  0  0  0  0  # atno 11005 bound_to 11000
  145.2737  139.1945  143.4828 LP  0  0  0  0  0  0  0  0  0  0  0  0  # atno 17320 bound_to 7965
  146.3345  140.2687  142.8605 LP  0  0  0  0  0  0  0  0  0  0  0  0  # atno 17321 bound_to 7965
  139.9747  144.6469  150.7956 LP  0  0  0  0  0  0  0  0  0  0  0  0  # atno 17342 bound_to 10162
  140.7552  143.3043  151.3002 LP  0  0  0  0  0  0  0  0  0  0  0  0  # atno 17343 bound_to 10162
  157.5995  131.0942  150.8984 LP  0  0  0  0  0  0  0  0  0  0  0  0  # atno 17370 bound_to 10713
  156.9144  130.5292  149.5280 LP  0  0  0  0  0  0  0  0  0  0  0  0  # atno 17371 bound_to 10713
  140.5363  134.0763  155.7329 LP  0  0  0  0  0  0  0  0  0  0  0  0  # atno 17394 bound_to 11000
  141.1355  133.9228  157.2442 LP  0  0  0  0  0  0  0  0  0  0  0  0  # atno 17395 bound_to 11000

$$$$
