#       Name:                AV-unprocessed.smi:1701
#       Creating user name   scv26
#       Creation time:       Fri Mar 27 08:00:32 2020


#       File generated by GOLD software.
#

@<TRIPOS>MOLECULE
AV-unprocessed.smi:1701
    57    59     1
SMALL
NO_CHARGES


@<TRIPOS>ATOM
      1 ****        -5.9431  -0.5438   2.2593 C.3            1 S1                 0.0000
      2 ****        -5.8552  -1.5624   1.1128 C.3            1 S1                 0.0000
      3 ****        -5.2911  -1.0044  -0.1165 N.pl3          1 S1                 0.0000
      4 ****        -6.1855  -0.4044  -1.1096 C.3            1 S1                 0.0000
      5 ****        -6.3567   1.1118  -0.9321 C.3            1 S1                 0.0000
      6 ****        -3.8880  -0.8732  -0.2603 C.ar           1 S1                 0.0000
      7 ****        -2.9571  -1.2743   0.7305 C.ar           1 S1                 0.0000
      8 ****        -1.5750  -1.1057   0.5096 C.ar           1 S1                 0.0000
      9 ****        -1.1186  -0.5465  -0.7014 C.ar           1 S1                 0.0000
     10 ****         0.2842  -0.3848  -0.8660 N.am           1 S1                 0.0000
     11 ****         0.9828  -0.1295  -1.9904 C.2            1 S1                 0.0000
     12 ****         0.4928  -0.0246  -3.1120 O.2            1 S1                 0.0000
     13 ****         2.3096  -0.0170  -1.8009 N.am           1 S1                 0.0000
     14 ****         3.3440   0.2545  -2.8006 C.3            1 S1                 0.0000
     15 ****         3.4282   1.7285  -3.2305 C.3            1 S1                 0.0000
     16 ****         4.9334   2.0284  -3.3792 C.3            1 S1                 0.0000
     17 ****         5.6475   0.7536  -3.1379 N.4            1 S1                 1.0000
     18 ****         6.0088   0.0649  -4.4075 C.3            1 S1                 0.0000
     19 ****         6.5333  -1.3562  -4.1647 C.3            1 S1                 0.0000
     20 ****         5.4874  -2.1839  -3.4141 C.3            1 S1                 0.0000
     21 ****         5.1523  -1.4999  -2.0842 C.3            1 S1                 0.0000
     22 ****         4.7468  -0.0176  -2.2472 C.3            1 S1                 0.0000
     23 ****        -2.0837  -0.1557  -1.6590 C.ar           1 S1                 0.0000
     24 ****        -3.3978  -0.3343  -1.4040 N.pl3          1 S1                 1.0000
     25 ****        -6.3271  -1.0193   3.1618 H              1 S1                 0.0000
     26 ****        -6.6155   0.2779   2.0173 H              1 S1                 0.0000
     27 ****        -4.9682  -0.1197   2.5001 H              1 S1                 0.0000
     28 ****        -5.2856  -2.4382   1.4223 H              1 S1                 0.0000
     29 ****        -6.8566  -1.9374   0.8995 H              1 S1                 0.0000
     30 ****        -5.8307  -0.6273  -2.1162 H              1 S1                 0.0000
     31 ****        -7.1633  -0.8813  -1.0378 H              1 S1                 0.0000
     32 ****        -7.0112   1.5147  -1.7052 H              1 S1                 0.0000
     33 ****        -5.4034   1.6356  -1.0041 H              1 S1                 0.0000
     34 ****        -6.8023   1.3585   0.0303 H              1 S1                 0.0000
     35 ****        -3.2751  -1.7053   1.6673 H              1 S1                 0.0000
     36 ****        -0.8712  -1.4086   1.2709 H              1 S1                 0.0000
     37 ****         0.8332  -0.5111  -0.0286 H              1 S1                 0.0000
     38 ****         2.6381  -0.1558  -0.8557 H              1 S1                 0.0000
     39 ****         3.1818  -0.3710  -3.6800 H              1 S1                 0.0000
     40 ****         2.8898   1.8944  -4.1642 H              1 S1                 0.0000
     41 ****         2.9923   2.3894  -2.4796 H              1 S1                 0.0000
     42 ****         5.1771   2.4686  -4.3474 H              1 S1                 0.0000
     43 ****         5.2408   2.7426  -2.6143 H              1 S1                 0.0000
     44 ****         5.1407   0.0206  -5.0672 H              1 S1                 0.0000
     45 ****         6.7645   0.6542  -4.9284 H              1 S1                 0.0000
     46 ****         6.7709  -1.8324  -5.1165 H              1 S1                 0.0000
     47 ****         7.4622  -1.3195  -3.5939 H              1 S1                 0.0000
     48 ****         4.5882  -2.2929  -4.0213 H              1 S1                 0.0000
     49 ****         5.8640  -3.1911  -3.2332 H              1 S1                 0.0000
     50 ****         4.3681  -2.0516  -1.5649 H              1 S1                 0.0000
     51 ****         6.0309  -1.5512  -1.4396 H              1 S1                 0.0000
     52 ****         4.8120   0.4488  -1.2619 H              1 S1                 0.0000
     53 ****        -1.8696   0.3024  -2.6124 H              1 S1                 0.0000
     54 ****         6.5089   0.9404  -2.6443 H              1 S1                 0.0000
     55 ****        -4.0646  -0.0397  -2.1175 H              1 S1                 0.0000
     56 ****        -0.4935  -0.1302  -3.2386 LP             1 S1                 0.0000
     57 ****         1.0802   0.1664  -3.8984 LP             1 S1                 0.0000
@<TRIPOS>BOND
    1    1    2 1     
    2    1   25 1     
    3    1   26 1     
    4    1   27 1     
    5    2    3 1     
    6    2   28 1     
    7    2   29 1     
    8    3    4 1     
    9    3    6 1     
   10    4    5 1     
   11    4   30 1     
   12    4   31 1     
   13    5   32 1     
   14    5   33 1     
   15    5   34 1     
   16    6   24 ar    
   17    6    7 ar    
   18    7    8 ar    
   19    7   35 1     
   20    8    9 ar    
   21    8   36 1     
   22    9   10 1     
   23    9   23 ar    
   24   10   11 am    
   25   10   37 1     
   26   11   12 2     
   27   11   13 am    
   28   13   14 1     
   29   13   38 1     
   30   14   22 1     
   31   14   15 1     
   32   14   39 1     
   33   15   16 1     
   34   15   40 1     
   35   15   41 1     
   36   16   17 1     
   37   16   42 1     
   38   16   43 1     
   39   17   22 1     
   40   17   18 1     
   41   17   54 1     
   42   18   19 1     
   43   18   44 1     
   44   18   45 1     
   45   19   20 1     
   46   19   46 1     
   47   19   47 1     
   48   20   21 1     
   49   20   48 1     
   50   20   49 1     
   51   21   22 1     
   52   21   50 1     
   53   21   51 1     
   54   22   52 1     
   55   23   24 ar    
   56   23   53 1     
   57   24   55 1     
   58   12   56 1     
   59   12   57 1     
@<TRIPOS>SUBSTRUCTURE
      1 S1             1
@<TRIPOS>SET
LONE_PAIRS      STATIC     ATOMS    <user>   **** ""
2 56 57
DONOR_HYDROGENS      STATIC     ATOMS    <user>   **** ""
4 37 38 54 55
ATOM$BLUE        STATIC     ATOMS    COLORGROUP SYSTEM
2 56 57
ATOM$RED        STATIC     ATOMS    COLORGROUP SYSTEM
4 37 38 54 55
