AV-unprocessed.smi:1177|AV-procd|sdf|4954|dock8
  -GOLD-   22720 3543D 1   1.00000     0.00000
 Structure written by MMmdl.
 30 31  0  0  0  0  0  0  0  0  1 V2000
  150.3811  140.9105  156.8545 O   0  0  0  0  0  0  0  0  0  0  0  0
  149.9999  142.0274  156.5036 C   0  0  0  0  0  0  0  0  0  0  0  0
  150.6273  143.1683  156.8219 N   0  0  0  0  0  0  0  0  0  0  0  0
  151.8414  143.2591  157.6250 C   0  0  0  0  0  0  0  0  0  0  0  0
  151.6595  144.2027  158.8257 C   0  0  0  0  0  0  0  0  0  0  0  0
  152.2499  143.6299  160.1005 C   0  0  0  0  0  0  0  0  0  0  0  0
  152.9085  142.3817  160.0920 C   0  0  0  0  0  0  0  0  0  0  0  0
  153.4337  141.8920  161.3036 C   0  0  0  0  0  0  0  0  0  0  0  0
  153.2793  142.6641  162.4712 C   0  0  0  0  0  0  0  0  0  0  0  0
  152.6029  143.8966  162.3747 C   0  0  0  0  0  0  0  0  0  0  0  0
  152.0961  144.3754  161.2181 N   0  0  0  0  0  0  0  0  0  0  0  0
  148.9084  142.2526  155.7600 N   0  0  0  0  0  0  0  0  0  0  0  0
  148.0243  141.2480  155.2642 C   0  0  0  0  0  0  0  0  0  0  0  0
  147.9145  141.0872  153.7633 C   0  0  0  0  0  0  0  0  0  0  0  0
  146.7802  141.7052  154.5332 C   0  0  0  0  0  0  0  0  0  0  0  0
  150.2390  144.0365  156.4835 H   0  0  0  0  0  0  0  0  0  0  0  0
  152.1437  142.2651  157.9597 H   0  0  0  0  0  0  0  0  0  0  0  0
  152.6422  143.6275  156.9836 H   0  0  0  0  0  0  0  0  0  0  0  0
  152.1262  145.1662  158.6164 H   0  0  0  0  0  0  0  0  0  0  0  0
  150.6003  144.4057  158.9908 H   0  0  0  0  0  0  0  0  0  0  0  0
  153.0086  141.8109  159.1805 H   0  0  0  0  0  0  0  0  0  0  0  0
  153.9445  140.9408  161.3370 H   0  0  0  0  0  0  0  0  0  0  0  0
  153.6686  142.3201  163.4179 H   0  0  0  0  0  0  0  0  0  0  0  0
  152.4650  144.5141  163.2499 H   0  0  0  0  0  0  0  0  0  0  0  0
  148.6826  143.2089  155.5280 H   0  0  0  0  0  0  0  0  0  0  0  0
  147.9249  140.3358  155.8511 H   0  0  0  0  0  0  0  0  0  0  0  0
  148.5106  141.7458  153.1343 H   0  0  0  0  0  0  0  0  0  0  0  0
  147.7694  140.0805  153.3766 H   0  0  0  0  0  0  0  0  0  0  0  0
  145.8772  141.1114  154.6596 H   0  0  0  0  0  0  0  0  0  0  0  0
  146.6207  142.7756  154.4184 H   0  0  0  0  0  0  0  0  0  0  0  0
  1  2  2  0  0  0  0
  2  3  1  0  0  0  0
  2 12  1  0  0  0  0
  3  4  1  0  0  0  0
  3 16  1  0  0  0  0
  4  5  1  0  0  0  0
  4 17  1  0  0  0  0
  4 18  1  0  0  0  0
  5  6  1  0  0  0  0
  5 19  1  0  0  0  0
  5 20  1  0  0  0  0
  6 11  1  0  0  0  0
  6  7  2  0  0  0  0
  7  8  1  0  0  0  0
  7 21  1  0  0  0  0
  8  9  2  0  0  0  0
  8 22  1  0  0  0  0
  9 10  1  0  0  0  0
  9 23  1  0  0  0  0
 10 11  2  0  0  0  0
 10 24  1  0  0  0  0
 12 13  1  0  0  0  0
 12 25  1  0  0  0  0
 13 15  1  0  0  0  0
 13 14  1  0  0  0  0
 13 26  1  0  0  0  0
 14 15  1  0  0  0  0
 14 27  1  0  0  0  0
 14 28  1  0  0  0  0
 15 29  1  0  0  0  0
 15 30  1  0  0  0  0
M  END
> <s_m_source_file>
AV-unprocessed.smi

> <i_m_source_file_index>
1177

> <i_lp_mmshare_version>
43012

> <i_f3d_flags>
0

> <s_epik_input>
W0NIMl0xW0NIMl1bQ0hdMVtOSF1DKD1PKVtOSF1bQ0gyXVtDSDJdYzJbY0hdW2NIXVtjSF1bY0hdbjI=

> <s_epik_cmdline>
J2VwaWtfcHl0aG9uJywgJy1waCcsICc3LjAnLCAnLXRuJywgJzgnLCAnLW1hJywgJzIwMCcsICctbWV0YWxfYmluZGluZycsICctaW1hZScsICc8aW5maWxlLm1hZT4nLCAnLW9tYWUnLCAnPG91dGZpbGUubWFlPic=

> <r_epik_Ionization_Penalty>
0.0440342

> <r_epik_Ionization_Penalty_Charging>
0

> <r_epik_Ionization_Penalty_Neutral>
0.0440342

> <r_epik_State_Penalty>
0.0372351

> <r_epik_Charging_Adjusted_Penalty>
0.0372351

> <i_epik_Tot_Q>
0

> <i_epik_Tot_abs_Q>
0

> <r_epik_Metal_State_Penalty>
0.0346506

> <b_epik_Metal_Only>
0

> <s_lp_Force_Field>
OPLS_2005

> <r_lp_Energy>
12.265

> <b_lp_Chiralities_Consistent>
1

> <s_lp_Variant>
AV-unprocessed.smi:1177-1

> <Gold.Version>
5.8.1

> <Gold.Id.Protein>
6NUR|6NUR_protein|mol2

> <Gold.PLP.Fitness>
42.5347

> <Gold.PLP.PLP>
-37.3964

> <Gold.PLP.part.hbond>
-1.8598

> <Gold.PLP.part.metal>
0.0000

> <Gold.PLP.part.buried>
-3.2197

> <Gold.PLP.part.nonpolar>
-32.8370

> <Gold.PLP.part.repulsive>
0.3597

> <Gold.PLP.ligand.clash>
0.0000

> <Gold.PLP.ligand.torsion>
0.3453

> <Gold.PLP.Chemscore.Hbond>
1.9280

> <Gold.PLP.Chemscore.CHOScore>
0.0000

> <Gold.PLP.Chemscore.Metal>
0.0000

> <Gold.Chemscore.Hbonds>
donor molecule, donor type, donor heavy atom, donor atom, acceptor molecule, acceptor atom, score
      L1  H     3    16       P1  8028  0.90
      L1  H    12    25       P1  8028  0.98

> <Gold.PLP.Chemscore.Internal.Correction>
0.0450

> <Gold.Rescore>
     Score         DG    S(hbond)    S(metal)    S(lipo)     H(rot)  DE(clash)    DE(int)     intcor
     18.94     -19.42       1.89        0.00     100.56       1.61       0.14       0.35       ----

> <Gold.Chemscore.Fitness>
18.9426

> <Gold.Chemscore.DG>
-19.4229

> <Gold.Chemscore.ZeroCoef>
-5.4800

> <Gold.Chemscore.Hbond>
1.8895

> <Gold.Chemscore.Metal>
0.0000

> <Gold.Chemscore.Lipo>
100.5600

> <Gold.Chemscore.Internal_Hbond>
0.0000

> <Gold.Chemscore.DEClash>
0.1351

> <Gold.Chemscore.DEInternal>
0.3452

> <Gold.Chemscore.Rot>
1.6147

> <Gold.Chemscore.Internal.Correction>
   9.000000E+99

> <Gold.Chemscore.Hbonds>
donor molecule, donor type, donor heavy atom, donor atom, acceptor molecule, acceptor atom, score
      L1  H     3    16       P1  8028  0.88
      L1  H    12    25       P1  8028  0.89

> <Gold.Chemscore.Hbond.Weighted>
-6.3110

> <Gold.Chemscore.Metal.Weighted>
-0.0000

> <Gold.Chemscore.Lipo.Weighted>
-11.7655

> <Gold.Chemscore.Internal_Hbond.Weighted>
0.0000

> <Gold.Chemscore.DEClash.Weighted>
0.1351

> <Gold.Chemscore.DEInternal.Weighted>
0.3452

> <Gold.Chemscore.Rot.Weighted>
4.1336

> <Gold.Chemscore.Internal.Correction.Weighted>
   9.000000E+99

> <Gold.Protein.RotatedTorsions>
[ 6907 6896 6895 6894 ] final  -72.35 input  -60.11 | X-H torsion
[ 7974 7965 7964 7962 ] final -174.24 input  175.53 | X-H torsion
[ 8008 7997 7996 7995 ] final  139.93 input   59.86 | X-H torsion
[ 10167 10162 10161 10158 ] final -164.26 input  -65.29 | X-H torsion
[ 10718 10713 10712 10709 ] final -155.96 input   66.30 | X-H torsion
[ 10763 10752 10751 10750 ] final -116.40 input  -60.55 | X-H torsion
[ 11005 11000 10999 10996 ] final  140.02 input  -57.11 | X-H torsion

> <Gold.Protein.ActiveResidues>
 VAL166  LYS551  ARG553  GLY616  TRP617  ASP618  TYR619  PRO620  LYS621  CYS622 
 ASP623  PHE694  ASN695  SER759  ASP760  ASP761  ALA762  ILE779  LEU786  VAL792 
 PHE793  MET794  SER795  GLU796  ALA797  LYS798  CYS799  TRP800  GLU811  SER814 

> <Gold.Protein.RotatedAtoms>
  150.7174  134.5176  159.5637 H   0  0  0  0  0  0  0  0  0  0  0  0  # atno 6907 bound_to 6896
  152.2738  134.7901  160.0418 H   0  0  0  0  0  0  0  0  0  0  0  0  # atno 6908 bound_to 6896
  151.8571  133.3415  159.3728 H   0  0  0  0  0  0  0  0  0  0  0  0  # atno 6909 bound_to 6896
  144.7133  140.1502  143.6385 H   0  0  0  0  0  0  0  0  0  0  0  0  # atno 7974 bound_to 7965
  156.2985  140.2355  156.4317 H   0  0  0  0  0  0  0  0  0  0  0  0  # atno 8008 bound_to 7997
  154.8264  140.0435  157.1467 H   0  0  0  0  0  0  0  0  0  0  0  0  # atno 8009 bound_to 7997
  154.9257  140.3010  155.5197 H   0  0  0  0  0  0  0  0  0  0  0  0  # atno 8010 bound_to 7997
  139.6263  144.0527  152.1977 H   0  0  0  0  0  0  0  0  0  0  0  0  # atno 10167 bound_to 10162
  156.5199  130.8473  151.2678 H   0  0  0  0  0  0  0  0  0  0  0  0  # atno 10718 bound_to 10713
  154.8518  135.4347  154.1815 H   0  0  0  0  0  0  0  0  0  0  0  0  # atno 10763 bound_to 10752
  153.2904  135.6961  153.7304 H   0  0  0  0  0  0  0  0  0  0  0  0  # atno 10764 bound_to 10752
  153.6474  135.3457  155.3064 H   0  0  0  0  0  0  0  0  0  0  0  0  # atno 10765 bound_to 10752
  140.0297  134.9358  157.0637 H   0  0  0  0  0  0  0  0  0  0  0  0  # atno 11005 bound_to 11000
  145.9123  139.2495  143.1430 LP  0  0  0  0  0  0  0  0  0  0  0  0  # atno 17320 bound_to 7965
  145.9703  140.8765  143.0166 LP  0  0  0  0  0  0  0  0  0  0  0  0  # atno 17321 bound_to 7965
  140.0181  144.6174  150.7590 LP  0  0  0  0  0  0  0  0  0  0  0  0  # atno 17342 bound_to 10162
  140.7412  143.2815  151.3584 LP  0  0  0  0  0  0  0  0  0  0  0  0  # atno 17343 bound_to 10162
  157.7438  130.9921  150.2623 LP  0  0  0  0  0  0  0  0  0  0  0  0  # atno 17370 bound_to 10713
  156.3159  130.3778  149.7619 LP  0  0  0  0  0  0  0  0  0  0  0  0  # atno 17371 bound_to 10713
  140.4247  134.1843  155.7165 LP  0  0  0  0  0  0  0  0  0  0  0  0  # atno 17394 bound_to 11000
  141.1823  133.8387  157.1212 LP  0  0  0  0  0  0  0  0  0  0  0  0  # atno 17395 bound_to 11000

$$$$
