AV-unprocessed.smi:148|AV-procd|sdf|1227|dock8
  -GOLD-   2262018423D 1   1.00000     0.00000
 Structure written by MMmdl.
 63 67  0  0  0  0  0  0  0  0  1 V2000
  150.7527  140.4938  155.2544 O   0  0  0  0  0  0  0  0  0  0  0  0
  151.5559  140.2265  156.3852 C   0  0  0  0  0  0  0  0  0  0  0  0
  150.9495  140.8706  157.6543 C   0  0  1  0  0  0  0  0  0  0  0  0
  151.1231  139.9273  158.8715 C   0  0  0  0  0  0  0  0  0  0  0  0
  150.4080  138.6705  158.7335 N   0  0  0  0  0  0  0  0  0  0  0  0
  150.9239  137.4083  158.9245 C   0  0  0  0  0  0  0  0  0  0  0  0
  150.0807  136.4282  158.7433 N   0  0  0  0  0  0  0  0  0  0  0  0
  148.8945  137.0663  158.4060 C   0  0  0  0  0  0  0  0  0  0  0  0
  147.5872  136.6142  158.0902 C   0  0  0  0  0  0  0  0  0  0  0  0
  147.2736  135.3006  158.0641 N   0  0  0  0  0  0  0  0  0  0  0  0
  146.6966  134.9601  156.7615 C   0  0  0  0  0  0  0  0  0  0  0  0
  146.5865  133.4442  156.5765 C   0  0  0  0  0  0  0  0  0  0  0  0
  145.7734  132.8424  157.7228 C   0  0  0  0  0  0  0  0  0  0  0  0
  146.4107  133.2202  159.0659 C   0  0  0  0  0  0  0  0  0  0  0  0
  146.5768  134.7540  159.2477 C   0  0  1  0  0  0  0  0  0  0  0  0
  147.3020  135.0629  160.6053 C   0  0  2  0  0  0  0  0  0  0  0  0
  146.8241  134.2259  161.8067 C   0  0  0  0  0  0  0  0  0  0  0  0
  147.3244  134.9469  163.0628 C   0  0  0  0  0  0  0  0  0  0  0  0
  147.6425  136.3827  162.6318 C   0  0  0  0  0  0  0  0  0  0  0  0
  147.1990  136.4996  161.1690 C   0  0  2  0  0  0  0  0  0  0  0  0
  145.8648  136.9715  161.1336 O   0  0  0  0  0  0  0  0  0  0  0  0
  146.6411  137.5459  157.7980 N   0  0  0  0  0  0  0  0  0  0  0  0
  146.9554  138.8446  157.8291 C   0  0  0  0  0  0  0  0  0  0  0  0
  148.1288  139.4131  158.1167 N   0  0  0  0  0  0  0  0  0  0  0  0
  149.0793  138.4764  158.3994 C   0  0  0  0  0  0  0  0  0  0  0  0
  151.4750  142.3061  157.9428 C   0  0  1  0  0  0  0  0  0  0  0  0
  150.4891  143.2779  158.5643 C   0  0  0  0  0  0  0  0  0  0  0  0
  151.4179  144.3984  159.0195 C   0  0  0  0  0  0  0  0  0  0  0  0
  152.6403  143.7629  159.3840 O   0  0  0  0  0  0  0  0  0  0  0  0
  152.6597  142.4196  158.9071 C   0  0  0  0  0  0  0  0  0  0  0  0
  149.9645  139.9757  155.3151 H   0  0  0  0  0  0  0  0  0  0  0  0
  151.6543  139.1469  156.4999 H   0  0  0  0  0  0  0  0  0  0  0  0
  152.5488  140.6156  156.1687 H   0  0  0  0  0  0  0  0  0  0  0  0
  149.8777  140.9738  157.4779 H   0  0  0  0  0  0  0  0  0  0  0  0
  152.1755  139.6869  159.0242 H   0  0  0  0  0  0  0  0  0  0  0  0
  150.7887  140.4234  159.7833 H   0  0  0  0  0  0  0  0  0  0  0  0
  151.9540  137.2370  159.2020 H   0  0  0  0  0  0  0  0  0  0  0  0
  145.7071  135.4111  156.6708 H   0  0  0  0  0  0  0  0  0  0  0  0
  147.3102  135.3768  155.9610 H   0  0  0  0  0  0  0  0  0  0  0  0
  146.1175  133.2151  155.6193 H   0  0  0  0  0  0  0  0  0  0  0  0
  147.5826  133.0003  156.5532 H   0  0  0  0  0  0  0  0  0  0  0  0
  144.7469  133.2093  157.6835 H   0  0  0  0  0  0  0  0  0  0  0  0
  145.7238  131.7580  157.6201 H   0  0  0  0  0  0  0  0  0  0  0  0
  145.7897  132.8006  159.8565 H   0  0  0  0  0  0  0  0  0  0  0  0
  147.3850  132.7358  159.1472 H   0  0  0  0  0  0  0  0  0  0  0  0
  145.5754  135.1855  159.2726 H   0  0  0  0  0  0  0  0  0  0  0  0
  148.3618  134.8369  160.4726 H   0  0  0  0  0  0  0  0  0  0  0  0
  145.7336  134.1955  161.8248 H   0  0  0  0  0  0  0  0  0  0  0  0
  147.1816  133.1964  161.7701 H   0  0  0  0  0  0  0  0  0  0  0  0
  146.5726  134.9214  163.8520 H   0  0  0  0  0  0  0  0  0  0  0  0
  148.2224  134.4654  163.4515 H   0  0  0  0  0  0  0  0  0  0  0  0
  147.1715  137.1263  163.2765 H   0  0  0  0  0  0  0  0  0  0  0  0
  148.7196  136.5422  162.6956 H   0  0  0  0  0  0  0  0  0  0  0  0
  147.8359  137.2124  160.6492 H   0  0  0  0  0  0  0  0  0  0  0  0
  145.8286  137.7985  161.5902 H   0  0  0  0  0  0  0  0  0  0  0  0
  146.1513  139.5256  157.5924 H   0  0  0  0  0  0  0  0  0  0  0  0
  151.8186  142.7472  157.0064 H   0  0  0  0  0  0  0  0  0  0  0  0
  149.7245  143.6230  157.8688 H   0  0  0  0  0  0  0  0  0  0  0  0
  149.9924  142.8405  159.4302 H   0  0  0  0  0  0  0  0  0  0  0  0
  151.6163  145.0840  158.1946 H   0  0  0  0  0  0  0  0  0  0  0  0
  151.0037  144.9748  159.8468 H   0  0  0  0  0  0  0  0  0  0  0  0
  152.5582  141.7628  159.7690 H   0  0  0  0  0  0  0  0  0  0  0  0
  153.6085  142.1878  158.4230 H   0  0  0  0  0  0  0  0  0  0  0  0
  1  2  1  0  0  0  0
  1 31  1  0  0  0  0
  2  3  1  0  0  0  0
  2 32  1  0  0  0  0
  2 33  1  0  0  0  0
  3  4  1  0  0  0  0
  3 26  1  0  0  0  0
  3 34  1  0  0  0  0
  4  5  1  0  0  0  0
  4 35  1  0  0  0  0
  4 36  1  0  0  0  0
  5 25  1  0  0  0  0
  5  6  1  0  0  0  0
  6  7  2  0  0  0  0
  6 37  1  0  0  0  0
  7  8  1  0  0  0  0
  8 25  2  0  0  0  0
  8  9  1  0  0  0  0
  9 10  1  0  0  0  0
  9 22  2  0  0  0  0
 10 15  1  0  0  0  0
 10 11  1  0  0  0  0
 11 12  1  0  0  0  0
 11 38  1  0  0  0  0
 11 39  1  0  0  0  0
 12 13  1  0  0  0  0
 12 40  1  0  0  0  0
 12 41  1  0  0  0  0
 13 14  1  0  0  0  0
 13 42  1  0  0  0  0
 13 43  1  0  0  0  0
 14 15  1  0  0  0  0
 14 44  1  0  0  0  0
 14 45  1  0  0  0  0
 15 16  1  0  0  0  0
 15 46  1  0  0  0  0
 16 20  1  0  0  0  0
 16 17  1  0  0  0  0
 16 47  1  0  0  0  0
 17 18  1  0  0  0  0
 17 48  1  0  0  0  0
 17 49  1  0  0  0  0
 18 19  1  0  0  0  0
 18 50  1  0  0  0  0
 18 51  1  0  0  0  0
 19 20  1  0  0  0  0
 19 52  1  0  0  0  0
 19 53  1  0  0  0  0
 20 21  1  0  0  0  0
 20 54  1  0  0  0  0
 21 55  1  0  0  0  0
 22 23  1  0  0  0  0
 23 24  2  0  0  0  0
 23 56  1  0  0  0  0
 24 25  1  0  0  0  0
 26 30  1  0  0  0  0
 26 27  1  0  0  0  0
 26 57  1  0  0  0  0
 27 28  1  0  0  0  0
 27 58  1  0  0  0  0
 27 59  1  0  0  0  0
 28 29  1  0  0  0  0
 28 60  1  0  0  0  0
 28 61  1  0  0  0  0
 29 30  1  0  0  0  0
 30 62  1  0  0  0  0
 30 63  1  0  0  0  0
M  END
> <s_m_source_file>
AV-unprocessed.smi

> <i_m_source_file_index>
148

> <i_lp_mmshare_version>
43012

> <i_f3d_flags>
0

> <s_epik_input>
W0NIMl0xT1tDSDJdW0NIMl1bQ0BIXTFbQ0BIXShbQ0gyXVtPSF0pW0NIMl1uKFtjSF1uMiljKGMyMyluW2NIXW5jM040W0NIMl1bQ0gyXVtDSDJdW0NIMl1bQ0BIXTRbQ0BASF01W0NIMl1bQ0gyXVtDSDJdW0NASF01W09IXQ==

> <s_epik_cmdline>
J2VwaWtfcHl0aG9uJywgJy1waCcsICc3LjAnLCAnLXRuJywgJzgnLCAnLW1hJywgJzIwMCcsICctbWV0YWxfYmluZGluZycsICctaW1hZScsICc8aW5maWxlLm1hZT4nLCAnLW9tYWUnLCAnPG91dGZpbGUubWFlPic=

> <r_lp_tautomer_probability>
1

> <r_epik_Ionization_Penalty>
0.00556303

> <r_epik_Ionization_Penalty_Charging>
0

> <r_epik_Ionization_Penalty_Neutral>
0.00556303

> <r_epik_State_Penalty>
0.00401767

> <r_epik_Charging_Adjusted_Penalty>
0.00401767

> <i_epik_Tot_Q>
0

> <i_epik_Tot_abs_Q>
0

> <r_epik_Metal_State_Penalty>
-0

> <b_epik_Metal_Only>
0

> <s_lp_Force_Field>
OPLS_2005

> <r_lp_Energy>
69.6846

> <b_lp_Chiralities_Consistent>
1

> <s_lp_Variant>
AV-unprocessed.smi:148-26

> <Gold.Version>
5.8.1

> <Gold.Id.Protein>
6NUR|6NUR_protein|mol2

> <Gold.PLP.Fitness>
47.1104

> <Gold.PLP.PLP>
-44.3746

> <Gold.PLP.part.hbond>
-2.8033

> <Gold.PLP.part.metal>
0.0000

> <Gold.PLP.part.buried>
-7.0793

> <Gold.PLP.part.nonpolar>
-33.9745

> <Gold.PLP.part.repulsive>
0.0000

> <Gold.PLP.ligand.clash>
0.0000

> <Gold.PLP.ligand.torsion>
1.9600

> <Gold.PLP.Chemscore.Hbond>
1.9920

> <Gold.PLP.Chemscore.CHOScore>
0.0000

> <Gold.PLP.Chemscore.Metal>
0.0000

> <Gold.Chemscore.Hbonds>
donor molecule, donor type, donor heavy atom, donor atom, acceptor molecule, acceptor atom, score
      P1  H  6896  6908       L1     7  1.00
      P1  H  7989  7998       L1     1  0.99

> <Gold.PLP.Chemscore.Internal.Correction>
0.6798

> <Gold.Rescore>
     Score         DG    S(hbond)    S(metal)    S(lipo)     H(rot)  DE(clash)    DE(int)     intcor
     14.62     -16.62       1.95        0.00     112.06       3.32       0.01       1.99       ----

> <Gold.Chemscore.Fitness>
14.6174

> <Gold.Chemscore.DG>
-16.6206

> <Gold.Chemscore.ZeroCoef>
-5.4800

> <Gold.Chemscore.Hbond>
1.9549

> <Gold.Chemscore.Metal>
0.0000

> <Gold.Chemscore.Lipo>
112.0619

> <Gold.Chemscore.Internal_Hbond>
0.0000

> <Gold.Chemscore.DEClash>
0.0098

> <Gold.Chemscore.DEInternal>
1.9935

> <Gold.Chemscore.Rot>
3.3203

> <Gold.Chemscore.Internal.Correction>
   9.000000E+99

> <Gold.Chemscore.Hbonds>
donor molecule, donor type, donor heavy atom, donor atom, acceptor molecule, acceptor atom, score
      P1  H  6896  6908       L1     7  0.54
      P1  H  7989  7998       L1     1  0.88

> <Gold.Chemscore.Hbond.Weighted>
-6.5294

> <Gold.Chemscore.Metal.Weighted>
-0.0000

> <Gold.Chemscore.Lipo.Weighted>
-13.1112

> <Gold.Chemscore.Internal_Hbond.Weighted>
0.0000

> <Gold.Chemscore.DEClash.Weighted>
0.0098

> <Gold.Chemscore.DEInternal.Weighted>
1.9935

> <Gold.Chemscore.Rot.Weighted>
8.5000

> <Gold.Chemscore.Internal.Correction.Weighted>
   9.000000E+99

> <Gold.Protein.RotatedTorsions>
[ 6907 6896 6895 6894 ] final -169.72 input  -60.11 | X-H torsion
[ 7974 7965 7964 7962 ] final   10.45 input  175.53 | X-H torsion
[ 8008 7997 7996 7995 ] final  149.48 input   59.86 | X-H torsion
[ 10167 10162 10161 10158 ] final -139.20 input  -65.29 | X-H torsion
[ 10718 10713 10712 10709 ] final  163.05 input   66.30 | X-H torsion
[ 10763 10752 10751 10750 ] final    7.38 input  -60.55 | X-H torsion
[ 11005 11000 10999 10996 ] final  -27.63 input  -57.11 | X-H torsion

> <Gold.Protein.ActiveResidues>
 VAL166  LYS551  ARG553  GLY616  TRP617  ASP618  TYR619  PRO620  LYS621  CYS622 
 ASP623  PHE694  ASN695  SER759  ASP760  ASP761  ALA762  ILE779  LEU786  VAL792 
 PHE793  MET794  SER795  GLU796  ALA797  LYS798  CYS799  TRP800  GLU811  SER814 

> <Gold.Protein.RotatedAtoms>
  151.4962  133.3514  159.2861 H   0  0  0  0  0  0  0  0  0  0  0  0  # atno 6907 bound_to 6896
  150.8803  134.8194  159.7231 H   0  0  0  0  0  0  0  0  0  0  0  0  # atno 6908 bound_to 6896
  152.4758  134.4858  159.9732 H   0  0  0  0  0  0  0  0  0  0  0  0  # atno 6909 bound_to 6896
  146.2388  139.9633  142.8456 H   0  0  0  0  0  0  0  0  0  0  0  0  # atno 7974 bound_to 7965
  156.2753  140.2100  156.5865 H   0  0  0  0  0  0  0  0  0  0  0  0  # atno 8008 bound_to 7997
  154.7017  140.0520  157.0488 H   0  0  0  0  0  0  0  0  0  0  0  0  # atno 8009 bound_to 7997
  155.0726  140.3178  155.4629 H   0  0  0  0  0  0  0  0  0  0  0  0  # atno 8010 bound_to 7997
  139.8403  143.7330  152.2663 H   0  0  0  0  0  0  0  0  0  0  0  0  # atno 10167 bound_to 10162
  157.1140  131.0475  151.2444 H   0  0  0  0  0  0  0  0  0  0  0  0  # atno 10718 bound_to 10713
  153.2369  135.6899  153.7826 H   0  0  0  0  0  0  0  0  0  0  0  0  # atno 10763 bound_to 10752
  153.6970  135.3303  155.3216 H   0  0  0  0  0  0  0  0  0  0  0  0  # atno 10764 bound_to 10752
  154.8339  135.4558  154.1277 H   0  0  0  0  0  0  0  0  0  0  0  0  # atno 10765 bound_to 10752
  140.9137  133.7444  156.0705 H   0  0  0  0  0  0  0  0  0  0  0  0  # atno 11005 bound_to 11000
  145.1750  140.9739  143.4299 LP  0  0  0  0  0  0  0  0  0  0  0  0  # atno 17320 bound_to 7965
  144.9993  139.3613  143.6175 LP  0  0  0  0  0  0  0  0  0  0  0  0  # atno 17321 bound_to 7965
  139.7565  144.7519  151.0427 LP  0  0  0  0  0  0  0  0  0  0  0  0  # atno 17342 bound_to 10162
  140.7798  143.4799  151.0032 LP  0  0  0  0  0  0  0  0  0  0  0  0  # atno 17343 bound_to 10162
  157.4534  130.7611  149.7172 LP  0  0  0  0  0  0  0  0  0  0  0  0  # atno 17370 bound_to 10713
  155.9844  130.3992  150.3315 LP  0  0  0  0  0  0  0  0  0  0  0  0  # atno 17371 bound_to 10713
  140.8078  134.3435  157.5421 LP  0  0  0  0  0  0  0  0  0  0  0  0  # atno 17394 bound_to 11000
  139.8762  134.9236  156.3328 LP  0  0  0  0  0  0  0  0  0  0  0  0  # atno 17395 bound_to 11000

$$$$
