AV-unprocessed.smi:3081|AV-procd|sdf|11741|dock2
  -GOLD-   2272017133D 1   1.00000     0.00000
 Structure written by MMmdl.
 26 27  0  0  0  0  0  0  0  0  2 V2000
  151.3273  137.4247  154.2764 C   0  0  0  0  0  0  0  0  0  0  0  0
  150.3620  138.4508  154.2196 C   0  0  0  0  0  0  0  0  0  0  0  0
  150.6404  139.6142  154.9688 C   0  0  0  0  0  0  0  0  0  0  0  0
  149.6775  140.7932  154.9859 C   0  0  1  0  0  0  0  0  0  0  0  0
  148.4821  140.5857  154.0347 C   0  0  0  0  0  0  0  0  0  0  0  0
  147.5362  141.7954  154.0892 C   0  0  0  0  0  0  0  0  0  0  0  0
  147.1010  142.0886  155.5348 C   0  0  0  0  0  0  0  0  0  0  0  0
  148.2801  142.2923  156.4044 N   0  3  0  0  0  0  0  0  0  0  0  0
  149.1996  141.1328  156.4137 C   0  0  0  0  0  0  0  0  0  0  0  0
  151.7743  139.7306  155.6979 N   0  0  0  0  0  0  0  0  0  0  0  0
  152.6163  138.6934  155.6773 C   0  0  0  0  0  0  0  0  0  0  0  0
  152.4561  137.5500  155.0071 N   0  0  0  0  0  0  0  0  0  0  0  0
  151.1934  136.5011  153.7331 H   0  0  0  0  0  0  0  0  0  0  0  0
  149.4614  138.3437  153.6329 H   0  0  0  0  0  0  0  0  0  0  0  0
  150.2324  141.6584  154.6189 H   0  0  0  0  0  0  0  0  0  0  0  0
  148.8334  140.4340  153.0134 H   0  0  0  0  0  0  0  0  0  0  0  0
  147.9315  139.6856  154.3120 H   0  0  0  0  0  0  0  0  0  0  0  0
  148.0355  142.6708  153.6716 H   0  0  0  0  0  0  0  0  0  0  0  0
  146.6609  141.6125  153.4654 H   0  0  0  0  0  0  0  0  0  0  0  0
  146.4760  142.9810  155.5679 H   0  0  0  0  0  0  0  0  0  0  0  0
  146.5027  141.2649  155.9266 H   0  0  0  0  0  0  0  0  0  0  0  0
  148.7862  143.1020  156.0750 H   0  0  0  0  0  0  0  0  0  0  0  0
  148.6856  140.2813  156.8620 H   0  0  0  0  0  0  0  0  0  0  0  0
  150.0513  141.3642  157.0540 H   0  0  0  0  0  0  0  0  0  0  0  0
  153.5195  138.7909  156.2611 H   0  0  0  0  0  0  0  0  0  0  0  0
  147.9652  142.4672  157.3483 H   0  0  0  0  0  0  0  0  0  0  0  0
  1 12  1  0  0  0  0
  1  2  2  0  0  0  0
  1 13  1  0  0  0  0
  2  3  1  0  0  0  0
  2 14  1  0  0  0  0
  3  4  1  0  0  0  0
  3 10  2  0  0  0  0
  4  9  1  0  0  0  0
  4  5  1  0  0  0  0
  4 15  1  0  0  0  0
  5  6  1  0  0  0  0
  5 16  1  0  0  0  0
  5 17  1  0  0  0  0
  6  7  1  0  0  0  0
  6 18  1  0  0  0  0
  6 19  1  0  0  0  0
  7  8  1  0  0  0  0
  7 20  1  0  0  0  0
  7 21  1  0  0  0  0
  8  9  1  0  0  0  0
  8 22  1  0  0  0  0
  8 26  1  0  0  0  0
  9 23  1  0  0  0  0
  9 24  1  0  0  0  0
 10 11  1  0  0  0  0
 11 12  2  0  0  0  0
 11 25  1  0  0  0  0
M  CHG  1   8   1
M  END
> <s_m_source_file>
AV-unprocessed.smi

> <i_m_source_file_index>
3081

> <i_lp_mmshare_version>
43012

> <i_f3d_flags>
0

> <s_epik_input>
bjFbY0hdbltjSF1bY0hdYzFbQ0BASF0yW0NIMl1bQ0gyXVtDSDJdW05IXVtDSDJdMg==

> <s_epik_cmdline>
J2VwaWtfcHl0aG9uJywgJy1waCcsICc3LjAnLCAnLXRuJywgJzgnLCAnLW1hJywgJzIwMCcsICctbWV0YWxfYmluZGluZycsICctaW1hZScsICc8aW5maWxlLm1hZT4nLCAnLW9tYWUnLCAnPG91dGZpbGUubWFlPic=

> <r_lp_tautomer_probability>
1

> <r_epik_Ionization_Penalty>
0.000373217

> <r_epik_Ionization_Penalty_Charging>
0.000372054

> <r_epik_Ionization_Penalty_Neutral>
1.16293e-06

> <r_epik_State_Penalty>
0.00022692

> <r_epik_Charging_Adjusted_Penalty>
0.000598973

> <i_epik_Tot_Q>
1

> <i_epik_Tot_abs_Q>
1

> <r_epik_Metal_State_Penalty>
-0

> <b_epik_Metal_Only>
0

> <s_epik_Chemistry_Notes>
This compound contains an electron-poor aromatic ring that is susceptible to covalent hydrolysis at low pH, typically resulting in measured values for nitrogen ring protonation that are around two units higher than predicted values.

> <s_lp_Force_Field>
OPLS_2005

> <r_lp_Energy>
7.17513

> <b_lp_Chiralities_Consistent>
1

> <s_lp_Variant>
AV-unprocessed.smi:3081-2

> <Gold.Version>
5.8.1

> <Gold.Id.Protein>
6NUR|6NUR_protein|mol2

> <Gold.PLP.Fitness>
34.4171

> <Gold.PLP.PLP>
-24.1470

> <Gold.PLP.part.hbond>
-2.0000

> <Gold.PLP.part.metal>
0.0000

> <Gold.PLP.part.buried>
-0.6489

> <Gold.PLP.part.nonpolar>
-21.8563

> <Gold.PLP.part.repulsive>
0.0749

> <Gold.PLP.ligand.clash>
0.0000

> <Gold.PLP.ligand.torsion>
0.0215

> <Gold.PLP.Chemscore.Hbond>
2.4257

> <Gold.PLP.Chemscore.CHOScore>
1.0000

> <Gold.PLP.Chemscore.Metal>
0.0000

> <Gold.Chemscore.Hbonds>
donor molecule, donor type, donor heavy atom, donor atom, acceptor molecule, acceptor atom, score
      L1  H     8    22       P1  8028  2.00
      P1  H 10752 10765       L1    12  0.39
      L1  C     1    13       P1  7949  1.00

> <Gold.PLP.Chemscore.Internal.Correction>
0.0360

> <Gold.Rescore>
     Score         DG    S(hbond)    S(metal)    S(lipo)     H(rot)  DE(clash)    DE(int)     intcor
     13.34     -13.79       1.36        0.00      54.13       1.00       0.42       0.02       ----

> <Gold.Chemscore.Fitness>
13.3438

> <Gold.Chemscore.DG>
-13.7886

> <Gold.Chemscore.ZeroCoef>
-5.4800

> <Gold.Chemscore.Hbond>
1.3578

> <Gold.Chemscore.Metal>
0.0000

> <Gold.Chemscore.Lipo>
54.1331

> <Gold.Chemscore.Internal_Hbond>
0.0000

> <Gold.Chemscore.DEClash>
0.4210

> <Gold.Chemscore.DEInternal>
0.0238

> <Gold.Chemscore.Rot>
1.0000

> <Gold.Chemscore.Internal.Correction>
   9.000000E+99

> <Gold.Chemscore.Hbonds>
donor molecule, donor type, donor heavy atom, donor atom, acceptor molecule, acceptor atom, score
      L1  H     8    22       P1  8028  0.96
      P1  H 10752 10765       L1    12  0.05

> <Gold.Chemscore.Hbond.Weighted>
-4.5351

> <Gold.Chemscore.Metal.Weighted>
-0.0000

> <Gold.Chemscore.Lipo.Weighted>
-6.3336

> <Gold.Chemscore.Internal_Hbond.Weighted>
0.0000

> <Gold.Chemscore.DEClash.Weighted>
0.4210

> <Gold.Chemscore.DEInternal.Weighted>
0.0238

> <Gold.Chemscore.Rot.Weighted>
2.5600

> <Gold.Chemscore.Internal.Correction.Weighted>
   9.000000E+99

> <Gold.Protein.RotatedTorsions>
[ 6907 6896 6895 6894 ] final  -87.77 input  -60.11 | X-H torsion
[ 7974 7965 7964 7962 ] final   53.55 input  175.53 | X-H torsion
[ 8008 7997 7996 7995 ] final  -18.27 input   59.86 | X-H torsion
[ 10167 10162 10161 10158 ] final  -51.42 input  -65.29 | X-H torsion
[ 10718 10713 10712 10709 ] final   10.40 input   66.30 | X-H torsion
[ 10763 10752 10751 10750 ] final -167.69 input  -60.55 | X-H torsion
[ 11005 11000 10999 10996 ] final  162.42 input  -57.11 | X-H torsion

> <Gold.Protein.ActiveResidues>
 VAL166  LYS551  ARG553  GLY616  TRP617  ASP618  TYR619  PRO620  LYS621  CYS622 
 ASP623  PHE694  ASN695  SER759  ASP760  ASP761  ALA762  ILE779  LEU786  VAL792 
 PHE793  MET794  SER795  GLU796  ALA797  LYS798  CYS799  TRP800  GLU811  SER814 

> <Gold.Protein.RotatedAtoms>
  150.6867  134.2845  159.4640 H   0  0  0  0  0  0  0  0  0  0  0  0  # atno 6907 bound_to 6896
  152.0756  134.9502  160.0583 H   0  0  0  0  0  0  0  0  0  0  0  0  # atno 6908 bound_to 6896
  152.0875  133.4149  159.4566 H   0  0  0  0  0  0  0  0  0  0  0  0  # atno 6909 bound_to 6896
  145.9700  139.4139  143.0196 H   0  0  0  0  0  0  0  0  0  0  0  0  # atno 7974 bound_to 7965
  154.4918  140.2120  155.9532 H   0  0  0  0  0  0  0  0  0  0  0  0  # atno 8008 bound_to 7997
  156.1316  140.3196  155.8326 H   0  0  0  0  0  0  0  0  0  0  0  0  # atno 8009 bound_to 7997
  155.4286  140.0502  157.3011 H   0  0  0  0  0  0  0  0  0  0  0  0  # atno 8010 bound_to 7997
  140.6589  143.2620  151.4502 H   0  0  0  0  0  0  0  0  0  0  0  0  # atno 10167 bound_to 10162
  156.9804  130.6003  149.5676 H   0  0  0  0  0  0  0  0  0  0  0  0  # atno 10718 bound_to 10713
  154.6706  135.2938  154.9747 H   0  0  0  0  0  0  0  0  0  0  0  0  # atno 10763 bound_to 10752
  154.0775  135.6609  153.4837 H   0  0  0  0  0  0  0  0  0  0  0  0  # atno 10764 bound_to 10752
  153.0484  135.5189  154.7700 H   0  0  0  0  0  0  0  0  0  0  0  0  # atno 10765 bound_to 10752
  140.2256  134.8163  157.3265 H   0  0  0  0  0  0  0  0  0  0  0  0  # atno 11005 bound_to 11000
  145.7920  140.9810  143.1044 LP  0  0  0  0  0  0  0  0  0  0  0  0  # atno 17320 bound_to 7965
  144.6834  139.9694  143.7482 LP  0  0  0  0  0  0  0  0  0  0  0  0  # atno 17321 bound_to 7965
  139.5818  144.1693  152.1977 LP  0  0  0  0  0  0  0  0  0  0  0  0  # atno 17342 bound_to 10162
  140.1021  144.5531  150.6982 LP  0  0  0  0  0  0  0  0  0  0  0  0  # atno 17343 bound_to 10162
  156.0247  130.5341  150.8372 LP  0  0  0  0  0  0  0  0  0  0  0  0  # atno 17370 bound_to 10713
  157.5530  131.0944  150.9668 LP  0  0  0  0  0  0  0  0  0  0  0  0  # atno 17371 bound_to 10713
  140.1804  134.4497  155.7775 LP  0  0  0  0  0  0  0  0  0  0  0  0  # atno 17394 bound_to 11000
  141.2221  133.6981  156.7859 LP  0  0  0  0  0  0  0  0  0  0  0  0  # atno 17395 bound_to 11000

$$$$
