AV-unprocessed.smi:1867|AV-procd|sdf|7561|dock3
  -GOLD-   22720 9273D 1   1.00000     0.00000
 Structure written by MMmdl.
 52 55  0  0  0  0  0  0  0  0  2 V2000
  147.2936  140.2409  154.0931 O   0  0  0  0  0  0  0  0  0  0  0  0
  147.7026  139.1473  154.4749 C   0  0  0  0  0  0  0  0  0  0  0  0
  148.6697  138.9675  155.3957 N   0  0  0  0  0  0  0  0  0  0  0  0
  149.4570  139.9466  156.0581 C   0  0  0  0  0  0  0  0  0  0  0  0
  149.7069  141.1588  155.3866 C   0  0  0  0  0  0  0  0  0  0  0  0
  150.4679  142.1561  156.0246 C   0  0  0  0  0  0  0  0  0  0  0  0
  150.9584  141.9159  157.3297 C   0  0  0  0  0  0  0  0  0  0  0  0
  151.7245  142.8866  158.0054 N   0  0  0  0  0  0  0  0  0  0  0  0
  152.1204  142.7112  159.3964 C   0  0  0  0  0  0  0  0  0  0  0  0
  152.2968  144.1259  159.9606 C   0  0  0  0  0  0  0  0  0  0  0  0
  152.4849  145.0033  158.7229 C   0  0  0  0  0  0  0  0  0  0  0  0
  151.6345  144.2988  157.6677 C   0  0  0  0  0  0  0  0  0  0  0  0
  150.6992  140.7596  157.9852 N   0  0  0  0  0  0  0  0  0  0  0  0
  149.9713  139.8052  157.3686 C   0  0  0  0  0  0  0  0  0  0  0  0
  147.1829  138.0055  153.9881 N   0  0  0  0  0  0  0  0  0  0  0  0
  146.1270  137.8333  152.9852 C   0  0  1  0  0  0  0  0  0  0  0  0
  146.5313  138.3747  151.6001 C   0  0  0  0  0  0  0  0  0  0  0  0
  145.9856  137.3456  150.6056 C   0  0  0  0  0  0  0  0  0  0  0  0
  146.1089  136.0831  151.3422 N   0  3  2  0  0  0  0  0  0  0  0  0
  145.4557  134.8779  150.7927 C   0  0  0  0  0  0  0  0  0  0  0  0
  145.8904  133.6607  151.6370 C   0  0  0  0  0  0  0  0  0  0  0  0
  145.6566  133.8834  153.1485 C   0  0  0  0  0  0  0  0  0  0  0  0
  146.2525  135.2237  153.6317 C   0  0  0  0  0  0  0  0  0  0  0  0
  145.7218  136.3589  152.7368 C   0  0  1  0  0  0  0  0  0  0  0  0
  148.8365  138.0146  155.6831 H   0  0  0  0  0  0  0  0  0  0  0  0
  149.3221  141.3262  154.3910 H   0  0  0  0  0  0  0  0  0  0  0  0
  150.6573  143.0872  155.5115 H   0  0  0  0  0  0  0  0  0  0  0  0
  151.3771  142.1557  159.9691 H   0  0  0  0  0  0  0  0  0  0  0  0
  153.0613  142.1612  159.4291 H   0  0  0  0  0  0  0  0  0  0  0  0
  151.3878  144.4250  160.4836 H   0  0  0  0  0  0  0  0  0  0  0  0
  153.1265  144.1996  160.6641 H   0  0  0  0  0  0  0  0  0  0  0  0
  152.1888  146.0402  158.8835 H   0  0  0  0  0  0  0  0  0  0  0  0
  153.5329  144.9931  158.4204 H   0  0  0  0  0  0  0  0  0  0  0  0
  151.9979  144.4962  156.6586 H   0  0  0  0  0  0  0  0  0  0  0  0
  150.5950  144.6237  157.7314 H   0  0  0  0  0  0  0  0  0  0  0  0
  149.7895  138.9243  157.9639 H   0  0  0  0  0  0  0  0  0  0  0  0
  147.5782  137.1514  154.3544 H   0  0  0  0  0  0  0  0  0  0  0  0
  145.2394  138.3866  153.2971 H   0  0  0  0  0  0  0  0  0  0  0  0
  146.1489  139.3786  151.4123 H   0  0  0  0  0  0  0  0  0  0  0  0
  147.6184  138.4157  151.5117 H   0  0  0  0  0  0  0  0  0  0  0  0
  144.9356  137.5437  150.3834 H   0  0  0  0  0  0  0  0  0  0  0  0
  146.5423  137.3285  149.6682 H   0  0  0  0  0  0  0  0  0  0  0  0
  144.3713  134.9966  150.8083 H   0  0  0  0  0  0  0  0  0  0  0  0
  145.7526  134.7388  149.7526 H   0  0  0  0  0  0  0  0  0  0  0  0
  145.3617  132.7670  151.3042 H   0  0  0  0  0  0  0  0  0  0  0  0
  146.9506  133.4692  151.4667 H   0  0  0  0  0  0  0  0  0  0  0  0
  144.5845  133.8744  153.3495 H   0  0  0  0  0  0  0  0  0  0  0  0
  146.0817  133.0570  153.7190 H   0  0  0  0  0  0  0  0  0  0  0  0
  145.9760  135.3904  154.6727 H   0  0  0  0  0  0  0  0  0  0  0  0
  147.3420  135.1853  153.5930 H   0  0  0  0  0  0  0  0  0  0  0  0
  144.6306  136.3336  152.7832 H   0  0  0  0  0  0  0  0  0  0  0  0
  147.0990  135.8843  151.3647 H   0  0  0  0  0  0  0  0  0  0  0  0
  1  2  2  0  0  0  0
  2  3  1  0  0  0  0
  2 15  1  0  0  0  0
  3  4  1  0  0  0  0
  3 25  1  0  0  0  0
  4 14  1  0  0  0  0
  4  5  2  0  0  0  0
  5  6  1  0  0  0  0
  5 26  1  0  0  0  0
  6  7  2  0  0  0  0
  6 27  1  0  0  0  0
  7  8  1  0  0  0  0
  7 13  1  0  0  0  0
  8 12  1  0  0  0  0
  8  9  1  0  0  0  0
  9 10  1  0  0  0  0
  9 28  1  0  0  0  0
  9 29  1  0  0  0  0
 10 11  1  0  0  0  0
 10 30  1  0  0  0  0
 10 31  1  0  0  0  0
 11 12  1  0  0  0  0
 11 32  1  0  0  0  0
 11 33  1  0  0  0  0
 12 34  1  0  0  0  0
 12 35  1  0  0  0  0
 13 14  2  0  0  0  0
 14 36  1  0  0  0  0
 15 16  1  0  0  0  0
 15 37  1  0  0  0  0
 16 24  1  0  0  0  0
 16 17  1  0  0  0  0
 16 38  1  0  0  0  0
 17 18  1  0  0  0  0
 17 39  1  0  0  0  0
 17 40  1  0  0  0  0
 18 19  1  0  0  0  0
 18 41  1  0  0  0  0
 18 42  1  0  0  0  0
 19 24  1  0  0  0  0
 19 20  1  0  0  0  0
 19 52  1  0  0  0  0
 20 21  1  0  0  0  0
 20 43  1  0  0  0  0
 20 44  1  0  0  0  0
 21 22  1  0  0  0  0
 21 45  1  0  0  0  0
 21 46  1  0  0  0  0
 22 23  1  0  0  0  0
 22 47  1  0  0  0  0
 22 48  1  0  0  0  0
 23 24  1  0  0  0  0
 23 49  1  0  0  0  0
 23 50  1  0  0  0  0
 24 51  1  0  0  0  0
M  CHG  1  19   1
M  END
> <s_m_source_file>
AV-unprocessed.smi

> <i_m_source_file_index>
1867

> <i_lp_mmshare_version>
43012

> <i_f3d_flags>
0

> <s_epik_input>
W0NIMl0xW0NIMl1bQ0gyXVtDSDJdW0NASF0oTjEyKVtDQEBIXShbQ0gyXVtDSDJdMilbTkhdQyg9TylbTkhdYzNbY0hdW2NIXWMobltjSF0zKU40W0NIMl1bQ0gyXVtDSDJdW0NIMl00

> <s_epik_cmdline>
J2VwaWtfcHl0aG9uJywgJy1waCcsICc3LjAnLCAnLXRuJywgJzgnLCAnLW1hJywgJzIwMCcsICctbWV0YWxfYmluZGluZycsICctaW1hZScsICc8aW5maWxlLm1hZT4nLCAnLW9tYWUnLCAnPG91dGZpbGUubWFlPic=

> <r_lp_tautomer_probability>
1

> <r_epik_Ionization_Penalty>
0.0751123

> <r_epik_Ionization_Penalty_Charging>
0.000974069

> <r_epik_Ionization_Penalty_Neutral>
0.0741382

> <r_epik_State_Penalty>
0.0647261

> <r_epik_Charging_Adjusted_Penalty>
0.0657002

> <i_epik_Tot_Q>
1

> <i_epik_Tot_abs_Q>
1

> <r_epik_Metal_State_Penalty>
0.0580571

> <b_epik_Metal_Only>
0

> <s_lp_Force_Field>
OPLS_2005

> <r_lp_Energy>
77.0679

> <b_lp_Chiralities_Consistent>
1

> <s_lp_Variant>
AV-unprocessed.smi:1867-2

> <Gold.Version>
5.8.1

> <Gold.Id.Protein>
6NUR|6NUR_protein|mol2

> <Gold.PLP.Fitness>
46.3376

> <Gold.PLP.PLP>
-40.7924

> <Gold.PLP.part.hbond>
-1.1742

> <Gold.PLP.part.metal>
0.0000

> <Gold.PLP.part.buried>
0.9904

> <Gold.PLP.part.nonpolar>
-41.6746

> <Gold.PLP.part.repulsive>
0.2057

> <Gold.PLP.ligand.clash>
0.0000

> <Gold.PLP.ligand.torsion>
0.3297

> <Gold.PLP.Chemscore.Hbond>
2.0000

> <Gold.PLP.Chemscore.CHOScore>
0.0000

> <Gold.PLP.Chemscore.Metal>
0.0000

> <Gold.Chemscore.Hbonds>
donor molecule, donor type, donor heavy atom, donor atom, acceptor molecule, acceptor atom, score
      L1  H    19    52       P1  7948  2.00

> <Gold.PLP.Chemscore.Internal.Correction>
0.2046

> <Gold.Rescore>
     Score         DG    S(hbond)    S(metal)    S(lipo)     H(rot)  DE(clash)    DE(int)     intcor
     17.07     -20.16       0.96        0.00     119.84       1.00       1.52       1.57       ----

> <Gold.Chemscore.Fitness>
17.0658

> <Gold.Chemscore.DG>
-20.1585

> <Gold.Chemscore.ZeroCoef>
-5.4800

> <Gold.Chemscore.Hbond>
0.9632

> <Gold.Chemscore.Metal>
0.0000

> <Gold.Chemscore.Lipo>
119.8403

> <Gold.Chemscore.Internal_Hbond>
0.0000

> <Gold.Chemscore.DEClash>
1.5219

> <Gold.Chemscore.DEInternal>
1.5708

> <Gold.Chemscore.Rot>
1.0000

> <Gold.Chemscore.Internal.Correction>
   9.000000E+99

> <Gold.Chemscore.Hbonds>
donor molecule, donor type, donor heavy atom, donor atom, acceptor molecule, acceptor atom, score
      L1  H    19    52       P1  7948  0.98

> <Gold.Chemscore.Hbond.Weighted>
-3.2172

> <Gold.Chemscore.Metal.Weighted>
-0.0000

> <Gold.Chemscore.Lipo.Weighted>
-14.0213

> <Gold.Chemscore.Internal_Hbond.Weighted>
0.0000

> <Gold.Chemscore.DEClash.Weighted>
1.5219

> <Gold.Chemscore.DEInternal.Weighted>
1.5708

> <Gold.Chemscore.Rot.Weighted>
2.5600

> <Gold.Chemscore.Internal.Correction.Weighted>
   9.000000E+99

> <Gold.Protein.RotatedTorsions>
[ 6907 6896 6895 6894 ] final -104.29 input  -60.11 | X-H torsion
[ 7974 7965 7964 7962 ] final  -96.00 input  175.53 | X-H torsion
[ 8008 7997 7996 7995 ] final -168.10 input   59.86 | X-H torsion
[ 10167 10162 10161 10158 ] final -165.22 input  -65.29 | X-H torsion
[ 10718 10713 10712 10709 ] final  124.19 input   66.30 | X-H torsion
[ 10763 10752 10751 10750 ] final   47.46 input  -60.55 | X-H torsion
[ 11005 11000 10999 10996 ] final  -32.58 input  -57.11 | X-H torsion

> <Gold.Protein.ActiveResidues>
 VAL166  LYS551  ARG553  GLY616  TRP617  ASP618  TYR619  PRO620  LYS621  CYS622 
 ASP623  PHE694  ASN695  SER759  ASP760  ASP761  ALA762  ILE779  LEU786  VAL792 
 PHE793  MET794  SER795  GLU796  ALA797  LYS798  CYS799  TRP800  GLU811  SER814 

> <Gold.Protein.RotatedAtoms>
  150.7280  134.0300  159.3729 H   0  0  0  0  0  0  0  0  0  0  0  0  # atno 6907 bound_to 6896
  151.8269  135.0632  160.0441 H   0  0  0  0  0  0  0  0  0  0  0  0  # atno 6908 bound_to 6896
  152.2963  133.5574  159.5626 H   0  0  0  0  0  0  0  0  0  0  0  0  # atno 6909 bound_to 6896
  145.3526  140.9479  143.2545 H   0  0  0  0  0  0  0  0  0  0  0  0  # atno 7974 bound_to 7965
  155.8868  140.1018  157.1447 H   0  0  0  0  0  0  0  0  0  0  0  0  # atno 8008 bound_to 7997
  154.4010  140.1318  156.4329 H   0  0  0  0  0  0  0  0  0  0  0  0  # atno 8009 bound_to 7997
  155.7580  140.3463  155.5186 H   0  0  0  0  0  0  0  0  0  0  0  0  # atno 8010 bound_to 7997
  139.6196  144.0650  152.1921 H   0  0  0  0  0  0  0  0  0  0  0  0  # atno 10167 bound_to 10162
  157.5605  131.1090  150.8547 H   0  0  0  0  0  0  0  0  0  0  0  0  # atno 10718 bound_to 10713
  152.9800  135.5975  154.3766 H   0  0  0  0  0  0  0  0  0  0  0  0  # atno 10763 bound_to 10752
  154.3434  135.2767  155.2412 H   0  0  0  0  0  0  0  0  0  0  0  0  # atno 10764 bound_to 10752
  154.4483  135.5996  153.6230 H   0  0  0  0  0  0  0  0  0  0  0  0  # atno 10765 bound_to 10752
  140.9564  133.7190  156.1300 H   0  0  0  0  0  0  0  0  0  0  0  0  # atno 11005 bound_to 11000
  144.8706  139.5044  143.6769 LP  0  0  0  0  0  0  0  0  0  0  0  0  # atno 17320 bound_to 7965
  146.2961  139.7283  142.9125 LP  0  0  0  0  0  0  0  0  0  0  0  0  # atno 17321 bound_to 7965
  140.0289  144.6096  150.7505 LP  0  0  0  0  0  0  0  0  0  0  0  0  # atno 17342 bound_to 10162
  140.7374  143.2764  151.3728 LP  0  0  0  0  0  0  0  0  0  0  0  0  # atno 17343 bound_to 10162
  156.9046  130.5259  149.5282 LP  0  0  0  0  0  0  0  0  0  0  0  0  # atno 17370 bound_to 10713
  156.0658  130.5701  150.9285 LP  0  0  0  0  0  0  0  0  0  0  0  0  # atno 17371 bound_to 10713
  140.7530  134.4024  157.5538 LP  0  0  0  0  0  0  0  0  0  0  0  0  # atno 17394 bound_to 11000
  139.8864  134.8912  156.2589 LP  0  0  0  0  0  0  0  0  0  0  0  0  # atno 17395 bound_to 11000

$$$$
