AV-unprocessed.smi:2451|AV-procd|sdf|9684|dock7
  -GOLD-   2272013323D 1   1.00000     0.00000
 Structure written by MMmdl.
 37 38  0  0  0  0  0  0  0  0  2 V2000
  152.4930  144.1210  159.1630 C   0  0  0  0  0  0  0  0  0  0  0  0
  152.7164  142.6227  158.8860 C   0  0  1  0  0  0  0  0  0  0  0  0
  153.2218  141.9380  160.1811 C   0  0  0  0  0  0  0  0  0  0  0  0
  153.4423  140.4309  159.9493 C   0  0  0  0  0  0  0  0  0  0  0  0
  152.1858  139.7267  159.3815 C   0  0  0  0  0  0  0  0  0  0  0  0
  151.6361  140.3754  158.0886 C   0  0  2  0  0  0  0  0  0  0  0  0
  152.5542  140.1172  156.9845 N   0  5  0  0  0  0  0  0  0  0  0  0
  152.0732  139.2032  155.7355 S   0  0  0  0  0  0  0  0  0  0  0  0
  151.0193  139.8483  154.9354 O   0  0  0  0  0  0  0  0  0  0  0  0
  153.2021  138.6115  154.9985 O   0  0  0  0  0  0  0  0  0  0  0  0
  151.2606  137.8119  156.6311 C   0  0  0  0  0  0  0  0  0  0  0  0
  152.2986  136.8933  157.2113 C   0  0  0  0  0  0  0  0  0  0  0  0
  153.2826  137.1825  158.1972 C   0  0  0  0  0  0  0  0  0  0  0  0
  153.9412  135.9967  158.3483 C   0  0  0  0  0  0  0  0  0  0  0  0
  153.4086  135.0501  157.5351 O   0  0  0  0  0  0  0  0  0  0  0  0
  152.3577  135.6308  156.8160 N   0  0  0  0  0  0  0  0  0  0  0  0
  151.4429  141.9123  158.3074 C   0  0  2  0  0  0  0  0  0  0  0  0
  150.8603  142.6209  157.0582 C   0  0  0  0  0  0  0  0  0  0  0  0
  151.6448  144.2789  159.8296 H   0  0  0  0  0  0  0  0  0  0  0  0
  152.3112  144.6793  158.2451 H   0  0  0  0  0  0  0  0  0  0  0  0
  153.3704  144.5671  159.6319 H   0  0  0  0  0  0  0  0  0  0  0  0
  153.5181  142.5616  158.1467 H   0  0  0  0  0  0  0  0  0  0  0  0
  154.1507  142.3984  160.5192 H   0  0  0  0  0  0  0  0  0  0  0  0
  152.4938  142.0785  160.9813 H   0  0  0  0  0  0  0  0  0  0  0  0
  154.2924  140.2871  159.2797 H   0  0  0  0  0  0  0  0  0  0  0  0
  153.7262  139.9589  160.8901 H   0  0  0  0  0  0  0  0  0  0  0  0
  152.3978  138.6703  159.2109 H   0  0  0  0  0  0  0  0  0  0  0  0
  151.4043  139.7519  160.1417 H   0  0  0  0  0  0  0  0  0  0  0  0
  150.6553  139.9390  157.8940 H   0  0  0  0  0  0  0  0  0  0  0  0
  150.6338  138.2335  157.4164 H   0  0  0  0  0  0  0  0  0  0  0  0
  150.6090  137.2892  155.9306 H   0  0  0  0  0  0  0  0  0  0  0  0
  153.4766  138.1150  158.7057 H   0  0  0  0  0  0  0  0  0  0  0  0
  154.7685  135.6808  158.9664 H   0  0  0  0  0  0  0  0  0  0  0  0
  150.6738  142.0023  159.0761 H   0  0  0  0  0  0  0  0  0  0  0  0
  151.5932  142.6986  156.2533 H   0  0  0  0  0  0  0  0  0  0  0  0
  150.5317  143.6322  157.2942 H   0  0  0  0  0  0  0  0  0  0  0  0
  149.9819  142.1091  156.6591 H   0  0  0  0  0  0  0  0  0  0  0  0
  1  2  1  0  0  0  0
  1 19  1  0  0  0  0
  1 20  1  0  0  0  0
  1 21  1  0  0  0  0
  2 17  1  0  0  0  0
  2  3  1  0  0  0  0
  2 22  1  0  0  0  0
  3  4  1  0  0  0  0
  3 23  1  0  0  0  0
  3 24  1  0  0  0  0
  4  5  1  0  0  0  0
  4 25  1  0  0  0  0
  4 26  1  0  0  0  0
  5  6  1  0  0  0  0
  5 27  1  0  0  0  0
  5 28  1  0  0  0  0
  6  7  1  0  0  0  0
  6 17  1  0  0  0  0
  6 29  1  0  0  0  0
  7  8  1  0  0  0  0
  8  9  2  0  0  0  0
  8 10  2  0  0  0  0
  8 11  1  0  0  0  0
 11 12  1  0  0  0  0
 11 30  1  0  0  0  0
 11 31  1  0  0  0  0
 12 16  2  0  0  0  0
 12 13  1  0  0  0  0
 13 14  2  0  0  0  0
 13 32  1  0  0  0  0
 14 15  1  0  0  0  0
 14 33  1  0  0  0  0
 15 16  1  0  0  0  0
 17 18  1  0  0  0  0
 17 34  1  0  0  0  0
 18 35  1  0  0  0  0
 18 36  1  0  0  0  0
 18 37  1  0  0  0  0
M  CHG  1   7  -1
M  END
> <s_m_source_file>
AV-unprocessed.smi

> <i_m_source_file_index>
2451

> <i_lp_mmshare_version>
43012

> <i_f3d_flags>
0

> <s_epik_input>
W0NIM11bQ0BASF0xW0NIMl1bQ0gyXVtDSDJdW0NASF0oW0NASF0xW0NIM10pW05IXVMoPU8pKD1PKVtDSDJdYzJbY0hdW2NIXW9uMg==

> <s_epik_cmdline>
J2VwaWtfcHl0aG9uJywgJy1waCcsICc3LjAnLCAnLXRuJywgJzgnLCAnLW1hJywgJzIwMCcsICctbWV0YWxfYmluZGluZycsICctaW1hZScsICc8aW5maWxlLm1hZT4nLCAnLW9tYWUnLCAnPG91dGZpbGUubWFlPic=

> <r_lp_tautomer_probability>
1

> <r_epik_Ionization_Penalty>
5.22693

> <r_epik_Ionization_Penalty_Charging>
5.22693

> <r_epik_Ionization_Penalty_Neutral>
2.67702e-10

> <r_epik_State_Penalty>
5.22685

> <r_epik_Charging_Adjusted_Penalty>
10.4538

> <i_epik_Tot_Q>
-1

> <i_epik_Tot_abs_Q>
1

> <r_epik_Metal_State_Penalty>
1.28716

> <b_epik_Metal_Only>
1

> <s_lp_Force_Field>
OPLS_2005

> <r_lp_Energy>
15.3657

> <b_lp_Chiralities_Consistent>
1

> <s_lp_Variant>
AV-unprocessed.smi:2451-16

> <Gold.Version>
5.8.1

> <Gold.Id.Protein>
6NUR|6NUR_protein|mol2

> <Gold.PLP.Fitness>
44.0983

> <Gold.PLP.PLP>
-33.2250

> <Gold.PLP.part.hbond>
-4.9536

> <Gold.PLP.part.metal>
0.0000

> <Gold.PLP.part.buried>
-3.4359

> <Gold.PLP.part.nonpolar>
-24.5938

> <Gold.PLP.part.repulsive>
0.0577

> <Gold.PLP.ligand.clash>
0.0000

> <Gold.PLP.ligand.torsion>
0.9019

> <Gold.PLP.Chemscore.Hbond>
3.8968

> <Gold.PLP.Chemscore.CHOScore>
0.0000

> <Gold.PLP.Chemscore.Metal>
0.0000

> <Gold.Chemscore.Hbonds>
donor molecule, donor type, donor heavy atom, donor atom, acceptor molecule, acceptor atom, score
      P1  H  7989  7998       L1     9  1.00
      P1  H  7997  8008       L1     7  2.00
      P1  H 10752 10764       L1    16  0.88

> <Gold.PLP.Chemscore.Internal.Correction>
0.9868

> <Gold.Rescore>
     Score         DG    S(hbond)    S(metal)    S(lipo)     H(rot)  DE(clash)    DE(int)     intcor
     17.70     -18.71       1.99        0.00      86.80       1.40       0.01       1.00       ----

> <Gold.Chemscore.Fitness>
17.6971

> <Gold.Chemscore.DG>
-18.7107

> <Gold.Chemscore.ZeroCoef>
-5.4800

> <Gold.Chemscore.Hbond>
1.9927

> <Gold.Chemscore.Metal>
0.0000

> <Gold.Chemscore.Lipo>
86.7978

> <Gold.Chemscore.Internal_Hbond>
0.0000

> <Gold.Chemscore.DEClash>
0.0149

> <Gold.Chemscore.DEInternal>
0.9987

> <Gold.Chemscore.Rot>
1.3986

> <Gold.Chemscore.Internal.Correction>
   9.000000E+99

> <Gold.Chemscore.Hbonds>
donor molecule, donor type, donor heavy atom, donor atom, acceptor molecule, acceptor atom, score
      P1  H  7989  7998       L1     9  0.91
      P1  H  7997  8008       L1     7  0.25
      P1  H 10752 10764       L1    16  0.15

> <Gold.Chemscore.Hbond.Weighted>
-6.6557

> <Gold.Chemscore.Metal.Weighted>
-0.0000

> <Gold.Chemscore.Lipo.Weighted>
-10.1553

> <Gold.Chemscore.Internal_Hbond.Weighted>
0.0000

> <Gold.Chemscore.DEClash.Weighted>
0.0149

> <Gold.Chemscore.DEInternal.Weighted>
0.9987

> <Gold.Chemscore.Rot.Weighted>
3.5804

> <Gold.Chemscore.Internal.Correction.Weighted>
   9.000000E+99

> <Gold.Protein.RotatedTorsions>
[ 6907 6896 6895 6894 ] final -147.17 input  -60.11 | X-H torsion
[ 7974 7965 7964 7962 ] final  113.49 input  175.53 | X-H torsion
[ 8008 7997 7996 7995 ] final  -65.80 input   59.86 | X-H torsion
[ 10167 10162 10161 10158 ] final -148.63 input  -65.29 | X-H torsion
[ 10718 10713 10712 10709 ] final  -85.44 input   66.30 | X-H torsion
[ 10763 10752 10751 10750 ] final  -36.58 input  -60.55 | X-H torsion
[ 11005 11000 10999 10996 ] final  -52.87 input  -57.11 | X-H torsion

> <Gold.Protein.ActiveResidues>
 VAL166  LYS551  ARG553  GLY616  TRP617  ASP618  TYR619  PRO620  LYS621  CYS622 
 ASP623  PHE694  ASN695  SER759  ASP760  ASP761  ALA762  ILE779  LEU786  VAL792 
 PHE793  MET794  SER795  GLU796  ALA797  LYS798  CYS799  TRP800  GLU811  SER814 

> <Gold.Protein.RotatedAtoms>
  151.1520  133.4901  159.2594 H   0  0  0  0  0  0  0  0  0  0  0  0  # atno 6907 bound_to 6896
  151.1544  135.0243  159.8692 H   0  0  0  0  0  0  0  0  0  0  0  0  # atno 6908 bound_to 6896
  152.5463  134.1400  159.8528 H   0  0  0  0  0  0  0  0  0  0  0  0  # atno 6909 bound_to 6896
  145.2163  139.2882  143.4242 H   0  0  0  0  0  0  0  0  0  0  0  0  # atno 7974 bound_to 7965
  154.4694  140.0925  156.7106 H   0  0  0  0  0  0  0  0  0  0  0  0  # atno 8008 bound_to 7997
  155.4765  140.3466  155.4315 H   0  0  0  0  0  0  0  0  0  0  0  0  # atno 8009 bound_to 7997
  156.1014  140.1423  156.9451 H   0  0  0  0  0  0  0  0  0  0  0  0  # atno 8010 bound_to 7997
  139.7514  143.8512  152.2587 H   0  0  0  0  0  0  0  0  0  0  0  0  # atno 10167 bound_to 10162
  155.9997  130.4731  150.4563 H   0  0  0  0  0  0  0  0  0  0  0  0  # atno 10718 bound_to 10713
  153.8821  135.6820  153.4766 H   0  0  0  0  0  0  0  0  0  0  0  0  # atno 10763 bound_to 10752
  153.1228  135.4732  154.9221 H   0  0  0  0  0  0  0  0  0  0  0  0  # atno 10764 bound_to 10752
  154.7664  135.3225  154.8230 H   0  0  0  0  0  0  0  0  0  0  0  0  # atno 10765 bound_to 10752
  141.0947  133.6626  156.4088 H   0  0  0  0  0  0  0  0  0  0  0  0  # atno 11005 bound_to 11000
  146.3386  140.2455  142.8597 LP  0  0  0  0  0  0  0  0  0  0  0  0  # atno 17320 bound_to 7965
  144.9808  140.8457  143.5399 LP  0  0  0  0  0  0  0  0  0  0  0  0  # atno 17321 bound_to 7965
  139.8492  144.7173  150.9235 LP  0  0  0  0  0  0  0  0  0  0  0  0  # atno 17342 bound_to 10162
  140.7798  143.3914  151.1303 LP  0  0  0  0  0  0  0  0  0  0  0  0  # atno 17343 bound_to 10162
  157.2591  131.0563  151.2331 LP  0  0  0  0  0  0  0  0  0  0  0  0  # atno 17370 bound_to 10713
  157.3452  130.7054  149.6406 LP  0  0  0  0  0  0  0  0  0  0  0  0  # atno 17371 bound_to 10713
  140.5169  134.6341  157.5304 LP  0  0  0  0  0  0  0  0  0  0  0  0  # atno 17394 bound_to 11000
  139.9780  134.7183  155.9912 LP  0  0  0  0  0  0  0  0  0  0  0  0  # atno 17395 bound_to 11000

$$$$
