AV-unprocessed.smi:151|AV-procd|sdf|1245|dock6
  -GOLD-   2262018463D 1   1.00000     0.00000
 Structure written by MMmdl.
 56 59  0  0  0  0  0  0  0  0  1 V2000
  149.1162  130.8440  161.0248 C   0  0  0  0  0  0  0  0  0  0  0  0
  147.8318  130.8112  160.1853 C   0  0  0  0  0  0  0  0  0  0  0  0
  146.9277  132.0610  160.3546 C   0  0  1  0  0  0  0  0  0  0  0  0
  146.5686  132.2887  161.8404 C   0  0  0  0  0  0  0  0  0  0  0  0
  145.7948  133.4732  162.0126 O   0  0  0  0  0  0  0  0  0  0  0  0
  146.3984  134.6734  161.5267 C   0  0  0  0  0  0  0  0  0  0  0  0
  145.3270  135.7638  161.6821 C   0  0  0  0  0  0  0  0  0  0  0  0
  147.6406  135.0578  162.3588 C   0  0  0  0  0  0  0  0  0  0  0  0
  146.7359  134.4770  160.0351 C   0  0  0  0  0  0  0  0  0  0  0  0
  147.5480  133.2819  159.8271 N   0  0  0  0  0  0  0  0  0  0  0  0
  148.0032  133.2035  158.5562 C   0  0  0  0  0  0  0  0  0  0  0  0
  149.3397  133.1758  158.3104 N   0  0  0  0  0  0  0  0  0  0  0  0
  149.7824  133.1204  157.0509 C   0  0  0  0  0  0  0  0  0  0  0  0
  149.0766  133.0915  155.9182 N   0  0  0  0  0  0  0  0  0  0  0  0
  147.7343  133.1229  156.1644 C   0  0  0  0  0  0  0  0  0  0  0  0
  147.1195  133.1751  157.4463 C   0  0  0  0  0  0  0  0  0  0  0  0
  145.7378  133.1966  157.3155 N   0  0  0  0  0  0  0  0  0  0  0  0
  145.5439  133.1604  156.0251 C   0  0  0  0  0  0  0  0  0  0  0  0
  146.6869  133.1183  155.2565 N   0  0  0  0  0  0  0  0  0  0  0  0
  146.7508  133.0780  153.8220 C   0  0  0  0  0  0  0  0  0  0  0  0
  146.1115  134.1780  152.9720 C   0  0  0  0  0  0  0  0  0  0  0  0
  145.6582  133.1303  151.9303 C   0  0  0  0  0  0  0  0  0  0  0  0
  144.1867  133.2377  151.5016 C   0  0  0  0  0  0  0  0  0  0  0  0
  143.3513  133.5429  152.5998 O   0  0  0  0  0  0  0  0  0  0  0  0
  146.5021  133.0098  150.6427 C   0  0  0  0  0  0  0  0  0  0  0  0
  146.2877  131.7950  149.9525 O   0  0  0  0  0  0  0  0  0  0  0  0
  145.9277  132.0669  153.0193 C   0  0  0  0  0  0  0  0  0  0  0  0
  149.6535  129.8992  160.9402 H   0  0  0  0  0  0  0  0  0  0  0  0
  148.8926  131.0035  162.0798 H   0  0  0  0  0  0  0  0  0  0  0  0
  149.7954  131.6309  160.6985 H   0  0  0  0  0  0  0  0  0  0  0  0
  148.0878  130.6801  159.1332 H   0  0  0  0  0  0  0  0  0  0  0  0
  147.2898  129.9115  160.4767 H   0  0  0  0  0  0  0  0  0  0  0  0
  146.0015  131.8962  159.8016 H   0  0  0  0  0  0  0  0  0  0  0  0
  145.9712  131.4599  162.2183 H   0  0  0  0  0  0  0  0  0  0  0  0
  147.4650  132.3262  162.4595 H   0  0  0  0  0  0  0  0  0  0  0  0
  145.6833  136.7261  161.3133 H   0  0  0  0  0  0  0  0  0  0  0  0
  145.0447  135.8930  162.7276 H   0  0  0  0  0  0  0  0  0  0  0  0
  144.4224  135.5115  161.1277 H   0  0  0  0  0  0  0  0  0  0  0  0
  148.0252  136.0321  162.0557 H   0  0  0  0  0  0  0  0  0  0  0  0
  148.4576  134.3462  162.2423 H   0  0  0  0  0  0  0  0  0  0  0  0
  147.3997  135.1144  163.4206 H   0  0  0  0  0  0  0  0  0  0  0  0
  145.8120  134.3820  159.4622 H   0  0  0  0  0  0  0  0  0  0  0  0
  147.2571  135.3555  159.6508 H   0  0  0  0  0  0  0  0  0  0  0  0
  150.8556  133.1001  156.9328 H   0  0  0  0  0  0  0  0  0  0  0  0
  144.5520  133.1657  155.5967 H   0  0  0  0  0  0  0  0  0  0  0  0
  147.8063  132.9811  153.5638 H   0  0  0  0  0  0  0  0  0  0  0  0
  145.2743  134.6662  153.4725 H   0  0  0  0  0  0  0  0  0  0  0  0
  146.8189  134.9170  152.5948 H   0  0  0  0  0  0  0  0  0  0  0  0
  144.0525  133.9994  150.7328 H   0  0  0  0  0  0  0  0  0  0  0  0
  143.8373  132.2988  151.0702 H   0  0  0  0  0  0  0  0  0  0  0  0
  143.4407  132.8567  153.2436 H   0  0  0  0  0  0  0  0  0  0  0  0
  146.2763  133.8262  149.9557 H   0  0  0  0  0  0  0  0  0  0  0  0
  147.5677  133.0745  150.8644 H   0  0  0  0  0  0  0  0  0  0  0  0
  147.1196  131.3586  149.8487 H   0  0  0  0  0  0  0  0  0  0  0  0
  146.4966  131.2001  152.6812 H   0  0  0  0  0  0  0  0  0  0  0  0
  145.0228  131.7492  153.5384 H   0  0  0  0  0  0  0  0  0  0  0  0
  1  2  1  0  0  0  0
  1 28  1  0  0  0  0
  1 29  1  0  0  0  0
  1 30  1  0  0  0  0
  2  3  1  0  0  0  0
  2 31  1  0  0  0  0
  2 32  1  0  0  0  0
  3 10  1  0  0  0  0
  3  4  1  0  0  0  0
  3 33  1  0  0  0  0
  4  5  1  0  0  0  0
  4 34  1  0  0  0  0
  4 35  1  0  0  0  0
  5  6  1  0  0  0  0
  6  7  1  0  0  0  0
  6  8  1  0  0  0  0
  6  9  1  0  0  0  0
  7 36  1  0  0  0  0
  7 37  1  0  0  0  0
  7 38  1  0  0  0  0
  8 39  1  0  0  0  0
  8 40  1  0  0  0  0
  8 41  1  0  0  0  0
  9 10  1  0  0  0  0
  9 42  1  0  0  0  0
  9 43  1  0  0  0  0
 10 11  1  0  0  0  0
 11 16  1  0  0  0  0
 11 12  2  0  0  0  0
 12 13  1  0  0  0  0
 13 14  2  0  0  0  0
 13 44  1  0  0  0  0
 14 15  1  0  0  0  0
 15 19  1  0  0  0  0
 15 16  2  0  0  0  0
 16 17  1  0  0  0  0
 17 18  2  0  0  0  0
 18 19  1  0  0  0  0
 18 45  1  0  0  0  0
 19 20  1  0  0  0  0
 20 27  1  0  0  0  0
 20 21  1  0  0  0  0
 20 46  1  0  0  0  0
 21 22  1  0  0  0  0
 21 47  1  0  0  0  0
 21 48  1  0  0  0  0
 22 23  1  0  0  0  0
 22 25  1  0  0  0  0
 22 27  1  0  0  0  0
 23 24  1  0  0  0  0
 23 49  1  0  0  0  0
 23 50  1  0  0  0  0
 24 51  1  0  0  0  0
 25 26  1  0  0  0  0
 25 52  1  0  0  0  0
 25 53  1  0  0  0  0
 26 54  1  0  0  0  0
 27 55  1  0  0  0  0
 27 56  1  0  0  0  0
M  END
> <s_m_source_file>
AV-unprocessed.smi

> <i_m_source_file_index>
151

> <i_lp_mmshare_version>
43012

> <i_f3d_flags>
0

> <s_epik_input>
W0NIM11DMShbQ0gzXSlPW0NIMl1bQ0BASF0oW0NIMl1bQ0gzXSlOKFtDSDJdMSljKG5bY0hdbjIpYyhjMjMpbltjSF1uM1tDSF0oW0NIMl00KVtDSDJdQzQoW0NIMl1bT0hdKVtDSDJdW09IXQ==

> <s_epik_cmdline>
J2VwaWtfcHl0aG9uJywgJy1waCcsICc3LjAnLCAnLXRuJywgJzgnLCAnLW1hJywgJzIwMCcsICctbWV0YWxfYmluZGluZycsICctaW1hZScsICc8aW5maWxlLm1hZT4nLCAnLW9tYWUnLCAnPG91dGZpbGUubWFlPic=

> <r_lp_tautomer_probability>
1

> <r_epik_Ionization_Penalty>
0.000102837

> <r_epik_Ionization_Penalty_Charging>
0

> <r_epik_Ionization_Penalty_Neutral>
0.000102837

> <r_epik_State_Penalty>
-0

> <r_epik_Charging_Adjusted_Penalty>
0

> <i_epik_Tot_Q>
0

> <i_epik_Tot_abs_Q>
0

> <r_epik_Metal_State_Penalty>
-0

> <b_epik_Metal_Only>
0

> <s_lp_Force_Field>
OPLS_2005

> <r_lp_Energy>
49.3626

> <b_lp_Chiralities_Consistent>
1

> <s_lp_Variant>
AV-unprocessed.smi:151-2

> <Gold.Version>
5.8.1

> <Gold.Id.Protein>
6NUR|6NUR_protein|mol2

> <Gold.PLP.Fitness>
40.2052

> <Gold.PLP.PLP>
-28.6252

> <Gold.PLP.part.hbond>
-3.0000

> <Gold.PLP.part.metal>
0.0000

> <Gold.PLP.part.buried>
-6.2600

> <Gold.PLP.part.nonpolar>
-20.2222

> <Gold.PLP.part.repulsive>
0.0736

> <Gold.PLP.ligand.clash>
0.0000

> <Gold.PLP.ligand.torsion>
0.4568

> <Gold.PLP.Chemscore.Hbond>
2.9913

> <Gold.PLP.Chemscore.CHOScore>
1.0000

> <Gold.PLP.Chemscore.Metal>
0.0000

> <Gold.Chemscore.Hbonds>
donor molecule, donor type, donor heavy atom, donor atom, acceptor molecule, acceptor atom, score
      L1  H    24    51       P1 10957  1.00
      L1  H    26    54       P1 10747  1.00
      P1  H  6896  6907       L1    12  1.00
      L1  C    18    45       P1 10957  1.00

> <Gold.PLP.Chemscore.Internal.Correction>
0.5198

> <Gold.Rescore>
     Score         DG    S(hbond)    S(metal)    S(lipo)     H(rot)  DE(clash)    DE(int)     intcor
     13.23     -14.01       2.38        0.00      76.34       3.26       0.20       0.58       ----

> <Gold.Chemscore.Fitness>
13.2280

> <Gold.Chemscore.DG>
-14.0094

> <Gold.Chemscore.ZeroCoef>
-5.4800

> <Gold.Chemscore.Hbond>
2.3781

> <Gold.Chemscore.Metal>
0.0000

> <Gold.Chemscore.Lipo>
76.3354

> <Gold.Chemscore.Internal_Hbond>
0.0000

> <Gold.Chemscore.DEClash>
0.2011

> <Gold.Chemscore.DEInternal>
0.5804

> <Gold.Chemscore.Rot>
3.2596

> <Gold.Chemscore.Internal.Correction>
   9.000000E+99

> <Gold.Chemscore.Hbonds>
donor molecule, donor type, donor heavy atom, donor atom, acceptor molecule, acceptor atom, score
      L1  H    24    51       P1 10957  0.49
      L1  H    26    54       P1 10747  0.98
      P1  H  6896  6907       L1    12  0.40

> <Gold.Chemscore.Hbond.Weighted>
-7.9429

> <Gold.Chemscore.Metal.Weighted>
-0.0000

> <Gold.Chemscore.Lipo.Weighted>
-8.9312

> <Gold.Chemscore.Internal_Hbond.Weighted>
0.0000

> <Gold.Chemscore.DEClash.Weighted>
0.2011

> <Gold.Chemscore.DEInternal.Weighted>
0.5804

> <Gold.Chemscore.Rot.Weighted>
8.3447

> <Gold.Chemscore.Internal.Correction.Weighted>
   9.000000E+99

> <Gold.Protein.RotatedTorsions>
[ 6907 6896 6895 6894 ] final -124.22 input  -60.11 | X-H torsion
[ 7974 7965 7964 7962 ] final -120.91 input  175.53 | X-H torsion
[ 8008 7997 7996 7995 ] final   -1.57 input   59.86 | X-H torsion
[ 10167 10162 10161 10158 ] final   77.14 input  -65.29 | X-H torsion
[ 10718 10713 10712 10709 ] final  -61.39 input   66.30 | X-H torsion
[ 10763 10752 10751 10750 ] final   19.90 input  -60.55 | X-H torsion
[ 11005 11000 10999 10996 ] final  147.21 input  -57.11 | X-H torsion

> <Gold.Protein.ActiveResidues>
 VAL166  LYS551  ARG553  GLY616  TRP617  ASP618  TYR619  PRO620  LYS621  CYS622 
 ASP623  PHE694  ASN695  SER759  ASP760  ASP761  ALA762  ILE779  LEU786  VAL792 
 PHE793  MET794  SER795  GLU796  ALA797  LYS798  CYS799  TRP800  GLU811  SER814 

> <Gold.Protein.RotatedAtoms>
  150.8747  133.7456  159.2950 H   0  0  0  0  0  0  0  0  0  0  0  0  # atno 6907 bound_to 6896
  151.5056  135.1062  159.9850 H   0  0  0  0  0  0  0  0  0  0  0  0  # atno 6908 bound_to 6896
  152.4719  133.8005  159.7006 H   0  0  0  0  0  0  0  0  0  0  0  0  # atno 6909 bound_to 6896
  145.0462  140.8183  143.4237 H   0  0  0  0  0  0  0  0  0  0  0  0  # atno 7974 bound_to 7965
  154.6453  140.2556  155.7275 H   0  0  0  0  0  0  0  0  0  0  0  0  # atno 8008 bound_to 7997
  156.2549  140.2879  156.0785 H   0  0  0  0  0  0  0  0  0  0  0  0  # atno 8009 bound_to 7997
  155.1533  140.0382  157.2816 H   0  0  0  0  0  0  0  0  0  0  0  0  # atno 8010 bound_to 7997
  139.9847  144.5800  150.7869 H   0  0  0  0  0  0  0  0  0  0  0  0  # atno 10167 bound_to 10162
  156.0925  130.4198  150.0987 H   0  0  0  0  0  0  0  0  0  0  0  0  # atno 10718 bound_to 10713
  153.1123  135.6699  153.9479 H   0  0  0  0  0  0  0  0  0  0  0  0  # atno 10763 bound_to 10752
  153.9019  135.3035  155.3450 H   0  0  0  0  0  0  0  0  0  0  0  0  # atno 10764 bound_to 10752
  154.7542  135.5020  153.9421 H   0  0  0  0  0  0  0  0  0  0  0  0  # atno 10765 bound_to 10752
  140.0857  134.9071  157.1572 H   0  0  0  0  0  0  0  0  0  0  0  0  # atno 11005 bound_to 11000
  145.1585  139.2472  143.5404 LP  0  0  0  0  0  0  0  0  0  0  0  0  # atno 17320 bound_to 7965
  146.3514  140.1306  142.8597 LP  0  0  0  0  0  0  0  0  0  0  0  0  # atno 17321 bound_to 7965
  140.7476  143.2909  151.3333 LP  0  0  0  0  0  0  0  0  0  0  0  0  # atno 17342 bound_to 10162
  139.6383  144.0587  152.2534 LP  0  0  0  0  0  0  0  0  0  0  0  0  # atno 17343 bound_to 10162
  156.8994  130.9615  151.3578 LP  0  0  0  0  0  0  0  0  0  0  0  0  # atno 17370 bound_to 10713
  157.6078  130.8560  149.8903 LP  0  0  0  0  0  0  0  0  0  0  0  0  # atno 17371 bound_to 10713
  140.3423  134.2690  155.7210 LP  0  0  0  0  0  0  0  0  0  0  0  0  # atno 17394 bound_to 11000
  141.2062  133.7840  157.0192 LP  0  0  0  0  0  0  0  0  0  0  0  0  # atno 17395 bound_to 11000

$$$$
