AV-unprocessed.smi:1795|AV-procd|sdf|7241|dock3
  -GOLD-   22720 8493D 1   1.00000     0.00000
 Structure written by MMmdl.
 47 48  0  0  0  0  0  0  0  0  1 V2000
  148.0701  141.7552  153.5287 C   0  0  0  0  0  0  0  0  0  0  0  0
  148.4327  141.0438  154.8365 C   0  0  1  0  0  0  0  0  0  0  0  0
  149.9498  140.8218  154.9711 C   0  0  0  0  0  0  0  0  0  0  0  0
  150.3285  140.2159  156.2513 N   0  0  0  0  0  0  0  0  0  0  0  0
  151.7898  139.9940  156.3625 C   0  0  2  0  0  0  0  0  0  0  0  0
  152.3585  139.1400  155.1999 C   0  0  0  0  0  0  0  0  0  0  0  0
  152.2151  139.3483  157.7148 C   0  0  0  0  0  0  0  0  0  0  0  0
  152.5080  140.3259  158.7594 N   0  0  0  0  0  0  0  0  0  0  0  0
  153.6412  140.3721  159.4757 C   0  0  0  0  0  0  0  0  0  0  0  0
  154.5874  139.6055  159.2916 O   0  0  0  0  0  0  0  0  0  0  0  0
  153.7155  141.4614  160.5542 C   0  0  0  0  0  0  0  0  0  0  0  0
  153.0171  142.6983  160.1672 N   0  0  0  0  0  0  0  0  0  0  0  0
  153.3471  143.2601  158.9176 C   0  0  0  0  0  0  0  0  0  0  0  0
  152.7706  144.3873  158.4714 C   0  0  0  0  0  0  0  0  0  0  0  0
  151.7862  145.0288  159.3103 C   0  0  0  0  0  0  0  0  0  0  0  0
  151.4649  144.5017  160.5084 C   0  0  0  0  0  0  0  0  0  0  0  0
  152.0933  143.2702  161.0006 C   0  0  0  0  0  0  0  0  0  0  0  0
  151.8075  142.7824  162.0948 O   0  0  0  0  0  0  0  0  0  0  0  0
  149.8025  141.0675  157.3247 C   0  0  0  0  0  0  0  0  0  0  0  0
  148.2900  141.3455  157.2117 C   0  0  2  0  0  0  0  0  0  0  0  0
  147.4175  140.1357  157.5883 C   0  0  0  0  0  0  0  0  0  0  0  0
  147.9713  141.8479  155.9166 O   0  0  0  0  0  0  0  0  0  0  0  0
  148.3896  141.1734  152.6638 H   0  0  0  0  0  0  0  0  0  0  0  0
  148.5447  142.7350  153.4677 H   0  0  0  0  0  0  0  0  0  0  0  0
  146.9926  141.9014  153.4510 H   0  0  0  0  0  0  0  0  0  0  0  0
  147.9211  140.0812  154.8542 H   0  0  0  0  0  0  0  0  0  0  0  0
  150.2486  140.1835  154.1419 H   0  0  0  0  0  0  0  0  0  0  0  0
  150.4725  141.7714  154.8443 H   0  0  0  0  0  0  0  0  0  0  0  0
  152.2774  140.9683  156.3048 H   0  0  0  0  0  0  0  0  0  0  0  0
  153.4230  138.9373  155.3124 H   0  0  0  0  0  0  0  0  0  0  0  0
  152.2709  139.6403  154.2368 H   0  0  0  0  0  0  0  0  0  0  0  0
  151.8477  138.1792  155.1301 H   0  0  0  0  0  0  0  0  0  0  0  0
  151.4461  138.6892  158.1152 H   0  0  0  0  0  0  0  0  0  0  0  0
  153.1032  138.7330  157.5684 H   0  0  0  0  0  0  0  0  0  0  0  0
  151.7846  140.9984  158.9695 H   0  0  0  0  0  0  0  0  0  0  0  0
  153.2991  141.0538  161.4761 H   0  0  0  0  0  0  0  0  0  0  0  0
  154.7597  141.6825  160.7848 H   0  0  0  0  0  0  0  0  0  0  0  0
  154.0971  142.7240  158.3546 H   0  0  0  0  0  0  0  0  0  0  0  0
  153.0388  144.8055  157.5123 H   0  0  0  0  0  0  0  0  0  0  0  0
  151.3064  145.9371  158.9762 H   0  0  0  0  0  0  0  0  0  0  0  0
  150.7273  144.9968  161.1228 H   0  0  0  0  0  0  0  0  0  0  0  0
  149.9704  140.6156  158.2998 H   0  0  0  0  0  0  0  0  0  0  0  0
  150.3375  142.0186  157.3251 H   0  0  0  0  0  0  0  0  0  0  0  0
  148.0447  142.1419  157.9147 H   0  0  0  0  0  0  0  0  0  0  0  0
  147.5889  139.8423  158.6240 H   0  0  0  0  0  0  0  0  0  0  0  0
  147.6294  139.2669  156.9657 H   0  0  0  0  0  0  0  0  0  0  0  0
  146.3587  140.3729  157.4832 H   0  0  0  0  0  0  0  0  0  0  0  0
  1  2  1  0  0  0  0
  1 23  1  0  0  0  0
  1 24  1  0  0  0  0
  1 25  1  0  0  0  0
  2 22  1  0  0  0  0
  2  3  1  0  0  0  0
  2 26  1  0  0  0  0
  3  4  1  0  0  0  0
  3 27  1  0  0  0  0
  3 28  1  0  0  0  0
  4  5  1  0  0  0  0
  4 19  1  0  0  0  0
  5  6  1  0  0  0  0
  5  7  1  0  0  0  0
  5 29  1  0  0  0  0
  6 30  1  0  0  0  0
  6 31  1  0  0  0  0
  6 32  1  0  0  0  0
  7  8  1  0  0  0  0
  7 33  1  0  0  0  0
  7 34  1  0  0  0  0
  8  9  1  0  0  0  0
  8 35  1  0  0  0  0
  9 10  2  0  0  0  0
  9 11  1  0  0  0  0
 11 12  1  0  0  0  0
 11 36  1  0  0  0  0
 11 37  1  0  0  0  0
 12 17  1  0  0  0  0
 12 13  1  0  0  0  0
 13 14  2  0  0  0  0
 13 38  1  0  0  0  0
 14 15  1  0  0  0  0
 14 39  1  0  0  0  0
 15 16  2  0  0  0  0
 15 40  1  0  0  0  0
 16 17  1  0  0  0  0
 16 41  1  0  0  0  0
 17 18  2  0  0  0  0
 19 20  1  0  0  0  0
 19 42  1  0  0  0  0
 19 43  1  0  0  0  0
 20 21  1  0  0  0  0
 20 22  1  0  0  0  0
 20 44  1  0  0  0  0
 21 45  1  0  0  0  0
 21 46  1  0  0  0  0
 21 47  1  0  0  0  0
M  END
> <s_m_source_file>
AV-unprocessed.smi

> <i_m_source_file_index>
1795

> <i_lp_mmshare_version>
43012

> <i_f3d_flags>
0

> <s_epik_input>
W0NIM11bQ0BASF0xW0NIMl1OKFtDSDJdW0NASF0oTzEpW0NIM10pW0NASF0oW0NIM10pW0NIMl1bTkhdQyg9TylbQ0gyXW4yW2NIXVtjSF1bY0hdW2NIXWMyPU8=

> <s_epik_cmdline>
J2VwaWtfcHl0aG9uJywgJy1waCcsICc3LjAnLCAnLXRuJywgJzgnLCAnLW1hJywgJzIwMCcsICctbWV0YWxfYmluZGluZycsICctaW1hZScsICc8aW5maWxlLm1hZT4nLCAnLW9tYWUnLCAnPG91dGZpbGUubWFlPic=

> <r_lp_tautomer_probability>
1

> <r_epik_Ionization_Penalty>
0.237383

> <r_epik_Ionization_Penalty_Charging>
3.58805e-07

> <r_epik_Ionization_Penalty_Neutral>
0.237382

> <r_epik_State_Penalty>
0.228245

> <r_epik_Charging_Adjusted_Penalty>
0.228245

> <i_epik_Tot_Q>
0

> <i_epik_Tot_abs_Q>
0

> <r_epik_Metal_State_Penalty>
0.228221

> <b_epik_Metal_Only>
0

> <s_lp_Force_Field>
OPLS_2005

> <r_lp_Energy>
40.4957

> <b_lp_Chiralities_Consistent>
1

> <s_lp_Variant>
AV-unprocessed.smi:1795-5

> <Gold.Version>
5.8.1

> <Gold.Id.Protein>
6NUR|6NUR_protein|mol2

> <Gold.PLP.Fitness>
49.9481

> <Gold.PLP.PLP>
-45.7906

> <Gold.PLP.part.hbond>
-2.0000

> <Gold.PLP.part.metal>
0.0000

> <Gold.PLP.part.buried>
-5.1504

> <Gold.PLP.part.nonpolar>
-41.4175

> <Gold.PLP.part.repulsive>
1.5605

> <Gold.PLP.ligand.clash>
0.0000

> <Gold.PLP.ligand.torsion>
0.8798

> <Gold.PLP.Chemscore.Hbond>
1.9357

> <Gold.PLP.Chemscore.CHOScore>
0.0000

> <Gold.PLP.Chemscore.Metal>
0.0000

> <Gold.Chemscore.Hbonds>
donor molecule, donor type, donor heavy atom, donor atom, acceptor molecule, acceptor atom, score
      P1  H  6933  6945       L1    18  0.89
      P1  H  7997  8010       L1    10  0.83

> <Gold.PLP.Chemscore.Internal.Correction>
0.1098

> <Gold.Rescore>
     Score         DG    S(hbond)    S(metal)    S(lipo)     H(rot)  DE(clash)    DE(int)     intcor
     17.86     -18.90       1.54        0.00     110.57       1.83       0.24       0.80       ----

> <Gold.Chemscore.Fitness>
17.8625

> <Gold.Chemscore.DG>
-18.8996

> <Gold.Chemscore.ZeroCoef>
-5.4800

> <Gold.Chemscore.Hbond>
1.5434

> <Gold.Chemscore.Metal>
0.0000

> <Gold.Chemscore.Lipo>
110.5729

> <Gold.Chemscore.Internal_Hbond>
0.0000

> <Gold.Chemscore.DEClash>
0.2351

> <Gold.Chemscore.DEInternal>
0.8020

> <Gold.Chemscore.Rot>
1.8251

> <Gold.Chemscore.Internal.Correction>
   9.000000E+99

> <Gold.Chemscore.Hbonds>
donor molecule, donor type, donor heavy atom, donor atom, acceptor molecule, acceptor atom, score
      P1  H  6933  6945       L1    18  0.78
      P1  H  7997  8010       L1    10  0.43

> <Gold.Chemscore.Hbond.Weighted>
-5.1550

> <Gold.Chemscore.Metal.Weighted>
-0.0000

> <Gold.Chemscore.Lipo.Weighted>
-12.9370

> <Gold.Chemscore.Internal_Hbond.Weighted>
0.0000

> <Gold.Chemscore.DEClash.Weighted>
0.2351

> <Gold.Chemscore.DEInternal.Weighted>
0.8020

> <Gold.Chemscore.Rot.Weighted>
4.6724

> <Gold.Chemscore.Internal.Correction.Weighted>
   9.000000E+99

> <Gold.Protein.RotatedTorsions>
[ 6907 6896 6895 6894 ] final   19.47 input  -60.11 | X-H torsion
[ 7974 7965 7964 7962 ] final  -13.43 input  175.53 | X-H torsion
[ 8008 7997 7996 7995 ] final  -12.59 input   59.86 | X-H torsion
[ 10167 10162 10161 10158 ] final  -14.71 input  -65.29 | X-H torsion
[ 10718 10713 10712 10709 ] final   43.64 input   66.30 | X-H torsion
[ 10763 10752 10751 10750 ] final -151.32 input  -60.55 | X-H torsion
[ 11005 11000 10999 10996 ] final  -12.54 input  -57.11 | X-H torsion

> <Gold.Protein.ActiveResidues>
 VAL166  LYS551  ARG553  GLY616  TRP617  ASP618  TYR619  PRO620  LYS621  CYS622 
 ASP623  PHE694  ASN695  SER759  ASP760  ASP761  ALA762  ILE779  LEU786  VAL792 
 PHE793  MET794  SER795  GLU796  ALA797  LYS798  CYS799  TRP800  GLU811  SER814 

> <Gold.Protein.RotatedAtoms>
  151.8814  135.0452  160.0488 H   0  0  0  0  0  0  0  0  0  0  0  0  # atno 6907 bound_to 6896
  152.2509  133.5210  159.5333 H   0  0  0  0  0  0  0  0  0  0  0  0  # atno 6908 bound_to 6896
  150.7083  134.0877  159.3963 H   0  0  0  0  0  0  0  0  0  0  0  0  # atno 6909 bound_to 6896
  146.2114  140.3202  142.8390 H   0  0  0  0  0  0  0  0  0  0  0  0  # atno 7974 bound_to 7965
  154.5364  140.2272  155.8715 H   0  0  0  0  0  0  0  0  0  0  0  0  # atno 8008 bound_to 7997
  156.1816  140.3099  155.9122 H   0  0  0  0  0  0  0  0  0  0  0  0  # atno 8009 bound_to 7997
  155.3345  140.0447  157.3034 H   0  0  0  0  0  0  0  0  0  0  0  0  # atno 8010 bound_to 7997
  140.7206  143.5293  150.9539 H   0  0  0  0  0  0  0  0  0  0  0  0  # atno 10167 bound_to 10162
  157.4181  130.7953  149.7490 H   0  0  0  0  0  0  0  0  0  0  0  0  # atno 10718 bound_to 10713
  154.8065  135.3263  154.7417 H   0  0  0  0  0  0  0  0  0  0  0  0  # atno 10763 bound_to 10752
  153.8075  135.6898  153.4850 H   0  0  0  0  0  0  0  0  0  0  0  0  # atno 10764 bound_to 10752
  153.1814  135.4585  154.9978 H   0  0  0  0  0  0  0  0  0  0  0  0  # atno 10765 bound_to 10752
  140.7667  133.8471  155.9172 H   0  0  0  0  0  0  0  0  0  0  0  0  # atno 11005 bound_to 11000
  144.8925  140.7542  143.5917 LP  0  0  0  0  0  0  0  0  0  0  0  0  # atno 17320 bound_to 7965
  145.3125  139.1814  143.4631 LP  0  0  0  0  0  0  0  0  0  0  0  0  # atno 17321 bound_to 7965
  139.9013  143.6832  152.3131 LP  0  0  0  0  0  0  0  0  0  0  0  0  # atno 17342 bound_to 10162
  139.7183  144.7607  151.0997 LP  0  0  0  0  0  0  0  0  0  0  0  0  # atno 17343 bound_to 10162
  155.9871  130.3969  150.3178 LP  0  0  0  0  0  0  0  0  0  0  0  0  # atno 17370 bound_to 10713
  157.1323  131.0275  151.2964 LP  0  0  0  0  0  0  0  0  0  0  0  0  # atno 17371 bound_to 10713
  140.9612  134.1653  157.4652 LP  0  0  0  0  0  0  0  0  0  0  0  0  # atno 17394 bound_to 11000
  139.8762  134.9945  156.5698 LP  0  0  0  0  0  0  0  0  0  0  0  0  # atno 17395 bound_to 11000

$$$$
