AV-unprocessed.smi:412|AV-procd|sdf|2511|dock6
  -GOLD-   2262022463D 1   1.00000     0.00000
 Structure written by MMmdl.
 36 38  0  0  0  0  0  0  0  0  1 V2000
  154.0147  140.8321  160.4769 C   0  0  0  0  0  0  0  0  0  0  0  0
  152.9063  141.1486  159.5842 N   0  0  0  0  0  0  0  0  0  0  0  0
  152.2050  140.2830  158.8155 C   0  0  0  0  0  0  0  0  0  0  0  0
  152.3880  139.0679  158.7393 O   0  0  0  0  0  0  0  0  0  0  0  0
  151.2596  140.9859  158.1474 N   0  0  0  0  0  0  0  0  0  0  0  0
  150.2765  140.4460  157.2088 C   0  0  0  0  0  0  0  0  0  0  0  0
  150.5364  140.9210  155.7654 C   0  0  1  0  0  0  0  0  0  0  0  0
  151.7042  140.2838  155.2848 O   0  0  0  0  0  0  0  0  0  0  0  0
  149.3366  140.6364  154.8740 C   0  0  0  0  0  0  0  0  0  0  0  0
  148.9895  139.3106  154.5301 C   0  0  0  0  0  0  0  0  0  0  0  0
  147.8729  139.0585  153.7095 C   0  0  0  0  0  0  0  0  0  0  0  0
  147.0930  140.1294  153.2326 C   0  0  0  0  0  0  0  0  0  0  0  0
  147.4291  141.4521  153.5783 C   0  0  0  0  0  0  0  0  0  0  0  0
  148.5471  141.7049  154.3968 C   0  0  0  0  0  0  0  0  0  0  0  0
  151.3556  142.3390  158.5044 C   0  0  0  0  0  0  0  0  0  0  0  0
  150.6074  143.4602  158.1041 C   0  0  0  0  0  0  0  0  0  0  0  0
  150.9637  144.7092  158.6649 C   0  0  0  0  0  0  0  0  0  0  0  0
  152.0331  144.8118  159.5922 C   0  0  0  0  0  0  0  0  0  0  0  0
  152.7685  143.6670  159.9798 C   0  0  0  0  0  0  0  0  0  0  0  0
  152.3929  142.4396  159.4075 C   0  0  0  0  0  0  0  0  0  0  0  0
  154.2712  139.7722  160.4533 H   0  0  0  0  0  0  0  0  0  0  0  0
  153.7566  141.0928  161.5035 H   0  0  0  0  0  0  0  0  0  0  0  0
  154.9013  141.3992  160.1923 H   0  0  0  0  0  0  0  0  0  0  0  0
  150.2304  139.3578  157.2637 H   0  0  0  0  0  0  0  0  0  0  0  0
  149.2949  140.7969  157.5320 H   0  0  0  0  0  0  0  0  0  0  0  0
  150.7206  141.9963  155.7536 H   0  0  0  0  0  0  0  0  0  0  0  0
  151.9605  139.6207  155.9075 H   0  0  0  0  0  0  0  0  0  0  0  0
  149.5774  138.4817  154.8962 H   0  0  0  0  0  0  0  0  0  0  0  0
  147.6139  138.0433  153.4472 H   0  0  0  0  0  0  0  0  0  0  0  0
  146.2363  139.9362  152.6040 H   0  0  0  0  0  0  0  0  0  0  0  0
  146.8282  142.2736  153.2164 H   0  0  0  0  0  0  0  0  0  0  0  0
  148.7949  142.7233  154.6587 H   0  0  0  0  0  0  0  0  0  0  0  0
  149.7920  143.3776  157.4012 H   0  0  0  0  0  0  0  0  0  0  0  0
  150.4140  145.5954  158.3845 H   0  0  0  0  0  0  0  0  0  0  0  0
  152.2879  145.7753  160.0080 H   0  0  0  0  0  0  0  0  0  0  0  0
  153.5825  143.7359  160.6863 H   0  0  0  0  0  0  0  0  0  0  0  0
  1  2  1  0  0  0  0
  1 21  1  0  0  0  0
  1 22  1  0  0  0  0
  1 23  1  0  0  0  0
  2 20  1  0  0  0  0
  2  3  1  0  0  0  0
  3  4  2  0  0  0  0
  3  5  1  0  0  0  0
  5  6  1  0  0  0  0
  5 15  1  0  0  0  0
  6  7  1  0  0  0  0
  6 24  1  0  0  0  0
  6 25  1  0  0  0  0
  7  8  1  0  0  0  0
  7  9  1  0  0  0  0
  7 26  1  0  0  0  0
  8 27  1  0  0  0  0
  9 14  1  0  0  0  0
  9 10  2  0  0  0  0
 10 11  1  0  0  0  0
 10 28  1  0  0  0  0
 11 12  2  0  0  0  0
 11 29  1  0  0  0  0
 12 13  1  0  0  0  0
 12 30  1  0  0  0  0
 13 14  2  0  0  0  0
 13 31  1  0  0  0  0
 14 32  1  0  0  0  0
 15 20  2  0  0  0  0
 15 16  1  0  0  0  0
 16 17  2  0  0  0  0
 16 33  1  0  0  0  0
 17 18  1  0  0  0  0
 17 34  1  0  0  0  0
 18 19  2  0  0  0  0
 18 35  1  0  0  0  0
 19 20  1  0  0  0  0
 19 36  1  0  0  0  0
M  END
> <s_m_source_file>
AV-unprocessed.smi

> <i_m_source_file_index>
412

> <i_lp_mmshare_version>
43012

> <i_f3d_flags>
0

> <s_epik_input>
W2NIXTFbY0hdW2NIXVtjSF1jKGMxMiluKFtDSDNdKWMoPU8pbjJbQ0gyXVtDQEhdKFtPSF0pYzNbY0hdW2NIXVtjSF1bY0hdW2NIXTM=

> <s_epik_cmdline>
J2VwaWtfcHl0aG9uJywgJy1waCcsICc3LjAnLCAnLXRuJywgJzgnLCAnLW1hJywgJzIwMCcsICctbWV0YWxfYmluZGluZycsICctaW1hZScsICc8aW5maWxlLm1hZT4nLCAnLW9tYWUnLCAnPG91dGZpbGUubWFlPic=

> <r_lp_tautomer_probability>
1

> <r_epik_Ionization_Penalty>
1.34619e-06

> <r_epik_Ionization_Penalty_Charging>
2.57375e-09

> <r_epik_Ionization_Penalty_Neutral>
1.34362e-06

> <r_epik_State_Penalty>
-0

> <r_epik_Charging_Adjusted_Penalty>
2.57375e-09

> <i_epik_Tot_Q>
0

> <i_epik_Tot_abs_Q>
0

> <r_epik_Metal_State_Penalty>
-0

> <b_epik_Metal_Only>
0

> <s_lp_Force_Field>
OPLS_2005

> <r_lp_Energy>
43.5229

> <b_lp_Chiralities_Consistent>
1

> <s_lp_Variant>
AV-unprocessed.smi:412-2

> <Gold.Version>
5.8.1

> <Gold.Id.Protein>
6NUR|6NUR_protein|mol2

> <Gold.PLP.Fitness>
49.6393

> <Gold.PLP.PLP>
-47.6220

> <Gold.PLP.part.hbond>
-1.0000

> <Gold.PLP.part.metal>
0.0000

> <Gold.PLP.part.buried>
-4.8837

> <Gold.PLP.part.nonpolar>
-42.0243

> <Gold.PLP.part.repulsive>
0.0000

> <Gold.PLP.ligand.clash>
0.0000

> <Gold.PLP.ligand.torsion>
0.2913

> <Gold.PLP.Chemscore.Hbond>
0.8640

> <Gold.PLP.Chemscore.CHOScore>
0.0000

> <Gold.PLP.Chemscore.Metal>
0.0000

> <Gold.Chemscore.Hbonds>
donor molecule, donor type, donor heavy atom, donor atom, acceptor molecule, acceptor atom, score
      P1  H  7989  7998       L1     8  0.82

> <Gold.PLP.Chemscore.Internal.Correction>
0.0079

> <Gold.Rescore>
     Score         DG    S(hbond)    S(metal)    S(lipo)     H(rot)  DE(clash)    DE(int)     intcor
     17.66     -17.78       0.87        0.00     118.67       1.76       0.02       0.09       ----

> <Gold.Chemscore.Fitness>
17.6590

> <Gold.Chemscore.DG>
-17.7755

> <Gold.Chemscore.ZeroCoef>
-5.4800

> <Gold.Chemscore.Hbond>
0.8697

> <Gold.Chemscore.Metal>
0.0000

> <Gold.Chemscore.Lipo>
118.6736

> <Gold.Chemscore.Internal_Hbond>
0.0000

> <Gold.Chemscore.DEClash>
0.0224

> <Gold.Chemscore.DEInternal>
0.0941

> <Gold.Chemscore.Rot>
1.7555

> <Gold.Chemscore.Internal.Correction>
   9.000000E+99

> <Gold.Chemscore.Hbonds>
donor molecule, donor type, donor heavy atom, donor atom, acceptor molecule, acceptor atom, score
      P1  H  7989  7998       L1     8  0.18

> <Gold.Chemscore.Hbond.Weighted>
-2.9049

> <Gold.Chemscore.Metal.Weighted>
-0.0000

> <Gold.Chemscore.Lipo.Weighted>
-13.8848

> <Gold.Chemscore.Internal_Hbond.Weighted>
0.0000

> <Gold.Chemscore.DEClash.Weighted>
0.0224

> <Gold.Chemscore.DEInternal.Weighted>
0.0941

> <Gold.Chemscore.Rot.Weighted>
4.4942

> <Gold.Chemscore.Internal.Correction.Weighted>
   9.000000E+99

> <Gold.Protein.RotatedTorsions>
[ 6907 6896 6895 6894 ] final  162.74 input  -60.11 | X-H torsion
[ 7974 7965 7964 7962 ] final   46.66 input  175.53 | X-H torsion
[ 8008 7997 7996 7995 ] final   41.65 input   59.86 | X-H torsion
[ 10167 10162 10161 10158 ] final  145.28 input  -65.29 | X-H torsion
[ 10718 10713 10712 10709 ] final   54.67 input   66.30 | X-H torsion
[ 10763 10752 10751 10750 ] final -147.61 input  -60.55 | X-H torsion
[ 11005 11000 10999 10996 ] final -107.67 input  -57.11 | X-H torsion

> <Gold.Protein.ActiveResidues>
 VAL166  LYS551  ARG553  GLY616  TRP617  ASP618  TYR619  PRO620  LYS621  CYS622 
 ASP623  PHE694  ASN695  SER759  ASP760  ASP761  ALA762  ILE779  LEU786  VAL792 
 PHE793  MET794  SER795  GLU796  ALA797  LYS798  CYS799  TRP800  GLU811  SER814 

> <Gold.Protein.RotatedAtoms>
  151.9358  133.3624  159.3947 H   0  0  0  0  0  0  0  0  0  0  0  0  # atno 6907 bound_to 6896
  150.7008  134.4490  159.5337 H   0  0  0  0  0  0  0  0  0  0  0  0  # atno 6908 bound_to 6896
  152.2139  134.8476  160.0545 H   0  0  0  0  0  0  0  0  0  0  0  0  # atno 6909 bound_to 6896
  146.0369  139.4832  142.9802 H   0  0  0  0  0  0  0  0  0  0  0  0  # atno 7974 bound_to 7965
  155.2732  140.3367  155.4263 H   0  0  0  0  0  0  0  0  0  0  0  0  # atno 8008 bound_to 7997
  156.2123  140.1775  156.7708 H   0  0  0  0  0  0  0  0  0  0  0  0  # atno 8009 bound_to 7997
  154.5704  140.0671  156.8940 H   0  0  0  0  0  0  0  0  0  0  0  0  # atno 8010 bound_to 7997
  139.4929  144.5913  151.6675 H   0  0  0  0  0  0  0  0  0  0  0  0  # atno 10167 bound_to 10162
  157.5277  130.8609  149.8645 H   0  0  0  0  0  0  0  0  0  0  0  0  # atno 10718 bound_to 10713
  154.8277  135.3356  154.6844 H   0  0  0  0  0  0  0  0  0  0  0  0  # atno 10763 bound_to 10752
  153.7468  135.6942  153.4959 H   0  0  0  0  0  0  0  0  0  0  0  0  # atno 10764 bound_to 10752
  153.2205  135.4451  155.0434 H   0  0  0  0  0  0  0  0  0  0  0  0  # atno 10765 bound_to 10752
  141.0942  133.9001  157.2003 H   0  0  0  0  0  0  0  0  0  0  0  0  # atno 11005 bound_to 11000
  145.6949  141.0153  143.1535 LP  0  0  0  0  0  0  0  0  0  0  0  0  # atno 17320 bound_to 7965
  144.7056  139.8576  143.7431 LP  0  0  0  0  0  0  0  0  0  0  0  0  # atno 17321 bound_to 7965
  140.5540  144.0378  150.6139 LP  0  0  0  0  0  0  0  0  0  0  0  0  # atno 17342 bound_to 10162
  140.3442  143.3001  152.0556 LP  0  0  0  0  0  0  0  0  0  0  0  0  # atno 17343 bound_to 10162
  156.0399  130.3741  150.1461 LP  0  0  0  0  0  0  0  0  0  0  0  0  # atno 17370 bound_to 10713
  156.9647  130.9816  151.3471 LP  0  0  0  0  0  0  0  0  0  0  0  0  # atno 17371 bound_to 10713
  139.9774  135.0109  156.9666 LP  0  0  0  0  0  0  0  0  0  0  0  0  # atno 17394 bound_to 11000
  140.5180  134.0936  155.7285 LP  0  0  0  0  0  0  0  0  0  0  0  0  # atno 17395 bound_to 11000

$$$$
