#       Name:                AV-unprocessed.smi:1774
#       Creating user name   scv26
#       Creation time:       Fri Mar 27 08:40:18 2020


#       File generated by GOLD software.
#

@<TRIPOS>MOLECULE
AV-unprocessed.smi:1774
    51    52     1
SMALL
NO_CHARGES


@<TRIPOS>ATOM
      1 ****        -3.7841   3.2089   1.6801 C.3            1 S1                 0.0000
      2 ****        -3.5705   2.9732   0.1936 C.ar           1 S1                 0.0000
      3 ****        -4.0633   3.9166  -0.7329 C.ar           1 S1                 0.0000
      4 ****        -3.8665   3.6960  -2.1068 C.ar           1 S1                 0.0000
      5 ****        -3.1810   2.5335  -2.4987 C.ar           1 S1                 0.0000
      6 ****        -2.7065   1.6270  -1.6204 N.ar           1 S1                 0.0000
      7 ****        -2.8878   1.8247  -0.2903 C.ar           1 S1                 0.0000
      8 ****        -2.4064   0.9154   0.6936 N.am           1 S1                 0.0000
      9 ****        -1.7813  -0.2611   0.5112 C.2            1 S1                 0.0000
     10 ****        -1.5582  -0.7878  -0.5792 O.2            1 S1                 0.0000
     11 ****        -1.4270  -0.8066   1.6842 N.am           1 S1                 0.0000
     12 ****        -0.7078  -2.0662   1.8471 C.3            1 S1                 0.0000
     13 ****         0.8141  -1.8433   1.9530 C.3            1 S1                 0.0000
     14 ****         1.4642  -1.3420   0.7422 N.3            1 S1                 0.0000
     15 ****         1.4834  -2.3274  -0.3360 C.3            1 S1                 0.0000
     16 ****         2.1677  -1.7771  -1.6016 C.3            1 S1                 0.0000
     17 ****         2.2618  -2.8273  -2.7130 C.3            1 S1                 0.0000
     18 ****         3.4874  -1.3526  -1.2705 O.3            1 S1                 0.0000
     19 ****         3.5192  -0.3592  -0.2491 C.3            1 S1                 0.0000
     20 ****         4.9808   0.0219   0.0074 C.3            1 S1                 0.0000
     21 ****         2.8308  -0.9135   1.0128 C.3            1 S1                 0.0000
     22 ****        -4.3424   4.1279   1.8606 H              1 S1                 0.0000
     23 ****        -2.8267   3.2913   2.1952 H              1 S1                 0.0000
     24 ****        -4.3458   2.3845   2.1203 H              1 S1                 0.0000
     25 ****        -4.5864   4.8004  -0.3979 H              1 S1                 0.0000
     26 ****        -4.2311   4.3992  -2.8409 H              1 S1                 0.0000
     27 ****        -3.0084   2.3252  -3.5442 H              1 S1                 0.0000
     28 ****        -2.5435   1.2042   1.6506 H              1 S1                 0.0000
     29 ****        -1.6556  -0.3041   2.5292 H              1 S1                 0.0000
     30 ****        -1.0611  -2.5181   2.7740 H              1 S1                 0.0000
     31 ****        -0.9642  -2.7753   1.0597 H              1 S1                 0.0000
     32 ****         0.9900  -1.1418   2.7697 H              1 S1                 0.0000
     33 ****         1.2909  -2.7759   2.2584 H              1 S1                 0.0000
     34 ****         2.0020  -3.2280  -0.0031 H              1 S1                 0.0000
     35 ****         0.4689  -2.6295  -0.5925 H              1 S1                 0.0000
     36 ****         1.6041  -0.9208  -1.9764 H              1 S1                 0.0000
     37 ****         1.2711  -3.1728  -3.0096 H              1 S1                 0.0000
     38 ****         2.8365  -3.6954  -2.3890 H              1 S1                 0.0000
     39 ****         2.7485  -2.4155  -3.5973 H              1 S1                 0.0000
     40 ****         2.9827   0.5244  -0.5992 H              1 S1                 0.0000
     41 ****         5.0568   0.7894   0.7781 H              1 S1                 0.0000
     42 ****         5.4455   0.4128  -0.8980 H              1 S1                 0.0000
     43 ****         5.5617  -0.8409   0.3342 H              1 S1                 0.0000
     44 ****         2.8284  -0.1453   1.7871 H              1 S1                 0.0000
     45 ****         3.4091  -1.7512   1.4060 H              1 S1                 0.0000
     46 ****        -2.2241   0.8143  -1.9472 LP             1 S1                 0.0000
     47 ****        -1.8499  -0.3354  -1.4220 LP             1 S1                 0.0000
     48 ****        -1.0853  -1.6678  -0.6220 LP             1 S1                 0.0000
     49 ****         0.9167  -0.5599   0.4445 LP             1 S1                 0.0000
     50 ****         3.9158  -0.9769  -2.0924 LP             1 S1                 0.0000
     51 ****         4.0074  -2.1471  -0.9571 LP             1 S1                 0.0000
@<TRIPOS>BOND
    1    1    2 1     
    2    1   22 1     
    3    1   23 1     
    4    1   24 1     
    5    2    7 ar    
    6    2    3 ar    
    7    3    4 ar    
    8    3   25 1     
    9    4    5 ar    
   10    4   26 1     
   11    5    6 ar    
   12    5   27 1     
   13    6    7 ar    
   14    7    8 1     
   15    8    9 am    
   16    8   28 1     
   17    9   10 2     
   18    9   11 am    
   19   11   12 1     
   20   11   29 1     
   21   12   13 1     
   22   12   30 1     
   23   12   31 1     
   24   13   14 1     
   25   13   32 1     
   26   13   33 1     
   27   14   21 1     
   28   14   15 1     
   29   15   16 1     
   30   15   34 1     
   31   15   35 1     
   32   16   17 1     
   33   16   18 1     
   34   16   36 1     
   35   17   37 1     
   36   17   38 1     
   37   17   39 1     
   38   18   19 1     
   39   19   20 1     
   40   19   21 1     
   41   19   40 1     
   42   20   41 1     
   43   20   42 1     
   44   20   43 1     
   45   21   44 1     
   46   21   45 1     
   47    6   46 1     
   48   10   47 1     
   49   10   48 1     
   50   14   49 1     
   51   18   50 1     
   52   18   51 1     
@<TRIPOS>SUBSTRUCTURE
      1 S1             1
@<TRIPOS>SET
LONE_PAIRS      STATIC     ATOMS    <user>   **** ""
6 46 47 48 49 50 51
DONOR_HYDROGENS      STATIC     ATOMS    <user>   **** ""
2 28 29
ATOM$BLUE        STATIC     ATOMS    COLORGROUP SYSTEM
6 46 47 48 49 50 51
ATOM$RED        STATIC     ATOMS    COLORGROUP SYSTEM
2 28 29
