#       Name:                AV-unprocessed.smi:1177
#       Creating user name   scv26
#       Creation time:       Fri Mar 27 03:54:39 2020


#       File generated by GOLD software.
#

@<TRIPOS>MOLECULE
AV-unprocessed.smi:1177
    33    34     1
SMALL
NO_CHARGES


@<TRIPOS>ATOM
      1 ****        -1.1957   1.7188   0.1490 O.2            1 S1                 0.0000
      2 ****        -1.6552   0.6227   0.4718 C.2            1 S1                 0.0000
      3 ****        -0.9010  -0.4371   0.7958 N.am           1 S1                 0.0000
      4 ****         0.5570  -0.4456   0.8120 C.3            1 S1                 0.0000
      5 ****         1.1380  -0.5833  -0.6055 C.3            1 S1                 0.0000
      6 ****         2.6538  -0.5923  -0.6055 C.ar           1 S1                 0.0000
      7 ****         3.3996  -1.7863  -0.7132 C.ar           1 S1                 0.0000
      8 ****         4.8087  -1.7211  -0.7028 C.ar           1 S1                 0.0000
      9 ****         5.4409  -0.4661  -0.5826 C.ar           1 S1                 0.0000
     10 ****         4.6471   0.6942  -0.4761 C.ar           1 S1                 0.0000
     11 ****         3.3000   0.5907  -0.4913 N.pl3          1 S1                 1.0000
     12 ****        -2.9632   0.3412   0.5370 N.am           1 S1                 0.0000
     13 ****        -4.0205   1.2545   0.2456 C.3            1 S1                 0.0000
     14 ****        -5.3088   1.1098   1.0264 C.3            1 S1                 0.0000
     15 ****        -5.2625   0.7029  -0.4205 C.3            1 S1                 0.0000
     16 ****        -1.3672  -1.2961   1.0497 H              1 S1                 0.0000
     17 ****         0.9264   0.4614   1.2938 H              1 S1                 0.0000
     18 ****         0.8849  -1.2813   1.4308 H              1 S1                 0.0000
     19 ****         0.7740  -1.5009  -1.0699 H              1 S1                 0.0000
     20 ****         0.7961   0.2367  -1.2388 H              1 S1                 0.0000
     21 ****         2.9011  -2.7407  -0.8019 H              1 S1                 0.0000
     22 ****         5.3973  -2.6231  -0.7847 H              1 S1                 0.0000
     23 ****         6.5188  -0.3948  -0.5721 H              1 S1                 0.0000
     24 ****         5.0454   1.6937  -0.3798 H              1 S1                 0.0000
     25 ****        -3.2348  -0.5908   0.8142 H              1 S1                 0.0000
     26 ****        -3.7419   2.2709  -0.0298 H              1 S1                 0.0000
     27 ****        -5.3690   0.3162   1.7690 H              1 S1                 0.0000
     28 ****        -5.8492   2.0209   1.2748 H              1 S1                 0.0000
     29 ****        -5.7717   1.3424  -1.1388 H              1 S1                 0.0000
     30 ****        -5.2922  -0.3621  -0.6430 H              1 S1                 0.0000
     31 ****         2.7446   1.4434  -0.4127 H              1 S1                 0.0000
     32 ****        -0.2057   1.8564   0.1177 LP             1 S1                 0.0000
     33 ****        -1.8126   2.4713  -0.0819 LP             1 S1                 0.0000
@<TRIPOS>BOND
    1    1    2 2     
    2    2    3 am    
    3    2   12 am    
    4    3    4 1     
    5    3   16 1     
    6    4    5 1     
    7    4   17 1     
    8    4   18 1     
    9    5    6 1     
   10    5   19 1     
   11    5   20 1     
   12    6   11 ar    
   13    6    7 ar    
   14    7    8 ar    
   15    7   21 1     
   16    8    9 ar    
   17    8   22 1     
   18    9   10 ar    
   19    9   23 1     
   20   10   11 ar    
   21   10   24 1     
   22   11   31 1     
   23   12   13 1     
   24   12   25 1     
   25   13   15 1     
   26   13   14 1     
   27   13   26 1     
   28   14   15 1     
   29   14   27 1     
   30   14   28 1     
   31   15   29 1     
   32   15   30 1     
   33    1   32 1     
   34    1   33 1     
@<TRIPOS>SUBSTRUCTURE
      1 S1             1
@<TRIPOS>SET
LONE_PAIRS      STATIC     ATOMS    <user>   **** ""
2 32 33
DONOR_HYDROGENS      STATIC     ATOMS    <user>   **** ""
3 16 31 25
ATOM$BLUE        STATIC     ATOMS    COLORGROUP SYSTEM
2 32 33
ATOM$RED        STATIC     ATOMS    COLORGROUP SYSTEM
3 16 31 25
