AV-unprocessed.smi:251|AV-procd|sdf|1935|dock2
  -GOLD-   2262021 53D 1   1.00000     0.00000
 Structure written by MMmdl.
 50 54  0  0  0  0  0  0  0  0  1 V2000
  147.5667  138.8222  151.8510 O   0  0  0  0  0  0  0  0  0  0  0  0
  147.0068  138.7656  153.1479 C   0  0  0  0  0  0  0  0  0  0  0  0
  148.0206  139.1844  154.2453 C   0  0  0  0  0  0  0  0  0  0  0  0
  147.4189  138.9514  155.6685 C   0  0  0  0  0  0  0  0  0  0  0  0
  147.3356  137.5573  156.0840 N   0  0  0  0  0  0  0  0  0  0  0  0
  146.6953  136.5392  155.4152 C   0  0  0  0  0  0  0  0  0  0  0  0
  146.7613  135.3696  155.9870 N   0  0  0  0  0  0  0  0  0  0  0  0
  147.5292  135.5827  157.1266 C   0  0  0  0  0  0  0  0  0  0  0  0
  147.9949  134.7528  158.1907 C   0  0  0  0  0  0  0  0  0  0  0  0
  147.7332  133.4240  158.3047 N   0  0  0  0  0  0  0  0  0  0  0  0
  146.7462  132.7642  157.4511 C   0  0  0  0  0  0  0  0  0  0  0  0
  146.5819  131.3789  158.0269 C   0  0  1  0  0  0  0  0  0  0  0  0
  147.7620  130.4469  158.2165 C   0  0  0  0  0  0  0  0  0  0  0  0
  147.2925  131.3417  159.3444 C   0  0  2  0  0  0  0  0  0  0  0  0
  146.6867  130.7447  160.6078 C   0  0  0  0  0  0  0  0  0  0  0  0
  146.0198  129.6326  160.3016 F   0  0  0  0  0  0  0  0  0  0  0  0
  147.6460  130.4487  161.4850 F   0  0  0  0  0  0  0  0  0  0  0  0
  145.8424  131.6008  161.1839 F   0  0  0  0  0  0  0  0  0  0  0  0
  147.9307  132.6992  159.5565 C   0  0  0  0  0  0  0  0  0  0  0  0
  148.7406  135.3482  159.1592 N   0  0  0  0  0  0  0  0  0  0  0  0
  149.0263  136.6510  159.0939 C   0  0  0  0  0  0  0  0  0  0  0  0
  148.6662  137.5369  158.1654 N   0  0  0  0  0  0  0  0  0  0  0  0
  147.9052  136.9563  157.1949 C   0  0  0  0  0  0  0  0  0  0  0  0
  149.3206  138.3713  154.0182 C   0  0  0  0  0  0  0  0  0  0  0  0
  150.4979  138.8903  154.8621 C   0  0  0  0  0  0  0  0  0  0  0  0
  150.7358  140.2587  154.5600 O   0  0  0  0  0  0  0  0  0  0  0  0
  149.6302  141.0948  154.8771 C   0  0  0  0  0  0  0  0  0  0  0  0
  148.3936  140.6768  154.0587 C   0  0  0  0  0  0  0  0  0  0  0  0
  148.3106  139.4045  151.8697 H   0  0  0  0  0  0  0  0  0  0  0  0
  146.1171  139.3946  153.1753 H   0  0  0  0  0  0  0  0  0  0  0  0
  146.6614  137.7444  153.3127 H   0  0  0  0  0  0  0  0  0  0  0  0
  147.9984  139.4753  156.4271 H   0  0  0  0  0  0  0  0  0  0  0  0
  146.4189  139.3821  155.7296 H   0  0  0  0  0  0  0  0  0  0  0  0
  146.1648  136.6922  154.4870 H   0  0  0  0  0  0  0  0  0  0  0  0
  145.7924  133.2920  157.4858 H   0  0  0  0  0  0  0  0  0  0  0  0
  147.0855  132.7064  156.4164 H   0  0  0  0  0  0  0  0  0  0  0  0
  145.5965  130.9254  157.9432 H   0  0  0  0  0  0  0  0  0  0  0  0
  147.5519  129.3816  158.2820 H   0  0  0  0  0  0  0  0  0  0  0  0
  148.6974  130.7028  157.7225 H   0  0  0  0  0  0  0  0  0  0  0  0
  148.9902  132.5773  159.7823 H   0  0  0  0  0  0  0  0  0  0  0  0
  147.4490  133.2272  160.3799 H   0  0  0  0  0  0  0  0  0  0  0  0
  149.6274  137.0394  159.9025 H   0  0  0  0  0  0  0  0  0  0  0  0
  149.1620  137.3092  154.2015 H   0  0  0  0  0  0  0  0  0  0  0  0
  149.6115  138.4405  152.9691 H   0  0  0  0  0  0  0  0  0  0  0  0
  150.3161  138.7656  155.9298 H   0  0  0  0  0  0  0  0  0  0  0  0
  151.3987  138.3219  154.6303 H   0  0  0  0  0  0  0  0  0  0  0  0
  149.4324  141.0661  155.9487 H   0  0  0  0  0  0  0  0  0  0  0  0
  149.8978  142.1247  154.6407 H   0  0  0  0  0  0  0  0  0  0  0  0
  148.6047  140.8695  153.0058 H   0  0  0  0  0  0  0  0  0  0  0  0
  147.5506  141.3182  154.3185 H   0  0  0  0  0  0  0  0  0  0  0  0
  1  2  1  0  0  0  0
  1 29  1  0  0  0  0
  2  3  1  0  0  0  0
  2 30  1  0  0  0  0
  2 31  1  0  0  0  0
  3 28  1  0  0  0  0
  3  4  1  0  0  0  0
  3 24  1  0  0  0  0
  4  5  1  0  0  0  0
  4 32  1  0  0  0  0
  4 33  1  0  0  0  0
  5 23  1  0  0  0  0
  5  6  1  0  0  0  0
  6  7  2  0  0  0  0
  6 34  1  0  0  0  0
  7  8  1  0  0  0  0
  8 23  2  0  0  0  0
  8  9  1  0  0  0  0
  9 10  1  0  0  0  0
  9 20  2  0  0  0  0
 10 19  1  0  0  0  0
 10 11  1  0  0  0  0
 11 12  1  0  0  0  0
 11 35  1  0  0  0  0
 11 36  1  0  0  0  0
 12 14  1  0  0  0  0
 12 13  1  0  0  0  0
 12 37  1  0  0  0  0
 13 14  1  0  0  0  0
 13 38  1  0  0  0  0
 13 39  1  0  0  0  0
 14 15  1  0  0  0  0
 14 19  1  0  0  0  0
 15 16  1  0  0  0  0
 15 17  1  0  0  0  0
 15 18  1  0  0  0  0
 19 40  1  0  0  0  0
 19 41  1  0  0  0  0
 20 21  1  0  0  0  0
 21 22  2  0  0  0  0
 21 42  1  0  0  0  0
 22 23  1  0  0  0  0
 24 25  1  0  0  0  0
 24 43  1  0  0  0  0
 24 44  1  0  0  0  0
 25 26  1  0  0  0  0
 25 45  1  0  0  0  0
 25 46  1  0  0  0  0
 26 27  1  0  0  0  0
 27 28  1  0  0  0  0
 27 47  1  0  0  0  0
 27 48  1  0  0  0  0
 28 49  1  0  0  0  0
 28 50  1  0  0  0  0
M  END
> <s_m_source_file>
AV-unprocessed.smi

> <i_m_source_file_index>
251

> <i_lp_mmshare_version>
43012

> <i_f3d_flags>
0

> <s_epik_input>
W0NIMl0xW0NIMl1PW0NIMl1bQ0gyXUMxKFtDSDJdW09IXSlbQ0gyXW4oW2NIXW4yKWMoYzIzKW5bY0hdbmMzTihbQ0gyXTQpW0NIMl1bQ0BIXShbQ0gyXTUpW0NAQF00NUMoRikoRilG

> <s_epik_cmdline>
J2VwaWtfcHl0aG9uJywgJy1waCcsICc3LjAnLCAnLXRuJywgJzgnLCAnLW1hJywgJzIwMCcsICctbWV0YWxfYmluZGluZycsICctaW1hZScsICc8aW5maWxlLm1hZT4nLCAnLW9tYWUnLCAnPG91dGZpbGUubWFlPic=

> <r_lp_tautomer_probability>
1

> <r_epik_Ionization_Penalty>
0.00226625

> <r_epik_Ionization_Penalty_Charging>
0

> <r_epik_Ionization_Penalty_Neutral>
0.00226625

> <r_epik_State_Penalty>
0.00138204

> <r_epik_Charging_Adjusted_Penalty>
0.00138204

> <i_epik_Tot_Q>
0

> <i_epik_Tot_abs_Q>
0

> <r_epik_Metal_State_Penalty>
-0

> <b_epik_Metal_Only>
0

> <s_lp_Force_Field>
OPLS_2005

> <r_lp_Energy>
66.9276

> <b_lp_Chiralities_Consistent>
1

> <s_lp_Variant>
AV-unprocessed.smi:251-2

> <Gold.Version>
5.8.1

> <Gold.Id.Protein>
6NUR|6NUR_protein|mol2

> <Gold.PLP.Fitness>
36.3376

> <Gold.PLP.PLP>
-26.5348

> <Gold.PLP.part.hbond>
-4.2237

> <Gold.PLP.part.metal>
0.0000

> <Gold.PLP.part.buried>
-1.6063

> <Gold.PLP.part.nonpolar>
-20.4976

> <Gold.PLP.part.repulsive>
0.1126

> <Gold.PLP.ligand.clash>
0.0000

> <Gold.PLP.ligand.torsion>
1.0687

> <Gold.PLP.Chemscore.Hbond>
3.3895

> <Gold.PLP.Chemscore.CHOScore>
0.0000

> <Gold.PLP.Chemscore.Metal>
0.0000

> <Gold.Chemscore.Hbonds>
donor molecule, donor type, donor heavy atom, donor atom, acceptor molecule, acceptor atom, score
      L1  H     1    29       P1  7957  0.98
      P1  H  6896  6909       L1    20  0.76
      P1  H  7954  7966       L1     1  0.28
      P1  H  7989  7998       L1    26  0.96

> <Gold.PLP.Chemscore.Internal.Correction>
1.7717

> <Gold.Rescore>
     Score         DG    S(hbond)    S(metal)    S(lipo)     H(rot)  DE(clash)    DE(int)     intcor
     11.84     -14.57       2.58        0.00      53.03       2.23       0.55       2.18       ----

> <Gold.Chemscore.Fitness>
11.8410

> <Gold.Chemscore.DG>
-14.5740

> <Gold.Chemscore.ZeroCoef>
-5.4800

> <Gold.Chemscore.Hbond>
2.5776

> <Gold.Chemscore.Metal>
0.0000

> <Gold.Chemscore.Lipo>
53.0319

> <Gold.Chemscore.Internal_Hbond>
0.0000

> <Gold.Chemscore.DEClash>
0.5484

> <Gold.Chemscore.DEInternal>
2.1846

> <Gold.Chemscore.Rot>
2.2344

> <Gold.Chemscore.Internal.Correction>
   9.000000E+99

> <Gold.Chemscore.Hbonds>
donor molecule, donor type, donor heavy atom, donor atom, acceptor molecule, acceptor atom, score
      L1  H     1    29       P1  7957  0.91
      P1  H  6896  6909       L1    20  0.16
      P1  H  7954  7966       L1     1  0.02
      P1  H  7989  7998       L1    26  0.75

> <Gold.Chemscore.Hbond.Weighted>
-8.6093

> <Gold.Chemscore.Metal.Weighted>
-0.0000

> <Gold.Chemscore.Lipo.Weighted>
-6.2047

> <Gold.Chemscore.Internal_Hbond.Weighted>
0.0000

> <Gold.Chemscore.DEClash.Weighted>
0.5484

> <Gold.Chemscore.DEInternal.Weighted>
2.1846

> <Gold.Chemscore.Rot.Weighted>
5.7200

> <Gold.Chemscore.Internal.Correction.Weighted>
   9.000000E+99

> <Gold.Protein.RotatedTorsions>
[ 6907 6896 6895 6894 ] final   52.18 input  -60.11 | X-H torsion
[ 7974 7965 7964 7962 ] final -132.24 input  175.53 | X-H torsion
[ 8008 7997 7996 7995 ] final  -55.02 input   59.86 | X-H torsion
[ 10167 10162 10161 10158 ] final   35.87 input  -65.29 | X-H torsion
[ 10718 10713 10712 10709 ] final -141.46 input   66.30 | X-H torsion
[ 10763 10752 10751 10750 ] final  132.75 input  -60.55 | X-H torsion
[ 11005 11000 10999 10996 ] final  -82.47 input  -57.11 | X-H torsion

> <Gold.Protein.ActiveResidues>
 VAL166  LYS551  ARG553  GLY616  TRP617  ASP618  TYR619  PRO620  LYS621  CYS622 
 ASP623  PHE694  ASN695  SER759  ASP760  ASP761  ALA762  ILE779  LEU786  VAL792 
 PHE793  MET794  SER795  GLU796  ALA797  LYS798  CYS799  TRP800  GLU811  SER814 

> <Gold.Protein.RotatedAtoms>
  152.3206  134.7385  160.0314 H   0  0  0  0  0  0  0  0  0  0  0  0  # atno 6907 bound_to 6896
  151.7835  133.3346  159.3486 H   0  0  0  0  0  0  0  0  0  0  0  0  # atno 6908 bound_to 6896
  150.7368  134.5840  159.5998 H   0  0  0  0  0  0  0  0  0  0  0  0  # atno 6909 bound_to 6896
  144.9304  140.7121  143.4909 H   0  0  0  0  0  0  0  0  0  0  0  0  # atno 7974 bound_to 7965
  154.4181  140.1162  156.5409 H   0  0  0  0  0  0  0  0  0  0  0  0  # atno 8008 bound_to 7997
  155.6508  140.3496  155.4728 H   0  0  0  0  0  0  0  0  0  0  0  0  # atno 8009 bound_to 7997
  155.9794  140.1157  157.0730 H   0  0  0  0  0  0  0  0  0  0  0  0  # atno 8010 bound_to 7997
  140.4181  144.1498  150.6145 H   0  0  0  0  0  0  0  0  0  0  0  0  # atno 10167 bound_to 10162
  156.3343  130.7603  151.1727 H   0  0  0  0  0  0  0  0  0  0  0  0  # atno 10718 bound_to 10713
  153.7958  135.3148  155.3384 H   0  0  0  0  0  0  0  0  0  0  0  0  # atno 10763 bound_to 10752
  154.8108  135.4668  154.0514 H   0  0  0  0  0  0  0  0  0  0  0  0  # atno 10764 bound_to 10752
  153.1847  135.6899  153.8518 H   0  0  0  0  0  0  0  0  0  0  0  0  # atno 10765 bound_to 10752
  141.1663  133.7246  156.8577 H   0  0  0  0  0  0  0  0  0  0  0  0  # atno 11005 bound_to 11000
  145.3152  139.1806  143.4617 LP  0  0  0  0  0  0  0  0  0  0  0  0  # atno 17320 bound_to 7965
  146.3244  140.3161  142.8630 LP  0  0  0  0  0  0  0  0  0  0  0  0  # atno 17321 bound_to 7965
  140.4564  143.2466  151.9279 LP  0  0  0  0  0  0  0  0  0  0  0  0  # atno 17342 bound_to 10162
  139.4782  144.5512  151.8383 LP  0  0  0  0  0  0  0  0  0  0  0  0  # atno 17343 bound_to 10162
  157.7436  131.0472  150.4934 LP  0  0  0  0  0  0  0  0  0  0  0  0  # atno 17370 bound_to 10713
  156.5105  130.4138  149.6304 LP  0  0  0  0  0  0  0  0  0  0  0  0  # atno 17371 bound_to 10713
  140.1871  134.8992  157.3017 LP  0  0  0  0  0  0  0  0  0  0  0  0  # atno 17394 bound_to 11000
  140.2331  134.3885  155.7513 LP  0  0  0  0  0  0  0  0  0  0  0  0  # atno 17395 bound_to 11000

$$$$
