#       Name:                AV-unprocessed.smi:2487
#       Creating user name   scv26
#       Creation time:       Fri Mar 27 13:43:03 2020


#       File generated by GOLD software.
#

@<TRIPOS>MOLECULE
AV-unprocessed.smi:2487
    37    38     1
SMALL
NO_CHARGES


@<TRIPOS>ATOM
      1 ****        -4.1726  -3.0335  -0.3802 C.3            1 S1                 0.0000
      2 ****        -2.7708  -2.6506  -0.3142 N.am           1 S1                 0.0000
      3 ****        -2.3218  -1.3944  -0.4537 C.2            1 S1                 0.0000
      4 ****        -3.0690  -0.4362  -0.6554 O.2            1 S1                 0.0000
      5 ****        -0.8010  -1.2014  -0.3740 C.3            1 S1                 0.0000
      6 ****        -0.3958   0.2750  -0.1623 C.3            1 S1                 0.0000
      7 ****         1.0484   0.3901  -0.0045 N.3            1 S1                 0.0000
      8 ****         1.5820   1.6626  -0.0816 C.ar           1 S1                 0.0000
      9 ****         1.2780   2.5217   0.8994 N.ar           1 S1                 0.0000
     10 ****         1.8033   3.7631   0.8095 C.ar           1 S1                 0.0000
     11 ****         2.6334   4.1367  -0.2664 C.ar           1 S1                 0.0000
     12 ****         3.3060   5.7209  -0.3862 Cl             1 S1                 0.0000
     13 ****         2.8854   3.1485  -1.2392 C.ar           1 S1                 0.0000
     14 ****         2.3566   1.9090  -1.1421 N.ar           1 S1                 0.0000
     15 ****         1.5648  -0.4740   1.0480 C.3            1 S1                 0.0000
     16 ****         1.1213  -1.9259   0.8071 C.3            1 S1                 0.0000
     17 ****        -0.2983  -1.9810   0.7118 O.3            1 S1                 0.0000
     18 ****        -4.2646  -4.1182  -0.3241 H              1 S1                 0.0000
     19 ****        -4.6253  -2.7017  -1.3156 H              1 S1                 0.0000
     20 ****        -4.7303  -2.5995   0.4504 H              1 S1                 0.0000
     21 ****        -2.0964  -3.3840  -0.1487 H              1 S1                 0.0000
     22 ****        -0.3742  -1.5708  -1.3081 H              1 S1                 0.0000
     23 ****        -0.7133   0.8795  -1.0133 H              1 S1                 0.0000
     24 ****        -0.8873   0.6814   0.7232 H              1 S1                 0.0000
     25 ****         1.5594   4.4587   1.5987 H              1 S1                 0.0000
     26 ****         3.5109   3.3508  -2.0961 H              1 S1                 0.0000
     27 ****         2.6534  -0.4145   1.0744 H              1 S1                 0.0000
     28 ****         1.1989  -0.1255   2.0146 H              1 S1                 0.0000
     29 ****         1.5732  -2.3256  -0.1023 H              1 S1                 0.0000
     30 ****         1.4469  -2.5604   1.6314 H              1 S1                 0.0000
     31 ****        -4.0568  -0.5777  -0.7217 LP             1 S1                 0.0000
     32 ****        -2.6879   0.4832  -0.7530 LP             1 S1                 0.0000
     33 ****         1.4273   0.0139  -0.8500 LP             1 S1                 0.0000
     34 ****         0.6894   2.2567   1.6631 LP             1 S1                 0.0000
     35 ****         2.5366   1.2081  -1.8323 LP             1 S1                 0.0000
     36 ****        -0.5747  -2.9328   0.5788 LP             1 S1                 0.0000
     37 ****        -0.6912  -1.6358   1.5641 LP             1 S1                 0.0000
@<TRIPOS>BOND
    1    1    2 1     
    2    1   18 1     
    3    1   19 1     
    4    1   20 1     
    5    2    3 am    
    6    2   21 1     
    7    3    4 2     
    8    3    5 1     
    9    5   17 1     
   10    5    6 1     
   11    5   22 1     
   12    6    7 1     
   13    6   23 1     
   14    6   24 1     
   15    7    8 1     
   16    7   15 1     
   17    8   14 ar    
   18    8    9 ar    
   19    9   10 ar    
   20   10   11 ar    
   21   10   25 1     
   22   11   12 1     
   23   11   13 ar    
   24   13   14 ar    
   25   13   26 1     
   26   15   16 1     
   27   15   27 1     
   28   15   28 1     
   29   16   17 1     
   30   16   29 1     
   31   16   30 1     
   32    4   31 1     
   33    4   32 1     
   34    7   33 1     
   35    9   34 1     
   36   14   35 1     
   37   17   36 1     
   38   17   37 1     
@<TRIPOS>SUBSTRUCTURE
      1 S1             1
@<TRIPOS>SET
LONE_PAIRS      STATIC     ATOMS    <user>   **** ""
7 31 32 33 34 35 36 37
DONOR_HYDROGENS      STATIC     ATOMS    <user>   **** ""
1 21
ATOM$BLUE        STATIC     ATOMS    COLORGROUP SYSTEM
7 31 32 33 34 35 36 37
ATOM$RED        STATIC     ATOMS    COLORGROUP SYSTEM
1 21
