AV-unprocessed.smi:2359|AV-procd|sdf|9408|dock6
  -GOLD-   2272013 43D 1   1.00000     0.00000
 Structure written by MMmdl.
 40 41  0  0  0  0  0  0  0  0  1 V2000
  143.5420  132.6841  151.1168 C   0  0  0  0  0  0  0  0  0  0  0  0
  143.9771  134.0984  151.4380 C   0  0  0  0  0  0  0  0  0  0  0  0
  143.2957  134.8585  152.4066 C   0  0  0  0  0  0  0  0  0  0  0  0
  143.7355  136.1690  152.6741 C   0  0  0  0  0  0  0  0  0  0  0  0
  144.8448  136.6882  151.9693 C   0  0  0  0  0  0  0  0  0  0  0  0
  145.2051  138.0189  152.3114 N   0  0  0  0  0  0  0  0  0  0  0  0
  146.4102  138.6069  152.2089 C   0  0  0  0  0  0  0  0  0  0  0  0
  147.4371  138.0642  151.7992 O   0  0  0  0  0  0  0  0  0  0  0  0
  146.3634  139.8825  152.6162 N   0  0  0  0  0  0  0  0  0  0  0  0
  147.5073  140.7840  152.6284 C   0  0  0  0  0  0  0  0  0  0  0  0
  147.8624  141.1877  154.0669 C   0  0  0  0  0  0  0  0  0  0  0  0
  148.8280  140.2014  154.7429 C   0  0  1  0  0  0  0  0  0  0  0  0
  148.5211  138.7398  154.3621 C   0  0  0  0  0  0  0  0  0  0  0  0
  149.5464  137.7918  154.9942 C   0  0  0  0  0  0  0  0  0  0  0  0
  150.9639  138.2494  154.6347 C   0  0  0  0  0  0  0  0  0  0  0  0
  151.1522  139.7333  154.9879 C   0  0  0  0  0  0  0  0  0  0  0  0
  150.1580  140.5172  154.3354 O   0  0  0  0  0  0  0  0  0  0  0  0
  145.4959  135.9473  151.0383 N   0  0  0  0  0  0  0  0  0  0  0  0
  145.0739  134.6913  150.7825 C   0  0  0  0  0  0  0  0  0  0  0  0
  142.4683  132.6493  150.9307 H   0  0  0  0  0  0  0  0  0  0  0  0
  143.7685  132.0216  151.9522 H   0  0  0  0  0  0  0  0  0  0  0  0
  144.0525  132.3056  150.2309 H   0  0  0  0  0  0  0  0  0  0  0  0
  142.4497  134.4465  152.9371 H   0  0  0  0  0  0  0  0  0  0  0  0
  143.2232  136.7659  153.4146 H   0  0  0  0  0  0  0  0  0  0  0  0
  144.4570  138.5911  152.6735 H   0  0  0  0  0  0  0  0  0  0  0  0
  145.4820  140.2539  152.9392 H   0  0  0  0  0  0  0  0  0  0  0  0
  148.3561  140.2906  152.1529 H   0  0  0  0  0  0  0  0  0  0  0  0
  147.2770  141.6720  152.0374 H   0  0  0  0  0  0  0  0  0  0  0  0
  148.3165  142.1793  154.0533 H   0  0  0  0  0  0  0  0  0  0  0  0
  146.9523  141.2743  154.6622 H   0  0  0  0  0  0  0  0  0  0  0  0
  148.7466  140.3169  155.8253 H   0  0  0  0  0  0  0  0  0  0  0  0
  147.5155  138.4668  154.6835 H   0  0  0  0  0  0  0  0  0  0  0  0
  148.5434  138.6291  153.2772 H   0  0  0  0  0  0  0  0  0  0  0  0
  149.4249  137.7890  156.0783 H   0  0  0  0  0  0  0  0  0  0  0  0
  149.3789  136.7688  154.6564 H   0  0  0  0  0  0  0  0  0  0  0  0
  151.7018  137.6396  155.1567 H   0  0  0  0  0  0  0  0  0  0  0  0
  151.1359  138.1051  153.5674 H   0  0  0  0  0  0  0  0  0  0  0  0
  151.1015  139.8870  156.0669 H   0  0  0  0  0  0  0  0  0  0  0  0
  152.1360  140.0734  154.6644 H   0  0  0  0  0  0  0  0  0  0  0  0
  145.6295  134.1471  150.0330 H   0  0  0  0  0  0  0  0  0  0  0  0
  1  2  1  0  0  0  0
  1 20  1  0  0  0  0
  1 21  1  0  0  0  0
  1 22  1  0  0  0  0
  2 19  1  0  0  0  0
  2  3  2  0  0  0  0
  3  4  1  0  0  0  0
  3 23  1  0  0  0  0
  4  5  2  0  0  0  0
  4 24  1  0  0  0  0
  5  6  1  0  0  0  0
  5 18  1  0  0  0  0
  6  7  1  0  0  0  0
  6 25  1  0  0  0  0
  7  8  2  0  0  0  0
  7  9  1  0  0  0  0
  9 10  1  0  0  0  0
  9 26  1  0  0  0  0
 10 11  1  0  0  0  0
 10 27  1  0  0  0  0
 10 28  1  0  0  0  0
 11 12  1  0  0  0  0
 11 29  1  0  0  0  0
 11 30  1  0  0  0  0
 12 17  1  0  0  0  0
 12 13  1  0  0  0  0
 12 31  1  0  0  0  0
 13 14  1  0  0  0  0
 13 32  1  0  0  0  0
 13 33  1  0  0  0  0
 14 15  1  0  0  0  0
 14 34  1  0  0  0  0
 14 35  1  0  0  0  0
 15 16  1  0  0  0  0
 15 36  1  0  0  0  0
 15 37  1  0  0  0  0
 16 17  1  0  0  0  0
 16 38  1  0  0  0  0
 16 39  1  0  0  0  0
 18 19  2  0  0  0  0
 19 40  1  0  0  0  0
M  END
> <s_m_source_file>
AV-unprocessed.smi

> <i_m_source_file_index>
2359

> <i_lp_mmshare_version>
43012

> <i_f3d_flags>
0

> <s_epik_input>
W0NIM11jMVtjSF1bY0hdYyhuW2NIXTEpW05IXUMoPU8pW05IXVtDSDJdW0NIMl1bQ0BASF0yW0NIMl1bQ0gyXVtDSDJdW0NIMl1PMg==

> <s_epik_cmdline>
J2VwaWtfcHl0aG9uJywgJy1waCcsICc3LjAnLCAnLXRuJywgJzgnLCAnLW1hJywgJzIwMCcsICctbWV0YWxfYmluZGluZycsICctaW1hZScsICc8aW5maWxlLm1hZT4nLCAnLW9tYWUnLCAnPG91dGZpbGUubWFlPic=

> <r_lp_tautomer_probability>
1

> <r_epik_Ionization_Penalty>
5.73679e-05

> <r_epik_Ionization_Penalty_Charging>
0

> <r_epik_Ionization_Penalty_Neutral>
5.73679e-05

> <r_epik_State_Penalty>
-0

> <r_epik_Charging_Adjusted_Penalty>
0

> <i_epik_Tot_Q>
0

> <i_epik_Tot_abs_Q>
0

> <r_epik_Metal_State_Penalty>
-0

> <b_epik_Metal_Only>
0

> <s_lp_Force_Field>
OPLS_2005

> <r_lp_Energy>
11.4199

> <b_lp_Chiralities_Consistent>
1

> <s_lp_Variant>
AV-unprocessed.smi:2359-2

> <Gold.Version>
5.8.1

> <Gold.Id.Protein>
6NUR|6NUR_protein|mol2

> <Gold.PLP.Fitness>
39.1323

> <Gold.PLP.PLP>
-29.2157

> <Gold.PLP.part.hbond>
-5.0000

> <Gold.PLP.part.metal>
0.0000

> <Gold.PLP.part.buried>
-0.7928

> <Gold.PLP.part.nonpolar>
-29.8617

> <Gold.PLP.part.repulsive>
6.4740

> <Gold.PLP.ligand.clash>
0.0000

> <Gold.PLP.ligand.torsion>
0.5411

> <Gold.PLP.Chemscore.Hbond>
2.6640

> <Gold.PLP.Chemscore.CHOScore>
1.0000

> <Gold.PLP.Chemscore.Metal>
0.0000

> <Gold.Chemscore.Hbonds>
donor molecule, donor type, donor heavy atom, donor atom, acceptor molecule, acceptor atom, score
      L1  H     6    25       P1 10175  0.82
      L1  H     9    26       P1 10175  0.86
      P1  H  7954  7966       L1     8  0.98
      L1  C    19    40       P1  7921  0.97

> <Gold.PLP.Chemscore.Internal.Correction>
0.0068

> <Gold.Rescore>
     Score         DG    S(hbond)    S(metal)    S(lipo)     H(rot)  DE(clash)    DE(int)     intcor
     10.32     -18.89       2.49        0.00      74.86       1.42       6.34       2.23       ----

> <Gold.Chemscore.Fitness>
10.3229

> <Gold.Chemscore.DG>
-18.8937

> <Gold.Chemscore.ZeroCoef>
-5.4800

> <Gold.Chemscore.Hbond>
2.4860

> <Gold.Chemscore.Metal>
0.0000

> <Gold.Chemscore.Lipo>
74.8556

> <Gold.Chemscore.Internal_Hbond>
0.0000

> <Gold.Chemscore.DEClash>
6.3405

> <Gold.Chemscore.DEInternal>
2.2303

> <Gold.Chemscore.Rot>
1.4248

> <Gold.Chemscore.Internal.Correction>
   9.000000E+99

> <Gold.Chemscore.Hbonds>
donor molecule, donor type, donor heavy atom, donor atom, acceptor molecule, acceptor atom, score
      L1  H     6    25       P1 10175  0.74
      L1  H     9    26       P1 10175  0.82
      P1  H  7954  7966       L1     8  0.91

> <Gold.Chemscore.Hbond.Weighted>
-8.3032

> <Gold.Chemscore.Metal.Weighted>
-0.0000

> <Gold.Chemscore.Lipo.Weighted>
-8.7581

> <Gold.Chemscore.Internal_Hbond.Weighted>
0.0000

> <Gold.Chemscore.DEClash.Weighted>
6.3405

> <Gold.Chemscore.DEInternal.Weighted>
2.2303

> <Gold.Chemscore.Rot.Weighted>
3.6476

> <Gold.Chemscore.Internal.Correction.Weighted>
   9.000000E+99

> <Gold.Protein.RotatedTorsions>
[ 6907 6896 6895 6894 ] final  141.58 input  -60.11 | X-H torsion
[ 7974 7965 7964 7962 ] final   57.09 input  175.53 | X-H torsion
[ 8008 7997 7996 7995 ] final  131.21 input   59.86 | X-H torsion
[ 10167 10162 10161 10158 ] final   60.03 input  -65.29 | X-H torsion
[ 10718 10713 10712 10709 ] final  161.03 input   66.30 | X-H torsion
[ 10763 10752 10751 10750 ] final   62.95 input  -60.55 | X-H torsion
[ 11005 11000 10999 10996 ] final  -82.42 input  -57.11 | X-H torsion

> <Gold.Protein.ActiveResidues>
 VAL166  LYS551  ARG553  GLY616  TRP617  ASP618  TYR619  PRO620  LYS621  CYS622 
 ASP623  PHE694  ASN695  SER759  ASP760  ASP761  ALA762  ILE779  LEU786  VAL792 
 PHE793  MET794  SER795  GLU796  ALA797  LYS798  CYS799  TRP800  GLU811  SER814 

> <Gold.Protein.RotatedAtoms>
  152.2292  133.5044  159.5205 H   0  0  0  0  0  0  0  0  0  0  0  0  # atno 6907 bound_to 6896
  150.7033  134.1239  159.4054 H   0  0  0  0  0  0  0  0  0  0  0  0  # atno 6908 bound_to 6896
  151.9160  135.0318  160.0569 H   0  0  0  0  0  0  0  0  0  0  0  0  # atno 6909 bound_to 6896
  145.9328  139.3822  143.0411 H   0  0  0  0  0  0  0  0  0  0  0  0  # atno 7974 bound_to 7965
  156.2966  140.2577  156.2888 H   0  0  0  0  0  0  0  0  0  0  0  0  # atno 8008 bound_to 7997
  154.9530  140.0394  157.2172 H   0  0  0  0  0  0  0  0  0  0  0  0  # atno 8009 bound_to 7997
  154.8018  140.2829  155.5920 H   0  0  0  0  0  0  0  0  0  0  0  0  # atno 8010 bound_to 7997
  140.1700  144.4286  150.6666 H   0  0  0  0  0  0  0  0  0  0  0  0  # atno 10167 bound_to 10162
  157.1422  131.0543  151.2321 H   0  0  0  0  0  0  0  0  0  0  0  0  # atno 10718 bound_to 10713
  153.0000  135.5446  154.6274 H   0  0  0  0  0  0  0  0  0  0  0  0  # atno 10763 bound_to 10752
  154.5560  135.2830  155.0966 H   0  0  0  0  0  0  0  0  0  0  0  0  # atno 10764 bound_to 10752
  154.2188  135.6454  153.5190 H   0  0  0  0  0  0  0  0  0  0  0  0  # atno 10765 bound_to 10752
  141.1663  133.7243  156.8569 H   0  0  0  0  0  0  0  0  0  0  0  0  # atno 11005 bound_to 11000
  145.8404  140.9584  143.0802 LP  0  0  0  0  0  0  0  0  0  0  0  0  # atno 17320 bound_to 7965
  144.6767  140.0276  143.7483 LP  0  0  0  0  0  0  0  0  0  0  0  0  # atno 17321 bound_to 7965
  140.6588  143.2246  151.5905 LP  0  0  0  0  0  0  0  0  0  0  0  0  # atno 17342 bound_to 10162
  139.5342  144.2828  152.1215 LP  0  0  0  0  0  0  0  0  0  0  0  0  # atno 17343 bound_to 10162
  157.4297  130.7483  149.6980 LP  0  0  0  0  0  0  0  0  0  0  0  0  # atno 17370 bound_to 10713
  155.9786  130.4049  150.3636 LP  0  0  0  0  0  0  0  0  0  0  0  0  # atno 17371 bound_to 10713
  140.1876  134.8988  157.3023 LP  0  0  0  0  0  0  0  0  0  0  0  0  # atno 17394 bound_to 11000
  140.2325  134.3891  155.7515 LP  0  0  0  0  0  0  0  0  0  0  0  0  # atno 17395 bound_to 11000

$$$$
