AV-unprocessed.smi:2243|AV-procd|sdf|9066|dock2
  -GOLD-   2272012273D 1   1.00000     0.00000
 Structure written by MMmdl.
 34 35  0  0  0  0  0  0  0  0  1 V2000
  147.5620  133.1958  155.4845 C   0  0  0  0  0  0  0  0  0  0  0  0
  148.6755  133.5371  154.4796 C   0  0  2  0  0  0  0  0  0  0  0  0
  148.0652  133.6518  153.1539 N   0  0  0  0  0  0  0  0  0  0  0  0
  147.2365  132.7682  152.5754 C   0  0  0  0  0  0  0  0  0  0  0  0
  146.8963  131.7267  153.1454 O   0  0  0  0  0  0  0  0  0  0  0  0
  146.8667  133.2252  151.3187 N   0  0  0  0  0  0  0  0  0  0  0  0
  145.7630  132.8073  150.7802 C   0  0  0  0  0  0  0  0  0  0  0  0
  145.2405  133.1561  149.5450 N   0  0  0  0  0  0  0  0  0  0  0  0
  144.0617  132.4838  149.3760 C   0  0  0  0  0  0  0  0  0  0  0  0
  143.8498  131.7414  150.4588 C   0  0  0  0  0  0  0  0  0  0  0  0
  144.8746  131.9173  151.3388 O   0  0  0  0  0  0  0  0  0  0  0  0
  149.8255  132.4949  154.4596 C   0  0  0  0  0  0  0  0  0  0  0  0
  149.3137  131.0517  154.2760 C   0  0  0  0  0  0  0  0  0  0  0  0
  150.4689  130.0388  154.3307 C   0  0  0  0  0  0  0  0  0  0  0  0
  151.1698  130.1650  155.5613 O   0  0  0  0  0  0  0  0  0  0  0  0
  151.7704  131.4442  155.7202 C   0  0  0  0  0  0  0  0  0  0  0  0
  150.6888  132.5363  155.7392 C   0  0  0  0  0  0  0  0  0  0  0  0
  147.9185  133.2361  156.5132 H   0  0  0  0  0  0  0  0  0  0  0  0
  147.1581  132.1986  155.3070 H   0  0  0  0  0  0  0  0  0  0  0  0
  146.7375  133.9057  155.4086 H   0  0  0  0  0  0  0  0  0  0  0  0
  149.0978  134.4979  154.7784 H   0  0  0  0  0  0  0  0  0  0  0  0
  148.2978  134.4804  152.6257 H   0  0  0  0  0  0  0  0  0  0  0  0
  145.6254  133.7891  148.8588 H   0  0  0  0  0  0  0  0  0  0  0  0
  143.4841  132.6125  148.4727 H   0  0  0  0  0  0  0  0  0  0  0  0
  143.0561  131.0665  150.7424 H   0  0  0  0  0  0  0  0  0  0  0  0
  150.4764  132.7275  153.6151 H   0  0  0  0  0  0  0  0  0  0  0  0
  148.5877  130.8146  155.0548 H   0  0  0  0  0  0  0  0  0  0  0  0
  148.7974  130.9416  153.3230 H   0  0  0  0  0  0  0  0  0  0  0  0
  150.0796  129.0238  154.2515 H   0  0  0  0  0  0  0  0  0  0  0  0
  151.1529  130.1828  153.4927 H   0  0  0  0  0  0  0  0  0  0  0  0
  152.3279  131.4558  156.6567 H   0  0  0  0  0  0  0  0  0  0  0  0
  152.4902  131.6228  154.9200 H   0  0  0  0  0  0  0  0  0  0  0  0
  151.1713  133.5075  155.8510 H   0  0  0  0  0  0  0  0  0  0  0  0
  150.0549  132.4018  156.6167 H   0  0  0  0  0  0  0  0  0  0  0  0
  1  2  1  0  0  0  0
  1 18  1  0  0  0  0
  1 19  1  0  0  0  0
  1 20  1  0  0  0  0
  2  3  1  0  0  0  0
  2 12  1  0  0  0  0
  2 21  1  0  0  0  0
  3 22  1  0  0  0  0
  3  4  1  0  0  0  0
  4  6  1  0  0  0  0
  4  5  2  0  0  0  0
  6  7  2  0  0  0  0
  7 11  1  0  0  0  0
  7  8  1  0  0  0  0
  8 23  1  0  0  0  0
  8  9  1  0  0  0  0
  9 24  1  0  0  0  0
  9 10  2  0  0  0  0
 10 25  1  0  0  0  0
 10 11  1  0  0  0  0
 12 17  1  0  0  0  0
 12 13  1  0  0  0  0
 12 26  1  0  0  0  0
 13 14  1  0  0  0  0
 13 27  1  0  0  0  0
 13 28  1  0  0  0  0
 14 15  1  0  0  0  0
 14 29  1  0  0  0  0
 14 30  1  0  0  0  0
 15 16  1  0  0  0  0
 16 17  1  0  0  0  0
 16 31  1  0  0  0  0
 16 32  1  0  0  0  0
 17 33  1  0  0  0  0
 17 34  1  0  0  0  0
M  END
> <s_m_source_file>
AV-unprocessed.smi

> <i_m_source_file_index>
2243

> <i_lp_mmshare_version>
43012

> <i_f3d_flags>
0

> <s_epik_input>
W0NIMl0xW0NIMl1PW0NIMl1bQ0gyXVtDSF0xW0NASF0oW0NIM10pW05IXUMoPU8pW05IXWMybltjSF1bY0hdbzI=

> <s_epik_cmdline>
J2VwaWtfcHl0aG9uJywgJy1waCcsICc3LjAnLCAnLXRuJywgJzgnLCAnLW1hJywgJzIwMCcsICctbWV0YWxfYmluZGluZycsICctaW1hZScsICc8aW5maWxlLm1hZT4nLCAnLW9tYWUnLCAnPG91dGZpbGUubWFlPic=

> <r_lp_tautomer_probability>
0.107061

> <r_epik_Ionization_Penalty>
1.44639

> <r_epik_Ionization_Penalty_Charging>
1.44602

> <r_epik_Ionization_Penalty_Neutral>
0.000368208

> <r_epik_State_Penalty>
2.61815

> <r_epik_Charging_Adjusted_Penalty>
4.06418

> <i_epik_Tot_Q>
0

> <i_epik_Tot_abs_Q>
0

> <r_epik_Metal_State_Penalty>
3.54171

> <b_epik_Metal_Only>
0

> <s_lp_Force_Field>
OPLS_2005

> <r_lp_Energy>
34.6671

> <b_lp_Chiralities_Consistent>
1

> <s_lp_Variant>
AV-unprocessed.smi:2243-5

> <Gold.Version>
5.8.1

> <Gold.Id.Protein>
6NUR|6NUR_protein|mol2

> <Gold.PLP.Fitness>
36.2612

> <Gold.PLP.PLP>
-28.5626

> <Gold.PLP.part.hbond>
-2.0000

> <Gold.PLP.part.metal>
0.0000

> <Gold.PLP.part.buried>
-5.4810

> <Gold.PLP.part.nonpolar>
-22.0714

> <Gold.PLP.part.repulsive>
0.6231

> <Gold.PLP.ligand.clash>
0.0000

> <Gold.PLP.ligand.torsion>
0.3569

> <Gold.PLP.Chemscore.Hbond>
2.0000

> <Gold.PLP.Chemscore.CHOScore>
0.7989

> <Gold.PLP.Chemscore.Metal>
0.0000

> <Gold.Chemscore.Hbonds>
donor molecule, donor type, donor heavy atom, donor atom, acceptor molecule, acceptor atom, score
      L1  H     3    22       P1  7948  0.95
      L1  H     8    23       P1  7921  1.00
      L1  C    10    25       P1 10952  0.77

> <Gold.PLP.Chemscore.Internal.Correction>
0.0158

> <Gold.Rescore>
     Score         DG    S(hbond)    S(metal)    S(lipo)     H(rot)  DE(clash)    DE(int)     intcor
      9.89     -14.54       1.80        0.00      54.87       1.32       0.04       4.61       ----

> <Gold.Chemscore.Fitness>
9.8892

> <Gold.Chemscore.DG>
-14.5450

> <Gold.Chemscore.ZeroCoef>
-5.4800

> <Gold.Chemscore.Hbond>
1.8038

> <Gold.Chemscore.Metal>
0.0000

> <Gold.Chemscore.Lipo>
54.8698

> <Gold.Chemscore.Internal_Hbond>
0.0000

> <Gold.Chemscore.DEClash>
0.0417

> <Gold.Chemscore.DEInternal>
4.6141

> <Gold.Chemscore.Rot>
1.3201

> <Gold.Chemscore.Internal.Correction>
   9.000000E+99

> <Gold.Chemscore.Hbonds>
donor molecule, donor type, donor heavy atom, donor atom, acceptor molecule, acceptor atom, score
      L1  H     3    22       P1  7948  0.21
      L1  H     8    23       P1  7921  0.35

> <Gold.Chemscore.Hbond.Weighted>
-6.0246

> <Gold.Chemscore.Metal.Weighted>
-0.0000

> <Gold.Chemscore.Lipo.Weighted>
-6.4198

> <Gold.Chemscore.Internal_Hbond.Weighted>
0.0000

> <Gold.Chemscore.DEClash.Weighted>
0.0417

> <Gold.Chemscore.DEInternal.Weighted>
4.6141

> <Gold.Chemscore.Rot.Weighted>
3.3794

> <Gold.Chemscore.Internal.Correction.Weighted>
   9.000000E+99

> <Gold.Protein.RotatedTorsions>
[ 6907 6896 6895 6894 ] final  -15.75 input  -60.11 | X-H torsion
[ 7974 7965 7964 7962 ] final -166.52 input  175.53 | X-H torsion
[ 8008 7997 7996 7995 ] final   45.14 input   59.86 | X-H torsion
[ 10167 10162 10161 10158 ] final  -36.65 input  -65.29 | X-H torsion
[ 10718 10713 10712 10709 ] final  -71.33 input   66.30 | X-H torsion
[ 10763 10752 10751 10750 ] final   39.94 input  -60.55 | X-H torsion
[ 11005 11000 10999 10996 ] final -157.53 input  -57.11 | X-H torsion

> <Gold.Protein.ActiveResidues>
 VAL166  LYS551  ARG553  GLY616  TRP617  ASP618  TYR619  PRO620  LYS621  CYS622 
 ASP623  PHE694  ASN695  SER759  ASP760  ASP761  ALA762  ILE779  LEU786  VAL792 
 PHE793  MET794  SER795  GLU796  ALA797  LYS798  CYS799  TRP800  GLU811  SER814 

> <Gold.Protein.RotatedAtoms>
  151.3191  135.0814  159.9299 H   0  0  0  0  0  0  0  0  0  0  0  0  # atno 6907 bound_to 6896
  152.5261  133.9657  159.7748 H   0  0  0  0  0  0  0  0  0  0  0  0  # atno 6908 bound_to 6896
  150.9975  133.6037  159.2730 H   0  0  0  0  0  0  0  0  0  0  0  0  # atno 6909 bound_to 6896
  144.7243  140.2654  143.6258 H   0  0  0  0  0  0  0  0  0  0  0  0  # atno 7974 bound_to 7965
  155.3310  140.3402  155.4239 H   0  0  0  0  0  0  0  0  0  0  0  0  # atno 8008 bound_to 7997
  156.1862  140.1681  156.8218 H   0  0  0  0  0  0  0  0  0  0  0  0  # atno 8009 bound_to 7997
  154.5388  140.0729  156.8458 H   0  0  0  0  0  0  0  0  0  0  0  0  # atno 8010 bound_to 7997
  140.7137  143.3394  151.2390 H   0  0  0  0  0  0  0  0  0  0  0  0  # atno 10167 bound_to 10162
  156.0367  130.4349  150.2428 H   0  0  0  0  0  0  0  0  0  0  0  0  # atno 10718 bound_to 10713
  152.9951  135.6206  154.2545 H   0  0  0  0  0  0  0  0  0  0  0  0  # atno 10763 bound_to 10752
  154.2283  135.2793  155.2901 H   0  0  0  0  0  0  0  0  0  0  0  0  # atno 10764 bound_to 10752
  154.5471  135.5744  153.6947 H   0  0  0  0  0  0  0  0  0  0  0  0  # atno 10765 bound_to 10752
  140.6636  134.4323  157.5234 H   0  0  0  0  0  0  0  0  0  0  0  0  # atno 11005 bound_to 11000
  145.8095  139.1997  143.2001 LP  0  0  0  0  0  0  0  0  0  0  0  0  # atno 17320 bound_to 7965
  146.0608  140.7973  142.9736 LP  0  0  0  0  0  0  0  0  0  0  0  0  # atno 17321 bound_to 7965
  139.6898  143.9712  152.2853 LP  0  0  0  0  0  0  0  0  0  0  0  0  # atno 17342 bound_to 10162
  139.9369  144.6706  150.8305 LP  0  0  0  0  0  0  0  0  0  0  0  0  # atno 17343 bound_to 10162
  157.0527  131.0067  151.3248 LP  0  0  0  0  0  0  0  0  0  0  0  0  # atno 17370 bound_to 10713
  157.5129  130.7949  149.7724 LP  0  0  0  0  0  0  0  0  0  0  0  0  # atno 17371 bound_to 10713
  139.9005  134.8568  156.1918 LP  0  0  0  0  0  0  0  0  0  0  0  0  # atno 17394 bound_to 11000
  141.0446  133.6920  156.1661 LP  0  0  0  0  0  0  0  0  0  0  0  0  # atno 17395 bound_to 11000

$$$$
