AV-unprocessed.smi:1720|AV-procd|sdf|6932|dock9
  -GOLD-   22720 8143D 1   1.00000     0.00000
 Structure written by MMmdl.
 32 33  0  0  0  0  0  0  0  0  1 V2000
  152.9061  144.7261  158.1654 C   0  0  0  0  0  0  0  0  0  0  0  0
  151.5300  144.3585  158.7395 C   0  0  1  0  0  0  0  0  0  0  0  0
  150.7025  143.8135  157.6642 N   0  0  0  0  0  0  0  0  0  0  0  0
  150.8948  142.6416  157.0413 C   0  0  0  0  0  0  0  0  0  0  0  0
  151.8187  141.8709  157.3022 O   0  0  0  0  0  0  0  0  0  0  0  0
  149.9572  142.4312  156.1031 N   0  0  0  0  0  0  0  0  0  0  0  0
  149.8356  141.3098  155.2439 C   0  0  0  0  0  0  0  0  0  0  0  0
  150.6269  140.1326  155.3327 C   0  0  0  0  0  0  0  0  0  0  0  0
  150.2914  139.2526  154.4002 N   0  0  0  0  0  0  0  0  0  0  0  0
  149.2944  139.8578  153.7156 N   0  0  0  0  0  0  0  0  0  0  0  0
  148.9841  141.1119  154.1932 C   0  0  0  0  0  0  0  0  0  0  0  0
  151.6422  143.3485  159.9003 C   0  0  2  0  0  0  0  0  0  0  0  0
  152.0587  143.9506  161.2450 C   0  0  0  0  0  0  0  0  0  0  0  0
  152.6610  142.7540  161.9435 C   0  0  0  0  0  0  0  0  0  0  0  0
  153.3865  142.0621  160.7943 C   0  0  0  0  0  0  0  0  0  0  0  0
  152.6434  142.3721  159.6183 O   0  0  0  0  0  0  0  0  0  0  0  0
  148.8403  139.4068  152.9341 H   0  0  0  0  0  0  0  0  0  0  0  0
  153.5405  145.1830  158.9256 H   0  0  0  0  0  0  0  0  0  0  0  0
  152.8119  145.4407  157.3471 H   0  0  0  0  0  0  0  0  0  0  0  0
  153.4262  143.8471  157.7828 H   0  0  0  0  0  0  0  0  0  0  0  0
  151.0816  145.2760  159.1250 H   0  0  0  0  0  0  0  0  0  0  0  0
  149.9158  144.3763  157.3753 H   0  0  0  0  0  0  0  0  0  0  0  0
  149.2585  143.1506  155.9884 H   0  0  0  0  0  0  0  0  0  0  0  0
  151.4170  139.8917  156.0290 H   0  0  0  0  0  0  0  0  0  0  0  0
  148.2110  141.7235  153.7521 H   0  0  0  0  0  0  0  0  0  0  0  0
  150.6961  142.8200  160.0302 H   0  0  0  0  0  0  0  0  0  0  0  0
  152.8196  144.7199  161.1045 H   0  0  0  0  0  0  0  0  0  0  0  0
  151.2246  144.3901  161.7927 H   0  0  0  0  0  0  0  0  0  0  0  0
  153.3236  143.0227  162.7668 H   0  0  0  0  0  0  0  0  0  0  0  0
  151.8707  142.1108  162.3333 H   0  0  0  0  0  0  0  0  0  0  0  0
  154.3933  142.4660  160.6817 H   0  0  0  0  0  0  0  0  0  0  0  0
  153.4690  140.9853  160.9424 H   0  0  0  0  0  0  0  0  0  0  0  0
  1  2  1  0  0  0  0
  1 18  1  0  0  0  0
  1 19  1  0  0  0  0
  1 20  1  0  0  0  0
  2  3  1  0  0  0  0
  2 12  1  0  0  0  0
  2 21  1  0  0  0  0
  3  4  1  0  0  0  0
  3 22  1  0  0  0  0
  4  5  2  0  0  0  0
  4  6  1  0  0  0  0
  6  7  1  0  0  0  0
  6 23  1  0  0  0  0
  7 11  2  0  0  0  0
  7  8  1  0  0  0  0
  8  9  2  0  0  0  0
  8 24  1  0  0  0  0
  9 10  1  0  0  0  0
 10 17  1  0  0  0  0
 10 11  1  0  0  0  0
 11 25  1  0  0  0  0
 12 16  1  0  0  0  0
 12 13  1  0  0  0  0
 12 26  1  0  0  0  0
 13 14  1  0  0  0  0
 13 27  1  0  0  0  0
 13 28  1  0  0  0  0
 14 15  1  0  0  0  0
 14 29  1  0  0  0  0
 14 30  1  0  0  0  0
 15 16  1  0  0  0  0
 15 31  1  0  0  0  0
 15 32  1  0  0  0  0
M  END
> <s_m_source_file>
AV-unprocessed.smi

> <i_m_source_file_index>
1720

> <i_lp_mmshare_version>
43012

> <i_f3d_flags>
0

> <s_epik_input>
TzFbQ0gyXVtDSDJdW0NIMl1bQ0BIXTFbQ0BIXShbQ0gzXSlbTkhdQyg9TylbTkhdYzJbY0hdbltuSF1bY0hdMg==

> <s_epik_cmdline>
J2VwaWtfcHl0aG9uJywgJy1waCcsICc3LjAnLCAnLXRuJywgJzgnLCAnLW1hJywgJzIwMCcsICctbWV0YWxfYmluZGluZycsICctaW1hZScsICc8aW5maWxlLm1hZT4nLCAnLW9tYWUnLCAnPG91dGZpbGUubWFlPic=

> <r_lp_tautomer_probability>
1

> <r_epik_Ionization_Penalty>
4.95841e-05

> <r_epik_Ionization_Penalty_Charging>
0

> <r_epik_Ionization_Penalty_Neutral>
4.95841e-05

> <r_epik_State_Penalty>
-0

> <r_epik_Charging_Adjusted_Penalty>
0

> <i_epik_Tot_Q>
0

> <i_epik_Tot_abs_Q>
0

> <r_epik_Metal_State_Penalty>
-0

> <b_epik_Metal_Only>
0

> <s_lp_Force_Field>
OPLS_2005

> <r_lp_Energy>
20.0519

> <b_lp_Chiralities_Consistent>
1

> <s_lp_Variant>
AV-unprocessed.smi:1720-2

> <Gold.Version>
5.8.1

> <Gold.Id.Protein>
6NUR|6NUR_protein|mol2

> <Gold.PLP.Fitness>
44.3534

> <Gold.PLP.PLP>
-39.3137

> <Gold.PLP.part.hbond>
-3.0000

> <Gold.PLP.part.metal>
0.0000

> <Gold.PLP.part.buried>
-3.4984

> <Gold.PLP.part.nonpolar>
-33.2247

> <Gold.PLP.part.repulsive>
0.4449

> <Gold.PLP.ligand.clash>
0.0000

> <Gold.PLP.ligand.torsion>
0.4391

> <Gold.PLP.Chemscore.Hbond>
1.9696

> <Gold.PLP.Chemscore.CHOScore>
0.0000

> <Gold.PLP.Chemscore.Metal>
0.0000

> <Gold.Chemscore.Hbonds>
donor molecule, donor type, donor heavy atom, donor atom, acceptor molecule, acceptor atom, score
      L1  H     3    22       P1  8028  0.77
      L1  H     6    23       P1  8028  0.99
      L1  H    10    17       P1  7957  0.24

> <Gold.PLP.Chemscore.Internal.Correction>
0.0089

> <Gold.Rescore>
     Score         DG    S(hbond)    S(metal)    S(lipo)     H(rot)  DE(clash)    DE(int)     intcor
     14.69     -19.38       1.82        0.00      95.46       1.31       0.08       4.61       ----

> <Gold.Chemscore.Fitness>
14.6930

> <Gold.Chemscore.DG>
-19.3806

> <Gold.Chemscore.ZeroCoef>
-5.4800

> <Gold.Chemscore.Hbond>
1.8204

> <Gold.Chemscore.Metal>
0.0000

> <Gold.Chemscore.Lipo>
95.4591

> <Gold.Chemscore.Internal_Hbond>
0.0000

> <Gold.Chemscore.DEClash>
0.0778

> <Gold.Chemscore.DEInternal>
4.6098

> <Gold.Chemscore.Rot>
1.3079

> <Gold.Chemscore.Internal.Correction>
   9.000000E+99

> <Gold.Chemscore.Hbonds>
donor molecule, donor type, donor heavy atom, donor atom, acceptor molecule, acceptor atom, score
      L1  H     3    22       P1  8028  0.25
      L1  H     6    23       P1  8028  0.93
      L1  H    10    17       P1  7957  0.23

> <Gold.Chemscore.Hbond.Weighted>
-6.0802

> <Gold.Chemscore.Metal.Weighted>
-0.0000

> <Gold.Chemscore.Lipo.Weighted>
-11.1687

> <Gold.Chemscore.Internal_Hbond.Weighted>
0.0000

> <Gold.Chemscore.DEClash.Weighted>
0.0778

> <Gold.Chemscore.DEInternal.Weighted>
4.6098

> <Gold.Chemscore.Rot.Weighted>
3.3483

> <Gold.Chemscore.Internal.Correction.Weighted>
   9.000000E+99

> <Gold.Protein.RotatedTorsions>
[ 6907 6896 6895 6894 ] final  160.63 input  -60.11 | X-H torsion
[ 7974 7965 7964 7962 ] final   78.76 input  175.53 | X-H torsion
[ 8008 7997 7996 7995 ] final   61.74 input   59.86 | X-H torsion
[ 10167 10162 10161 10158 ] final   27.60 input  -65.29 | X-H torsion
[ 10718 10713 10712 10709 ] final   74.84 input   66.30 | X-H torsion
[ 10763 10752 10751 10750 ] final    5.68 input  -60.55 | X-H torsion
[ 11005 11000 10999 10996 ] final -172.40 input  -57.11 | X-H torsion

> <Gold.Protein.ActiveResidues>
 VAL166  LYS551  ARG553  GLY616  TRP617  ASP618  TYR619  PRO620  LYS621  CYS622 
 ASP623  PHE694  ASN695  SER759  ASP760  ASP761  ALA762  ILE779  LEU786  VAL792 
 PHE793  MET794  SER795  GLU796  ALA797  LYS798  CYS799  TRP800  GLU811  SER814 

> <Gold.Protein.RotatedAtoms>
  151.9677  133.3715  159.4058 H   0  0  0  0  0  0  0  0  0  0  0  0  # atno 6907 bound_to 6896
  150.6954  134.4173  159.5198 H   0  0  0  0  0  0  0  0  0  0  0  0  # atno 6908 bound_to 6896
  152.1872  134.8703  160.0571 H   0  0  0  0  0  0  0  0  0  0  0  0  # atno 6909 bound_to 6896
  145.6730  139.2502  143.1857 H   0  0  0  0  0  0  0  0  0  0  0  0  # atno 7974 bound_to 7965
  155.6032  140.3494  155.4600 H   0  0  0  0  0  0  0  0  0  0  0  0  # atno 8008 bound_to 7997
  156.0212  140.1254  157.0380 H   0  0  0  0  0  0  0  0  0  0  0  0  # atno 8009 bound_to 7997
  154.4316  140.1062  156.5952 H   0  0  0  0  0  0  0  0  0  0  0  0  # atno 8010 bound_to 7997
  140.4924  144.0446  150.6302 H   0  0  0  0  0  0  0  0  0  0  0  0  # atno 10167 bound_to 10162
  157.6609  130.9697  150.1268 H   0  0  0  0  0  0  0  0  0  0  0  0  # atno 10718 bound_to 10713
  153.2566  135.6919  153.7622 H   0  0  0  0  0  0  0  0  0  0  0  0  # atno 10763 bound_to 10752
  153.6697  135.3346  155.3151 H   0  0  0  0  0  0  0  0  0  0  0  0  # atno 10764 bound_to 10752
  154.8414  135.4497  154.1542 H   0  0  0  0  0  0  0  0  0  0  0  0  # atno 10765 bound_to 10752
  140.4974  134.5927  157.4976 H   0  0  0  0  0  0  0  0  0  0  0  0  # atno 11005 bound_to 11000
  146.1029  140.7522  142.9540 LP  0  0  0  0  0  0  0  0  0  0  0  0  # atno 17320 bound_to 7965
  144.7050  140.3816  143.7125 LP  0  0  0  0  0  0  0  0  0  0  0  0  # atno 17321 bound_to 7965
  140.3718  143.2850  152.0269 LP  0  0  0  0  0  0  0  0  0  0  0  0  # atno 17342 bound_to 10162
  139.4854  144.6224  151.7230 LP  0  0  0  0  0  0  0  0  0  0  0  0  # atno 17343 bound_to 10162
  156.2125  130.3668  149.8653 LP  0  0  0  0  0  0  0  0  0  0  0  0  # atno 17370 bound_to 10713
  156.6528  130.8750  151.3534 LP  0  0  0  0  0  0  0  0  0  0  0  0  # atno 17371 bound_to 10713
  139.9733  134.7256  155.9998 LP  0  0  0  0  0  0  0  0  0  0  0  0  # atno 17394 bound_to 11000
  141.1453  133.6557  156.3850 LP  0  0  0  0  0  0  0  0  0  0  0  0  # atno 17395 bound_to 11000

$$$$
