AV-unprocessed.smi:3218|AV-procd|sdf|12294|dock4
  -GOLD-   2272018133D 1   1.00000     0.00000
 Structure written by MMmdl.
 37 38  0  0  0  0  0  0  0  0  1 V2000
  153.3341  142.8117  163.4691 C   0  0  0  0  0  0  0  0  0  0  0  0
  153.0749  142.6295  162.0014 C   0  0  0  0  0  0  0  0  0  0  0  0
  153.6219  141.6407  161.1346 C   0  0  0  0  0  0  0  0  0  0  0  0
  153.1939  141.7554  159.8880 N   0  0  0  0  0  0  0  0  0  0  0  0
  152.3593  142.8159  159.9152 N   0  0  0  0  0  0  0  0  0  0  0  0
  151.7002  143.2453  158.6975 C   0  0  0  0  0  0  0  0  0  0  0  0
  150.1850  143.3781  158.8999 C   0  0  0  0  0  0  0  0  0  0  0  0
  149.4897  142.9403  157.7010 N   0  0  0  0  0  0  0  0  0  0  0  0
  149.9519  141.6168  157.3188 C   0  0  0  0  0  0  0  0  0  0  0  0
  150.3412  141.6151  155.8329 C   0  0  0  0  0  0  0  0  0  0  0  0
  150.6550  140.2662  155.3726 N   0  0  0  0  0  0  0  0  0  0  0  0
  149.8432  139.6197  154.3552 C   0  0  0  0  0  0  0  0  0  0  0  0
  150.3370  138.1664  154.3195 C   0  0  0  0  0  0  0  0  0  0  0  0
  151.6762  138.1653  155.0647 C   0  0  0  0  0  0  0  0  0  0  0  0
  151.6812  139.5079  155.7761 C   0  0  0  0  0  0  0  0  0  0  0  0
  152.5322  139.8204  156.6076 O   0  0  0  0  0  0  0  0  0  0  0  0
  152.2697  143.3636  161.1771 C   0  0  0  0  0  0  0  0  0  0  0  0
  153.4504  141.8557  163.9799 H   0  0  0  0  0  0  0  0  0  0  0  0
  152.5187  143.3416  163.9620 H   0  0  0  0  0  0  0  0  0  0  0  0
  154.2445  143.3843  163.6470 H   0  0  0  0  0  0  0  0  0  0  0  0
  154.3154  140.8478  161.3732 H   0  0  0  0  0  0  0  0  0  0  0  0
  152.1322  144.1965  158.3819 H   0  0  0  0  0  0  0  0  0  0  0  0
  151.9197  142.5202  157.9124 H   0  0  0  0  0  0  0  0  0  0  0  0
  149.8675  142.7741  159.7512 H   0  0  0  0  0  0  0  0  0  0  0  0
  149.9240  144.4149  159.1166 H   0  0  0  0  0  0  0  0  0  0  0  0
  149.6633  143.5911  156.9481 H   0  0  0  0  0  0  0  0  0  0  0  0
  150.8066  141.3369  157.9362 H   0  0  0  0  0  0  0  0  0  0  0  0
  149.1625  140.8853  157.4983 H   0  0  0  0  0  0  0  0  0  0  0  0
  149.5263  142.0202  155.2309 H   0  0  0  0  0  0  0  0  0  0  0  0
  151.2024  142.2641  155.6639 H   0  0  0  0  0  0  0  0  0  0  0  0
  148.7808  139.6810  154.5946 H   0  0  0  0  0  0  0  0  0  0  0  0
  150.0078  140.1128  153.3962 H   0  0  0  0  0  0  0  0  0  0  0  0
  149.6273  137.5185  154.8359 H   0  0  0  0  0  0  0  0  0  0  0  0
  150.4351  137.7971  153.2982 H   0  0  0  0  0  0  0  0  0  0  0  0
  151.7566  137.3377  155.7703 H   0  0  0  0  0  0  0  0  0  0  0  0
  152.5171  138.1197  154.3719 H   0  0  0  0  0  0  0  0  0  0  0  0
  151.6484  144.2234  161.3811 H   0  0  0  0  0  0  0  0  0  0  0  0
  1  2  1  0  0  0  0
  1 18  1  0  0  0  0
  1 19  1  0  0  0  0
  1 20  1  0  0  0  0
  2 17  2  0  0  0  0
  2  3  1  0  0  0  0
  3  4  2  0  0  0  0
  3 21  1  0  0  0  0
  4  5  1  0  0  0  0
  5  6  1  0  0  0  0
  5 17  1  0  0  0  0
  6  7  1  0  0  0  0
  6 22  1  0  0  0  0
  6 23  1  0  0  0  0
  7  8  1  0  0  0  0
  7 24  1  0  0  0  0
  7 25  1  0  0  0  0
  8  9  1  0  0  0  0
  8 26  1  0  0  0  0
  9 10  1  0  0  0  0
  9 27  1  0  0  0  0
  9 28  1  0  0  0  0
 10 11  1  0  0  0  0
 10 29  1  0  0  0  0
 10 30  1  0  0  0  0
 11 15  1  0  0  0  0
 11 12  1  0  0  0  0
 12 13  1  0  0  0  0
 12 31  1  0  0  0  0
 12 32  1  0  0  0  0
 13 14  1  0  0  0  0
 13 33  1  0  0  0  0
 13 34  1  0  0  0  0
 14 15  1  0  0  0  0
 14 35  1  0  0  0  0
 14 36  1  0  0  0  0
 15 16  2  0  0  0  0
 17 37  1  0  0  0  0
M  END
> <s_m_source_file>
AV-unprocessed.smi

> <i_m_source_file_index>
3218

> <i_lp_mmshare_version>
43012

> <i_f3d_flags>
0

> <s_epik_input>
W0NIM11jMVtjSF1ubihbY0hdMSlbQ0gyXVtDSDJdW05IXVtDSDJdW0NIMl1OMltDSDJdW0NIMl1bQ0gyXUMyPU8=

> <s_epik_cmdline>
J2VwaWtfcHl0aG9uJywgJy1waCcsICc3LjAnLCAnLXRuJywgJzgnLCAnLW1hJywgJzIwMCcsICctbWV0YWxfYmluZGluZycsICctaW1hZScsICc8aW5maWxlLm1hZT4nLCAnLW9tYWUnLCAnPG91dGZpbGUubWFlPic=

> <r_lp_tautomer_probability>
1

> <r_epik_Ionization_Penalty>
2.53806

> <r_epik_Ionization_Penalty_Charging>
0

> <r_epik_Ionization_Penalty_Neutral>
2.53806

> <r_epik_State_Penalty>
2.70334

> <r_epik_Charging_Adjusted_Penalty>
2.70334

> <i_epik_Tot_Q>
0

> <i_epik_Tot_abs_Q>
0

> <r_epik_Metal_State_Penalty>
2.70114

> <b_epik_Metal_Only>
0

> <s_lp_Force_Field>
OPLS_2005

> <r_lp_Energy>
17.5506

> <b_lp_Chiralities_Consistent>
1

> <s_lp_Variant>
AV-unprocessed.smi:3218-2

> <Gold.Version>
5.8.1

> <Gold.Id.Protein>
6NUR|6NUR_protein|mol2

> <Gold.PLP.Fitness>
49.6856

> <Gold.PLP.PLP>
-45.0804

> <Gold.PLP.part.hbond>
-2.0000

> <Gold.PLP.part.metal>
0.0000

> <Gold.PLP.part.buried>
-4.1796

> <Gold.PLP.part.nonpolar>
-38.4560

> <Gold.PLP.part.repulsive>
0.0000

> <Gold.PLP.ligand.clash>
0.0000

> <Gold.PLP.ligand.torsion>
0.7225

> <Gold.PLP.Chemscore.Hbond>
1.9920

> <Gold.PLP.Chemscore.CHOScore>
0.0000

> <Gold.PLP.Chemscore.Metal>
0.0000

> <Gold.Chemscore.Hbonds>
donor molecule, donor type, donor heavy atom, donor atom, acceptor molecule, acceptor atom, score
      L1  H     8    26       P1  8028  0.91
      P1  H  7997  8009       L1    16  1.00

> <Gold.PLP.Chemscore.Internal.Correction>
0.0742

> <Gold.Rescore>
     Score         DG    S(hbond)    S(metal)    S(lipo)     H(rot)  DE(clash)    DE(int)     intcor
     17.98     -18.68       1.94        0.00     100.07       1.95       0.00       0.70       ----

> <Gold.Chemscore.Fitness>
17.9837

> <Gold.Chemscore.DG>
-18.6846

> <Gold.Chemscore.ZeroCoef>
-5.4800

> <Gold.Chemscore.Hbond>
1.9397

> <Gold.Chemscore.Metal>
0.0000

> <Gold.Chemscore.Lipo>
100.0707

> <Gold.Chemscore.Internal_Hbond>
0.0000

> <Gold.Chemscore.DEClash>
0.0029

> <Gold.Chemscore.DEInternal>
0.6979

> <Gold.Chemscore.Rot>
1.9463

> <Gold.Chemscore.Internal.Correction>
   9.000000E+99

> <Gold.Chemscore.Hbonds>
donor molecule, donor type, donor heavy atom, donor atom, acceptor molecule, acceptor atom, score
      L1  H     8    26       P1  8028  0.87
      P1  H  7997  8009       L1    16  1.00

> <Gold.Chemscore.Hbond.Weighted>
-6.4787

> <Gold.Chemscore.Metal.Weighted>
-0.0000

> <Gold.Chemscore.Lipo.Weighted>
-11.7083

> <Gold.Chemscore.Internal_Hbond.Weighted>
0.0000

> <Gold.Chemscore.DEClash.Weighted>
0.0029

> <Gold.Chemscore.DEInternal.Weighted>
0.6979

> <Gold.Chemscore.Rot.Weighted>
4.9824

> <Gold.Chemscore.Internal.Correction.Weighted>
   9.000000E+99

> <Gold.Protein.RotatedTorsions>
[ 6907 6896 6895 6894 ] final   -3.50 input  -60.11 | X-H torsion
[ 7974 7965 7964 7962 ] final  169.77 input  175.53 | X-H torsion
[ 8008 7997 7996 7995 ] final -170.76 input   59.86 | X-H torsion
[ 10167 10162 10161 10158 ] final  155.38 input  -65.29 | X-H torsion
[ 10718 10713 10712 10709 ] final   18.16 input   66.30 | X-H torsion
[ 10763 10752 10751 10750 ] final  179.26 input  -60.55 | X-H torsion
[ 11005 11000 10999 10996 ] final   -9.17 input  -57.11 | X-H torsion

> <Gold.Protein.ActiveResidues>
 VAL166  LYS551  ARG553  GLY616  TRP617  ASP618  TYR619  PRO620  LYS621  CYS622 
 ASP623  PHE694  ASN695  SER759  ASP760  ASP761  ALA762  ILE779  LEU786  VAL792 
 PHE793  MET794  SER795  GLU796  ALA797  LYS798  CYS799  TRP800  GLU811  SER814 

> <Gold.Protein.RotatedAtoms>
  151.5128  135.1065  159.9858 H   0  0  0  0  0  0  0  0  0  0  0  0  # atno 6907 bound_to 6896
  152.4654  133.7908  159.6911 H   0  0  0  0  0  0  0  0  0  0  0  0  # atno 6908 bound_to 6896
  150.8635  133.7544  159.3010 H   0  0  0  0  0  0  0  0  0  0  0  0  # atno 6909 bound_to 6896
  144.7344  139.9103  143.6414 H   0  0  0  0  0  0  0  0  0  0  0  0  # atno 7974 bound_to 7965
  155.9226  140.1077  157.1195 H   0  0  0  0  0  0  0  0  0  0  0  0  # atno 8008 bound_to 7997
  154.4057  140.1253  156.4764 H   0  0  0  0  0  0  0  0  0  0  0  0  # atno 8009 bound_to 7997
  155.7178  140.3470  155.5004 H   0  0  0  0  0  0  0  0  0  0  0  0  # atno 8010 bound_to 7997
  139.4821  144.5103  151.8034 H   0  0  0  0  0  0  0  0  0  0  0  0  # atno 10167 bound_to 10162
  157.0924  130.6433  149.5852 H   0  0  0  0  0  0  0  0  0  0  0  0  # atno 10718 bound_to 10713
  154.5184  135.2792  155.1283 H   0  0  0  0  0  0  0  0  0  0  0  0  # atno 10763 bound_to 10752
  154.2850  135.6278  153.5366 H   0  0  0  0  0  0  0  0  0  0  0  0  # atno 10764 bound_to 10752
  152.9932  135.5660  154.5667 H   0  0  0  0  0  0  0  0  0  0  0  0  # atno 10765 bound_to 10752
  140.7313  133.8747  155.8895 H   0  0  0  0  0  0  0  0  0  0  0  0  # atno 11005 bound_to 11000
  146.1006  139.4001  143.0349 LP  0  0  0  0  0  0  0  0  0  0  0  0  # atno 17320 bound_to 7965
  145.7584  140.9945  143.1213 LP  0  0  0  0  0  0  0  0  0  0  0  0  # atno 17321 bound_to 7965
  140.4606  144.1728  150.5906 LP  0  0  0  0  0  0  0  0  0  0  0  0  # atno 17342 bound_to 10162
  140.4489  143.2495  151.9374 LP  0  0  0  0  0  0  0  0  0  0  0  0  # atno 17343 bound_to 10162
  155.9894  130.4942  150.7214 LP  0  0  0  0  0  0  0  0  0  0  0  0  # atno 17370 bound_to 10713
  157.4710  131.0893  151.0643 LP  0  0  0  0  0  0  0  0  0  0  0  0  # atno 17371 bound_to 10713
  140.9919  134.1268  157.4400 LP  0  0  0  0  0  0  0  0  0  0  0  0  # atno 17394 bound_to 11000
  139.8826  135.0043  156.6239 LP  0  0  0  0  0  0  0  0  0  0  0  0  # atno 17395 bound_to 11000

$$$$
