AV-unprocessed.smi:609|AV-procd|sdf|3045|dock1
  -GOLD-   2262023563D 1   1.00000     0.00000
 Structure written by MMmdl.
 43 45  0  0  0  0  0  0  0  0  2 V2000
  152.7476  140.2411  159.1248 C   0  0  0  0  0  0  0  0  0  0  0  0
  151.8325  140.4758  157.9358 C   0  0  0  0  0  0  0  0  0  0  0  0
  151.6512  139.4390  156.9930 C   0  0  0  0  0  0  0  0  0  0  0  0
  150.8070  139.6160  155.8750 C   0  0  0  0  0  0  0  0  0  0  0  0
  150.4885  138.7502  154.8427 N   0  0  0  0  0  0  0  0  0  0  0  0
  149.6562  139.4919  154.1180 C   0  0  0  0  0  0  0  0  0  0  0  0
  149.4074  140.7426  154.5522 N   0  0  0  0  0  0  0  0  0  0  0  0
  148.5516  141.7346  153.9263 C   0  0  0  0  0  0  0  0  0  0  0  0
  147.0744  141.5915  154.3444 C   0  0  2  0  0  0  0  0  0  0  0  0
  146.4560  140.6775  153.4621 O   0  0  0  0  0  0  0  0  0  0  0  0
  146.2959  142.9205  154.3297 C   0  0  0  0  0  0  0  0  0  0  0  0
  144.6176  142.7417  154.9965 S   0  0  0  0  0  0  0  0  0  0  0  0
  143.8937  144.3480  154.8763 C   0  0  0  0  0  0  0  0  0  0  0  0
  143.3099  144.8351  153.7781 N   0  3  0  0  0  0  0  0  0  0  0  0
  142.8533  146.1031  154.0173 C   0  0  0  0  0  0  0  0  0  0  0  0
  143.1684  146.3921  155.3212 C   0  0  0  0  0  0  0  0  0  0  0  0
  143.8052  145.2885  155.8305 N   0  0  0  0  0  0  0  0  0  0  0  0
  144.3117  145.1339  157.1966 C   0  0  0  0  0  0  0  0  0  0  0  0
  150.1449  140.8695  155.7243 C   0  0  0  0  0  0  0  0  0  0  0  0
  150.3171  141.9086  156.6552 C   0  0  0  0  0  0  0  0  0  0  0  0
  151.1645  141.7152  157.7662 C   0  0  0  0  0  0  0  0  0  0  0  0
  151.3436  142.8438  158.7660 C   0  0  0  0  0  0  0  0  0  0  0  0
  153.1338  139.2216  159.1349 H   0  0  0  0  0  0  0  0  0  0  0  0
  152.2113  140.4035  160.0600 H   0  0  0  0  0  0  0  0  0  0  0  0
  153.5987  140.9215  159.0906 H   0  0  0  0  0  0  0  0  0  0  0  0
  152.1601  138.4950  157.1220 H   0  0  0  0  0  0  0  0  0  0  0  0
  149.2089  139.1072  153.2128 H   0  0  0  0  0  0  0  0  0  0  0  0
  148.9241  142.7267  154.1867 H   0  0  0  0  0  0  0  0  0  0  0  0
  148.6515  141.6368  152.8446 H   0  0  0  0  0  0  0  0  0  0  0  0
  147.0308  141.1661  155.3476 H   0  0  0  0  0  0  0  0  0  0  0  0
  145.6006  141.0101  153.2364 H   0  0  0  0  0  0  0  0  0  0  0  0
  146.8131  143.6627  154.9344 H   0  0  0  0  0  0  0  0  0  0  0  0
  146.2386  143.3216  153.3172 H   0  0  0  0  0  0  0  0  0  0  0  0
  142.3496  146.6894  153.2626 H   0  0  0  0  0  0  0  0  0  0  0  0
  142.9870  147.2793  155.9106 H   0  0  0  0  0  0  0  0  0  0  0  0
  143.7481  145.7855  157.8650 H   0  0  0  0  0  0  0  0  0  0  0  0
  145.3639  145.4172  157.2232 H   0  0  0  0  0  0  0  0  0  0  0  0
  144.1941  144.1018  157.5276 H   0  0  0  0  0  0  0  0  0  0  0  0
  149.8001  142.8465  156.5155 H   0  0  0  0  0  0  0  0  0  0  0  0
  150.8138  143.7427  158.4497 H   0  0  0  0  0  0  0  0  0  0  0  0
  152.3981  143.0990  158.8727 H   0  0  0  0  0  0  0  0  0  0  0  0
  150.9567  142.5521  159.7425 H   0  0  0  0  0  0  0  0  0  0  0  0
  143.2235  144.3377  152.9007 H   0  0  0  0  0  0  0  0  0  0  0  0
  1  2  1  0  0  0  0
  1 23  1  0  0  0  0
  1 24  1  0  0  0  0
  1 25  1  0  0  0  0
  2 21  1  0  0  0  0
  2  3  2  0  0  0  0
  3  4  1  0  0  0  0
  3 26  1  0  0  0  0
  4 19  2  0  0  0  0
  4  5  1  0  0  0  0
  5  6  2  0  0  0  0
  6  7  1  0  0  0  0
  6 27  1  0  0  0  0
  7  8  1  0  0  0  0
  7 19  1  0  0  0  0
  8  9  1  0  0  0  0
  8 28  1  0  0  0  0
  8 29  1  0  0  0  0
  9 10  1  0  0  0  0
  9 11  1  0  0  0  0
  9 30  1  0  0  0  0
 10 31  1  0  0  0  0
 11 12  1  0  0  0  0
 11 32  1  0  0  0  0
 11 33  1  0  0  0  0
 12 13  1  0  0  0  0
 13 17  1  0  0  0  0
 13 14  2  0  0  0  0
 14 15  1  0  0  0  0
 14 43  1  0  0  0  0
 15 16  2  0  0  0  0
 15 34  1  0  0  0  0
 16 17  1  0  0  0  0
 16 35  1  0  0  0  0
 17 18  1  0  0  0  0
 18 36  1  0  0  0  0
 18 37  1  0  0  0  0
 18 38  1  0  0  0  0
 19 20  1  0  0  0  0
 20 21  2  0  0  0  0
 20 39  1  0  0  0  0
 21 22  1  0  0  0  0
 22 40  1  0  0  0  0
 22 41  1  0  0  0  0
 22 42  1  0  0  0  0
M  CHG  1  14   1
M  END
> <s_m_source_file>
AV-unprocessed.smi

> <i_m_source_file_index>
609

> <i_lp_mmshare_version>
43012

> <i_f3d_flags>
0

> <s_epik_input>
W0NIM11jKFtjSF0xKWMoW0NIM10pW2NIXWMoYzEyKW4oW2NIXW4yKVtDSDJdW0NASF0oW09IXSlbQ0gyXVNjM25bY0hdW2NIXW4zW0NIM10=

> <s_epik_cmdline>
J2VwaWtfcHl0aG9uJywgJy1waCcsICc3LjAnLCAnLXRuJywgJzgnLCAnLW1hJywgJzIwMCcsICctbWV0YWxfYmluZGluZycsICctaW1hZScsICc8aW5maWxlLm1hZT4nLCAnLW9tYWUnLCAnPG91dGZpbGUubWFlPic=

> <r_lp_tautomer_probability>
1

> <r_epik_Ionization_Penalty>
0.215713

> <r_epik_Ionization_Penalty_Charging>
0

> <r_epik_Ionization_Penalty_Neutral>
0.215713

> <r_epik_State_Penalty>
0.19579

> <r_epik_Charging_Adjusted_Penalty>
0.19579

> <i_epik_Tot_Q>
1

> <i_epik_Tot_abs_Q>
1

> <r_epik_Metal_State_Penalty>
0.429751

> <b_epik_Metal_Only>
0

> <s_lp_Force_Field>
OPLS_2005

> <r_lp_Energy>
11.8688

> <b_lp_Chiralities_Consistent>
1

> <s_lp_Variant>
AV-unprocessed.smi:609-1

> <Gold.Version>
5.8.1

> <Gold.Id.Protein>
6NUR|6NUR_protein|mol2

> <Gold.PLP.Fitness>
50.7536

> <Gold.PLP.PLP>
-42.5190

> <Gold.PLP.part.hbond>
-2.0000

> <Gold.PLP.part.metal>
0.0000

> <Gold.PLP.part.buried>
-1.3753

> <Gold.PLP.part.nonpolar>
-39.9826

> <Gold.PLP.part.repulsive>
0.2134

> <Gold.PLP.ligand.clash>
0.0000

> <Gold.PLP.ligand.torsion>
1.0555

> <Gold.PLP.Chemscore.Hbond>
2.6965

> <Gold.PLP.Chemscore.CHOScore>
0.7197

> <Gold.PLP.Chemscore.Metal>
0.0000

> <Gold.Chemscore.Hbonds>
donor molecule, donor type, donor heavy atom, donor atom, acceptor molecule, acceptor atom, score
      L1  H    10    31       P1 10175  0.71
      L1  H    14    43       P1 10174  1.60
      L1  C     6    27       P1  7957  0.85

> <Gold.PLP.Chemscore.Internal.Correction>
0.0970

> <Gold.Rescore>
     Score         DG    S(hbond)    S(metal)    S(lipo)     H(rot)  DE(clash)    DE(int)     intcor
     15.72     -16.92       1.83        0.00     100.65       2.52       0.15       1.06       ----

> <Gold.Chemscore.Fitness>
15.7176

> <Gold.Chemscore.DG>
-16.9194

> <Gold.Chemscore.ZeroCoef>
-5.4800

> <Gold.Chemscore.Hbond>
1.8270

> <Gold.Chemscore.Metal>
0.0000

> <Gold.Chemscore.Lipo>
100.6524

> <Gold.Chemscore.Internal_Hbond>
0.0000

> <Gold.Chemscore.DEClash>
0.1460

> <Gold.Chemscore.DEInternal>
1.0558

> <Gold.Chemscore.Rot>
2.5153

> <Gold.Chemscore.Internal.Correction>
   9.000000E+99

> <Gold.Chemscore.Hbonds>
donor molecule, donor type, donor heavy atom, donor atom, acceptor molecule, acceptor atom, score
      L1  H    10    31       P1 10175  0.30
      L1  H    14    43       P1 10174  0.75

> <Gold.Chemscore.Hbond.Weighted>
-6.1022

> <Gold.Chemscore.Metal.Weighted>
-0.0000

> <Gold.Chemscore.Lipo.Weighted>
-11.7763

> <Gold.Chemscore.Internal_Hbond.Weighted>
0.0000

> <Gold.Chemscore.DEClash.Weighted>
0.1460

> <Gold.Chemscore.DEInternal.Weighted>
1.0558

> <Gold.Chemscore.Rot.Weighted>
6.4391

> <Gold.Chemscore.Internal.Correction.Weighted>
   9.000000E+99

> <Gold.Protein.RotatedTorsions>
[ 6907 6896 6895 6894 ] final -151.57 input  -60.11 | X-H torsion
[ 7974 7965 7964 7962 ] final  -51.32 input  175.53 | X-H torsion
[ 8008 7997 7996 7995 ] final -143.42 input   59.86 | X-H torsion
[ 10167 10162 10161 10158 ] final   31.27 input  -65.29 | X-H torsion
[ 10718 10713 10712 10709 ] final  156.31 input   66.30 | X-H torsion
[ 10763 10752 10751 10750 ] final -119.32 input  -60.55 | X-H torsion
[ 11005 11000 10999 10996 ] final    2.61 input  -57.11 | X-H torsion

> <Gold.Protein.ActiveResidues>
 VAL166  LYS551  ARG553  GLY616  TRP617  ASP618  TYR619  PRO620  LYS621  CYS622 
 ASP623  PHE694  ASN695  SER759  ASP760  ASP761  ALA762  ILE779  LEU786  VAL792 
 PHE793  MET794  SER795  GLU796  ALA797  LYS798  CYS799  TRP800  GLU811  SER814 

> <Gold.Protein.RotatedAtoms>
  151.2151  133.4534  159.2598 H   0  0  0  0  0  0  0  0  0  0  0  0  # atno 6907 bound_to 6896
  151.0939  134.9932  159.8426 H   0  0  0  0  0  0  0  0  0  0  0  0  # atno 6908 bound_to 6896
  152.5437  134.2082  159.8792 H   0  0  0  0  0  0  0  0  0  0  0  0  # atno 6909 bound_to 6896
  145.9203  140.7839  142.9651 H   0  0  0  0  0  0  0  0  0  0  0  0  # atno 7974 bound_to 7965
  155.5104  140.0583  157.2924 H   0  0  0  0  0  0  0  0  0  0  0  0  # atno 8008 bound_to 7997
  154.4554  140.1970  156.0344 H   0  0  0  0  0  0  0  0  0  0  0  0  # atno 8009 bound_to 7997
  156.0788  140.3250  155.7672 H   0  0  0  0  0  0  0  0  0  0  0  0  # atno 8010 bound_to 7997
  140.4604  144.0916  150.6211 H   0  0  0  0  0  0  0  0  0  0  0  0  # atno 10167 bound_to 10162
  157.2067  131.0688  151.1994 H   0  0  0  0  0  0  0  0  0  0  0  0  # atno 10718 bound_to 10713
  154.8614  135.4242  154.2280 H   0  0  0  0  0  0  0  0  0  0  0  0  # atno 10763 bound_to 10752
  153.3271  135.6986  153.6986 H   0  0  0  0  0  0  0  0  0  0  0  0  # atno 10764 bound_to 10752
  153.6018  135.3535  155.2921 H   0  0  0  0  0  0  0  0  0  0  0  0  # atno 10765 bound_to 10752
  140.6024  133.9824  155.8138 H   0  0  0  0  0  0  0  0  0  0  0  0  # atno 11005 bound_to 11000
  144.6752  140.1965  143.7391 LP  0  0  0  0  0  0  0  0  0  0  0  0  # atno 17320 bound_to 7965
  145.8559  139.2198  143.1745 LP  0  0  0  0  0  0  0  0  0  0  0  0  # atno 17321 bound_to 7965
  140.4101  143.2661  151.9843 LP  0  0  0  0  0  0  0  0  0  0  0  0  # atno 17342 bound_to 10162
  139.4805  144.5923  151.7750 LP  0  0  0  0  0  0  0  0  0  0  0  0  # atno 17343 bound_to 10162
  157.3713  130.7183  149.6567 LP  0  0  0  0  0  0  0  0  0  0  0  0  # atno 17370 bound_to 10713
  155.9695  130.4198  150.4392 LP  0  0  0  0  0  0  0  0  0  0  0  0  # atno 17371 bound_to 10713
  141.0863  133.9985  157.3308 LP  0  0  0  0  0  0  0  0  0  0  0  0  # atno 17394 bound_to 11000
  139.9227  135.0201  156.8122 LP  0  0  0  0  0  0  0  0  0  0  0  0  # atno 17395 bound_to 11000

$$$$
