AV-unprocessed.smi:266|AV-procd|sdf|2038|dock2
  -GOLD-   2262021253D 1   1.00000     0.00000
 Structure written by MMmdl.
 52 55  0  0  0  0  0  0  0  0  1 V2000
  146.6337  138.1461  155.9881 C   0  0  0  0  0  0  0  0  0  0  0  0
  146.6992  139.1045  154.7890 C   0  0  1  0  0  0  0  0  0  0  0  0
  146.3633  140.4052  155.2679 O   0  0  0  0  0  0  0  0  0  0  0  0
  147.0881  141.3739  154.5307 C   0  0  0  0  0  0  0  0  0  0  0  0
  148.4456  140.7100  154.3607 C   0  0  0  0  0  0  0  0  0  0  0  0
  148.0799  139.2538  154.0888 C   0  0  2  0  0  0  0  0  0  0  0  0
  147.8706  139.1154  152.6927 O   0  0  0  0  0  0  0  0  0  0  0  0
  149.1821  138.2433  154.5036 C   0  0  0  0  0  0  0  0  0  0  0  0
  149.9108  138.6455  155.6974 N   0  0  0  0  0  0  0  0  0  0  0  0
  149.4036  138.7784  156.9712 C   0  0  0  0  0  0  0  0  0  0  0  0
  150.2674  139.1405  157.8807 N   0  0  0  0  0  0  0  0  0  0  0  0
  151.4579  139.2767  157.1777 C   0  0  0  0  0  0  0  0  0  0  0  0
  152.7880  139.6317  157.5347 C   0  0  0  0  0  0  0  0  0  0  0  0
  153.1874  139.9252  158.7882 N   0  0  0  0  0  0  0  0  0  0  0  0
  154.2403  139.0475  159.2817 C   0  0  0  0  0  0  0  0  0  0  0  0
  153.3349  141.3584  159.0222 C   0  0  0  0  0  0  0  0  0  0  0  0
  152.3038  141.8959  160.0289 C   0  0  1  0  0  0  0  0  0  0  0  0
  152.9706  142.6693  161.1827 C   0  0  0  0  0  0  0  0  0  0  0  0
  151.8843  143.4143  161.9644 C   0  0  0  0  0  0  0  0  0  0  0  0
  150.6389  143.9128  160.7182 S   0  0  0  0  0  0  0  0  0  0  0  0
  149.3136  143.4442  161.1504 O   0  0  0  0  0  0  0  0  0  0  0  0
  150.8597  145.3165  160.3388 O   0  0  0  0  0  0  0  0  0  0  0  0
  151.2674  142.8294  159.3796 C   0  0  0  0  0  0  0  0  0  0  0  0
  153.7279  139.6597  156.5590 N   0  0  0  0  0  0  0  0  0  0  0  0
  153.3891  139.3612  155.3010 C   0  0  0  0  0  0  0  0  0  0  0  0
  152.1946  139.0108  154.8185 N   0  0  0  0  0  0  0  0  0  0  0  0
  151.2501  138.9777  155.8026 C   0  0  0  0  0  0  0  0  0  0  0  0
  146.8719  137.1236  155.6955 H   0  0  0  0  0  0  0  0  0  0  0  0
  145.6316  138.1368  156.4172 H   0  0  0  0  0  0  0  0  0  0  0  0
  147.3227  138.4464  156.7781 H   0  0  0  0  0  0  0  0  0  0  0  0
  145.9353  138.8063  154.0684 H   0  0  0  0  0  0  0  0  0  0  0  0
  146.6069  141.5412  153.5659 H   0  0  0  0  0  0  0  0  0  0  0  0
  147.1452  142.3248  155.0607 H   0  0  0  0  0  0  0  0  0  0  0  0
  149.0548  141.1667  153.5794 H   0  0  0  0  0  0  0  0  0  0  0  0
  148.9935  140.7906  155.3001 H   0  0  0  0  0  0  0  0  0  0  0  0
  148.3798  139.7747  152.2466 H   0  0  0  0  0  0  0  0  0  0  0  0
  148.7485  137.2626  154.7002 H   0  0  0  0  0  0  0  0  0  0  0  0
  149.9004  138.1057  153.6943 H   0  0  0  0  0  0  0  0  0  0  0  0
  148.3669  138.5872  157.2080 H   0  0  0  0  0  0  0  0  0  0  0  0
  154.1104  138.0277  158.9160 H   0  0  0  0  0  0  0  0  0  0  0  0
  154.2232  139.0122  160.3706 H   0  0  0  0  0  0  0  0  0  0  0  0
  155.2222  139.4021  158.9663 H   0  0  0  0  0  0  0  0  0  0  0  0
  154.3429  141.5506  159.3923 H   0  0  0  0  0  0  0  0  0  0  0  0
  153.2431  141.9066  158.0826 H   0  0  0  0  0  0  0  0  0  0  0  0
  151.7672  141.0584  160.4763 H   0  0  0  0  0  0  0  0  0  0  0  0
  153.5465  142.0092  161.8319 H   0  0  0  0  0  0  0  0  0  0  0  0
  153.6692  143.3981  160.7699 H   0  0  0  0  0  0  0  0  0  0  0  0
  151.3988  142.7510  162.6804 H   0  0  0  0  0  0  0  0  0  0  0  0
  152.2607  144.2887  162.4955 H   0  0  0  0  0  0  0  0  0  0  0  0
  151.7300  143.4665  158.6250 H   0  0  0  0  0  0  0  0  0  0  0  0
  150.4428  142.2890  158.9148 H   0  0  0  0  0  0  0  0  0  0  0  0
  154.1905  139.4060  154.5783 H   0  0  0  0  0  0  0  0  0  0  0  0
  1  2  1  0  0  0  0
  1 28  1  0  0  0  0
  1 29  1  0  0  0  0
  1 30  1  0  0  0  0
  2  6  1  0  0  0  0
  2  3  1  0  0  0  0
  2 31  1  0  0  0  0
  3  4  1  0  0  0  0
  4  5  1  0  0  0  0
  4 32  1  0  0  0  0
  4 33  1  0  0  0  0
  5  6  1  0  0  0  0
  5 34  1  0  0  0  0
  5 35  1  0  0  0  0
  6  7  1  0  0  0  0
  6  8  1  0  0  0  0
  7 36  1  0  0  0  0
  8  9  1  0  0  0  0
  8 37  1  0  0  0  0
  8 38  1  0  0  0  0
  9 27  1  0  0  0  0
  9 10  1  0  0  0  0
 10 11  2  0  0  0  0
 10 39  1  0  0  0  0
 11 12  1  0  0  0  0
 12 27  2  0  0  0  0
 12 13  1  0  0  0  0
 13 14  1  0  0  0  0
 13 24  2  0  0  0  0
 14 15  1  0  0  0  0
 14 16  1  0  0  0  0
 15 40  1  0  0  0  0
 15 41  1  0  0  0  0
 15 42  1  0  0  0  0
 16 17  1  0  0  0  0
 16 43  1  0  0  0  0
 16 44  1  0  0  0  0
 17 23  1  0  0  0  0
 17 18  1  0  0  0  0
 17 45  1  0  0  0  0
 18 19  1  0  0  0  0
 18 46  1  0  0  0  0
 18 47  1  0  0  0  0
 19 20  1  0  0  0  0
 19 48  1  0  0  0  0
 19 49  1  0  0  0  0
 20 21  2  0  0  0  0
 20 22  2  0  0  0  0
 20 23  1  0  0  0  0
 23 50  1  0  0  0  0
 23 51  1  0  0  0  0
 24 25  1  0  0  0  0
 25 26  2  0  0  0  0
 25 52  1  0  0  0  0
 26 27  1  0  0  0  0
M  END
> <s_m_source_file>
AV-unprocessed.smi

> <i_m_source_file_index>
266

> <i_lp_mmshare_version>
43012

> <i_f3d_flags>
0

> <s_epik_input>
W0NIMl0xW0NIMl1PW0NAQEhdKFtDSDNdKVtDQEBdMShbT0hdKVtDSDJdbihbY0hdbjIpYyhjMjMpbltjSF1uYzNOKFtDSDNdKVtDSDJdW0NAQEhdKFtDSDJdNClbQ0gyXVtDSDJdUzQoPU8pPU8=

> <s_epik_cmdline>
J2VwaWtfcHl0aG9uJywgJy1waCcsICc3LjAnLCAnLXRuJywgJzgnLCAnLW1hJywgJzIwMCcsICctbWV0YWxfYmluZGluZycsICctaW1hZScsICc8aW5maWxlLm1hZT4nLCAnLW9tYWUnLCAnPG91dGZpbGUubWFlPic=

> <r_lp_tautomer_probability>
1

> <r_epik_Ionization_Penalty>
0.00155497

> <r_epik_Ionization_Penalty_Charging>
0

> <r_epik_Ionization_Penalty_Neutral>
0.00155497

> <r_epik_State_Penalty>
-0

> <r_epik_Charging_Adjusted_Penalty>
0

> <i_epik_Tot_Q>
0

> <i_epik_Tot_abs_Q>
0

> <r_epik_Metal_State_Penalty>
-0

> <b_epik_Metal_Only>
0

> <s_lp_Force_Field>
OPLS_2005

> <r_lp_Energy>
32.9828

> <b_lp_Chiralities_Consistent>
1

> <s_lp_Variant>
AV-unprocessed.smi:266-8

> <Gold.Version>
5.8.1

> <Gold.Id.Protein>
6NUR|6NUR_protein|mol2

> <Gold.PLP.Fitness>
43.0939

> <Gold.PLP.PLP>
-40.9411

> <Gold.PLP.part.hbond>
-3.6393

> <Gold.PLP.part.metal>
0.0000

> <Gold.PLP.part.buried>
-7.3777

> <Gold.PLP.part.nonpolar>
-30.9406

> <Gold.PLP.part.repulsive>
0.4321

> <Gold.PLP.ligand.clash>
0.0000

> <Gold.PLP.ligand.torsion>
2.1388

> <Gold.PLP.Chemscore.Hbond>
2.0000

> <Gold.PLP.Chemscore.CHOScore>
0.0000

> <Gold.PLP.Chemscore.Metal>
0.0000

> <Gold.Chemscore.Hbonds>
donor molecule, donor type, donor heavy atom, donor atom, acceptor molecule, acceptor atom, score
      L1  H     7    36       P1  7957  0.90
      P1  H  6933  6944       L1    21  0.12
      P1  H  7989  7998       L1    26  0.22

> <Gold.PLP.Chemscore.Internal.Correction>
0.4304

> <Gold.Rescore>
     Score         DG    S(hbond)    S(metal)    S(lipo)     H(rot)  DE(clash)    DE(int)     intcor
     12.57     -14.98       2.02        0.00      84.06       2.76       0.05       2.36       ----

> <Gold.Chemscore.Fitness>
12.5704

> <Gold.Chemscore.DG>
-14.9798

> <Gold.Chemscore.ZeroCoef>
-5.4800

> <Gold.Chemscore.Hbond>
2.0180

> <Gold.Chemscore.Metal>
0.0000

> <Gold.Chemscore.Lipo>
84.0580

> <Gold.Chemscore.Internal_Hbond>
0.0000

> <Gold.Chemscore.DEClash>
0.0456

> <Gold.Chemscore.DEInternal>
2.3637

> <Gold.Chemscore.Rot>
2.7637

> <Gold.Chemscore.Internal.Correction>
   9.000000E+99

> <Gold.Chemscore.Hbonds>
donor molecule, donor type, donor heavy atom, donor atom, acceptor molecule, acceptor atom, score
      L1  H     7    36       P1  7957  0.88
      P1  H  6933  6944       L1    21  0.13
      P1  H  7989  7998       L1    26  0.04

> <Gold.Chemscore.Hbond.Weighted>
-6.7400

> <Gold.Chemscore.Metal.Weighted>
-0.0000

> <Gold.Chemscore.Lipo.Weighted>
-9.8348

> <Gold.Chemscore.Internal_Hbond.Weighted>
0.0000

> <Gold.Chemscore.DEClash.Weighted>
0.0456

> <Gold.Chemscore.DEInternal.Weighted>
2.3637

> <Gold.Chemscore.Rot.Weighted>
7.0750

> <Gold.Chemscore.Internal.Correction.Weighted>
   9.000000E+99

> <Gold.Protein.RotatedTorsions>
[ 6907 6896 6895 6894 ] final -165.29 input  -60.11 | X-H torsion
[ 7974 7965 7964 7962 ] final -145.79 input  175.53 | X-H torsion
[ 8008 7997 7996 7995 ] final   55.30 input   59.86 | X-H torsion
[ 10167 10162 10161 10158 ] final  171.00 input  -65.29 | X-H torsion
[ 10718 10713 10712 10709 ] final  -17.09 input   66.30 | X-H torsion
[ 10763 10752 10751 10750 ] final  118.34 input  -60.55 | X-H torsion
[ 11005 11000 10999 10996 ] final -154.11 input  -57.11 | X-H torsion

> <Gold.Protein.ActiveResidues>
 VAL166  LYS551  ARG553  GLY616  TRP617  ASP618  TYR619  PRO620  LYS621  CYS622 
 ASP623  PHE694  ASN695  SER759  ASP760  ASP761  ALA762  ILE779  LEU786  VAL792 
 PHE793  MET794  SER795  GLU796  ALA797  LYS798  CYS799  TRP800  GLU811  SER814 

> <Gold.Protein.RotatedAtoms>
  151.4253  133.3686  159.2761 H   0  0  0  0  0  0  0  0  0  0  0  0  # atno 6907 bound_to 6896
  150.9264  134.8682  159.7533 H   0  0  0  0  0  0  0  0  0  0  0  0  # atno 6908 bound_to 6896
  152.5007  134.4194  159.9527 H   0  0  0  0  0  0  0  0  0  0  0  0  # atno 6909 bound_to 6896
  144.8203  140.5539  143.5583 H   0  0  0  0  0  0  0  0  0  0  0  0  # atno 7974 bound_to 7965
  155.4989  140.3474  155.4367 H   0  0  0  0  0  0  0  0  0  0  0  0  # atno 8008 bound_to 7997
  156.0927  140.1415  156.9599 H   0  0  0  0  0  0  0  0  0  0  0  0  # atno 8009 bound_to 7997
  154.4645  140.0923  156.6959 H   0  0  0  0  0  0  0  0  0  0  0  0  # atno 8010 bound_to 7997
  139.5034  144.3535  151.9899 H   0  0  0  0  0  0  0  0  0  0  0  0  # atno 10167 bound_to 10162
  156.5784  130.4767  149.6331 H   0  0  0  0  0  0  0  0  0  0  0  0  # atno 10718 bound_to 10713
  153.5661  135.3511  155.2819 H   0  0  0  0  0  0  0  0  0  0  0  0  # atno 10763 bound_to 10752
  154.8688  135.4148  154.2777 H   0  0  0  0  0  0  0  0  0  0  0  0  # atno 10764 bound_to 10752
  153.3532  135.7056  153.6841 H   0  0  0  0  0  0  0  0  0  0  0  0  # atno 10765 bound_to 10752
  140.7009  134.3939  157.5209 H   0  0  0  0  0  0  0  0  0  0  0  0  # atno 11005 bound_to 11000
  145.5120  139.1479  143.3600 LP  0  0  0  0  0  0  0  0  0  0  0  0  # atno 17320 bound_to 7965
  146.2508  140.5260  142.8894 LP  0  0  0  0  0  0  0  0  0  0  0  0  # atno 17321 bound_to 7965
  140.2971  144.3688  150.6071 LP  0  0  0  0  0  0  0  0  0  0  0  0  # atno 17342 bound_to 10162
  140.5902  143.2168  151.7267 LP  0  0  0  0  0  0  0  0  0  0  0  0  # atno 17343 bound_to 10162
  156.2653  130.6986  151.1767 LP  0  0  0  0  0  0  0  0  0  0  0  0  # atno 17370 bound_to 10713
  157.7332  131.0593  150.5588 LP  0  0  0  0  0  0  0  0  0  0  0  0  # atno 17371 bound_to 10713
  139.8897  134.8823  156.2407 LP  0  0  0  0  0  0  0  0  0  0  0  0  # atno 17394 bound_to 11000
  141.0165  133.7066  156.1196 LP  0  0  0  0  0  0  0  0  0  0  0  0  # atno 17395 bound_to 11000

$$$$
