AV-unprocessed.smi:195|AV-procd|sdf|1525|dock5
  -GOLD-   2262019373D 1   1.00000     0.00000
 Structure written by MMmdl.
 45 48  0  0  0  0  0  0  0  0  1 V2000
  146.3508  131.8550  156.7734 N   0  0  0  0  0  0  0  0  0  0  0  0
  147.4089  132.1921  157.0984 C   0  0  0  0  0  0  0  0  0  0  0  0
  148.7548  132.6216  157.5114 C   0  0  0  0  0  0  0  0  0  0  0  0
  149.7262  132.7870  156.3393 C   0  0  0  0  0  0  0  0  0  0  0  0
  149.7409  131.5139  155.7273 O   0  0  0  0  0  0  0  0  0  0  0  0
  149.4913  133.9594  155.3828 C   0  0  0  0  0  0  0  0  0  0  0  0
  150.7310  134.5632  155.8597 N   0  0  0  0  0  0  0  0  0  0  0  0
  150.5336  135.7528  156.6174 C   0  0  0  0  0  0  0  0  0  0  0  0
  149.7034  135.7852  157.6950 N   0  0  0  0  0  0  0  0  0  0  0  0
  149.5272  136.9110  158.3932 C   0  0  0  0  0  0  0  0  0  0  0  0
  150.0775  138.1093  158.1941 N   0  0  0  0  0  0  0  0  0  0  0  0
  150.9128  138.0905  157.1173 C   0  0  0  0  0  0  0  0  0  0  0  0
  151.1891  136.9693  156.2847 C   0  0  0  0  0  0  0  0  0  0  0  0
  152.0828  137.3312  155.2844 N   0  0  0  0  0  0  0  0  0  0  0  0
  152.3258  138.5929  155.5151 C   0  0  0  0  0  0  0  0  0  0  0  0
  151.6644  139.1287  156.5966 N   0  0  0  0  0  0  0  0  0  0  0  0
  151.7544  140.4972  157.0756 C   0  0  0  0  0  0  0  0  0  0  0  0
  152.2607  140.5816  158.5284 C   0  0  1  0  0  0  0  0  0  0  0  0
  153.3566  139.7019  158.6930 O   0  0  0  0  0  0  0  0  0  0  0  0
  152.7063  142.0062  158.9048 C   0  0  2  0  0  0  0  0  0  0  0  0
  152.7667  142.2779  160.4102 C   0  0  0  0  0  0  0  0  0  0  0  0
  152.5274  143.7766  160.5223 C   0  0  0  0  0  0  0  0  0  0  0  0
  152.0516  144.1850  159.1263 C   0  0  0  0  0  0  0  0  0  0  0  0
  151.7483  142.9610  158.4740 O   0  0  0  0  0  0  0  0  0  0  0  0
  151.1105  133.3788  156.6249 C   0  0  0  0  0  0  0  0  0  0  0  0
  148.6514  133.5514  158.0720 H   0  0  0  0  0  0  0  0  0  0  0  0
  149.1177  131.8810  158.2221 H   0  0  0  0  0  0  0  0  0  0  0  0
  148.8524  131.3218  155.4683 H   0  0  0  0  0  0  0  0  0  0  0  0
  149.5547  133.6833  154.3295 H   0  0  0  0  0  0  0  0  0  0  0  0
  148.5915  134.5392  155.5952 H   0  0  0  0  0  0  0  0  0  0  0  0
  148.8483  136.8409  159.2304 H   0  0  0  0  0  0  0  0  0  0  0  0
  152.9976  139.1726  154.8987 H   0  0  0  0  0  0  0  0  0  0  0  0
  152.4073  141.0627  156.4092 H   0  0  0  0  0  0  0  0  0  0  0  0
  150.7644  140.9473  156.9940 H   0  0  0  0  0  0  0  0  0  0  0  0
  151.4674  140.2606  159.2049 H   0  0  0  0  0  0  0  0  0  0  0  0
  153.0248  138.8560  158.9520 H   0  0  0  0  0  0  0  0  0  0  0  0
  153.6687  142.2410  158.4448 H   0  0  0  0  0  0  0  0  0  0  0  0
  151.9672  141.7433  160.9246 H   0  0  0  0  0  0  0  0  0  0  0  0
  153.7140  141.9668  160.8517 H   0  0  0  0  0  0  0  0  0  0  0  0
  151.7716  143.9889  161.2792 H   0  0  0  0  0  0  0  0  0  0  0  0
  153.4367  144.3134  160.7948 H   0  0  0  0  0  0  0  0  0  0  0  0
  151.1840  144.8448  159.1535 H   0  0  0  0  0  0  0  0  0  0  0  0
  152.8494  144.6928  158.5823 H   0  0  0  0  0  0  0  0  0  0  0  0
  151.3246  133.5558  157.6797 H   0  0  0  0  0  0  0  0  0  0  0  0
  151.9213  132.8327  156.1414 H   0  0  0  0  0  0  0  0  0  0  0  0
  1  2  3  0  0  0  0
  2  3  1  0  0  0  0
  3  4  1  0  0  0  0
  3 26  1  0  0  0  0
  3 27  1  0  0  0  0
  4 25  1  0  0  0  0
  4  5  1  0  0  0  0
  4  6  1  0  0  0  0
  5 28  1  0  0  0  0
  6  7  1  0  0  0  0
  6 29  1  0  0  0  0
  6 30  1  0  0  0  0
  7  8  1  0  0  0  0
  7 25  1  0  0  0  0
  8 13  1  0  0  0  0
  8  9  2  0  0  0  0
  9 10  1  0  0  0  0
 10 11  2  0  0  0  0
 10 31  1  0  0  0  0
 11 12  1  0  0  0  0
 12 16  1  0  0  0  0
 12 13  2  0  0  0  0
 13 14  1  0  0  0  0
 14 15  2  0  0  0  0
 15 16  1  0  0  0  0
 15 32  1  0  0  0  0
 16 17  1  0  0  0  0
 17 18  1  0  0  0  0
 17 33  1  0  0  0  0
 17 34  1  0  0  0  0
 18 19  1  0  0  0  0
 18 20  1  0  0  0  0
 18 35  1  0  0  0  0
 19 36  1  0  0  0  0
 20 24  1  0  0  0  0
 20 21  1  0  0  0  0
 20 37  1  0  0  0  0
 21 22  1  0  0  0  0
 21 38  1  0  0  0  0
 21 39  1  0  0  0  0
 22 23  1  0  0  0  0
 22 40  1  0  0  0  0
 22 41  1  0  0  0  0
 23 24  1  0  0  0  0
 23 42  1  0  0  0  0
 23 43  1  0  0  0  0
 25 44  1  0  0  0  0
 25 45  1  0  0  0  0
M  END
> <s_m_source_file>
AV-unprocessed.smi

> <i_m_source_file_index>
195

> <i_lp_mmshare_version>
43012

> <i_f3d_flags>
0

> <s_epik_input>
TiNDW0NIMl1DMShbT0hdKVtDSDJdTihbQ0gyXTEpYyhuW2NIXW4yKWMoYzIzKW5bY0hdbjNbQ0gyXVtDQEhdKFtPSF0pW0NAQEhdNFtDSDJdW0NIMl1bQ0gyXU80

> <s_epik_cmdline>
J2VwaWtfcHl0aG9uJywgJy1waCcsICc3LjAnLCAnLXRuJywgJzgnLCAnLW1hJywgJzIwMCcsICctbWV0YWxfYmluZGluZycsICctaW1hZScsICc8aW5maWxlLm1hZT4nLCAnLW9tYWUnLCAnPG91dGZpbGUubWFlPic=

> <r_lp_tautomer_probability>
1

> <r_epik_Ionization_Penalty>
0.00307146

> <r_epik_Ionization_Penalty_Charging>
0

> <r_epik_Ionization_Penalty_Neutral>
0.00307146

> <r_epik_State_Penalty>
0.0020279

> <r_epik_Charging_Adjusted_Penalty>
0.0020279

> <i_epik_Tot_Q>
0

> <i_epik_Tot_abs_Q>
0

> <r_epik_Metal_State_Penalty>
-0

> <b_epik_Metal_Only>
0

> <s_lp_Force_Field>
OPLS_2005

> <r_lp_Energy>
44.0633

> <b_lp_Chiralities_Consistent>
1

> <s_lp_Variant>
AV-unprocessed.smi:195-2

> <Gold.Version>
5.8.1

> <Gold.Id.Protein>
6NUR|6NUR_protein|mol2

> <Gold.PLP.Fitness>
41.3001

> <Gold.PLP.PLP>
-35.7954

> <Gold.PLP.part.hbond>
-3.1899

> <Gold.PLP.part.metal>
0.0000

> <Gold.PLP.part.buried>
-6.2467

> <Gold.PLP.part.nonpolar>
-27.3398

> <Gold.PLP.part.repulsive>
0.1601

> <Gold.PLP.ligand.clash>
0.0000

> <Gold.PLP.ligand.torsion>
0.5178

> <Gold.PLP.Chemscore.Hbond>
2.0827

> <Gold.PLP.Chemscore.CHOScore>
0.0000

> <Gold.PLP.Chemscore.Metal>
0.0000

> <Gold.Chemscore.Hbonds>
donor molecule, donor type, donor heavy atom, donor atom, acceptor molecule, acceptor atom, score
      P1  H  6896  6907       L1     9  0.01
      P1  H  7997  8009       L1    19  0.75
      P1  H 10752 10765       L1    14  0.84

> <Gold.PLP.Chemscore.Internal.Correction>
0.2920

> <Gold.Rescore>
     Score         DG    S(hbond)    S(metal)    S(lipo)     H(rot)  DE(clash)    DE(int)     intcor
     10.96     -11.37       1.89        0.00      77.72       3.72       0.00       0.41       ----

> <Gold.Chemscore.Fitness>
10.9569

> <Gold.Chemscore.DG>
-11.3664

> <Gold.Chemscore.ZeroCoef>
-5.4800

> <Gold.Chemscore.Hbond>
1.8920

> <Gold.Chemscore.Metal>
0.0000

> <Gold.Chemscore.Lipo>
77.7171

> <Gold.Chemscore.Internal_Hbond>
0.0000

> <Gold.Chemscore.DEClash>
0.0004

> <Gold.Chemscore.DEInternal>
0.4091

> <Gold.Chemscore.Rot>
3.7210

> <Gold.Chemscore.Internal.Correction>
   9.000000E+99

> <Gold.Chemscore.Hbonds>
donor molecule, donor type, donor heavy atom, donor atom, acceptor molecule, acceptor atom, score
      P1  H  6896  6907       L1     9  0.01
      P1  H  7997  8009       L1    19  0.59
      P1  H 10752 10765       L1    14  0.43

> <Gold.Chemscore.Hbond.Weighted>
-6.3192

> <Gold.Chemscore.Metal.Weighted>
-0.0000

> <Gold.Chemscore.Lipo.Weighted>
-9.0929

> <Gold.Chemscore.Internal_Hbond.Weighted>
0.0000

> <Gold.Chemscore.DEClash.Weighted>
0.0004

> <Gold.Chemscore.DEInternal.Weighted>
0.4091

> <Gold.Chemscore.Rot.Weighted>
9.5256

> <Gold.Chemscore.Internal.Correction.Weighted>
   9.000000E+99

> <Gold.Protein.RotatedTorsions>
[ 6907 6896 6895 6894 ] final  -81.06 input  -60.11 | X-H torsion
[ 7974 7965 7964 7962 ] final  -69.90 input  175.53 | X-H torsion
[ 8008 7997 7996 7995 ] final  130.56 input   59.86 | X-H torsion
[ 10167 10162 10161 10158 ] final   94.65 input  -65.29 | X-H torsion
[ 10718 10713 10712 10709 ] final   52.35 input   66.30 | X-H torsion
[ 10763 10752 10751 10750 ] final -176.15 input  -60.55 | X-H torsion
[ 11005 11000 10999 10996 ] final  -96.96 input  -57.11 | X-H torsion

> <Gold.Protein.ActiveResidues>
 VAL166  LYS551  ARG553  GLY616  TRP617  ASP618  TYR619  PRO620  LYS621  CYS622 
 ASP623  PHE694  ASN695  SER759  ASP760  ASP761  ALA762  ILE779  LEU786  VAL792 
 PHE793  MET794  SER795  GLU796  ALA797  LYS798  CYS799  TRP800  GLU811  SER814 

> <Gold.Protein.RotatedAtoms>
  150.6918  134.3874  159.5060 H   0  0  0  0  0  0  0  0  0  0  0  0  # atno 6907 bound_to 6896
  152.1667  134.8865  160.0546 H   0  0  0  0  0  0  0  0  0  0  0  0  # atno 6908 bound_to 6896
  151.9906  133.3755  159.4180 H   0  0  0  0  0  0  0  0  0  0  0  0  # atno 6909 bound_to 6896
  145.6978  140.9128  143.0747 H   0  0  0  0  0  0  0  0  0  0  0  0  # atno 7974 bound_to 7965
  156.2956  140.2593  156.2782 H   0  0  0  0  0  0  0  0  0  0  0  0  # atno 8008 bound_to 7997
  154.9628  140.0392  157.2216 H   0  0  0  0  0  0  0  0  0  0  0  0  # atno 8009 bound_to 7997
  154.7931  140.2815  155.5981 H   0  0  0  0  0  0  0  0  0  0  0  0  # atno 8010 bound_to 7997
  139.8064  144.6792  150.9698 H   0  0  0  0  0  0  0  0  0  0  0  0  # atno 10167 bound_to 10162
  157.5066  130.8473  149.8383 H   0  0  0  0  0  0  0  0  0  0  0  0  # atno 10718 bound_to 10713
  154.5758  135.2832  155.0782 H   0  0  0  0  0  0  0  0  0  0  0  0  # atno 10763 bound_to 10752
  154.2137  135.6403  153.5127 H   0  0  0  0  0  0  0  0  0  0  0  0  # atno 10764 bound_to 10752
  153.0072  135.5498  154.6396 H   0  0  0  0  0  0  0  0  0  0  0  0  # atno 10765 bound_to 10752
  141.1394  133.8136  157.0642 H   0  0  0  0  0  0  0  0  0  0  0  0  # atno 11005 bound_to 11000
  144.6977  139.8907  143.7453 LP  0  0  0  0  0  0  0  0  0  0  0  0  # atno 17320 bound_to 7965
  146.0825  139.3813  143.0456 LP  0  0  0  0  0  0  0  0  0  0  0  0  # atno 17321 bound_to 7965
  140.7819  143.4230  151.0812 LP  0  0  0  0  0  0  0  0  0  0  0  0  # atno 17342 bound_to 10162
  139.7899  143.8234  152.3150 LP  0  0  0  0  0  0  0  0  0  0  0  0  # atno 17343 bound_to 10162
  156.0262  130.3779  150.1816 LP  0  0  0  0  0  0  0  0  0  0  0  0  # atno 17370 bound_to 10713
  157.0006  130.9921  151.3392 LP  0  0  0  0  0  0  0  0  0  0  0  0  # atno 17371 bound_to 10713
  140.0552  134.9784  157.1208 LP  0  0  0  0  0  0  0  0  0  0  0  0  # atno 17394 bound_to 11000
  140.3930  134.2164  155.7165 LP  0  0  0  0  0  0  0  0  0  0  0  0  # atno 17395 bound_to 11000

$$$$
