AV-unprocessed.smi:697|AV-procd|sdf|3394|dock5
  -GOLD-   22720 0373D 1   1.00000     0.00000
 Structure written by MMmdl.
 43 44  0  0  0  0  0  0  0  0  2 V2000
  148.0357  130.0183  154.7251 C   0  0  0  0  0  0  0  0  0  0  0  0
  147.4245  131.2839  154.9440 O   0  0  0  0  0  0  0  0  0  0  0  0
  147.3646  132.1884  153.8322 C   0  0  2  0  0  0  0  0  0  0  0  0
  146.3940  131.6669  152.7651 C   0  0  0  0  0  0  0  0  0  0  0  0
  148.7853  132.6158  153.4162 C   0  0  0  0  0  0  0  0  0  0  0  0
  148.7163  133.6626  154.5262 C   0  0  1  0  0  0  0  0  0  0  0  0
  149.3490  134.9224  154.1503 N   0  0  0  0  0  0  0  0  0  0  0  0
  149.6223  135.9183  155.0032 C   0  0  0  0  0  0  0  0  0  0  0  0
  149.3719  135.8618  156.2070 O   0  0  0  0  0  0  0  0  0  0  0  0
  150.1718  136.9619  154.3567 N   0  0  0  0  0  0  0  0  0  0  0  0
  150.6293  138.1881  154.8677 C   0  0  0  0  0  0  0  0  0  0  0  0
  149.8456  139.1125  155.4892 C   0  0  0  0  0  0  0  0  0  0  0  0
  150.3812  140.3620  156.0152 C   0  0  0  0  0  0  0  0  0  0  0  0
  149.5534  141.3775  156.7827 C   0  0  0  0  0  0  0  0  0  0  0  0
  150.3017  142.4094  157.1739 F   0  0  0  0  0  0  0  0  0  0  0  0
  148.5752  141.8442  156.0080 F   0  0  0  0  0  0  0  0  0  0  0  0
  149.0007  140.8257  157.8632 F   0  0  0  0  0  0  0  0  0  0  0  0
  151.7466  140.4649  155.8328 C   0  0  0  0  0  0  0  0  0  0  0  0
  152.5911  139.6038  155.2239 N   0  5  0  0  0  0  0  0  0  0  0  0
  152.0782  138.4422  154.7287 C   0  0  0  0  0  0  0  0  0  0  0  0
  152.7934  137.6085  154.1717 O   0  0  0  0  0  0  0  0  0  0  0  0
  147.1725  133.6388  154.3850 C   0  0  0  0  0  0  0  0  0  0  0  0
  146.5513  134.6562  153.4089 C   0  0  0  0  0  0  0  0  0  0  0  0
  146.3785  133.7748  155.6888 C   0  0  0  0  0  0  0  0  0  0  0  0
  148.1467  129.5075  155.6814 H   0  0  0  0  0  0  0  0  0  0  0  0
  149.0267  130.1057  154.2808 H   0  0  0  0  0  0  0  0  0  0  0  0
  147.4220  129.3799  154.0901 H   0  0  0  0  0  0  0  0  0  0  0  0
  146.2548  132.3849  151.9577 H   0  0  0  0  0  0  0  0  0  0  0  0
  145.4117  131.4598  153.1905 H   0  0  0  0  0  0  0  0  0  0  0  0
  146.7562  130.7528  152.2955 H   0  0  0  0  0  0  0  0  0  0  0  0
  149.5705  131.8729  153.5523 H   0  0  0  0  0  0  0  0  0  0  0  0
  148.8218  133.0436  152.4127 H   0  0  0  0  0  0  0  0  0  0  0  0
  149.0629  133.2595  155.4808 H   0  0  0  0  0  0  0  0  0  0  0  0
  149.5828  135.0481  153.1764 H   0  0  0  0  0  0  0  0  0  0  0  0
  150.2423  136.8813  153.3528 H   0  0  0  0  0  0  0  0  0  0  0  0
  148.7915  138.9389  155.6299 H   0  0  0  0  0  0  0  0  0  0  0  0
  152.2355  141.3740  156.2438 H   0  0  0  0  0  0  0  0  0  0  0  0
  146.6084  135.6736  153.7975 H   0  0  0  0  0  0  0  0  0  0  0  0
  145.4982  134.4414  153.2251 H   0  0  0  0  0  0  0  0  0  0  0  0
  147.0527  134.6585  152.4409 H   0  0  0  0  0  0  0  0  0  0  0  0
  146.3511  134.8079  156.0366 H   0  0  0  0  0  0  0  0  0  0  0  0
  146.8155  133.1869  156.4963 H   0  0  0  0  0  0  0  0  0  0  0  0
  145.3484  133.4397  155.5643 H   0  0  0  0  0  0  0  0  0  0  0  0
  1  2  1  0  0  0  0
  1 25  1  0  0  0  0
  1 26  1  0  0  0  0
  1 27  1  0  0  0  0
  2  3  1  0  0  0  0
  3 22  1  0  0  0  0
  3  4  1  0  0  0  0
  3  5  1  0  0  0  0
  4 28  1  0  0  0  0
  4 29  1  0  0  0  0
  4 30  1  0  0  0  0
  5  6  1  0  0  0  0
  5 31  1  0  0  0  0
  5 32  1  0  0  0  0
  6  7  1  0  0  0  0
  6 22  1  0  0  0  0
  6 33  1  0  0  0  0
  7  8  1  0  0  0  0
  7 34  1  0  0  0  0
  8  9  2  0  0  0  0
  8 10  1  0  0  0  0
 10 11  1  0  0  0  0
 10 35  1  0  0  0  0
 11 20  1  0  0  0  0
 11 12  2  0  0  0  0
 12 13  1  0  0  0  0
 12 36  1  0  0  0  0
 13 14  1  0  0  0  0
 13 18  2  0  0  0  0
 14 15  1  0  0  0  0
 14 16  1  0  0  0  0
 14 17  1  0  0  0  0
 18 19  1  0  0  0  0
 18 37  1  0  0  0  0
 19 20  1  0  0  0  0
 20 21  2  0  0  0  0
 22 23  1  0  0  0  0
 22 24  1  0  0  0  0
 23 38  1  0  0  0  0
 23 39  1  0  0  0  0
 23 40  1  0  0  0  0
 24 41  1  0  0  0  0
 24 42  1  0  0  0  0
 24 43  1  0  0  0  0
M  CHG  1  19  -1
M  END
> <s_m_source_file>
AV-unprocessed.smi

> <i_m_source_file_index>
697

> <i_lp_mmshare_version>
43012

> <i_f3d_flags>
0

> <s_epik_input>
W0NIM11PW0NAQF0xKFtDSDNdKVtDSDJdW0NASF0oQzEoW0NIM10pW0NIM10pW05IXUMoPU8pW05IXWMyW2NIXWMoQyhGKShGKUYpW2NIXVtuSF1jMj1P

> <s_epik_cmdline>
J2VwaWtfcHl0aG9uJywgJy1waCcsICc3LjAnLCAnLXRuJywgJzgnLCAnLW1hJywgJzIwMCcsICctbWV0YWxfYmluZGluZycsICctaW1hZScsICc8aW5maWxlLm1hZT4nLCAnLW9tYWUnLCAnPG91dGZpbGUubWFlPic=

> <r_lp_tautomer_probability>
1

> <r_epik_Ionization_Penalty>
3.20094

> <r_epik_Ionization_Penalty_Charging>
0.180017

> <r_epik_Ionization_Penalty_Neutral>
3.02092

> <r_epik_State_Penalty>
3.01726

> <r_epik_Charging_Adjusted_Penalty>
3.19727

> <i_epik_Tot_Q>
-1

> <i_epik_Tot_abs_Q>
1

> <r_epik_Metal_State_Penalty>
0.455096

> <b_epik_Metal_Only>
1

> <s_lp_Force_Field>
OPLS_2005

> <r_lp_Energy>
36.2607

> <b_lp_Chiralities_Consistent>
1

> <s_lp_Variant>
AV-unprocessed.smi:697-6

> <Gold.Version>
5.8.1

> <Gold.Id.Protein>
6NUR|6NUR_protein|mol2

> <Gold.PLP.Fitness>
39.0594

> <Gold.PLP.PLP>
-31.2423

> <Gold.PLP.part.hbond>
-5.2580

> <Gold.PLP.part.metal>
0.0000

> <Gold.PLP.part.buried>
-1.9397

> <Gold.PLP.part.nonpolar>
-24.7962

> <Gold.PLP.part.repulsive>
0.2413

> <Gold.PLP.ligand.clash>
0.0000

> <Gold.PLP.ligand.torsion>
1.0006

> <Gold.PLP.Chemscore.Hbond>
3.1312

> <Gold.PLP.Chemscore.CHOScore>
0.0000

> <Gold.PLP.Chemscore.Metal>
0.0000

> <Gold.Chemscore.Hbonds>
donor molecule, donor type, donor heavy atom, donor atom, acceptor molecule, acceptor atom, score
      L1  H     7    34       P1  7948  0.17
      L1  H    10    35       P1  7948  0.43
      P1  H  7997  8010       L1    19  1.89
      P1  H 10752 10765       L1    21  0.50

> <Gold.PLP.Chemscore.Internal.Correction>
0.4248

> <Gold.Rescore>
     Score         DG    S(hbond)    S(metal)    S(lipo)     H(rot)  DE(clash)    DE(int)     intcor
     11.73     -12.76       1.37        0.00      51.65       1.30       0.09       0.94       ----

> <Gold.Chemscore.Fitness>
11.7296

> <Gold.Chemscore.DG>
-12.7631

> <Gold.Chemscore.ZeroCoef>
-5.4800

> <Gold.Chemscore.Hbond>
1.3655

> <Gold.Chemscore.Metal>
0.0000

> <Gold.Chemscore.Lipo>
51.6518

> <Gold.Chemscore.Internal_Hbond>
0.0000

> <Gold.Chemscore.DEClash>
0.0937

> <Gold.Chemscore.DEInternal>
0.9398

> <Gold.Chemscore.Rot>
1.2973

> <Gold.Chemscore.Internal.Correction>
   9.000000E+99

> <Gold.Chemscore.Hbonds>
donor molecule, donor type, donor heavy atom, donor atom, acceptor molecule, acceptor atom, score
      L1  H    10    35       P1  7948  0.03
      P1  H  7997  8010       L1    19  0.36
      P1  H 10752 10765       L1    21  0.50

> <Gold.Chemscore.Hbond.Weighted>
-4.5608

> <Gold.Chemscore.Metal.Weighted>
-0.0000

> <Gold.Chemscore.Lipo.Weighted>
-6.0433

> <Gold.Chemscore.Internal_Hbond.Weighted>
0.0000

> <Gold.Chemscore.DEClash.Weighted>
0.0937

> <Gold.Chemscore.DEInternal.Weighted>
0.9398

> <Gold.Chemscore.Rot.Weighted>
3.3210

> <Gold.Chemscore.Internal.Correction.Weighted>
   9.000000E+99

> <Gold.Protein.RotatedTorsions>
[ 6907 6896 6895 6894 ] final -170.15 input  -60.11 | X-H torsion
[ 7974 7965 7964 7962 ] final   17.11 input  175.53 | X-H torsion
[ 8008 7997 7996 7995 ] final  102.40 input   59.86 | X-H torsion
[ 10167 10162 10161 10158 ] final   97.72 input  -65.29 | X-H torsion
[ 10718 10713 10712 10709 ] final   76.45 input   66.30 | X-H torsion
[ 10763 10752 10751 10750 ] final  153.02 input  -60.55 | X-H torsion
[ 11005 11000 10999 10996 ] final  -91.42 input  -57.11 | X-H torsion

> <Gold.Protein.ActiveResidues>
 VAL166  LYS551  ARG553  GLY616  TRP617  ASP618  TYR619  PRO620  LYS621  CYS622 
 ASP623  PHE694  ASN695  SER759  ASP760  ASP761  ALA762  ILE779  LEU786  VAL792 
 PHE793  MET794  SER795  GLU796  ALA797  LYS798  CYS799  TRP800  GLU811  SER814 

> <Gold.Protein.RotatedAtoms>
  151.5031  133.3500  159.2872 H   0  0  0  0  0  0  0  0  0  0  0  0  # atno 6907 bound_to 6896
  150.8760  134.8145  159.7201 H   0  0  0  0  0  0  0  0  0  0  0  0  # atno 6908 bound_to 6896
  152.4731  134.4922  159.9750 H   0  0  0  0  0  0  0  0  0  0  0  0  # atno 6909 bound_to 6896
  146.2228  139.8649  142.8598 H   0  0  0  0  0  0  0  0  0  0  0  0  # atno 7974 bound_to 7965
  156.1390  140.3182  155.8465 H   0  0  0  0  0  0  0  0  0  0  0  0  # atno 8008 bound_to 7997
  155.4191  140.0511  157.3044 H   0  0  0  0  0  0  0  0  0  0  0  0  # atno 8009 bound_to 7997
  154.4960  140.2111  155.9458 H   0  0  0  0  0  0  0  0  0  0  0  0  # atno 8010 bound_to 7997
  139.7775  144.6900  151.0069 H   0  0  0  0  0  0  0  0  0  0  0  0  # atno 10167 bound_to 10162
  157.6674  130.9775  150.1499 H   0  0  0  0  0  0  0  0  0  0  0  0  # atno 10718 bound_to 10713
  154.1294  135.2827  155.3189 H   0  0  0  0  0  0  0  0  0  0  0  0  # atno 10763 bound_to 10752
  154.6366  135.5417  153.7744 H   0  0  0  0  0  0  0  0  0  0  0  0  # atno 10764 bound_to 10752
  153.0286  135.6476  154.1445 H   0  0  0  0  0  0  0  0  0  0  0  0  # atno 10765 bound_to 10752
  141.1545  133.7754  156.9877 H   0  0  0  0  0  0  0  0  0  0  0  0  # atno 11005 bound_to 11000
  145.2666  141.0095  143.3796 LP  0  0  0  0  0  0  0  0  0  0  0  0  # atno 17320 bound_to 7965
  144.9256  139.4359  143.6520 LP  0  0  0  0  0  0  0  0  0  0  0  0  # atno 17321 bound_to 7965
  140.7817  143.4520  151.0400 LP  0  0  0  0  0  0  0  0  0  0  0  0  # atno 17342 bound_to 10162
  139.8201  143.7831  152.3176 LP  0  0  0  0  0  0  0  0  0  0  0  0  # atno 17343 bound_to 10162
  156.2301  130.3681  149.8455 LP  0  0  0  0  0  0  0  0  0  0  0  0  # atno 17370 bound_to 10713
  156.6284  130.8655  151.3490 LP  0  0  0  0  0  0  0  0  0  0  0  0  # atno 17371 bound_to 10713
  140.1024  134.9527  157.1942 LP  0  0  0  0  0  0  0  0  0  0  0  0  # atno 17394 bound_to 11000
  140.3301  134.2819  155.7229 LP  0  0  0  0  0  0  0  0  0  0  0  0  # atno 17395 bound_to 11000

$$$$
