AV-unprocessed.smi:197|AV-procd|sdf|1548|dock8
  -GOLD-   2262019413D 1   1.00000     0.00000
 Structure written by MMmdl.
 54 57  0  0  0  0  0  0  0  0  1 V2000
  150.3915  134.8544  155.3558 C   0  0  0  0  0  0  0  0  0  0  0  0
  150.9230  136.1432  155.6213 O   0  0  0  0  0  0  0  0  0  0  0  0
  150.5024  137.1496  154.7091 C   0  0  0  0  0  0  0  0  0  0  0  0
  149.1640  137.7919  155.1215 C   0  0  0  0  0  0  0  0  0  0  0  0
  148.7412  139.0049  154.2506 C   0  0  2  0  0  0  0  0  0  0  0  0
  149.6162  140.2447  154.5527 C   0  0  0  0  0  0  0  0  0  0  0  0
  149.1962  141.3571  153.7708 O   0  0  0  0  0  0  0  0  0  0  0  0
  147.8554  141.7313  154.0572 C   0  0  0  0  0  0  0  0  0  0  0  0
  146.9276  140.5604  153.7079 C   0  0  0  0  0  0  0  0  0  0  0  0
  147.3287  139.3632  154.4374 N   0  0  0  0  0  0  0  0  0  0  0  0
  146.4209  138.3756  154.2664 C   0  0  0  0  0  0  0  0  0  0  0  0
  145.7767  137.9361  155.3752 N   0  0  0  0  0  0  0  0  0  0  0  0
  144.8777  136.9521  155.2794 C   0  0  0  0  0  0  0  0  0  0  0  0
  144.4807  136.2863  154.1929 N   0  0  0  0  0  0  0  0  0  0  0  0
  145.1152  136.7380  153.0731 C   0  0  0  0  0  0  0  0  0  0  0  0
  146.0919  137.7719  153.0187 C   0  0  0  0  0  0  0  0  0  0  0  0
  146.5133  137.9556  151.7073 N   0  0  0  0  0  0  0  0  0  0  0  0
  145.8360  137.0712  151.0280 C   0  0  0  0  0  0  0  0  0  0  0  0
  144.9632  136.3047  151.7671 N   0  0  0  0  0  0  0  0  0  0  0  0
  144.0928  135.2502  151.2681 C   0  0  0  0  0  0  0  0  0  0  0  0
  144.4251  133.8317  151.8060 C   0  0  1  0  0  0  0  0  0  0  0  0
  144.2134  133.8199  153.2072 O   0  0  0  0  0  0  0  0  0  0  0  0
  143.5863  132.7210  151.1797 C   0  0  0  0  0  0  0  0  0  0  0  0
  144.3970  132.3571  149.9471 C   0  0  0  0  0  0  0  0  0  0  0  0
  145.7314  132.3901  150.4251 O   0  0  0  0  0  0  0  0  0  0  0  0
  145.8677  133.4126  151.4118 C   0  0  2  0  0  0  0  0  0  0  0  0
  146.7393  132.8402  152.5426 C   0  0  0  0  0  0  0  0  0  0  0  0
  150.7302  134.1591  156.1235 H   0  0  0  0  0  0  0  0  0  0  0  0
  150.7224  134.4656  154.3931 H   0  0  0  0  0  0  0  0  0  0  0  0
  149.3011  134.8661  155.3730 H   0  0  0  0  0  0  0  0  0  0  0  0
  151.2755  137.9125  154.6068 H   0  0  0  0  0  0  0  0  0  0  0  0
  150.4081  136.6934  153.7243 H   0  0  0  0  0  0  0  0  0  0  0  0
  148.4017  137.0147  155.1002 H   0  0  0  0  0  0  0  0  0  0  0  0
  149.2245  138.1029  156.1649 H   0  0  0  0  0  0  0  0  0  0  0  0
  148.8865  138.7494  153.2012 H   0  0  0  0  0  0  0  0  0  0  0  0
  149.5788  140.5020  155.6126 H   0  0  0  0  0  0  0  0  0  0  0  0
  150.6602  140.0501  154.3100 H   0  0  0  0  0  0  0  0  0  0  0  0
  147.7549  142.0111  155.1072 H   0  0  0  0  0  0  0  0  0  0  0  0
  147.5957  142.6087  153.4647 H   0  0  0  0  0  0  0  0  0  0  0  0
  145.8970  140.8221  153.9525 H   0  0  0  0  0  0  0  0  0  0  0  0
  146.9653  140.3657  152.6350 H   0  0  0  0  0  0  0  0  0  0  0  0
  144.4093  136.6553  156.2062 H   0  0  0  0  0  0  0  0  0  0  0  0
  145.9499  136.9578  149.9597 H   0  0  0  0  0  0  0  0  0  0  0  0
  143.0659  135.5190  151.5182 H   0  0  0  0  0  0  0  0  0  0  0  0
  144.1456  135.2561  150.1783 H   0  0  0  0  0  0  0  0  0  0  0  0
  143.6339  133.1033  153.4164 H   0  0  0  0  0  0  0  0  0  0  0  0
  143.5484  131.8531  151.8403 H   0  0  0  0  0  0  0  0  0  0  0  0
  142.5585  132.9975  150.9506 H   0  0  0  0  0  0  0  0  0  0  0  0
  144.1396  131.3767  149.5462 H   0  0  0  0  0  0  0  0  0  0  0  0
  144.2681  133.0983  149.1572 H   0  0  0  0  0  0  0  0  0  0  0  0
  146.3948  134.2530  150.9578 H   0  0  0  0  0  0  0  0  0  0  0  0
  146.9116  133.5807  153.3242 H   0  0  0  0  0  0  0  0  0  0  0  0
  147.7138  132.5344  152.1616 H   0  0  0  0  0  0  0  0  0  0  0  0
  146.2744  131.9659  152.9992 H   0  0  0  0  0  0  0  0  0  0  0  0
  1  2  1  0  0  0  0
  1 28  1  0  0  0  0
  1 29  1  0  0  0  0
  1 30  1  0  0  0  0
  2  3  1  0  0  0  0
  3  4  1  0  0  0  0
  3 31  1  0  0  0  0
  3 32  1  0  0  0  0
  4  5  1  0  0  0  0
  4 33  1  0  0  0  0
  4 34  1  0  0  0  0
  5 10  1  0  0  0  0
  5  6  1  0  0  0  0
  5 35  1  0  0  0  0
  6  7  1  0  0  0  0
  6 36  1  0  0  0  0
  6 37  1  0  0  0  0
  7  8  1  0  0  0  0
  8  9  1  0  0  0  0
  8 38  1  0  0  0  0
  8 39  1  0  0  0  0
  9 10  1  0  0  0  0
  9 40  1  0  0  0  0
  9 41  1  0  0  0  0
 10 11  1  0  0  0  0
 11 16  1  0  0  0  0
 11 12  2  0  0  0  0
 12 13  1  0  0  0  0
 13 14  2  0  0  0  0
 13 42  1  0  0  0  0
 14 15  1  0  0  0  0
 15 19  1  0  0  0  0
 15 16  2  0  0  0  0
 16 17  1  0  0  0  0
 17 18  2  0  0  0  0
 18 19  1  0  0  0  0
 18 43  1  0  0  0  0
 19 20  1  0  0  0  0
 20 21  1  0  0  0  0
 20 44  1  0  0  0  0
 20 45  1  0  0  0  0
 21 26  1  0  0  0  0
 21 22  1  0  0  0  0
 21 23  1  0  0  0  0
 22 46  1  0  0  0  0
 23 24  1  0  0  0  0
 23 47  1  0  0  0  0
 23 48  1  0  0  0  0
 24 25  1  0  0  0  0
 24 49  1  0  0  0  0
 24 50  1  0  0  0  0
 25 26  1  0  0  0  0
 26 27  1  0  0  0  0
 26 51  1  0  0  0  0
 27 52  1  0  0  0  0
 27 53  1  0  0  0  0
 27 54  1  0  0  0  0
M  END
> <s_m_source_file>
AV-unprocessed.smi

> <i_m_source_file_index>
197

> <i_lp_mmshare_version>
43012

> <i_f3d_flags>
0

> <s_epik_input>
W0NIM11PW0NIMl1bQ0gyXVtDQEBIXTFbQ0gyXU9bQ0gyXVtDSDJdTjFjKG5bY0hdbjIpYyhjMjMpbltjSF1uM1tDSDJdW0NAQF00KFtPSF0pW0NIMl1bQ0gyXU9bQ0BIXTRbQ0gzXQ==

> <s_epik_cmdline>
J2VwaWtfcHl0aG9uJywgJy1waCcsICc3LjAnLCAnLXRuJywgJzgnLCAnLW1hJywgJzIwMCcsICctbWV0YWxfYmluZGluZycsICctaW1hZScsICc8aW5maWxlLm1hZT4nLCAnLW9tYWUnLCAnPG91dGZpbGUubWFlPic=

> <r_lp_tautomer_probability>
1

> <r_epik_Ionization_Penalty>
0.000106218

> <r_epik_Ionization_Penalty_Charging>
0

> <r_epik_Ionization_Penalty_Neutral>
0.000106218

> <r_epik_State_Penalty>
-0

> <r_epik_Charging_Adjusted_Penalty>
0

> <i_epik_Tot_Q>
0

> <i_epik_Tot_abs_Q>
0

> <r_epik_Metal_State_Penalty>
-0

> <b_epik_Metal_Only>
0

> <s_lp_Force_Field>
OPLS_2005

> <r_lp_Energy>
44.1389

> <b_lp_Chiralities_Consistent>
1

> <s_lp_Variant>
AV-unprocessed.smi:197-5

> <Gold.Version>
5.8.1

> <Gold.Id.Protein>
6NUR|6NUR_protein|mol2

> <Gold.PLP.Fitness>
42.2323

> <Gold.PLP.PLP>
-37.7733

> <Gold.PLP.part.hbond>
-3.1513

> <Gold.PLP.part.metal>
0.0000

> <Gold.PLP.part.buried>
-5.8137

> <Gold.PLP.part.nonpolar>
-33.5697

> <Gold.PLP.part.repulsive>
2.8566

> <Gold.PLP.ligand.clash>
0.0000

> <Gold.PLP.ligand.torsion>
0.3791

> <Gold.PLP.Chemscore.Hbond>
1.5473

> <Gold.PLP.Chemscore.CHOScore>
0.1020

> <Gold.PLP.Chemscore.Metal>
0.0000

> <Gold.Chemscore.Hbonds>
donor molecule, donor type, donor heavy atom, donor atom, acceptor molecule, acceptor atom, score
      L1  H    22    46       P1 10957  0.73
      P1  H  8011  8017       L1     7  0.83
      L1  C    18    43       P1 10171  0.09

> <Gold.PLP.Chemscore.Internal.Correction>
0.2695

> <Gold.Rescore>
     Score         DG    S(hbond)    S(metal)    S(lipo)     H(rot)  DE(clash)    DE(int)     intcor
     10.36     -13.03       1.52        0.00      83.15       2.84       2.01       0.66       ----

> <Gold.Chemscore.Fitness>
10.3571

> <Gold.Chemscore.DG>
-13.0271

> <Gold.Chemscore.ZeroCoef>
-5.4800

> <Gold.Chemscore.Hbond>
1.5205

> <Gold.Chemscore.Metal>
0.0000

> <Gold.Chemscore.Lipo>
83.1459

> <Gold.Chemscore.Internal_Hbond>
0.0000

> <Gold.Chemscore.DEClash>
2.0111

> <Gold.Chemscore.DEInternal>
0.6589

> <Gold.Chemscore.Rot>
2.8358

> <Gold.Chemscore.Internal.Correction>
   9.000000E+99

> <Gold.Chemscore.Hbonds>
donor molecule, donor type, donor heavy atom, donor atom, acceptor molecule, acceptor atom, score
      L1  H    22    46       P1 10957  0.63
      P1  H  8011  8017       L1     7  0.53

> <Gold.Chemscore.Hbond.Weighted>
-5.0786

> <Gold.Chemscore.Metal.Weighted>
-0.0000

> <Gold.Chemscore.Lipo.Weighted>
-9.7281

> <Gold.Chemscore.Internal_Hbond.Weighted>
0.0000

> <Gold.Chemscore.DEClash.Weighted>
2.0111

> <Gold.Chemscore.DEInternal.Weighted>
0.6589

> <Gold.Chemscore.Rot.Weighted>
7.2596

> <Gold.Chemscore.Internal.Correction.Weighted>
   9.000000E+99

> <Gold.Protein.RotatedTorsions>
[ 6907 6896 6895 6894 ] final   39.38 input  -60.11 | X-H torsion
[ 7974 7965 7964 7962 ] final  -46.01 input  175.53 | X-H torsion
[ 8008 7997 7996 7995 ] final -123.90 input   59.86 | X-H torsion
[ 10167 10162 10161 10158 ] final   69.06 input  -65.29 | X-H torsion
[ 10718 10713 10712 10709 ] final   67.81 input   66.30 | X-H torsion
[ 10763 10752 10751 10750 ] final   -6.56 input  -60.55 | X-H torsion
[ 11005 11000 10999 10996 ] final -169.13 input  -57.11 | X-H torsion

> <Gold.Protein.ActiveResidues>
 VAL166  LYS551  ARG553  GLY616  TRP617  ASP618  TYR619  PRO620  LYS621  CYS622 
 ASP623  PHE694  ASN695  SER759  ASP760  ASP761  ALA762  ILE779  LEU786  VAL792 
 PHE793  MET794  SER795  GLU796  ALA797  LYS798  CYS799  TRP800  GLU811  SER814 

> <Gold.Protein.RotatedAtoms>
  152.1687  134.8852  160.0535 H   0  0  0  0  0  0  0  0  0  0  0  0  # atno 6907 bound_to 6896
  151.9820  133.3756  159.4119 H   0  0  0  0  0  0  0  0  0  0  0  0  # atno 6908 bound_to 6896
  150.6898  134.3951  159.5138 H   0  0  0  0  0  0  0  0  0  0  0  0  # atno 6909 bound_to 6896
  145.9763  140.7331  142.9385 H   0  0  0  0  0  0  0  0  0  0  0  0  # atno 7974 bound_to 7965
  155.1880  140.0412  157.2895 H   0  0  0  0  0  0  0  0  0  0  0  0  # atno 8008 bound_to 7997
  154.6158  140.2488  155.7583 H   0  0  0  0  0  0  0  0  0  0  0  0  # atno 8009 bound_to 7997
  156.2405  140.2905  156.0442 H   0  0  0  0  0  0  0  0  0  0  0  0  # atno 8010 bound_to 7997
  140.0718  144.5146  150.7222 H   0  0  0  0  0  0  0  0  0  0  0  0  # atno 10167 bound_to 10162
  157.6252  130.9340  150.0293 H   0  0  0  0  0  0  0  0  0  0  0  0  # atno 10718 bound_to 10713
  153.4140  135.7008  153.6339 H   0  0  0  0  0  0  0  0  0  0  0  0  # atno 10763 bound_to 10752
  153.4821  135.3691  155.2448 H   0  0  0  0  0  0  0  0  0  0  0  0  # atno 10764 bound_to 10752
  154.8718  135.4068  154.3497 H   0  0  0  0  0  0  0  0  0  0  0  0  # atno 10765 bound_to 10752
  140.5342  134.5587  157.5083 H   0  0  0  0  0  0  0  0  0  0  0  0  # atno 11005 bound_to 11000
  144.6849  140.2833  143.7289 LP  0  0  0  0  0  0  0  0  0  0  0  0  # atno 17320 bound_to 7965
  145.7834  139.1900  143.2144 LP  0  0  0  0  0  0  0  0  0  0  0  0  # atno 17321 bound_to 7965
  140.7121  143.2514  151.4547 LP  0  0  0  0  0  0  0  0  0  0  0  0  # atno 17342 bound_to 10162
  139.5831  144.1665  152.1994 LP  0  0  0  0  0  0  0  0  0  0  0  0  # atno 17343 bound_to 10162
  156.1421  130.3642  149.9567 LP  0  0  0  0  0  0  0  0  0  0  0  0  # atno 17370 bound_to 10713
  156.7605  130.9149  151.3641 LP  0  0  0  0  0  0  0  0  0  0  0  0  # atno 17371 bound_to 10713
  139.9538  134.7570  156.0387 LP  0  0  0  0  0  0  0  0  0  0  0  0  # atno 17394 bound_to 11000
  141.1264  133.6598  156.3349 LP  0  0  0  0  0  0  0  0  0  0  0  0  # atno 17395 bound_to 11000

$$$$
