#       Name:                AV-unprocessed.smi:21
#       Creating user name   scv26
#       Creation time:       Thu Mar 26 15:32:42 2020


#       File generated by GOLD software.
#

@<TRIPOS>MOLECULE
AV-unprocessed.smi:21
    71    74     1
SMALL
NO_CHARGES


@<TRIPOS>ATOM
      1 ****        -6.1232  -1.6085  -3.0262 C.3            1 S1                 0.0000
      2 ****        -5.0609  -1.0346  -2.2813 O.3            1 S1                 0.0000
      3 ****        -5.2849  -1.0330  -0.8785 C.3            1 S1                 0.0000
      4 ****        -4.2367  -0.1583  -0.1794 C.3            1 S1                 0.0000
      5 ****        -3.5283  -1.0632   0.8426 C.3            1 S1                 0.0000
      6 ****        -3.1938  -0.3534   2.1734 C.3            1 S1                 0.0000
      7 ****        -2.1868   0.6994   2.0152 N.pl3          1 S1                 0.0000
      8 ****        -2.6421   2.0627   1.7689 C.3            1 S1                 0.0000
      9 ****        -0.8747   0.3679   1.8278 C.ar           1 S1                 0.0000
     10 ****        -0.4817  -0.8977   2.1387 N.ar           1 S1                 0.0000
     11 ****         0.7853  -1.2859   1.9769 C.ar           1 S1                 0.0000
     12 ****         1.8185  -0.5813   1.5184 N.ar           1 S1                 0.0000
     13 ****         1.4437   0.6890   1.1986 C.ar           1 S1                 0.0000
     14 ****         0.1362   1.2458   1.3227 C.ar           1 S1                 0.0000
     15 ****         0.1626   2.5699   0.8929 N.2            1 S1                 0.0000
     16 ****         1.4005   2.7801   0.5407 C.2            1 S1                 0.0000
     17 ****         2.2364   1.6979   0.6816 N.pl3          1 S1                 0.0000
     18 ****         3.6524   1.6413   0.3624 C.3            1 S1                 0.0000
     19 ****         3.9480   0.8035  -0.9094 C.3            1 S1                 0.0000
     20 ****         3.2966   1.4324  -2.1630 C.3            1 S1                 0.0000
     21 ****         3.3513   0.5520  -3.2660 O.3            1 S1                 0.0000
     22 ****         5.4598   0.5169  -1.1243 C.3            1 S1                 0.0000
     23 ****         6.3732   1.7311  -1.2393 C.3            1 S1                 0.0000
     24 ****         7.7165   1.1551  -0.8157 C.3            1 S1                 0.0000
     25 ****         7.3673   0.3085   0.2670 O.3            1 S1                 0.0000
     26 ****         6.1390  -0.3427  -0.0429 C.3            1 S1                 0.0000
     27 ****        -4.4391  -2.2113   1.0349 N.4            1 S1                 1.0000
     28 ****        -3.7974  -3.4307   1.5748 C.3            1 S1                 0.0000
     29 ****        -5.1099  -2.4257  -0.2610 C.3            1 S1                 0.0000
     30 ****        -6.2768  -0.6390  -0.6490 H              1 S1                 0.0000
     31 ****        -2.6156  -1.4455   0.3817 H              1 S1                 0.0000
     32 ****        -5.8922  -1.5540  -4.0899 H              1 S1                 0.0000
     33 ****        -7.0573  -1.0710  -2.8591 H              1 S1                 0.0000
     34 ****        -6.2727  -2.6579  -2.7704 H              1 S1                 0.0000
     35 ****        -3.5208   0.2733  -0.8801 H              1 S1                 0.0000
     36 ****        -4.7410   0.6730   0.3144 H              1 S1                 0.0000
     37 ****        -4.1024   0.0789   2.5941 H              1 S1                 0.0000
     38 ****        -2.8538  -1.0692   2.9215 H              1 S1                 0.0000
     39 ****        -2.0744   2.7736   2.3696 H              1 S1                 0.0000
     40 ****        -3.6929   2.1811   2.0336 H              1 S1                 0.0000
     41 ****        -2.5339   2.3220   0.7154 H              1 S1                 0.0000
     42 ****         1.0022  -2.3071   2.2540 H              1 S1                 0.0000
     43 ****         1.7363   3.7326   0.1575 H              1 S1                 0.0000
     44 ****         4.0107   2.6634   0.2416 H              1 S1                 0.0000
     45 ****         4.1659   1.2379   1.2341 H              1 S1                 0.0000
     46 ****         3.4743  -0.1688  -0.7647 H              1 S1                 0.0000
     47 ****         2.2454   1.6594  -1.9872 H              1 S1                 0.0000
     48 ****         3.7843   2.3715  -2.4251 H              1 S1                 0.0000
     49 ****         2.9285   0.9659  -4.0030 H              1 S1                 0.0000
     50 ****         5.5682  -0.0438  -2.0538 H              1 S1                 0.0000
     51 ****         6.3929   2.1548  -2.2439 H              1 S1                 0.0000
     52 ****         6.0906   2.5203  -0.5443 H              1 S1                 0.0000
     53 ****         8.1600   0.5627  -1.6179 H              1 S1                 0.0000
     54 ****         8.4301   1.9225  -0.5150 H              1 S1                 0.0000
     55 ****         5.5455  -0.4580   0.8632 H              1 S1                 0.0000
     56 ****         6.3432  -1.3441  -0.4241 H              1 S1                 0.0000
     57 ****        -3.0000  -3.7819   0.9185 H              1 S1                 0.0000
     58 ****        -4.5316  -4.2305   1.6766 H              1 S1                 0.0000
     59 ****        -3.3703  -3.2460   2.5602 H              1 S1                 0.0000
     60 ****        -6.0566  -2.9543  -0.1448 H              1 S1                 0.0000
     61 ****        -4.4636  -3.0314  -0.8991 H              1 S1                 0.0000
     62 ****        -5.1507  -1.9151   1.6876 H              1 S1                 0.0000
     63 ****        -4.9383  -0.0891  -2.5828 LP             1 S1                 0.0000
     64 ****        -4.2273  -1.5547  -2.4676 LP             1 S1                 0.0000
     65 ****        -1.1534  -1.5477   2.4942 LP             1 S1                 0.0000
     66 ****         2.7477  -0.9380   1.4215 LP             1 S1                 0.0000
     67 ****        -0.5993   3.2167   0.8612 LP             1 S1                 0.0000
     68 ****         2.8784  -0.2999  -3.0410 LP             1 S1                 0.0000
     69 ****         4.3051   0.3540  -3.4922 LP             1 S1                 0.0000
     70 ****         7.2595   0.8527   1.0989 LP             1 S1                 0.0000
     71 ****         8.0848  -0.3741   0.4058 LP             1 S1                 0.0000
@<TRIPOS>BOND
    1    1    2 1     
    2    1   32 1     
    3    1   33 1     
    4    1   34 1     
    5    2    3 1     
    6    3   30 1     
    7    3   29 1     
    8    3    4 1     
    9    4    5 1     
   10    4   35 1     
   11    4   36 1     
   12    5   31 1     
   13    5    6 1     
   14    5   27 1     
   15    6    7 1     
   16    6   37 1     
   17    6   38 1     
   18    7    8 1     
   19    7    9 1     
   20    8   39 1     
   21    8   40 1     
   22    8   41 1     
   23    9   14 ar    
   24    9   10 ar    
   25   10   11 ar    
   26   11   12 ar    
   27   11   42 1     
   28   12   13 ar    
   29   13   17 1     
   30   13   14 ar    
   31   14   15 1     
   32   15   16 2     
   33   16   17 1     
   34   16   43 1     
   35   17   18 1     
   36   18   19 1     
   37   18   44 1     
   38   18   45 1     
   39   19   20 1     
   40   19   22 1     
   41   19   46 1     
   42   20   21 1     
   43   20   47 1     
   44   20   48 1     
   45   21   49 1     
   46   22   26 1     
   47   22   23 1     
   48   22   50 1     
   49   23   24 1     
   50   23   51 1     
   51   23   52 1     
   52   24   25 1     
   53   24   53 1     
   54   24   54 1     
   55   25   26 1     
   56   26   55 1     
   57   26   56 1     
   58   27   28 1     
   59   27   29 1     
   60   27   62 1     
   61   28   57 1     
   62   28   58 1     
   63   28   59 1     
   64   29   60 1     
   65   29   61 1     
   66    2   63 1     
   67    2   64 1     
   68   10   65 1     
   69   12   66 1     
   70   15   67 1     
   71   21   68 1     
   72   21   69 1     
   73   25   70 1     
   74   25   71 1     
@<TRIPOS>SUBSTRUCTURE
      1 S1             1
@<TRIPOS>SET
LONE_PAIRS      STATIC     ATOMS    <user>   **** ""
9 63 64 65 66 67 68 69 70 71
DONOR_HYDROGENS      STATIC     ATOMS    <user>   **** ""
2 49 62
ATOM$BLUE        STATIC     ATOMS    COLORGROUP SYSTEM
9 63 64 65 66 67 68 69 70 71
ATOM$RED        STATIC     ATOMS    COLORGROUP SYSTEM
2 49 62
