AV-unprocessed.smi:1556|AV-procd|sdf|6269|dock9
  -GOLD-   22720 6463D 1   1.00000     0.00000
 Structure written by MMmdl.
 37 38  0  0  0  0  0  0  0  0  1 V2000
  145.3598  130.1041  151.5274 C   0  0  0  0  0  0  0  0  0  0  0  0
  144.9307  131.3877  151.0152 N   0  0  0  0  0  0  0  0  0  0  0  0
  145.4436  132.6374  151.2877 C   0  0  0  0  0  0  0  0  0  0  0  0
  144.7400  133.5407  150.5420 C   0  0  0  0  0  0  0  0  0  0  0  0
  144.9378  135.0313  150.4408 C   0  0  0  0  0  0  0  0  0  0  0  0
  145.0101  135.7139  151.8216 C   0  0  0  0  0  0  0  0  0  0  0  0
  146.3320  135.5979  152.4291 N   0  0  0  0  0  0  0  0  0  0  0  0
  146.6473  134.7828  153.4485 C   0  0  0  0  0  0  0  0  0  0  0  0
  145.8179  134.1182  154.0663 O   0  0  0  0  0  0  0  0  0  0  0  0
  147.9592  134.7342  153.7424 N   0  0  0  0  0  0  0  0  0  0  0  0
  148.6247  133.9517  154.7864 C   0  0  1  0  0  0  0  0  0  0  0  0
  149.7309  133.0657  154.1831 C   0  0  0  0  0  0  0  0  0  0  0  0
  150.6294  132.5565  155.3162 C   0  0  0  0  0  0  0  0  0  0  0  0
  150.6427  133.8791  156.5839 S   0  0  0  0  0  0  0  0  0  0  0  0
  150.2161  133.3124  157.8721 O   0  0  0  0  0  0  0  0  0  0  0  0
  151.8858  134.6570  156.4726 O   0  0  0  0  0  0  0  0  0  0  0  0
  149.2704  134.8488  155.8582 C   0  0  0  0  0  0  0  0  0  0  0  0
  143.7899  132.7330  149.8544 C   0  0  0  0  0  0  0  0  0  0  0  0
  143.9099  131.4459  150.1357 N   0  0  0  0  0  0  0  0  0  0  0  0
  146.0700  130.2455  152.3425 H   0  0  0  0  0  0  0  0  0  0  0  0
  145.8427  129.5358  150.7318 H   0  0  0  0  0  0  0  0  0  0  0  0
  144.5007  129.5447  151.8989 H   0  0  0  0  0  0  0  0  0  0  0  0
  146.2729  132.7784  151.9650 H   0  0  0  0  0  0  0  0  0  0  0  0
  145.8449  135.2621  149.8820 H   0  0  0  0  0  0  0  0  0  0  0  0
  144.1245  135.4809  149.8698 H   0  0  0  0  0  0  0  0  0  0  0  0
  144.8009  136.7779  151.7091 H   0  0  0  0  0  0  0  0  0  0  0  0
  144.2430  135.3177  152.4888 H   0  0  0  0  0  0  0  0  0  0  0  0
  147.0785  136.1175  151.9909 H   0  0  0  0  0  0  0  0  0  0  0  0
  148.5591  135.3430  153.2042 H   0  0  0  0  0  0  0  0  0  0  0  0
  147.9001  133.2925  155.2680 H   0  0  0  0  0  0  0  0  0  0  0  0
  149.3180  132.2420  153.5997 H   0  0  0  0  0  0  0  0  0  0  0  0
  150.3387  133.6641  153.5025 H   0  0  0  0  0  0  0  0  0  0  0  0
  150.2060  131.6603  155.7703 H   0  0  0  0  0  0  0  0  0  0  0  0
  151.6456  132.3352  154.9896 H   0  0  0  0  0  0  0  0  0  0  0  0
  149.6985  135.7499  155.4179 H   0  0  0  0  0  0  0  0  0  0  0  0
  148.5744  135.1422  156.6438 H   0  0  0  0  0  0  0  0  0  0  0  0
  143.0313  133.0419  149.1503 H   0  0  0  0  0  0  0  0  0  0  0  0
  1  2  1  0  0  0  0
  1 20  1  0  0  0  0
  1 21  1  0  0  0  0
  1 22  1  0  0  0  0
  2 19  1  0  0  0  0
  2  3  1  0  0  0  0
  3  4  2  0  0  0  0
  3 23  1  0  0  0  0
  4  5  1  0  0  0  0
  4 18  1  0  0  0  0
  5  6  1  0  0  0  0
  5 24  1  0  0  0  0
  5 25  1  0  0  0  0
  6  7  1  0  0  0  0
  6 26  1  0  0  0  0
  6 27  1  0  0  0  0
  7  8  1  0  0  0  0
  7 28  1  0  0  0  0
  8  9  2  0  0  0  0
  8 10  1  0  0  0  0
 10 11  1  0  0  0  0
 10 29  1  0  0  0  0
 11 17  1  0  0  0  0
 11 12  1  0  0  0  0
 11 30  1  0  0  0  0
 12 13  1  0  0  0  0
 12 31  1  0  0  0  0
 12 32  1  0  0  0  0
 13 14  1  0  0  0  0
 13 33  1  0  0  0  0
 13 34  1  0  0  0  0
 14 15  2  0  0  0  0
 14 16  2  0  0  0  0
 14 17  1  0  0  0  0
 17 35  1  0  0  0  0
 17 36  1  0  0  0  0
 18 19  2  0  0  0  0
 18 37  1  0  0  0  0
M  END
> <s_m_source_file>
AV-unprocessed.smi

> <i_m_source_file_index>
1556

> <i_lp_mmshare_version>
43012

> <i_f3d_flags>
0

> <s_epik_input>
W0NIM11uMVtjSF1jKFtjSF1uMSlbQ0gyXVtDSDJdW05IXUMoPU8pW05IXVtDQEBIXShbQ0gyXTIpW0NIMl1bQ0gyXVMyKD1PKT1P

> <s_epik_cmdline>
J2VwaWtfcHl0aG9uJywgJy1waCcsICc3LjAnLCAnLXRuJywgJzgnLCAnLW1hJywgJzIwMCcsICctbWV0YWxfYmluZGluZycsICctaW1hZScsICc8aW5maWxlLm1hZT4nLCAnLW9tYWUnLCAnPG91dGZpbGUubWFlPic=

> <r_lp_tautomer_probability>
1

> <r_epik_Ionization_Penalty>
0.000530192

> <r_epik_Ionization_Penalty_Charging>
0

> <r_epik_Ionization_Penalty_Neutral>
0.000530192

> <r_epik_State_Penalty>
-0

> <r_epik_Charging_Adjusted_Penalty>
0

> <i_epik_Tot_Q>
0

> <i_epik_Tot_abs_Q>
0

> <r_epik_Metal_State_Penalty>
-0

> <b_epik_Metal_Only>
0

> <s_lp_Force_Field>
OPLS_2005

> <r_lp_Energy>
7.70197

> <b_lp_Chiralities_Consistent>
1

> <s_lp_Variant>
AV-unprocessed.smi:1556-2

> <Gold.Version>
5.8.1

> <Gold.Id.Protein>
6NUR|6NUR_protein|mol2

> <Gold.PLP.Fitness>
47.6579

> <Gold.PLP.PLP>
-31.9171

> <Gold.PLP.part.hbond>
-4.8490

> <Gold.PLP.part.metal>
0.0000

> <Gold.PLP.part.buried>
-2.3661

> <Gold.PLP.part.nonpolar>
-24.3768

> <Gold.PLP.part.repulsive>
0.2432

> <Gold.PLP.ligand.clash>
0.0000

> <Gold.PLP.ligand.torsion>
0.3134

> <Gold.PLP.Chemscore.Hbond>
4.4546

> <Gold.PLP.Chemscore.CHOScore>
0.9992

> <Gold.PLP.Chemscore.Metal>
0.0000

> <Gold.Chemscore.Hbonds>
donor molecule, donor type, donor heavy atom, donor atom, acceptor molecule, acceptor atom, score
      L1  H     7    28       P1  7948  0.86
      L1  H    10    29       P1  7948  1.00
      P1  H  6896  6907       L1    15  1.00
      P1  H 10752 10763       L1    16  0.86
      P1  H 10785 10796       L1    19  0.72
      L1  C    18    37       P1 10186  0.99

> <Gold.PLP.Chemscore.Internal.Correction>
0.0060

> <Gold.Rescore>
     Score         DG    S(hbond)    S(metal)    S(lipo)     H(rot)  DE(clash)    DE(int)     intcor
     22.51     -23.19       4.36        0.00      66.88       1.82       0.37       0.31       ----

> <Gold.Chemscore.Fitness>
22.5086

> <Gold.Chemscore.DG>
-23.1900

> <Gold.Chemscore.ZeroCoef>
-5.4800

> <Gold.Chemscore.Hbond>
4.3560

> <Gold.Chemscore.Metal>
0.0000

> <Gold.Chemscore.Lipo>
66.8811

> <Gold.Chemscore.Internal_Hbond>
0.0000

> <Gold.Chemscore.DEClash>
0.3732

> <Gold.Chemscore.DEInternal>
0.3082

> <Gold.Chemscore.Rot>
1.8220

> <Gold.Chemscore.Internal.Correction>
   9.000000E+99

> <Gold.Chemscore.Hbonds>
donor molecule, donor type, donor heavy atom, donor atom, acceptor molecule, acceptor atom, score
      L1  H     7    28       P1  7948  0.85
      L1  H    10    29       P1  7948  0.90
      P1  H  6896  6907       L1    15  0.95
      P1  H 10752 10763       L1    16  0.81
      P1  H 10785 10796       L1    19  0.63

> <Gold.Chemscore.Hbond.Weighted>
-14.5491

> <Gold.Chemscore.Metal.Weighted>
-0.0000

> <Gold.Chemscore.Lipo.Weighted>
-7.8251

> <Gold.Chemscore.Internal_Hbond.Weighted>
0.0000

> <Gold.Chemscore.DEClash.Weighted>
0.3732

> <Gold.Chemscore.DEInternal.Weighted>
0.3082

> <Gold.Chemscore.Rot.Weighted>
4.6642

> <Gold.Chemscore.Internal.Correction.Weighted>
   9.000000E+99

> <Gold.Protein.RotatedTorsions>
[ 6907 6896 6895 6894 ] final -116.01 input  -60.11 | X-H torsion
[ 7974 7965 7964 7962 ] final  132.18 input  175.53 | X-H torsion
[ 8008 7997 7996 7995 ] final -159.64 input   59.86 | X-H torsion
[ 10167 10162 10161 10158 ] final  -69.07 input  -65.29 | X-H torsion
[ 10718 10713 10712 10709 ] final   59.01 input   66.30 | X-H torsion
[ 10763 10752 10751 10750 ] final   99.76 input  -60.55 | X-H torsion
[ 11005 11000 10999 10996 ] final   38.54 input  -57.11 | X-H torsion

> <Gold.Protein.ActiveResidues>
 VAL166  LYS551  ARG553  GLY616  TRP617  ASP618  TYR619  PRO620  LYS621  CYS622 
 ASP623  PHE694  ASN695  SER759  ASP760  ASP761  ALA762  ILE779  LEU786  VAL792 
 PHE793  MET794  SER795  GLU796  ALA797  LYS798  CYS799  TRP800  GLU811  SER814 

> <Gold.Protein.RotatedAtoms>
  150.8022  133.8577  159.3222 H   0  0  0  0  0  0  0  0  0  0  0  0  # atno 6907 bound_to 6896
  151.6386  135.1013  160.0146 H   0  0  0  0  0  0  0  0  0  0  0  0  # atno 6908 bound_to 6896
  152.4110  133.6924  159.6433 H   0  0  0  0  0  0  0  0  0  0  0  0  # atno 6909 bound_to 6896
  144.9995  139.4326  143.5299 H   0  0  0  0  0  0  0  0  0  0  0  0  # atno 7974 bound_to 7965
  155.7656  140.0845  157.2133 H   0  0  0  0  0  0  0  0  0  0  0  0  # atno 8008 bound_to 7997
  154.4000  140.1535  156.2940 H   0  0  0  0  0  0  0  0  0  0  0  0  # atno 8009 bound_to 7997
  155.8797  140.3421  155.5881 H   0  0  0  0  0  0  0  0  0  0  0  0  # atno 8010 bound_to 7997
  140.5459  143.2313  151.7002 H   0  0  0  0  0  0  0  0  0  0  0  0  # atno 10167 bound_to 10162
  157.5642  130.8858  149.9160 H   0  0  0  0  0  0  0  0  0  0  0  0  # atno 10718 bound_to 10713
  153.3055  135.4102  155.1290 H   0  0  0  0  0  0  0  0  0  0  0  0  # atno 10763 bound_to 10752
  154.8561  135.3552  154.5794 H   0  0  0  0  0  0  0  0  0  0  0  0  # atno 10764 bound_to 10752
  153.6221  135.7064  153.5365 H   0  0  0  0  0  0  0  0  0  0  0  0  # atno 10765 bound_to 10752
  140.2116  134.3748  155.8046 H   0  0  0  0  0  0  0  0  0  0  0  0  # atno 11005 bound_to 11000
  146.3449  139.9375  142.8745 LP  0  0  0  0  0  0  0  0  0  0  0  0  # atno 17320 bound_to 7965
  145.2173  140.9920  143.4066 LP  0  0  0  0  0  0  0  0  0  0  0  0  # atno 17321 bound_to 7965
  139.5007  144.3895  152.0294 LP  0  0  0  0  0  0  0  0  0  0  0  0  # atno 17342 bound_to 10162
  140.3008  144.3649  150.6061 LP  0  0  0  0  0  0  0  0  0  0  0  0  # atno 17343 bound_to 10162
  156.0692  130.3687  150.0813 LP  0  0  0  0  0  0  0  0  0  0  0  0  # atno 17370 bound_to 10713
  156.8973  130.9608  151.3581 LP  0  0  0  0  0  0  0  0  0  0  0  0  # atno 17371 bound_to 10713
  141.2226  133.7146  156.8427 LP  0  0  0  0  0  0  0  0  0  0  0  0  # atno 17394 bound_to 11000
  140.1945  134.8942  157.3098 LP  0  0  0  0  0  0  0  0  0  0  0  0  # atno 17395 bound_to 11000

$$$$
