AV-unprocessed.smi:3232|AV-procd|sdf|12346|dock7
  -GOLD-   2272018213D 1   1.00000     0.00000
 Structure written by MMmdl.
 40 41  0  0  0  0  0  0  0  0  2 V2000
  145.3427  132.8246  151.5377 C   0  0  0  0  0  0  0  0  0  0  0  0
  146.6625  133.4526  152.0055 C   0  0  0  0  0  0  0  0  0  0  0  0
  146.5702  134.9278  152.1213 N   0  3  1  0  0  0  0  0  0  0  0  0
  145.9317  135.6007  150.9698 C   0  0  0  0  0  0  0  0  0  0  0  0
  145.4166  136.9238  151.5211 C   0  0  0  0  0  0  0  0  0  0  0  0
  144.9558  136.5467  152.9236 C   0  0  0  0  0  0  0  0  0  0  0  0
  145.8964  135.4044  153.3563 C   0  0  2  0  0  0  0  0  0  0  0  0
  146.9472  135.8300  154.4033 C   0  0  0  0  0  0  0  0  0  0  0  0
  147.7763  136.9395  153.9453 N   0  0  0  0  0  0  0  0  0  0  0  0
  148.1006  138.0157  154.6784 C   0  0  0  0  0  0  0  0  0  0  0  0
  147.7216  138.1763  155.8392 O   0  0  0  0  0  0  0  0  0  0  0  0
  148.9890  139.0621  153.9895 C   0  0  1  0  0  0  0  0  0  0  0  0
  148.5461  140.5062  154.2883 C   0  0  0  0  0  0  0  0  0  0  0  0
  150.3832  138.8527  154.3520 N   0  0  0  0  0  0  0  0  0  0  0  0
  151.1856  137.7986  154.1781 C   0  0  0  0  0  0  0  0  0  0  0  0
  152.4180  137.9816  154.6303 N   0  0  0  0  0  0  0  0  0  0  0  0
  152.3007  139.2583  155.1016 C   0  0  0  0  0  0  0  0  0  0  0  0
  151.1042  139.8277  154.9559 N   0  0  0  0  0  0  0  0  0  0  0  0
  145.4518  131.7470  151.4141 H   0  0  0  0  0  0  0  0  0  0  0  0
  145.0276  133.2373  150.5790 H   0  0  0  0  0  0  0  0  0  0  0  0
  144.5400  132.9906  152.2561 H   0  0  0  0  0  0  0  0  0  0  0  0
  146.9734  133.0211  152.9580 H   0  0  0  0  0  0  0  0  0  0  0  0
  147.4405  133.2062  151.2817 H   0  0  0  0  0  0  0  0  0  0  0  0
  146.6293  135.7393  150.1434 H   0  0  0  0  0  0  0  0  0  0  0  0
  145.0920  135.0043  150.6088 H   0  0  0  0  0  0  0  0  0  0  0  0
  146.2320  137.6465  151.5790 H   0  0  0  0  0  0  0  0  0  0  0  0
  144.6215  137.3575  150.9138 H   0  0  0  0  0  0  0  0  0  0  0  0
  144.9575  137.4014  153.6006 H   0  0  0  0  0  0  0  0  0  0  0  0
  143.9315  136.1738  152.8778 H   0  0  0  0  0  0  0  0  0  0  0  0
  145.2837  134.6003  153.7684 H   0  0  0  0  0  0  0  0  0  0  0  0
  146.4605  136.1053  155.3406 H   0  0  0  0  0  0  0  0  0  0  0  0
  147.6051  134.9914  154.6340 H   0  0  0  0  0  0  0  0  0  0  0  0
  148.1374  136.8832  153.0035 H   0  0  0  0  0  0  0  0  0  0  0  0
  148.8946  138.9119  152.9120 H   0  0  0  0  0  0  0  0  0  0  0  0
  147.5008  140.6624  154.0189 H   0  0  0  0  0  0  0  0  0  0  0  0
  149.1402  141.2189  153.7156 H   0  0  0  0  0  0  0  0  0  0  0  0
  148.6592  140.7568  155.3439 H   0  0  0  0  0  0  0  0  0  0  0  0
  150.8624  136.8807  153.7089 H   0  0  0  0  0  0  0  0  0  0  0  0
  153.1226  139.7852  155.5633 H   0  0  0  0  0  0  0  0  0  0  0  0
  147.5136  135.2851  152.1704 H   0  0  0  0  0  0  0  0  0  0  0  0
  1  2  1  0  0  0  0
  1 19  1  0  0  0  0
  1 20  1  0  0  0  0
  1 21  1  0  0  0  0
  2  3  1  0  0  0  0
  2 22  1  0  0  0  0
  2 23  1  0  0  0  0
  3  7  1  0  0  0  0
  3  4  1  0  0  0  0
  3 40  1  0  0  0  0
  4  5  1  0  0  0  0
  4 24  1  0  0  0  0
  4 25  1  0  0  0  0
  5  6  1  0  0  0  0
  5 26  1  0  0  0  0
  5 27  1  0  0  0  0
  6  7  1  0  0  0  0
  6 28  1  0  0  0  0
  6 29  1  0  0  0  0
  7  8  1  0  0  0  0
  7 30  1  0  0  0  0
  8  9  1  0  0  0  0
  8 31  1  0  0  0  0
  8 32  1  0  0  0  0
  9 10  1  0  0  0  0
  9 33  1  0  0  0  0
 10 11  2  0  0  0  0
 10 12  1  0  0  0  0
 12 13  1  0  0  0  0
 12 14  1  0  0  0  0
 12 34  1  0  0  0  0
 13 35  1  0  0  0  0
 13 36  1  0  0  0  0
 13 37  1  0  0  0  0
 14 18  1  0  0  0  0
 14 15  1  0  0  0  0
 15 16  2  0  0  0  0
 15 38  1  0  0  0  0
 16 17  1  0  0  0  0
 17 18  2  0  0  0  0
 17 39  1  0  0  0  0
M  CHG  1   3   1
M  END
> <s_m_source_file>
AV-unprocessed.smi

> <i_m_source_file_index>
3232

> <i_lp_mmshare_version>
43012

> <i_f3d_flags>
0

> <s_epik_input>
W0NIM11bQ0gyXU4xW0NIMl1bQ0gyXVtDSDJdW0NASF0xW0NIMl1bTkhdQyg9TylbQ0BIXShbQ0gzXSluMltjSF1uW2NIXW4y

> <s_epik_cmdline>
J2VwaWtfcHl0aG9uJywgJy1waCcsICc3LjAnLCAnLXRuJywgJzgnLCAnLW1hJywgJzIwMCcsICctbWV0YWxfYmluZGluZycsICctaW1hZScsICc8aW5maWxlLm1hZT4nLCAnLW9tYWUnLCAnPG91dGZpbGUubWFlPic=

> <r_lp_tautomer_probability>
1

> <r_epik_Ionization_Penalty>
0.00177695

> <r_epik_Ionization_Penalty_Charging>
0.00176881

> <r_epik_Ionization_Penalty_Neutral>
8.13528e-06

> <r_epik_State_Penalty>
0.00119827

> <r_epik_Charging_Adjusted_Penalty>
0.00296709

> <i_epik_Tot_Q>
1

> <i_epik_Tot_abs_Q>
1

> <r_epik_Metal_State_Penalty>
-0

> <b_epik_Metal_Only>
0

> <s_lp_Force_Field>
OPLS_2005

> <r_lp_Energy>
32.5075

> <b_lp_Chiralities_Consistent>
1

> <s_lp_Variant>
AV-unprocessed.smi:3232-8

> <Gold.Version>
5.8.1

> <Gold.Id.Protein>
6NUR|6NUR_protein|mol2

> <Gold.PLP.Fitness>
42.0998

> <Gold.PLP.PLP>
-28.3895

> <Gold.PLP.part.hbond>
-4.0000

> <Gold.PLP.part.metal>
0.0000

> <Gold.PLP.part.buried>
-1.8013

> <Gold.PLP.part.nonpolar>
-23.0907

> <Gold.PLP.part.repulsive>
0.1375

> <Gold.PLP.ligand.clash>
0.0000

> <Gold.PLP.ligand.torsion>
0.8310

> <Gold.PLP.Chemscore.Hbond>
4.0263

> <Gold.PLP.Chemscore.CHOScore>
1.0720

> <Gold.PLP.Chemscore.Metal>
0.0000

> <Gold.Chemscore.Hbonds>
donor molecule, donor type, donor heavy atom, donor atom, acceptor molecule, acceptor atom, score
      L1  H     3    40       P1  7948  2.00
      L1  H     9    33       P1  7948  1.00
      P1  H  7989  7998       L1    18  0.70
      L1  C    15    38       P1  7948  0.17
      L1  C    15    38       P1  7949  0.89

> <Gold.PLP.Chemscore.Internal.Correction>
0.0775

> <Gold.Rescore>
     Score         DG    S(hbond)    S(metal)    S(lipo)     H(rot)  DE(clash)    DE(int)     intcor
      9.79     -10.62       1.98        0.00      41.93       2.49       0.03       0.80       ----

> <Gold.Chemscore.Fitness>
9.7900

> <Gold.Chemscore.DG>
-10.6210

> <Gold.Chemscore.ZeroCoef>
-5.4800

> <Gold.Chemscore.Hbond>
1.9776

> <Gold.Chemscore.Metal>
0.0000

> <Gold.Chemscore.Lipo>
41.9284

> <Gold.Chemscore.Internal_Hbond>
0.0000

> <Gold.Chemscore.DEClash>
0.0285

> <Gold.Chemscore.DEInternal>
0.8025

> <Gold.Chemscore.Rot>
2.4882

> <Gold.Chemscore.Internal.Correction>
   9.000000E+99

> <Gold.Chemscore.Hbonds>
donor molecule, donor type, donor heavy atom, donor atom, acceptor molecule, acceptor atom, score
      L1  H     3    40       P1  7948  0.99
      L1  H     9    33       P1  7948  0.92
      P1  H  7989  7998       L1    18  0.03

> <Gold.Chemscore.Hbond.Weighted>
-6.6051

> <Gold.Chemscore.Metal.Weighted>
-0.0000

> <Gold.Chemscore.Lipo.Weighted>
-4.9056

> <Gold.Chemscore.Internal_Hbond.Weighted>
0.0000

> <Gold.Chemscore.DEClash.Weighted>
0.0285

> <Gold.Chemscore.DEInternal.Weighted>
0.8025

> <Gold.Chemscore.Rot.Weighted>
6.3697

> <Gold.Chemscore.Internal.Correction.Weighted>
   9.000000E+99

> <Gold.Protein.RotatedTorsions>
[ 6907 6896 6895 6894 ] final  -40.50 input  -60.11 | X-H torsion
[ 7974 7965 7964 7962 ] final  -11.01 input  175.53 | X-H torsion
[ 8008 7997 7996 7995 ] final   85.20 input   59.86 | X-H torsion
[ 10167 10162 10161 10158 ] final  -58.18 input  -65.29 | X-H torsion
[ 10718 10713 10712 10709 ] final  163.29 input   66.30 | X-H torsion
[ 10763 10752 10751 10750 ] final  117.11 input  -60.55 | X-H torsion
[ 11005 11000 10999 10996 ] final  -92.48 input  -57.11 | X-H torsion

> <Gold.Protein.ActiveResidues>
 VAL166  LYS551  ARG553  GLY616  TRP617  ASP618  TYR619  PRO620  LYS621  CYS622 
 ASP623  PHE694  ASN695  SER759  ASP760  ASP761  ALA762  ILE779  LEU786  VAL792 
 PHE793  MET794  SER795  GLU796  ALA797  LYS798  CYS799  TRP800  GLU811  SER814 

> <Gold.Protein.RotatedAtoms>
  150.9778  134.9139  159.7825 H   0  0  0  0  0  0  0  0  0  0  0  0  # atno 6907 bound_to 6896
  152.5212  134.3453  159.9241 H   0  0  0  0  0  0  0  0  0  0  0  0  # atno 6908 bound_to 6896
  151.3460  133.3903  159.2710 H   0  0  0  0  0  0  0  0  0  0  0  0  # atno 6909 bound_to 6896
  146.2202  140.2849  142.8364 H   0  0  0  0  0  0  0  0  0  0  0  0  # atno 7974 bound_to 7965
  155.9469  140.3404  155.6374 H   0  0  0  0  0  0  0  0  0  0  0  0  # atno 8008 bound_to 7997
  155.6969  140.0755  157.2444 H   0  0  0  0  0  0  0  0  0  0  0  0  # atno 8009 bound_to 7997
  154.4114  140.1647  156.2136 H   0  0  0  0  0  0  0  0  0  0  0  0  # atno 8010 bound_to 7997
  140.6213  143.2420  151.5474 H   0  0  0  0  0  0  0  0  0  0  0  0  # atno 10167 bound_to 10162
  157.1105  131.0466  151.2459 H   0  0  0  0  0  0  0  0  0  0  0  0  # atno 10718 bound_to 10713
  153.5474  135.3546  155.2744 H   0  0  0  0  0  0  0  0  0  0  0  0  # atno 10763 bound_to 10752
  154.8711  135.4105  154.2976 H   0  0  0  0  0  0  0  0  0  0  0  0  # atno 10764 bound_to 10752
  153.3695  135.7063  153.6717 H   0  0  0  0  0  0  0  0  0  0  0  0  # atno 10765 bound_to 10752
  141.1521  133.7824  157.0026 H   0  0  0  0  0  0  0  0  0  0  0  0  # atno 11005 bound_to 11000
  144.9170  140.7824  143.5772 LP  0  0  0  0  0  0  0  0  0  0  0  0  # atno 17320 bound_to 7965
  145.2783  139.1928  143.4805 LP  0  0  0  0  0  0  0  0  0  0  0  0  # atno 17321 bound_to 7965
  139.5441  144.2569  152.1408 LP  0  0  0  0  0  0  0  0  0  0  0  0  # atno 17342 bound_to 10162
  140.1789  144.4863  150.6539 LP  0  0  0  0  0  0  0  0  0  0  0  0  # atno 17343 bound_to 10162
  157.4563  130.7627  149.7196 LP  0  0  0  0  0  0  0  0  0  0  0  0  # atno 17370 bound_to 10713
  155.9851  130.3985  150.3276 LP  0  0  0  0  0  0  0  0  0  0  0  0  # atno 17371 bound_to 10713
  140.0930  134.9581  157.1805 LP  0  0  0  0  0  0  0  0  0  0  0  0  # atno 17394 bound_to 11000
  140.3420  134.2693  155.7210 LP  0  0  0  0  0  0  0  0  0  0  0  0  # atno 17395 bound_to 11000

$$$$
