#       Name:                AV-unprocessed.smi:2270
#       Creating user name   scv26
#       Creation time:       Fri Mar 27 12:36:44 2020


#       File generated by GOLD software.
#

@<TRIPOS>MOLECULE
AV-unprocessed.smi:2270
    57    58     1
SMALL
NO_CHARGES


@<TRIPOS>ATOM
      1 ****        -1.9046   4.7719   4.4771 C.3            1 S1                 0.0000
      2 ****        -2.2955   4.8343   3.0156 C.ar           1 S1                 0.0000
      3 ****        -2.8967   5.9887   2.4771 C.ar           1 S1                 0.0000
      4 ****        -3.2404   5.9826   1.1136 C.ar           1 S1                 0.0000
      5 ****        -2.9712   4.8302   0.3504 C.ar           1 S1                 0.0000
      6 ****        -2.3651   3.7129   0.9679 C.ar           1 S1                 0.0000
      7 ****        -2.1340   2.6035   0.1121 N.am           1 S1                 0.0000
      8 ****        -1.5661   1.4231   0.4158 C.2            1 S1                 0.0000
      9 ****        -1.1489   1.0967   1.5275 O.2            1 S1                 0.0000
     10 ****        -1.5010   0.6261  -0.6601 N.am           1 S1                 0.0000
     11 ****        -0.9209  -0.7133  -0.6766 C.3            1 S1                 0.0000
     12 ****         0.6345  -0.7003  -0.6938 C.3            1 S1                 0.0000
     13 ****         1.2465   0.2134  -1.8031 C.3            1 S1                 0.0000
     14 ****         0.7333  -0.0011  -3.2410 C.3            1 S1                 0.0000
     15 ****         2.7840   0.2346  -1.7608 C.3            1 S1                 0.0000
     16 ****         1.2637  -2.0294  -0.5661 N.3            1 S1                 0.0000
     17 ****         1.0915  -2.6182   0.7658 C.3            1 S1                 0.0000
     18 ****         1.8896  -3.9268   0.9096 C.3            1 S1                 0.0000
     19 ****         1.4835  -4.9100  -0.0923 N.3            1 S1                 0.0000
     20 ****         2.2261  -6.1531   0.0463 C.3            1 S1                 0.0000
     21 ****         1.6521  -4.3287  -1.4223 C.3            1 S1                 0.0000
     22 ****         0.8572  -3.0179  -1.5708 C.3            1 S1                 0.0000
     23 ****        -2.0383   3.7287   2.2841 N.ar           1 S1                 0.0000
     24 ****        -1.8167   5.7724   4.9015 H              1 S1                 0.0000
     25 ****        -0.9455   4.2674   4.6001 H              1 S1                 0.0000
     26 ****        -2.6570   4.2239   5.0442 H              1 S1                 0.0000
     27 ****        -3.0911   6.8563   3.0904 H              1 S1                 0.0000
     28 ****        -3.7030   6.8466   0.6599 H              1 S1                 0.0000
     29 ****        -3.2287   4.8092  -0.6986 H              1 S1                 0.0000
     30 ****        -2.4281   2.7262  -0.8453 H              1 S1                 0.0000
     31 ****        -1.8683   0.9727  -1.5341 H              1 S1                 0.0000
     32 ****        -1.3003  -1.2637   0.1845 H              1 S1                 0.0000
     33 ****        -1.3124  -1.2281  -1.5534 H              1 S1                 0.0000
     34 ****         0.9127  -0.1739   0.2205 H              1 S1                 0.0000
     35 ****         0.9433   1.2288  -1.5458 H              1 S1                 0.0000
     36 ****         1.1311  -0.9039  -3.6983 H              1 S1                 0.0000
     37 ****         1.0460   0.8269  -3.8776 H              1 S1                 0.0000
     38 ****        -0.3536  -0.0415  -3.2920 H              1 S1                 0.0000
     39 ****         3.2060  -0.7250  -2.0605 H              1 S1                 0.0000
     40 ****         3.1464   0.4599  -0.7573 H              1 S1                 0.0000
     41 ****         3.1847   0.9938  -2.4328 H              1 S1                 0.0000
     42 ****         1.4241  -1.9143   1.5293 H              1 S1                 0.0000
     43 ****         0.0385  -2.8199   0.9629 H              1 S1                 0.0000
     44 ****         2.9566  -3.7172   0.8182 H              1 S1                 0.0000
     45 ****         1.7359  -4.3346   1.9092 H              1 S1                 0.0000
     46 ****         1.8965  -6.8840  -0.6928 H              1 S1                 0.0000
     47 ****         2.0705  -6.5872   1.0342 H              1 S1                 0.0000
     48 ****         3.2962  -5.9906  -0.0892 H              1 S1                 0.0000
     49 ****         2.7089  -4.1389  -1.6171 H              1 S1                 0.0000
     50 ****         1.3185  -5.0392  -2.1793 H              1 S1                 0.0000
     51 ****        -0.2080  -3.2336  -1.4822 H              1 S1                 0.0000
     52 ****         1.0179  -2.6370  -2.5737 H              1 S1                 0.0000
     53 ****        -1.2197   1.7339   2.2950 LP             1 S1                 0.0000
     54 ****        -0.7394   0.1945   1.6628 LP             1 S1                 0.0000
     55 ****         2.2290  -1.8236  -0.7271 LP             1 S1                 0.0000
     56 ****         0.5202  -5.1403   0.0455 LP             1 S1                 0.0000
     57 ****        -1.6114   2.9301   2.7084 LP             1 S1                 0.0000
@<TRIPOS>BOND
    1    1    2 1     
    2    1   24 1     
    3    1   25 1     
    4    1   26 1     
    5    2   23 ar    
    6    2    3 ar    
    7    3    4 ar    
    8    3   27 1     
    9    4    5 ar    
   10    4   28 1     
   11    5    6 ar    
   12    5   29 1     
   13    6    7 1     
   14    6   23 ar    
   15    7    8 am    
   16    7   30 1     
   17    8    9 2     
   18    8   10 am    
   19   10   11 1     
   20   10   31 1     
   21   11   12 1     
   22   11   32 1     
   23   11   33 1     
   24   12   13 1     
   25   12   16 1     
   26   12   34 1     
   27   13   14 1     
   28   13   15 1     
   29   13   35 1     
   30   14   36 1     
   31   14   37 1     
   32   14   38 1     
   33   15   39 1     
   34   15   40 1     
   35   15   41 1     
   36   16   22 1     
   37   16   17 1     
   38   17   18 1     
   39   17   42 1     
   40   17   43 1     
   41   18   19 1     
   42   18   44 1     
   43   18   45 1     
   44   19   20 1     
   45   19   21 1     
   46   20   46 1     
   47   20   47 1     
   48   20   48 1     
   49   21   22 1     
   50   21   49 1     
   51   21   50 1     
   52   22   51 1     
   53   22   52 1     
   54    9   53 1     
   55    9   54 1     
   56   16   55 1     
   57   19   56 1     
   58   23   57 1     
@<TRIPOS>SUBSTRUCTURE
      1 S1             1
@<TRIPOS>SET
LONE_PAIRS      STATIC     ATOMS    <user>   **** ""
5 53 54 55 56 57
DONOR_HYDROGENS      STATIC     ATOMS    <user>   **** ""
2 30 31
ATOM$BLUE        STATIC     ATOMS    COLORGROUP SYSTEM
5 53 54 55 56 57
ATOM$RED        STATIC     ATOMS    COLORGROUP SYSTEM
2 30 31
