AV-unprocessed.smi:2439|AV-procd|sdf|9613|dock3
  -GOLD-   2272013243D 1   1.00000     0.00000
 Structure written by MMmdl.
 40 42  0  0  0  0  0  0  0  0  1 V2000
  154.2861  139.8974  159.2939 N   0  0  0  0  0  0  0  0  0  0  0  0
  153.6585  140.8572  159.4464 C   0  0  0  0  0  0  0  0  0  0  0  0
  152.8677  142.0670  159.6386 C   0  0  0  0  0  0  0  0  0  0  0  0
  153.0679  142.8349  160.8048 C   0  0  0  0  0  0  0  0  0  0  0  0
  152.3087  144.0039  160.9955 C   0  0  0  0  0  0  0  0  0  0  0  0
  151.3746  144.3599  160.0059 C   0  0  0  0  0  0  0  0  0  0  0  0
  151.1728  143.6350  158.8859 N   0  0  0  0  0  0  0  0  0  0  0  0
  151.8991  142.5059  158.6960 C   0  0  0  0  0  0  0  0  0  0  0  0
  151.6648  141.7719  157.5197 N   0  0  0  0  0  0  0  0  0  0  0  0
  150.5712  142.1175  156.6224 C   0  0  0  0  0  0  0  0  0  0  0  0
  149.6198  140.9252  156.4084 C   0  0  2  0  0  0  0  0  0  0  0  0
  148.8534  141.0011  155.0739 C   0  0  0  0  0  0  0  0  0  0  0  0
  147.8272  142.0371  155.0702 N   0  0  0  0  0  0  0  0  0  0  0  0
  147.1087  142.0610  153.7969 C   0  0  0  0  0  0  0  0  0  0  0  0
  146.0439  143.1675  153.7437 C   0  0  0  0  0  0  0  0  0  0  0  0
  145.0544  143.0092  154.9066 C   0  0  0  0  0  0  0  0  0  0  0  0
  145.8155  142.9289  156.2387 C   0  0  0  0  0  0  0  0  0  0  0  0
  146.9048  141.8366  156.1915 C   0  0  2  0  0  0  0  0  0  0  0  0
  147.6665  141.7794  157.5304 C   0  0  0  0  0  0  0  0  0  0  0  0
  148.6866  140.7847  157.4817 O   0  0  0  0  0  0  0  0  0  0  0  0
  153.7936  142.5361  161.5479 H   0  0  0  0  0  0  0  0  0  0  0  0
  152.4399  144.6125  161.8779 H   0  0  0  0  0  0  0  0  0  0  0  0
  150.7733  145.2503  160.1155 H   0  0  0  0  0  0  0  0  0  0  0  0
  152.1533  140.9007  157.3694 H   0  0  0  0  0  0  0  0  0  0  0  0
  150.0321  142.9828  157.0078 H   0  0  0  0  0  0  0  0  0  0  0  0
  150.9972  142.4160  155.6640 H   0  0  0  0  0  0  0  0  0  0  0  0
  150.2242  140.0173  156.3919 H   0  0  0  0  0  0  0  0  0  0  0  0
  149.5566  141.1710  154.2574 H   0  0  0  0  0  0  0  0  0  0  0  0
  148.3895  140.0323  154.8818 H   0  0  0  0  0  0  0  0  0  0  0  0
  147.8161  142.2090  152.9802 H   0  0  0  0  0  0  0  0  0  0  0  0
  146.6338  141.0943  153.6217 H   0  0  0  0  0  0  0  0  0  0  0  0
  146.5269  144.1440  153.7994 H   0  0  0  0  0  0  0  0  0  0  0  0
  145.5140  143.1345  152.7915 H   0  0  0  0  0  0  0  0  0  0  0  0
  144.3498  143.8410  154.9212 H   0  0  0  0  0  0  0  0  0  0  0  0
  144.4663  142.1016  154.7657 H   0  0  0  0  0  0  0  0  0  0  0  0
  146.2723  143.8961  156.4541 H   0  0  0  0  0  0  0  0  0  0  0  0
  145.1155  142.7289  157.0506 H   0  0  0  0  0  0  0  0  0  0  0  0
  146.4054  140.8753  156.0582 H   0  0  0  0  0  0  0  0  0  0  0  0
  148.0986  142.7497  157.7771 H   0  0  0  0  0  0  0  0  0  0  0  0
  146.9830  141.5302  158.3423 H   0  0  0  0  0  0  0  0  0  0  0  0
  1  2  3  0  0  0  0
  2  3  1  0  0  0  0
  3  8  1  0  0  0  0
  3  4  2  0  0  0  0
  4  5  1  0  0  0  0
  4 21  1  0  0  0  0
  5  6  2  0  0  0  0
  5 22  1  0  0  0  0
  6  7  1  0  0  0  0
  6 23  1  0  0  0  0
  7  8  2  0  0  0  0
  8  9  1  0  0  0  0
  9 10  1  0  0  0  0
  9 24  1  0  0  0  0
 10 11  1  0  0  0  0
 10 25  1  0  0  0  0
 10 26  1  0  0  0  0
 11 20  1  0  0  0  0
 11 12  1  0  0  0  0
 11 27  1  0  0  0  0
 12 13  1  0  0  0  0
 12 28  1  0  0  0  0
 12 29  1  0  0  0  0
 13 18  1  0  0  0  0
 13 14  1  0  0  0  0
 14 15  1  0  0  0  0
 14 30  1  0  0  0  0
 14 31  1  0  0  0  0
 15 16  1  0  0  0  0
 15 32  1  0  0  0  0
 15 33  1  0  0  0  0
 16 17  1  0  0  0  0
 16 34  1  0  0  0  0
 16 35  1  0  0  0  0
 17 18  1  0  0  0  0
 17 36  1  0  0  0  0
 17 37  1  0  0  0  0
 18 19  1  0  0  0  0
 18 38  1  0  0  0  0
 19 20  1  0  0  0  0
 19 39  1  0  0  0  0
 19 40  1  0  0  0  0
M  END
> <s_m_source_file>
AV-unprocessed.smi

> <i_m_source_file_index>
2439

> <i_lp_mmshare_version>
43012

> <i_f3d_flags>
0

> <s_epik_input>
TiNDYzFbY0hdW2NIXVtjSF1uYzFbTkhdW0NIMl1bQ0BIXShbQ0gyXTIpT1tDSDJdW0NAQEhdKE4yMylbQ0gyXVtDSDJdW0NIMl1bQ0gyXTM=

> <s_epik_cmdline>
J2VwaWtfcHl0aG9uJywgJy1waCcsICc3LjAnLCAnLXRuJywgJzgnLCAnLW1hJywgJzIwMCcsICctbWV0YWxfYmluZGluZycsICctaW1hZScsICc8aW5maWxlLm1hZT4nLCAnLW9tYWUnLCAnPG91dGZpbGUubWFlPic=

> <r_epik_Ionization_Penalty>
1.22355

> <r_epik_Ionization_Penalty_Charging>
0

> <r_epik_Ionization_Penalty_Neutral>
1.22355

> <r_epik_State_Penalty>
1.29103

> <r_epik_Charging_Adjusted_Penalty>
1.29103

> <i_epik_Tot_Q>
0

> <i_epik_Tot_abs_Q>
0

> <r_epik_Metal_State_Penalty>
1.29103

> <b_epik_Metal_Only>
0

> <s_lp_Force_Field>
OPLS_2005

> <r_lp_Energy>
40.6055

> <b_lp_Chiralities_Consistent>
1

> <s_lp_Variant>
AV-unprocessed.smi:2439-11

> <Gold.Version>
5.8.1

> <Gold.Id.Protein>
6NUR|6NUR_protein|mol2

> <Gold.PLP.Fitness>
40.6130

> <Gold.PLP.PLP>
-38.1261

> <Gold.PLP.part.hbond>
-1.0000

> <Gold.PLP.part.metal>
0.0000

> <Gold.PLP.part.buried>
-5.9043

> <Gold.PLP.part.nonpolar>
-31.3992

> <Gold.PLP.part.repulsive>
1.2790

> <Gold.PLP.ligand.clash>
0.0000

> <Gold.PLP.ligand.torsion>
0.2613

> <Gold.PLP.Chemscore.Hbond>
1.0000

> <Gold.PLP.Chemscore.CHOScore>
0.0000

> <Gold.PLP.Chemscore.Metal>
0.0000

> <Gold.Chemscore.Hbonds>
donor molecule, donor type, donor heavy atom, donor atom, acceptor molecule, acceptor atom, score
      P1  H  7997  8010       L1     1  0.80

> <Gold.PLP.Chemscore.Internal.Correction>
0.0095

> <Gold.Rescore>
     Score         DG    S(hbond)    S(metal)    S(lipo)     H(rot)  DE(clash)    DE(int)     intcor
     14.92     -15.36       0.82        0.00      88.27       1.25       0.17       0.27       ----

> <Gold.Chemscore.Fitness>
14.9159

> <Gold.Chemscore.DG>
-15.3593

> <Gold.Chemscore.ZeroCoef>
-5.4800

> <Gold.Chemscore.Hbond>
0.8226

> <Gold.Chemscore.Metal>
0.0000

> <Gold.Chemscore.Lipo>
88.2743

> <Gold.Chemscore.Internal_Hbond>
0.0000

> <Gold.Chemscore.DEClash>
0.1704

> <Gold.Chemscore.DEInternal>
0.2730

> <Gold.Chemscore.Rot>
1.2485

> <Gold.Chemscore.Internal.Correction>
   9.000000E+99

> <Gold.Chemscore.Hbonds>
donor molecule, donor type, donor heavy atom, donor atom, acceptor molecule, acceptor atom, score
      P1  H  7997  8010       L1     1  0.39

> <Gold.Chemscore.Hbond.Weighted>
-2.7473

> <Gold.Chemscore.Metal.Weighted>
-0.0000

> <Gold.Chemscore.Lipo.Weighted>
-10.3281

> <Gold.Chemscore.Internal_Hbond.Weighted>
0.0000

> <Gold.Chemscore.DEClash.Weighted>
0.1704

> <Gold.Chemscore.DEInternal.Weighted>
0.2730

> <Gold.Chemscore.Rot.Weighted>
3.1961

> <Gold.Chemscore.Internal.Correction.Weighted>
   9.000000E+99

> <Gold.Protein.RotatedTorsions>
[ 6907 6896 6895 6894 ] final  159.82 input  -60.11 | X-H torsion
[ 7974 7965 7964 7962 ] final   96.74 input  175.53 | X-H torsion
[ 8008 7997 7996 7995 ] final    6.49 input   59.86 | X-H torsion
[ 10167 10162 10161 10158 ] final  147.45 input  -65.29 | X-H torsion
[ 10718 10713 10712 10709 ] final   16.29 input   66.30 | X-H torsion
[ 10763 10752 10751 10750 ] final -130.36 input  -60.55 | X-H torsion
[ 11005 11000 10999 10996 ] final   14.61 input  -57.11 | X-H torsion

> <Gold.Protein.ActiveResidues>
 VAL166  LYS551  ARG553  GLY616  TRP617  ASP618  TYR619  PRO620  LYS621  CYS622 
 ASP623  PHE694  ASN695  SER759  ASP760  ASP761  ALA762  ILE779  LEU786  VAL792 
 PHE793  MET794  SER795  GLU796  ALA797  LYS798  CYS799  TRP800  GLU811  SER814 

> <Gold.Protein.RotatedAtoms>
  151.9799  133.3754  159.4103 H   0  0  0  0  0  0  0  0  0  0  0  0  # atno 6907 bound_to 6896
  150.6936  134.4050  159.5145 H   0  0  0  0  0  0  0  0  0  0  0  0  # atno 6908 bound_to 6896
  152.1767  134.8788  160.0580 H   0  0  0  0  0  0  0  0  0  0  0  0  # atno 6909 bound_to 6896
  145.4348  139.2307  143.3124 H   0  0  0  0  0  0  0  0  0  0  0  0  # atno 7974 bound_to 7965
  154.7416  140.2750  155.6368 H   0  0  0  0  0  0  0  0  0  0  0  0  # atno 8008 bound_to 7997
  156.2875  140.2696  156.2071 H   0  0  0  0  0  0  0  0  0  0  0  0  # atno 8009 bound_to 7997
  155.0250  140.0371  157.2442 H   0  0  0  0  0  0  0  0  0  0  0  0  # atno 8010 bound_to 7997
  139.4890  144.5754  151.6975 H   0  0  0  0  0  0  0  0  0  0  0  0  # atno 10167 bound_to 10162
  157.0657  130.6327  149.5795 H   0  0  0  0  0  0  0  0  0  0  0  0  # atno 10718 bound_to 10713
  154.8755  135.3865  154.4070 H   0  0  0  0  0  0  0  0  0  0  0  0  # atno 10763 bound_to 10752
  153.4788  135.7030  153.5955 H   0  0  0  0  0  0  0  0  0  0  0  0  # atno 10764 bound_to 10752
  153.4380  135.3863  155.2178 H   0  0  0  0  0  0  0  0  0  0  0  0  # atno 10765 bound_to 10752
  140.4675  134.1064  155.7727 H   0  0  0  0  0  0  0  0  0  0  0  0  # atno 11005 bound_to 11000
  146.2588  140.5089  142.8862 LP  0  0  0  0  0  0  0  0  0  0  0  0  # atno 17320 bound_to 7965
  144.8159  140.6467  143.6384 LP  0  0  0  0  0  0  0  0  0  0  0  0  # atno 17321 bound_to 7965
  140.5349  144.0671  150.6067 LP  0  0  0  0  0  0  0  0  0  0  0  0  # atno 17342 bound_to 10162
  140.3674  143.2874  152.0316 LP  0  0  0  0  0  0  0  0  0  0  0  0  # atno 17343 bound_to 10162
  155.9965  130.5035  150.7500 LP  0  0  0  0  0  0  0  0  0  0  0  0  # atno 17370 bound_to 10713
  157.4919  131.0911  151.0417 LP  0  0  0  0  0  0  0  0  0  0  0  0  # atno 17371 bound_to 10713
  141.1592  133.8824  157.1894 LP  0  0  0  0  0  0  0  0  0  0  0  0  # atno 17394 bound_to 11000
  139.9906  135.0066  156.9965 LP  0  0  0  0  0  0  0  0  0  0  0  0  # atno 17395 bound_to 11000

$$$$
