AV-unprocessed.smi:3117|AV-procd|sdf|11878|dock6
  -GOLD-   2272017263D 1   1.00000     0.00000
 Structure written by MMmdl.
 37 37  0  0  0  0  0  0  0  0  2 V2000
  149.2402  140.3553  157.5328 C   0  0  0  0  0  0  0  0  0  0  0  0
  149.8634  141.7360  157.2542 C   0  0  2  0  0  0  0  0  0  0  0  0
  149.6482  142.1074  155.8364 N   0  3  0  0  0  0  0  0  0  0  0  0
  148.3159  141.7824  155.2828 C   0  0  0  0  0  0  0  0  0  0  0  0
  148.4032  140.7345  154.1531 C   0  0  0  0  0  0  0  0  0  0  0  0
  149.0420  139.4376  154.6768 C   0  0  0  0  0  0  0  0  0  0  0  0
  147.0279  140.4377  153.5254 C   0  0  0  0  0  0  0  0  0  0  0  0
  149.2591  141.2356  153.1447 O   0  0  0  0  0  0  0  0  0  0  0  0
  151.3785  141.7891  157.5812 C   0  0  2  0  0  0  0  0  0  0  0  0
  151.8626  140.6143  158.4522 C   0  0  0  0  0  0  0  0  0  0  0  0
  151.7218  143.0561  158.2197 N   0  0  0  0  0  0  0  0  0  0  0  0
  151.6129  144.3384  157.7181 C   0  0  0  0  0  0  0  0  0  0  0  0
  152.1031  145.1913  158.6649 C   0  0  0  0  0  0  0  0  0  0  0  0
  152.5045  144.3283  159.7219 C   0  0  0  0  0  0  0  0  0  0  0  0
  152.2849  143.0527  159.4484 N   0  0  0  0  0  0  0  0  0  0  0  0
  149.3040  140.0904  158.5878 H   0  0  0  0  0  0  0  0  0  0  0  0
  149.7392  139.5724  156.9607 H   0  0  0  0  0  0  0  0  0  0  0  0
  148.1826  140.3323  157.2713 H   0  0  0  0  0  0  0  0  0  0  0  0
  149.3619  142.4751  157.8811 H   0  0  0  0  0  0  0  0  0  0  0  0
  149.7535  143.1103  155.7730 H   0  0  0  0  0  0  0  0  0  0  0  0
  147.6694  141.4212  156.0832 H   0  0  0  0  0  0  0  0  0  0  0  0
  147.8596  142.6941  154.8947 H   0  0  0  0  0  0  0  0  0  0  0  0
  148.4357  138.9903  155.4653 H   0  0  0  0  0  0  0  0  0  0  0  0
  150.0348  139.6198  155.0899 H   0  0  0  0  0  0  0  0  0  0  0  0
  149.1473  138.6957  153.8841 H   0  0  0  0  0  0  0  0  0  0  0  0
  146.3262  140.0670  154.2735 H   0  0  0  0  0  0  0  0  0  0  0  0
  147.1046  139.6800  152.7446 H   0  0  0  0  0  0  0  0  0  0  0  0
  146.5855  141.3251  153.0715 H   0  0  0  0  0  0  0  0  0  0  0  0
  149.2198  140.6554  152.3991 H   0  0  0  0  0  0  0  0  0  0  0  0
  151.9312  141.7367  156.6409 H   0  0  0  0  0  0  0  0  0  0  0  0
  151.7853  139.6639  157.9248 H   0  0  0  0  0  0  0  0  0  0  0  0
  151.2855  140.5315  159.3736 H   0  0  0  0  0  0  0  0  0  0  0  0
  152.9109  140.7380  158.7265 H   0  0  0  0  0  0  0  0  0  0  0  0
  151.2026  144.5366  156.7390 H   0  0  0  0  0  0  0  0  0  0  0  0
  152.1681  146.2679  158.6096 H   0  0  0  0  0  0  0  0  0  0  0  0
  152.9517  144.5885  160.6701 H   0  0  0  0  0  0  0  0  0  0  0  0
  150.3623  141.6797  155.2639 H   0  0  0  0  0  0  0  0  0  0  0  0
  1  2  1  0  0  0  0
  1 16  1  0  0  0  0
  1 17  1  0  0  0  0
  1 18  1  0  0  0  0
  2  3  1  0  0  0  0
  2  9  1  0  0  0  0
  2 19  1  0  0  0  0
  3  4  1  0  0  0  0
  3 20  1  0  0  0  0
  3 37  1  0  0  0  0
  4  5  1  0  0  0  0
  4 21  1  0  0  0  0
  4 22  1  0  0  0  0
  5  6  1  0  0  0  0
  5  7  1  0  0  0  0
  5  8  1  0  0  0  0
  6 23  1  0  0  0  0
  6 24  1  0  0  0  0
  6 25  1  0  0  0  0
  7 26  1  0  0  0  0
  7 27  1  0  0  0  0
  7 28  1  0  0  0  0
  8 29  1  0  0  0  0
  9 10  1  0  0  0  0
  9 11  1  0  0  0  0
  9 30  1  0  0  0  0
 10 31  1  0  0  0  0
 10 32  1  0  0  0  0
 10 33  1  0  0  0  0
 11 15  1  0  0  0  0
 11 12  1  0  0  0  0
 12 13  2  0  0  0  0
 12 34  1  0  0  0  0
 13 14  1  0  0  0  0
 13 35  1  0  0  0  0
 14 15  2  0  0  0  0
 14 36  1  0  0  0  0
M  CHG  1   3   1
M  END
> <s_m_source_file>
AV-unprocessed.smi

> <i_m_source_file_index>
3117

> <i_lp_mmshare_version>
43012

> <i_f3d_flags>
0

> <s_epik_input>
W0NIM11DKFtDSDNdKShbT0hdKVtDSDJdW05IXVtDQEBIXShbQ0gzXSlbQ0BIXShbQ0gzXSluMVtjSF1bY0hdW2NIXW4x

> <s_epik_cmdline>
J2VwaWtfcHl0aG9uJywgJy1waCcsICc3LjAnLCAnLXRuJywgJzgnLCAnLW1hJywgJzIwMCcsICctbWV0YWxfYmluZGluZycsICctaW1hZScsICc8aW5maWxlLm1hZT4nLCAnLW9tYWUnLCAnPG91dGZpbGUubWFlPic=

> <r_lp_tautomer_probability>
1

> <r_epik_Ionization_Penalty>
0.0164263

> <r_epik_Ionization_Penalty_Charging>
0.0164138

> <r_epik_Ionization_Penalty_Neutral>
1.24697e-05

> <r_epik_State_Penalty>
0.0129543

> <r_epik_Charging_Adjusted_Penalty>
0.0293681

> <i_epik_Tot_Q>
1

> <i_epik_Tot_abs_Q>
1

> <r_epik_Metal_State_Penalty>
0.0129806

> <b_epik_Metal_Only>
0

> <s_lp_Force_Field>
OPLS_2005

> <r_lp_Energy>
12.2787

> <b_lp_Chiralities_Consistent>
1

> <s_lp_Variant>
AV-unprocessed.smi:3117-1

> <Gold.Version>
5.8.1

> <Gold.Id.Protein>
6NUR|6NUR_protein|mol2

> <Gold.PLP.Fitness>
44.7045

> <Gold.PLP.PLP>
-34.5085

> <Gold.PLP.part.hbond>
-3.2865

> <Gold.PLP.part.metal>
0.0000

> <Gold.PLP.part.buried>
-5.5203

> <Gold.PLP.part.nonpolar>
-26.2142

> <Gold.PLP.part.repulsive>
0.1227

> <Gold.PLP.ligand.clash>
0.0000

> <Gold.PLP.ligand.torsion>
1.7147

> <Gold.PLP.Chemscore.Hbond>
3.5012

> <Gold.PLP.Chemscore.CHOScore>
1.0000

> <Gold.PLP.Chemscore.Metal>
0.0000

> <Gold.Chemscore.Hbonds>
donor molecule, donor type, donor heavy atom, donor atom, acceptor molecule, acceptor atom, score
      L1  H     3    20       P1  8028  1.86
      L1  H     8    29       P1  7957  0.75
      P1  H  7989  7998       L1     8  0.01
      P1  H  8011  8017       L1     8  0.64
      L1  C    12    34       P1  8028  1.00

> <Gold.PLP.Chemscore.Internal.Correction>
0.1218

> <Gold.Rescore>
     Score         DG    S(hbond)    S(metal)    S(lipo)     H(rot)  DE(clash)    DE(int)     intcor
     14.35     -16.23       1.95        0.00      85.86       2.27       0.15       1.74       ----

> <Gold.Chemscore.Fitness>
14.3493

> <Gold.Chemscore.DG>
-16.2337

> <Gold.Chemscore.ZeroCoef>
-5.4800

> <Gold.Chemscore.Hbond>
1.9540

> <Gold.Chemscore.Metal>
0.0000

> <Gold.Chemscore.Lipo>
85.8554

> <Gold.Chemscore.Internal_Hbond>
0.0000

> <Gold.Chemscore.DEClash>
0.1486

> <Gold.Chemscore.DEInternal>
1.7358

> <Gold.Chemscore.Rot>
2.2725

> <Gold.Chemscore.Internal.Correction>
   9.000000E+99

> <Gold.Chemscore.Hbonds>
donor molecule, donor type, donor heavy atom, donor atom, acceptor molecule, acceptor atom, score
      L1  H     3    20       P1  8028  0.90
      L1  H     8    29       P1  7957  0.74
      P1  H  8011  8017       L1     8  0.05

> <Gold.Chemscore.Hbond.Weighted>
-6.5262

> <Gold.Chemscore.Metal.Weighted>
-0.0000

> <Gold.Chemscore.Lipo.Weighted>
-10.0451

> <Gold.Chemscore.Internal_Hbond.Weighted>
0.0000

> <Gold.Chemscore.DEClash.Weighted>
0.1486

> <Gold.Chemscore.DEInternal.Weighted>
1.7358

> <Gold.Chemscore.Rot.Weighted>
5.8176

> <Gold.Chemscore.Internal.Correction.Weighted>
   9.000000E+99

> <Gold.Protein.RotatedTorsions>
[ 6907 6896 6895 6894 ] final  -31.82 input  -60.11 | X-H torsion
[ 7974 7965 7964 7962 ] final   95.74 input  175.53 | X-H torsion
[ 8008 7997 7996 7995 ] final  127.34 input   59.86 | X-H torsion
[ 10167 10162 10161 10158 ] final   11.23 input  -65.29 | X-H torsion
[ 10718 10713 10712 10709 ] final  -73.68 input   66.30 | X-H torsion
[ 10763 10752 10751 10750 ] final  156.53 input  -60.55 | X-H torsion
[ 11005 11000 10999 10996 ] final -132.22 input  -57.11 | X-H torsion

> <Gold.Protein.ActiveResidues>
 VAL166  LYS551  ARG553  GLY616  TRP617  ASP618  TYR619  PRO620  LYS621  CYS622 
 ASP623  PHE694  ASN695  SER759  ASP760  ASP761  ALA762  ILE779  LEU786  VAL792 
 PHE793  MET794  SER795  GLU796  ALA797  LYS798  CYS799  TRP800  GLU811  SER814 

> <Gold.Protein.RotatedAtoms>
  151.0869  134.9893  159.8383 H   0  0  0  0  0  0  0  0  0  0  0  0  # atno 6907 bound_to 6896
  152.5425  134.2112  159.8761 H   0  0  0  0  0  0  0  0  0  0  0  0  # atno 6908 bound_to 6896
  151.2146  133.4492  159.2632 H   0  0  0  0  0  0  0  0  0  0  0  0  # atno 6909 bound_to 6896
  145.4482  139.2295  143.3054 H   0  0  0  0  0  0  0  0  0  0  0  0  # atno 7974 bound_to 7965
  156.2888  140.2671  156.2258 H   0  0  0  0  0  0  0  0  0  0  0  0  # atno 8008 bound_to 7997
  155.0122  140.0387  157.2422 H   0  0  0  0  0  0  0  0  0  0  0  0  # atno 8009 bound_to 7997
  154.7508  140.2742  155.6299 H   0  0  0  0  0  0  0  0  0  0  0  0  # atno 8010 bound_to 7997
  140.6144  143.8338  150.7102 H   0  0  0  0  0  0  0  0  0  0  0  0  # atno 10167 bound_to 10162
  156.0271  130.4399  150.2778 H   0  0  0  0  0  0  0  0  0  0  0  0  # atno 10718 bound_to 10713
  154.1859  135.2797  155.3037 H   0  0  0  0  0  0  0  0  0  0  0  0  # atno 10763 bound_to 10752
  154.5967  135.5543  153.7336 H   0  0  0  0  0  0  0  0  0  0  0  0  # atno 10764 bound_to 10752
  153.0125  135.6381  154.1997 H   0  0  0  0  0  0  0  0  0  0  0  0  # atno 10765 bound_to 10752
  140.9190  134.1469  157.4329 H   0  0  0  0  0  0  0  0  0  0  0  0  # atno 11005 bound_to 11000
  146.2519  140.5238  142.8890 LP  0  0  0  0  0  0  0  0  0  0  0  0  # atno 17320 bound_to 7965
  144.8078  140.6332  143.6435 LP  0  0  0  0  0  0  0  0  0  0  0  0  # atno 17321 bound_to 7965
  140.1914  143.4033  152.1860 LP  0  0  0  0  0  0  0  0  0  0  0  0  # atno 17342 bound_to 10162
  139.5387  144.7235  151.4806 LP  0  0  0  0  0  0  0  0  0  0  0  0  # atno 17343 bound_to 10162
  157.0882  131.0162  151.3131 LP  0  0  0  0  0  0  0  0  0  0  0  0  # atno 17370 bound_to 10713
  157.4875  130.7802  149.7474 LP  0  0  0  0  0  0  0  0  0  0  0  0  # atno 17371 bound_to 10713
  139.8771  134.9964  156.5794 LP  0  0  0  0  0  0  0  0  0  0  0  0  # atno 17394 bound_to 11000
  140.8013  133.8503  155.8729 LP  0  0  0  0  0  0  0  0  0  0  0  0  # atno 17395 bound_to 11000

$$$$
