AV-unprocessed.smi:243|AV-procd|sdf|1856|dock9
  -GOLD-   2262020483D 1   1.00000     0.00000
 Structure written by MMmdl.
 58 61  0  0  0  0  0  0  0  0  2 V2000
  145.4556  135.8805  151.7057 C   0  0  0  0  0  0  0  0  0  0  0  0
  144.4823  137.0064  152.0850 C   0  0  0  0  0  0  0  0  0  0  0  0
  145.1761  138.2164  152.5950 N   0  3  2  0  0  0  0  0  0  0  0  0
  146.4895  138.4254  151.9361 C   0  0  0  0  0  0  0  0  0  0  0  0
  147.1019  139.7707  152.3483 C   0  0  0  0  0  0  0  0  0  0  0  0
  147.2411  139.8744  153.8829 C   0  0  1  0  0  0  0  0  0  0  0  0
  147.8869  141.1237  154.3153 N   0  0  0  0  0  0  0  0  0  0  0  0
  147.4460  142.3744  153.7084 C   0  0  0  0  0  0  0  0  0  0  0  0
  148.4002  141.2795  155.5634 C   0  0  0  0  0  0  0  0  0  0  0  0
  147.7287  142.0015  156.4978 N   0  0  0  0  0  0  0  0  0  0  0  0
  148.2391  142.1626  157.7223 C   0  0  0  0  0  0  0  0  0  0  0  0
  149.3868  141.6947  158.2157 N   0  0  0  0  0  0  0  0  0  0  0  0
  150.0686  140.9722  157.2815 C   0  0  0  0  0  0  0  0  0  0  0  0
  149.6513  140.7190  155.9445 C   0  0  0  0  0  0  0  0  0  0  0  0
  150.5952  139.9327  155.2955 N   0  0  0  0  0  0  0  0  0  0  0  0
  151.5189  139.7351  156.1957 C   0  0  0  0  0  0  0  0  0  0  0  0
  151.2883  140.3312  157.4154 N   0  0  0  0  0  0  0  0  0  0  0  0
  152.1423  140.2747  158.5923 C   0  0  0  0  0  0  0  0  0  0  0  0
  152.4478  138.8352  159.0704 C   0  0  1  0  0  0  0  0  0  0  0  0
  153.5097  138.3031  158.2971 O   0  0  0  0  0  0  0  0  0  0  0  0
  152.8485  138.7744  160.5391 C   0  0  0  0  0  0  0  0  0  0  0  0
  152.3904  137.3833  160.9556 C   0  0  0  0  0  0  0  0  0  0  0  0
  151.1530  137.2435  160.2788 O   0  0  0  0  0  0  0  0  0  0  0  0
  151.2540  137.8604  158.9982 C   0  0  0  0  0  0  0  0  0  0  0  0
  145.8855  139.5781  154.5795 C   0  0  2  0  0  0  0  0  0  0  0  0
  146.0127  139.5483  156.1134 C   0  0  0  0  0  0  0  0  0  0  0  0
  145.3095  138.2383  154.0754 C   0  0  0  0  0  0  0  0  0  0  0  0
  144.9082  134.9757  151.4403 H   0  0  0  0  0  0  0  0  0  0  0  0
  146.1167  135.6330  152.5367 H   0  0  0  0  0  0  0  0  0  0  0  0
  146.0743  136.1428  150.8482 H   0  0  0  0  0  0  0  0  0  0  0  0
  143.8458  137.2675  151.2383 H   0  0  0  0  0  0  0  0  0  0  0  0
  143.8199  136.6206  152.8611 H   0  0  0  0  0  0  0  0  0  0  0  0
  147.1640  137.6067  152.1931 H   0  0  0  0  0  0  0  0  0  0  0  0
  146.3684  138.4086  150.8522 H   0  0  0  0  0  0  0  0  0  0  0  0
  148.0767  139.8830  151.8727 H   0  0  0  0  0  0  0  0  0  0  0  0
  146.4767  140.5715  151.9559 H   0  0  0  0  0  0  0  0  0  0  0  0
  147.9220  139.0788  154.1895 H   0  0  0  0  0  0  0  0  0  0  0  0
  146.8788  142.9750  154.4209 H   0  0  0  0  0  0  0  0  0  0  0  0
  146.8074  142.1894  152.8446 H   0  0  0  0  0  0  0  0  0  0  0  0
  148.2995  142.9600  153.3673 H   0  0  0  0  0  0  0  0  0  0  0  0
  147.6437  142.7512  158.4043 H   0  0  0  0  0  0  0  0  0  0  0  0
  152.3986  139.1422  155.9920 H   0  0  0  0  0  0  0  0  0  0  0  0
  153.0711  140.8004  158.3664 H   0  0  0  0  0  0  0  0  0  0  0  0
  151.6586  140.8410  159.3892 H   0  0  0  0  0  0  0  0  0  0  0  0
  153.1427  137.8642  157.5450 H   0  0  0  0  0  0  0  0  0  0  0  0
  153.9115  138.9472  160.7126 H   0  0  0  0  0  0  0  0  0  0  0  0
  152.2934  139.5173  161.1136 H   0  0  0  0  0  0  0  0  0  0  0  0
  153.0880  136.6197  160.6080 H   0  0  0  0  0  0  0  0  0  0  0  0
  152.2741  137.2805  162.0346 H   0  0  0  0  0  0  0  0  0  0  0  0
  150.3130  138.3719  158.7992 H   0  0  0  0  0  0  0  0  0  0  0  0
  151.3839  137.1024  158.2242 H   0  0  0  0  0  0  0  0  0  0  0  0
  145.1630  140.3519  154.3210 H   0  0  0  0  0  0  0  0  0  0  0  0
  146.7311  138.7943  156.4366 H   0  0  0  0  0  0  0  0  0  0  0  0
  145.0556  139.3170  156.5815 H   0  0  0  0  0  0  0  0  0  0  0  0
  146.3398  140.5089  156.5108 H   0  0  0  0  0  0  0  0  0  0  0  0
  144.3364  138.0810  154.5393 H   0  0  0  0  0  0  0  0  0  0  0  0
  145.9446  137.4096  154.3931 H   0  0  0  0  0  0  0  0  0  0  0  0
  144.6012  139.0060  152.3372 H   0  0  0  0  0  0  0  0  0  0  0  0
  1  2  1  0  0  0  0
  1 28  1  0  0  0  0
  1 29  1  0  0  0  0
  1 30  1  0  0  0  0
  2  3  1  0  0  0  0
  2 31  1  0  0  0  0
  2 32  1  0  0  0  0
  3 27  1  0  0  0  0
  3  4  1  0  0  0  0
  3 58  1  0  0  0  0
  4  5  1  0  0  0  0
  4 33  1  0  0  0  0
  4 34  1  0  0  0  0
  5  6  1  0  0  0  0
  5 35  1  0  0  0  0
  5 36  1  0  0  0  0
  6  7  1  0  0  0  0
  6 25  1  0  0  0  0
  6 37  1  0  0  0  0
  7  8  1  0  0  0  0
  7  9  1  0  0  0  0
  8 38  1  0  0  0  0
  8 39  1  0  0  0  0
  8 40  1  0  0  0  0
  9 14  1  0  0  0  0
  9 10  2  0  0  0  0
 10 11  1  0  0  0  0
 11 12  2  0  0  0  0
 11 41  1  0  0  0  0
 12 13  1  0  0  0  0
 13 17  1  0  0  0  0
 13 14  2  0  0  0  0
 14 15  1  0  0  0  0
 15 16  2  0  0  0  0
 16 17  1  0  0  0  0
 16 42  1  0  0  0  0
 17 18  1  0  0  0  0
 18 19  1  0  0  0  0
 18 43  1  0  0  0  0
 18 44  1  0  0  0  0
 19 24  1  0  0  0  0
 19 20  1  0  0  0  0
 19 21  1  0  0  0  0
 20 45  1  0  0  0  0
 21 22  1  0  0  0  0
 21 46  1  0  0  0  0
 21 47  1  0  0  0  0
 22 23  1  0  0  0  0
 22 48  1  0  0  0  0
 22 49  1  0  0  0  0
 23 24  1  0  0  0  0
 24 50  1  0  0  0  0
 24 51  1  0  0  0  0
 25 26  1  0  0  0  0
 25 27  1  0  0  0  0
 25 52  1  0  0  0  0
 26 53  1  0  0  0  0
 26 54  1  0  0  0  0
 26 55  1  0  0  0  0
 27 56  1  0  0  0  0
 27 57  1  0  0  0  0
M  CHG  1   3   1
M  END
> <s_m_source_file>
AV-unprocessed.smi

> <i_m_source_file_index>
243

> <i_lp_mmshare_version>
43012

> <i_f3d_flags>
0

> <s_epik_input>
W0NIM11bQ0gyXU4xW0NIMl1bQ0gyXVtDQEhdKFtDQEBIXShbQ0gzXSlbQ0gyXTEpTihbQ0gzXSljKG5bY0hdbjIpYyhjMjMpbltjSF1uM1tDSDJdW0NAQF00KFtPSF0pW0NIMl1bQ0gyXU9bQ0gyXTQ=

> <s_epik_cmdline>
J2VwaWtfcHl0aG9uJywgJy1waCcsICc3LjAnLCAnLXRuJywgJzgnLCAnLW1hJywgJzIwMCcsICctbWV0YWxfYmluZGluZycsICctaW1hZScsICc8aW5maWxlLm1hZT4nLCAnLW9tYWUnLCAnPG91dGZpbGUubWFlPic=

> <r_lp_tautomer_probability>
1

> <r_epik_Ionization_Penalty>
0.00253099

> <r_epik_Ionization_Penalty_Charging>
0.00137877

> <r_epik_Ionization_Penalty_Neutral>
0.00115221

> <r_epik_State_Penalty>
-0

> <r_epik_Charging_Adjusted_Penalty>
0.00137877

> <i_epik_Tot_Q>
1

> <i_epik_Tot_abs_Q>
1

> <r_epik_Metal_State_Penalty>
-0

> <b_epik_Metal_Only>
0

> <s_lp_Force_Field>
OPLS_2005

> <r_lp_Energy>
45.5206

> <b_lp_Chiralities_Consistent>
1

> <s_lp_Variant>
AV-unprocessed.smi:243-9

> <Gold.Version>
5.8.1

> <Gold.Id.Protein>
6NUR|6NUR_protein|mol2

> <Gold.PLP.Fitness>
51.3085

> <Gold.PLP.PLP>
-39.8325

> <Gold.PLP.part.hbond>
-4.6034

> <Gold.PLP.part.metal>
0.0000

> <Gold.PLP.part.buried>
-2.7311

> <Gold.PLP.part.nonpolar>
-34.5339

> <Gold.PLP.part.repulsive>
0.2555

> <Gold.PLP.ligand.clash>
0.0034

> <Gold.PLP.ligand.torsion>
2.2307

> <Gold.PLP.Chemscore.Hbond>
4.9913

> <Gold.PLP.Chemscore.CHOScore>
0.0000

> <Gold.PLP.Chemscore.Metal>
0.0000

> <Gold.Chemscore.Hbonds>
donor molecule, donor type, donor heavy atom, donor atom, acceptor molecule, acceptor atom, score
      L1  H     3    58       P1 10175  2.00
      P1  H  6896  6908       L1    23  0.43
      P1  H  7989  7998       L1    15  0.39
      P1  H  7997  8008       L1    20  0.09

> <Gold.PLP.Chemscore.Internal.Correction>
0.9671

> <Gold.Rescore>
     Score         DG    S(hbond)    S(metal)    S(lipo)     H(rot)  DE(clash)    DE(int)     intcor
     13.94     -16.78       2.58        0.00      72.01       2.24       0.03       2.82       ----

> <Gold.Chemscore.Fitness>
13.9376

> <Gold.Chemscore.DG>
-16.7841

> <Gold.Chemscore.ZeroCoef>
-5.4800

> <Gold.Chemscore.Hbond>
2.5773

> <Gold.Chemscore.Metal>
0.0000

> <Gold.Chemscore.Lipo>
72.0095

> <Gold.Chemscore.Internal_Hbond>
0.0000

> <Gold.Chemscore.DEClash>
0.0274

> <Gold.Chemscore.DEInternal>
2.8191

> <Gold.Chemscore.Rot>
2.2379

> <Gold.Chemscore.Internal.Correction>
   9.000000E+99

> <Gold.Chemscore.Hbonds>
donor molecule, donor type, donor heavy atom, donor atom, acceptor molecule, acceptor atom, score
      L1  H     3    58       P1 10175  1.00
      P1  H  6896  6908       L1    23  0.01
      P1  H  7989  7998       L1    15  0.20
      P1  H  7997  8008       L1    20  0.02

> <Gold.Chemscore.Hbond.Weighted>
-8.6081

> <Gold.Chemscore.Metal.Weighted>
-0.0000

> <Gold.Chemscore.Lipo.Weighted>
-8.4251

> <Gold.Chemscore.Internal_Hbond.Weighted>
0.0000

> <Gold.Chemscore.DEClash.Weighted>
0.0274

> <Gold.Chemscore.DEInternal.Weighted>
2.8191

> <Gold.Chemscore.Rot.Weighted>
5.7291

> <Gold.Chemscore.Internal.Correction.Weighted>
   9.000000E+99

> <Gold.Protein.RotatedTorsions>
[ 6907 6896 6895 6894 ] final -123.20 input  -60.11 | X-H torsion
[ 7974 7965 7964 7962 ] final   52.19 input  175.53 | X-H torsion
[ 8008 7997 7996 7995 ] final  -94.87 input   59.86 | X-H torsion
[ 10167 10162 10161 10158 ] final   92.19 input  -65.29 | X-H torsion
[ 10718 10713 10712 10709 ] final  -98.53 input   66.30 | X-H torsion
[ 10763 10752 10751 10750 ] final -142.08 input  -60.55 | X-H torsion
[ 11005 11000 10999 10996 ] final  -44.46 input  -57.11 | X-H torsion

> <Gold.Protein.ActiveResidues>
 VAL166  LYS551  ARG553  GLY616  TRP617  ASP618  TYR619  PRO620  LYS621  CYS622 
 ASP623  PHE694  ASN695  SER759  ASP760  ASP761  ALA762  ILE779  LEU786  VAL792 
 PHE793  MET794  SER795  GLU796  ALA797  LYS798  CYS799  TRP800  GLU811  SER814 

> <Gold.Protein.RotatedAtoms>
  150.8648  133.7591  159.2980 H   0  0  0  0  0  0  0  0  0  0  0  0  # atno 6907 bound_to 6896
  151.5222  135.1066  159.9891 H   0  0  0  0  0  0  0  0  0  0  0  0  # atno 6908 bound_to 6896
  152.4653  133.7864  159.6934 H   0  0  0  0  0  0  0  0  0  0  0  0  # atno 6909 bound_to 6896
  145.9838  139.4269  143.0115 H   0  0  0  0  0  0  0  0  0  0  0  0  # atno 7974 bound_to 7965
  154.7541  140.0485  157.0918 H   0  0  0  0  0  0  0  0  0  0  0  0  # atno 8008 bound_to 7997
  155.0021  140.3126  155.4844 H   0  0  0  0  0  0  0  0  0  0  0  0  # atno 8009 bound_to 7997
  156.2891  140.2199  156.5131 H   0  0  0  0  0  0  0  0  0  0  0  0  # atno 8010 bound_to 7997
  139.8300  144.6691  150.9411 H   0  0  0  0  0  0  0  0  0  0  0  0  # atno 10167 bound_to 10162
  156.0110  130.5242  150.6537 H   0  0  0  0  0  0  0  0  0  0  0  0  # atno 10718 bound_to 10713
  154.8522  135.3506  154.5971 H   0  0  0  0  0  0  0  0  0  0  0  0  # atno 10763 bound_to 10752
  153.6580  135.6991  153.5191 H   0  0  0  0  0  0  0  0  0  0  0  0  # atno 10764 bound_to 10752
  153.2841  135.4255  155.1063 H   0  0  0  0  0  0  0  0  0  0  0  0  # atno 10765 bound_to 10752
  141.0452  133.6764  156.2876 H   0  0  0  0  0  0  0  0  0  0  0  0  # atno 11005 bound_to 11000
  145.7730  140.9888  143.1139 LP  0  0  0  0  0  0  0  0  0  0  0  0  # atno 17320 bound_to 7965
  144.6869  139.9471  143.7477 LP  0  0  0  0  0  0  0  0  0  0  0  0  # atno 17321 bound_to 7965
  140.7807  143.4009  151.1150 LP  0  0  0  0  0  0  0  0  0  0  0  0  # atno 17342 bound_to 10162
  139.7664  143.8559  152.3111 LP  0  0  0  0  0  0  0  0  0  0  0  0  # atno 17343 bound_to 10162
  157.4293  131.0847  151.1054 LP  0  0  0  0  0  0  0  0  0  0  0  0  # atno 17370 bound_to 10713
  157.1632  130.6235  149.5617 LP  0  0  0  0  0  0  0  0  0  0  0  0  # atno 17371 bound_to 10713
  140.6160  134.5410  157.5540 LP  0  0  0  0  0  0  0  0  0  0  0  0  # atno 17394 bound_to 11000
  139.9306  134.7971  156.0941 LP  0  0  0  0  0  0  0  0  0  0  0  0  # atno 17395 bound_to 11000

$$$$
