AV-unprocessed.smi:1356|AV-procd|sdf|5547|dock1
  -GOLD-   22720 5133D 1   1.00000     0.00000
 Structure written by MMmdl.
 42 43  0  0  0  0  0  0  0  0  2 V2000
  146.6413  132.5205  152.7148 C   0  0  0  0  0  0  0  0  0  0  0  0
  147.4017  132.6925  154.0120 C   0  0  1  0  0  0  0  0  0  0  0  0
  148.5788  131.8071  154.3424 C   0  0  0  0  0  0  0  0  0  0  0  0
  148.8057  133.2674  154.0071 C   0  0  2  0  0  0  0  0  0  0  0  0
  149.1880  134.1809  155.1258 C   0  0  0  0  0  0  0  0  0  0  0  0
  149.2570  133.8144  156.3002 O   0  0  0  0  0  0  0  0  0  0  0  0
  149.4535  135.4372  154.7361 N   0  0  0  0  0  0  0  0  0  0  0  0
  149.8602  136.5221  155.6221 C   0  0  0  0  0  0  0  0  0  0  0  0
  149.2289  137.8616  155.1964 C   0  0  0  0  0  0  0  0  0  0  0  0
  150.1717  139.0523  155.3902 C   0  0  0  0  0  0  0  0  0  0  0  0
  150.7513  139.5561  154.4277 O   0  0  0  0  0  0  0  0  0  0  0  0
  150.3222  139.4912  156.6494 N   0  0  0  0  0  0  0  0  0  0  0  0
  151.1807  140.5982  157.0541 C   0  0  0  0  0  0  0  0  0  0  0  0
  150.4477  141.9478  156.9712 C   0  0  0  0  0  0  0  0  0  0  0  0
  151.0814  142.9981  157.8621 C   0  0  0  0  0  0  0  0  0  0  0  0
  152.0459  142.6707  158.8399 C   0  0  0  0  0  0  0  0  0  0  0  0
  152.5883  143.6958  159.6427 C   0  0  0  0  0  0  0  0  0  0  0  0
  152.1552  145.0244  159.4518 C   0  0  0  0  0  0  0  0  0  0  0  0
  151.1887  145.2947  158.4616 C   0  0  0  0  0  0  0  0  0  0  0  0
  150.6926  144.2851  157.7128 N   0  3  0  0  0  0  0  0  0  0  0  0
  147.3159  132.2452  151.9034 H   0  0  0  0  0  0  0  0  0  0  0  0
  146.1394  133.4511  152.4492 H   0  0  0  0  0  0  0  0  0  0  0  0
  145.8901  131.7381  152.8226 H   0  0  0  0  0  0  0  0  0  0  0  0
  146.7607  132.9591  154.8507 H   0  0  0  0  0  0  0  0  0  0  0  0
  148.6874  131.4866  155.3772 H   0  0  0  0  0  0  0  0  0  0  0  0
  148.8997  131.0771  153.6018 H   0  0  0  0  0  0  0  0  0  0  0  0
  149.2476  133.4808  153.0347 H   0  0  0  0  0  0  0  0  0  0  0  0
  149.3705  135.6566  153.7539 H   0  0  0  0  0  0  0  0  0  0  0  0
  149.5457  136.2611  156.6332 H   0  0  0  0  0  0  0  0  0  0  0  0
  150.9492  136.5965  155.6453 H   0  0  0  0  0  0  0  0  0  0  0  0
  148.9305  137.8125  154.1478 H   0  0  0  0  0  0  0  0  0  0  0  0
  148.3203  138.0447  155.7709 H   0  0  0  0  0  0  0  0  0  0  0  0
  149.8104  139.0171  157.3799 H   0  0  0  0  0  0  0  0  0  0  0  0
  151.5068  140.4120  158.0776 H   0  0  0  0  0  0  0  0  0  0  0  0
  152.0823  140.6142  156.4390 H   0  0  0  0  0  0  0  0  0  0  0  0
  150.4430  142.3141  155.9438 H   0  0  0  0  0  0  0  0  0  0  0  0
  149.4023  141.8244  157.2575 H   0  0  0  0  0  0  0  0  0  0  0  0
  152.3651  141.6474  158.9760 H   0  0  0  0  0  0  0  0  0  0  0  0
  153.3271  143.4654  160.3963 H   0  0  0  0  0  0  0  0  0  0  0  0
  152.5578  145.8240  160.0567 H   0  0  0  0  0  0  0  0  0  0  0  0
  150.7998  146.2797  158.2480 H   0  0  0  0  0  0  0  0  0  0  0  0
  149.9933  144.5033  157.0025 H   0  0  0  0  0  0  0  0  0  0  0  0
  1  2  1  0  0  0  0
  1 21  1  0  0  0  0
  1 22  1  0  0  0  0
  1 23  1  0  0  0  0
  2  4  1  0  0  0  0
  2  3  1  0  0  0  0
  2 24  1  0  0  0  0
  3  4  1  0  0  0  0
  3 25  1  0  0  0  0
  3 26  1  0  0  0  0
  4  5  1  0  0  0  0
  4 27  1  0  0  0  0
  5  6  2  0  0  0  0
  5  7  1  0  0  0  0
  7  8  1  0  0  0  0
  7 28  1  0  0  0  0
  8  9  1  0  0  0  0
  8 29  1  0  0  0  0
  8 30  1  0  0  0  0
  9 10  1  0  0  0  0
  9 31  1  0  0  0  0
  9 32  1  0  0  0  0
 10 11  2  0  0  0  0
 10 12  1  0  0  0  0
 12 13  1  0  0  0  0
 12 33  1  0  0  0  0
 13 14  1  0  0  0  0
 13 34  1  0  0  0  0
 13 35  1  0  0  0  0
 14 15  1  0  0  0  0
 14 36  1  0  0  0  0
 14 37  1  0  0  0  0
 15 20  1  0  0  0  0
 15 16  2  0  0  0  0
 16 17  1  0  0  0  0
 16 38  1  0  0  0  0
 17 18  2  0  0  0  0
 17 39  1  0  0  0  0
 18 19  1  0  0  0  0
 18 40  1  0  0  0  0
 19 20  2  0  0  0  0
 19 41  1  0  0  0  0
 20 42  1  0  0  0  0
M  CHG  1  20   1
M  END
> <s_m_source_file>
AV-unprocessed.smi

> <i_m_source_file_index>
1356

> <i_lp_mmshare_version>
43012

> <i_f3d_flags>
0

> <s_epik_input>
W0NIM11bQ0BASF0xW0NIMl1bQ0BIXTFDKD1PKVtOSF1bQ0gyXVtDSDJdQyg9TylbTkhdW0NIMl1bQ0gyXWMyW2NIXVtjSF1bY0hdW2NIXW4y

> <s_epik_cmdline>
J2VwaWtfcHl0aG9uJywgJy1waCcsICc3LjAnLCAnLXRuJywgJzgnLCAnLW1hJywgJzIwMCcsICctbWV0YWxfYmluZGluZycsICctaW1hZScsICc8aW5maWxlLm1hZT4nLCAnLW9tYWUnLCAnPG91dGZpbGUubWFlPic=

> <r_epik_Ionization_Penalty>
1.86966

> <r_epik_Ionization_Penalty_Charging>
1.86966

> <r_epik_Ionization_Penalty_Neutral>
5.0403e-08

> <r_epik_State_Penalty>
1.98858

> <r_epik_Charging_Adjusted_Penalty>
3.85824

> <i_epik_Tot_Q>
1

> <i_epik_Tot_abs_Q>
1

> <r_epik_Metal_State_Penalty>
2.01347

> <b_epik_Metal_Only>
0

> <s_lp_Force_Field>
OPLS_2005

> <r_lp_Energy>
12.6209

> <b_lp_Chiralities_Consistent>
1

> <s_lp_Variant>
AV-unprocessed.smi:1356-8

> <Gold.Version>
5.8.1

> <Gold.Id.Protein>
6NUR|6NUR_protein|mol2

> <Gold.PLP.Fitness>
51.8693

> <Gold.PLP.PLP>
-41.8540

> <Gold.PLP.part.hbond>
-3.5778

> <Gold.PLP.part.metal>
0.0000

> <Gold.PLP.part.buried>
-5.3828

> <Gold.PLP.part.nonpolar>
-34.1102

> <Gold.PLP.part.repulsive>
0.2824

> <Gold.PLP.ligand.clash>
0.0000

> <Gold.PLP.ligand.torsion>
1.0967

> <Gold.PLP.Chemscore.Hbond>
3.9500

> <Gold.PLP.Chemscore.CHOScore>
0.0000

> <Gold.PLP.Chemscore.Metal>
0.0000

> <Gold.Chemscore.Hbonds>
donor molecule, donor type, donor heavy atom, donor atom, acceptor molecule, acceptor atom, score
      L1  H     7    28       P1  7948  1.00
      L1  H    20    42       P1  8028  2.00
      P1  H  7989  7998       L1    11  1.00

> <Gold.PLP.Chemscore.Internal.Correction>
0.3588

> <Gold.Rescore>
     Score         DG    S(hbond)    S(metal)    S(lipo)     H(rot)  DE(clash)    DE(int)     intcor
     19.38     -20.62       2.88        0.00      97.94       2.31       0.03       1.21       ----

> <Gold.Chemscore.Fitness>
19.3825

> <Gold.Chemscore.DG>
-20.6188

> <Gold.Chemscore.ZeroCoef>
-5.4800

> <Gold.Chemscore.Hbond>
2.8755

> <Gold.Chemscore.Metal>
0.0000

> <Gold.Chemscore.Lipo>
97.9366

> <Gold.Chemscore.Internal_Hbond>
0.0000

> <Gold.Chemscore.DEClash>
0.0282

> <Gold.Chemscore.DEInternal>
1.2081

> <Gold.Chemscore.Rot>
2.3140

> <Gold.Chemscore.Internal.Correction>
   9.000000E+99

> <Gold.Chemscore.Hbonds>
donor molecule, donor type, donor heavy atom, donor atom, acceptor molecule, acceptor atom, score
      L1  H     7    28       P1  7948  0.44
      L1  H    20    42       P1  8028  0.55
      P1  H  7989  7998       L1    11  1.00

> <Gold.Chemscore.Hbond.Weighted>
-9.6041

> <Gold.Chemscore.Metal.Weighted>
-0.0000

> <Gold.Chemscore.Lipo.Weighted>
-11.4586

> <Gold.Chemscore.Internal_Hbond.Weighted>
0.0000

> <Gold.Chemscore.DEClash.Weighted>
0.0282

> <Gold.Chemscore.DEInternal.Weighted>
1.2081

> <Gold.Chemscore.Rot.Weighted>
5.9238

> <Gold.Chemscore.Internal.Correction.Weighted>
   9.000000E+99

> <Gold.Protein.RotatedTorsions>
[ 6907 6896 6895 6894 ] final   23.85 input  -60.11 | X-H torsion
[ 7974 7965 7964 7962 ] final -133.68 input  175.53 | X-H torsion
[ 8008 7997 7996 7995 ] final  -63.71 input   59.86 | X-H torsion
[ 10167 10162 10161 10158 ] final   -9.04 input  -65.29 | X-H torsion
[ 10718 10713 10712 10709 ] final -178.40 input   66.30 | X-H torsion
[ 10763 10752 10751 10750 ] final  -85.95 input  -60.55 | X-H torsion
[ 11005 11000 10999 10996 ] final   38.42 input  -57.11 | X-H torsion

> <Gold.Protein.ActiveResidues>
 VAL166  LYS551  ARG553  GLY616  TRP617  ASP618  TYR619  PRO620  LYS621  CYS622 
 ASP623  PHE694  ASN695  SER759  ASP760  ASP761  ALA762  ILE779  LEU786  VAL792 
 PHE793  MET794  SER795  GLU796  ALA797  LYS798  CYS799  TRP800  GLU811  SER814 

> <Gold.Protein.RotatedAtoms>
  151.9485  135.0180  160.0540 H   0  0  0  0  0  0  0  0  0  0  0  0  # atno 6907 bound_to 6896
  152.1974  133.4811  159.5048 H   0  0  0  0  0  0  0  0  0  0  0  0  # atno 6908 bound_to 6896
  150.6947  134.1552  159.4198 H   0  0  0  0  0  0  0  0  0  0  0  0  # atno 6909 bound_to 6896
  144.9171  140.6968  143.4988 H   0  0  0  0  0  0  0  0  0  0  0  0  # atno 7974 bound_to 7965
  154.4570  140.0969  156.6784 H   0  0  0  0  0  0  0  0  0  0  0  0  # atno 8008 bound_to 7997
  155.5109  140.3476  155.4370 H   0  0  0  0  0  0  0  0  0  0  0  0  # atno 8009 bound_to 7997
  156.0796  140.1370  156.9717 H   0  0  0  0  0  0  0  0  0  0  0  0  # atno 8010 bound_to 7997
  140.7076  143.5902  150.8902 H   0  0  0  0  0  0  0  0  0  0  0  0  # atno 10167 bound_to 10162
  156.8437  130.9695  151.3098 H   0  0  0  0  0  0  0  0  0  0  0  0  # atno 10718 bound_to 10713
  154.6169  135.5467  153.7533 H   0  0  0  0  0  0  0  0  0  0  0  0  # atno 10763 bound_to 10752
  153.0220  135.6403  154.1497 H   0  0  0  0  0  0  0  0  0  0  0  0  # atno 10764 bound_to 10752
  154.1433  135.2907  155.3135 H   0  0  0  0  0  0  0  0  0  0  0  0  # atno 10765 bound_to 10752
  140.2128  134.3734  155.8041 H   0  0  0  0  0  0  0  0  0  0  0  0  # atno 11005 bound_to 11000
  145.3357  139.1746  143.4513 LP  0  0  0  0  0  0  0  0  0  0  0  0  # atno 17320 bound_to 7965
  146.3187  140.3392  142.8646 LP  0  0  0  0  0  0  0  0  0  0  0  0  # atno 17321 bound_to 7965
  139.9627  143.6145  152.2997 LP  0  0  0  0  0  0  0  0  0  0  0  0  # atno 17342 bound_to 10162
  139.6704  144.7661  151.1794 LP  0  0  0  0  0  0  0  0  0  0  0  0  # atno 17343 bound_to 10162
  157.6342  130.8753  149.9328 LP  0  0  0  0  0  0  0  0  0  0  0  0  # atno 17370 bound_to 10713
  156.0866  130.3667  150.0475 LP  0  0  0  0  0  0  0  0  0  0  0  0  # atno 17371 bound_to 10713
  141.2226  133.7152  156.8447 LP  0  0  0  0  0  0  0  0  0  0  0  0  # atno 17394 bound_to 11000
  140.1932  134.8950  157.3084 LP  0  0  0  0  0  0  0  0  0  0  0  0  # atno 17395 bound_to 11000

$$$$
