AV-unprocessed.smi:1898|AV-procd|sdf|7700|dock7
  -GOLD-   22720 9433D 1   1.00000     0.00000
 Structure written by MMmdl.
 46 47  0  0  0  0  0  0  0  0  1 V2000
  152.6467  142.7039  159.8015 C   0  0  0  0  0  0  0  0  0  0  0  0
  152.0657  142.6788  158.4683 N   0  0  0  0  0  0  0  0  0  0  0  0
  151.6720  141.5629  157.8375 C   0  0  0  0  0  0  0  0  0  0  0  0
  151.7528  140.4402  158.3351 O   0  0  0  0  0  0  0  0  0  0  0  0
  151.0930  141.7384  156.4286 C   0  0  0  0  0  0  0  0  0  0  0  0
  150.6715  140.4808  155.7669 N   0  0  0  0  0  0  0  0  0  0  0  0
  149.6844  139.8008  156.6127 C   0  0  0  0  0  0  0  0  0  0  0  0
  149.1299  138.5498  155.9082 C   0  0  0  0  0  0  0  0  0  0  0  0
  150.2570  137.5729  155.5459 C   0  0  0  0  0  0  0  0  0  0  0  0
  149.7193  136.4512  154.7812 N   0  0  0  0  0  0  0  0  0  0  0  0
  149.6945  135.1761  155.1945 C   0  0  0  0  0  0  0  0  0  0  0  0
  150.1277  134.8084  156.2864 O   0  0  0  0  0  0  0  0  0  0  0  0
  149.1602  134.3738  154.2585 N   0  0  0  0  0  0  0  0  0  0  0  0
  148.9809  132.9630  154.2937 C   0  0  0  0  0  0  0  0  0  0  0  0
  149.6752  132.1036  155.1796 C   0  0  0  0  0  0  0  0  0  0  0  0
  149.4081  130.7226  155.1415 C   0  0  0  0  0  0  0  0  0  0  0  0
  148.4503  130.2504  154.2259 C   0  0  0  0  0  0  0  0  0  0  0  0
  147.7704  131.0577  153.3863 N   0  0  0  0  0  0  0  0  0  0  0  0
  148.0266  132.3898  153.4208 C   0  0  0  0  0  0  0  0  0  0  0  0
  147.3254  133.2159  152.5630 O   0  0  0  0  0  0  0  0  0  0  0  0
  146.3710  132.6306  151.6839 C   0  0  0  0  0  0  0  0  0  0  0  0
  151.3267  138.3272  154.7396 C   0  0  0  0  0  0  0  0  0  0  0  0
  151.8037  139.5855  155.4856 C   0  0  0  0  0  0  0  0  0  0  0  0
  152.8864  143.7286  160.0844 H   0  0  0  0  0  0  0  0  0  0  0  0
  153.5659  142.1178  159.8339 H   0  0  0  0  0  0  0  0  0  0  0  0
  151.9501  142.3001  160.5373 H   0  0  0  0  0  0  0  0  0  0  0  0
  151.9667  143.5613  157.9870 H   0  0  0  0  0  0  0  0  0  0  0  0
  150.2484  142.4283  156.4780 H   0  0  0  0  0  0  0  0  0  0  0  0
  151.8575  142.2285  155.8236 H   0  0  0  0  0  0  0  0  0  0  0  0
  150.1292  139.5272  157.5713 H   0  0  0  0  0  0  0  0  0  0  0  0
  148.8567  140.4775  156.8297 H   0  0  0  0  0  0  0  0  0  0  0  0
  148.4024  138.0566  156.5541 H   0  0  0  0  0  0  0  0  0  0  0  0
  148.5909  138.8501  155.0083 H   0  0  0  0  0  0  0  0  0  0  0  0
  150.7009  137.1988  156.4706 H   0  0  0  0  0  0  0  0  0  0  0  0
  149.3454  136.6620  153.8675 H   0  0  0  0  0  0  0  0  0  0  0  0
  148.9204  134.8137  153.3819 H   0  0  0  0  0  0  0  0  0  0  0  0
  150.3935  132.4733  155.8945 H   0  0  0  0  0  0  0  0  0  0  0  0
  149.9223  130.0420  155.8038 H   0  0  0  0  0  0  0  0  0  0  0  0
  148.2192  129.1969  154.1708 H   0  0  0  0  0  0  0  0  0  0  0  0
  145.9031  133.4137  151.0875 H   0  0  0  0  0  0  0  0  0  0  0  0
  145.5806  132.1195  152.2354 H   0  0  0  0  0  0  0  0  0  0  0  0
  146.8413  131.9269  150.9957 H   0  0  0  0  0  0  0  0  0  0  0  0
  152.1790  137.6761  154.5423 H   0  0  0  0  0  0  0  0  0  0  0  0
  150.9266  138.6144  153.7659 H   0  0  0  0  0  0  0  0  0  0  0  0
  152.5489  140.0806  154.8631 H   0  0  0  0  0  0  0  0  0  0  0  0
  152.3041  139.3080  156.4151 H   0  0  0  0  0  0  0  0  0  0  0  0
  1  2  1  0  0  0  0
  1 24  1  0  0  0  0
  1 25  1  0  0  0  0
  1 26  1  0  0  0  0
  2  3  1  0  0  0  0
  2 27  1  0  0  0  0
  3  4  2  0  0  0  0
  3  5  1  0  0  0  0
  5  6  1  0  0  0  0
  5 28  1  0  0  0  0
  5 29  1  0  0  0  0
  6 23  1  0  0  0  0
  6  7  1  0  0  0  0
  7  8  1  0  0  0  0
  7 30  1  0  0  0  0
  7 31  1  0  0  0  0
  8  9  1  0  0  0  0
  8 32  1  0  0  0  0
  8 33  1  0  0  0  0
  9 10  1  0  0  0  0
  9 22  1  0  0  0  0
  9 34  1  0  0  0  0
 10 11  1  0  0  0  0
 10 35  1  0  0  0  0
 11 12  2  0  0  0  0
 11 13  1  0  0  0  0
 13 14  1  0  0  0  0
 13 36  1  0  0  0  0
 14 19  1  0  0  0  0
 14 15  2  0  0  0  0
 15 16  1  0  0  0  0
 15 37  1  0  0  0  0
 16 17  2  0  0  0  0
 16 38  1  0  0  0  0
 17 18  1  0  0  0  0
 17 39  1  0  0  0  0
 18 19  2  0  0  0  0
 19 20  1  0  0  0  0
 20 21  1  0  0  0  0
 21 40  1  0  0  0  0
 21 41  1  0  0  0  0
 21 42  1  0  0  0  0
 22 23  1  0  0  0  0
 22 43  1  0  0  0  0
 22 44  1  0  0  0  0
 23 45  1  0  0  0  0
 23 46  1  0  0  0  0
M  END
> <s_m_source_file>
AV-unprocessed.smi

> <i_m_source_file_index>
1898

> <i_lp_mmshare_version>
43012

> <i_f3d_flags>
0

> <s_epik_input>
W0NIM11bTkhdQyg9TylbQ0gyXU4xW0NIMl1bQ0gyXVtDSF0oW0NIMl1bQ0gyXTEpW05IXUMoPU8pW05IXWMyW2NIXVtjSF1bY0hdbmMyT1tDSDNd

> <s_epik_cmdline>
J2VwaWtfcHl0aG9uJywgJy1waCcsICc3LjAnLCAnLXRuJywgJzgnLCAnLW1hJywgJzIwMCcsICctbWV0YWxfYmluZGluZycsICctaW1hZScsICc8aW5maWxlLm1hZT4nLCAnLW9tYWUnLCAnPG91dGZpbGUubWFlPic=

> <r_lp_tautomer_probability>
1

> <r_epik_Ionization_Penalty>
0.16483

> <r_epik_Ionization_Penalty_Charging>
0

> <r_epik_Ionization_Penalty_Neutral>
0.16483

> <r_epik_State_Penalty>
0.154069

> <r_epik_Charging_Adjusted_Penalty>
0.154069

> <i_epik_Tot_Q>
0

> <i_epik_Tot_abs_Q>
0

> <r_epik_Metal_State_Penalty>
0.158584

> <b_epik_Metal_Only>
0

> <s_lp_Force_Field>
OPLS_2005

> <r_lp_Energy>
15.9116

> <b_lp_Chiralities_Consistent>
1

> <s_lp_Variant>
AV-unprocessed.smi:1898-1

> <Gold.Version>
5.8.1

> <Gold.Id.Protein>
6NUR|6NUR_protein|mol2

> <Gold.PLP.Fitness>
42.7638

> <Gold.PLP.PLP>
-37.4109

> <Gold.PLP.part.hbond>
-2.0000

> <Gold.PLP.part.metal>
0.0000

> <Gold.PLP.part.buried>
-6.1412

> <Gold.PLP.part.nonpolar>
-30.1851

> <Gold.PLP.part.repulsive>
1.0735

> <Gold.PLP.ligand.clash>
0.0000

> <Gold.PLP.ligand.torsion>
0.1180

> <Gold.PLP.Chemscore.Hbond>
1.8600

> <Gold.PLP.Chemscore.CHOScore>
0.0000

> <Gold.PLP.Chemscore.Metal>
0.0000

> <Gold.Chemscore.Hbonds>
donor molecule, donor type, donor heavy atom, donor atom, acceptor molecule, acceptor atom, score
      L1  H    10    35       P1  7948  0.91
      L1  H    13    36       P1  7948  0.98

> <Gold.PLP.Chemscore.Internal.Correction>
0.0089

> <Gold.Rescore>
     Score         DG    S(hbond)    S(metal)    S(lipo)     H(rot)  DE(clash)    DE(int)     intcor
      9.47     -12.55       1.17        0.00      69.92       1.96       0.03       3.05       ----

> <Gold.Chemscore.Fitness>
9.4704

> <Gold.Chemscore.DG>
-12.5516

> <Gold.Chemscore.ZeroCoef>
-5.4800

> <Gold.Chemscore.Hbond>
1.1736

> <Gold.Chemscore.Metal>
0.0000

> <Gold.Chemscore.Lipo>
69.9209

> <Gold.Chemscore.Internal_Hbond>
0.0000

> <Gold.Chemscore.DEClash>
0.0303

> <Gold.Chemscore.DEInternal>
3.0509

> <Gold.Chemscore.Rot>
1.9645

> <Gold.Chemscore.Internal.Correction>
   9.000000E+99

> <Gold.Chemscore.Hbonds>
donor molecule, donor type, donor heavy atom, donor atom, acceptor molecule, acceptor atom, score
      L1  H    10    35       P1  7948  0.80
      L1  H    13    36       P1  7948  0.23

> <Gold.Chemscore.Hbond.Weighted>
-3.9199

> <Gold.Chemscore.Metal.Weighted>
-0.0000

> <Gold.Chemscore.Lipo.Weighted>
-8.1807

> <Gold.Chemscore.Internal_Hbond.Weighted>
0.0000

> <Gold.Chemscore.DEClash.Weighted>
0.0303

> <Gold.Chemscore.DEInternal.Weighted>
3.0509

> <Gold.Chemscore.Rot.Weighted>
5.0290

> <Gold.Chemscore.Internal.Correction.Weighted>
   9.000000E+99

> <Gold.Protein.RotatedTorsions>
[ 6907 6896 6895 6894 ] final  -38.90 input  -60.11 | X-H torsion
[ 7974 7965 7964 7962 ] final -162.97 input  175.53 | X-H torsion
[ 8008 7997 7996 7995 ] final  131.76 input   59.86 | X-H torsion
[ 10167 10162 10161 10158 ] final  129.11 input  -65.29 | X-H torsion
[ 10718 10713 10712 10709 ] final    6.58 input   66.30 | X-H torsion
[ 10763 10752 10751 10750 ] final -161.73 input  -60.55 | X-H torsion
[ 11005 11000 10999 10996 ] final  141.15 input  -57.11 | X-H torsion

> <Gold.Protein.ActiveResidues>
 VAL166  LYS551  ARG553  GLY616  TRP617  ASP618  TYR619  PRO620  LYS621  CYS622 
 ASP623  PHE694  ASN695  SER759  ASP760  ASP761  ALA762  ILE779  LEU786  VAL792 
 PHE793  MET794  SER795  GLU796  ALA797  LYS798  CYS799  TRP800  GLU811  SER814 

> <Gold.Protein.RotatedAtoms>
  150.9968  134.9290  159.7930 H   0  0  0  0  0  0  0  0  0  0  0  0  # atno 6907 bound_to 6896
  152.5267  134.3208  159.9157 H   0  0  0  0  0  0  0  0  0  0  0  0  # atno 6908 bound_to 6896
  151.3213  133.3997  159.2689 H   0  0  0  0  0  0  0  0  0  0  0  0  # atno 6909 bound_to 6896
  144.7340  140.3175  143.6177 H   0  0  0  0  0  0  0  0  0  0  0  0  # atno 7974 bound_to 7965
  156.2974  140.2563  156.2979 H   0  0  0  0  0  0  0  0  0  0  0  0  # atno 8008 bound_to 7997
  154.9446  140.0395  157.2133 H   0  0  0  0  0  0  0  0  0  0  0  0  # atno 8009 bound_to 7997
  154.8094  140.2841  155.5869 H   0  0  0  0  0  0  0  0  0  0  0  0  # atno 8010 bound_to 7997
  139.5494  144.6800  151.4372 H   0  0  0  0  0  0  0  0  0  0  0  0  # atno 10167 bound_to 10162
  156.9242  130.5802  149.5648 H   0  0  0  0  0  0  0  0  0  0  0  0  # atno 10718 bound_to 10713
  154.7278  135.3039  154.8942 H   0  0  0  0  0  0  0  0  0  0  0  0  # atno 10763 bound_to 10752
  153.9794  135.6732  153.4753 H   0  0  0  0  0  0  0  0  0  0  0  0  # atno 10764 bound_to 10752
  153.0890  135.4969  154.8574 H   0  0  0  0  0  0  0  0  0  0  0  0  # atno 10765 bound_to 10752
  140.0380  134.9319  157.0789 H   0  0  0  0  0  0  0  0  0  0  0  0  # atno 11005 bound_to 11000
  145.7602  139.1822  143.2271 LP  0  0  0  0  0  0  0  0  0  0  0  0  # atno 17320 bound_to 7965
  146.0992  140.7564  142.9557 LP  0  0  0  0  0  0  0  0  0  0  0  0  # atno 17321 bound_to 7965
  140.6752  143.8206  150.7049 LP  0  0  0  0  0  0  0  0  0  0  0  0  # atno 17342 bound_to 10162
  140.1643  143.4249  152.2045 LP  0  0  0  0  0  0  0  0  0  0  0  0  # atno 17343 bound_to 10162
  156.0477  130.5551  150.8918 LP  0  0  0  0  0  0  0  0  0  0  0  0  # atno 17370 bound_to 10713
  157.5888  131.0945  150.9152 LP  0  0  0  0  0  0  0  0  0  0  0  0  # atno 17371 bound_to 10713
  140.4116  134.1975  155.7163 LP  0  0  0  0  0  0  0  0  0  0  0  0  # atno 17394 bound_to 11000
  141.1867  133.8296  157.1057 LP  0  0  0  0  0  0  0  0  0  0  0  0  # atno 17395 bound_to 11000

$$$$
