#       Name:                AV-unprocessed.smi:2192
#       Creating user name   scv26
#       Creation time:       Fri Mar 27 12:10:39 2020


#       File generated by GOLD software.
#

@<TRIPOS>MOLECULE
AV-unprocessed.smi:2192
    51    53     1
SMALL
NO_CHARGES


@<TRIPOS>ATOM
      1 ****        -1.4670   2.7769   3.4815 C.3            1 S1                 0.0000
      2 ****        -1.5128   2.9109   2.0131 N.am           1 S1                 0.0000
      3 ****        -1.1092   1.8452   1.2521 C.2            1 S1                 0.0000
      4 ****        -0.6942   0.7760   1.7015 O.2            1 S1                 0.0000
      5 ****        -1.2084   2.0760  -0.1926 C.2            1 S1                 0.0000
      6 ****        -1.6422   3.2448  -0.7233 C.2            1 S1                 0.0000
      7 ****        -1.6332   3.2056  -2.1128 N.2            1 S1                 0.0000
      8 ****        -1.1796   1.9746  -2.3523 C.2            1 S1                 0.0000
      9 ****        -0.9023   1.2328  -1.2606 N.pl3          1 S1                 0.0000
     10 ****        -0.3976  -0.1322  -1.2581 C.3            1 S1                 0.0000
     11 ****         1.1401  -0.1933  -1.3619 C.3            1 S1                 0.0000
     12 ****         1.7715   0.5130  -0.3127 O.3            1 S1                 0.0000
     13 ****         1.7000  -1.6238  -1.4080 C.3            1 S1                 0.0000
     14 ****         1.1612  -2.3865  -0.3351 O.3            1 S1                 0.0000
     15 ****         1.5812  -3.6903  -0.1847 C.ar           1 S1                 0.0000
     16 ****         1.0920  -4.3937   0.9355 C.ar           1 S1                 0.0000
     17 ****         1.4711  -5.7293   1.1704 C.ar           1 S1                 0.0000
     18 ****         2.3462  -6.3783   0.2802 C.ar           1 S1                 0.0000
     19 ****         2.7131  -7.6622   0.5043 F              1 S1                 0.0000
     20 ****         2.8392  -5.6900  -0.8438 C.ar           1 S1                 0.0000
     21 ****         2.4609  -4.3534  -1.0779 C.ar           1 S1                 0.0000
     22 ****        -2.0241   4.2901   0.1537 N.am           1 S1                 0.0000
     23 ****        -2.4811   5.5421  -0.4569 C.3            1 S1                 0.0000
     24 ****        -1.9634   4.1226   1.5162 C.2            1 S1                 0.0000
     25 ****        -2.3023   5.0324   2.2781 O.2            1 S1                 0.0000
     26 ****        -1.1316   1.8049   3.8441 H              1 S1                 0.0000
     27 ****        -2.4576   2.9387   3.9101 H              1 S1                 0.0000
     28 ****        -0.7909   3.5188   3.9098 H              1 S1                 0.0000
     29 ****        -1.0439   1.5995  -3.3562 H              1 S1                 0.0000
     30 ****        -0.7587  -0.6479  -0.3694 H              1 S1                 0.0000
     31 ****        -0.8402  -0.6572  -2.1056 H              1 S1                 0.0000
     32 ****         1.4400   0.3084  -2.2826 H              1 S1                 0.0000
     33 ****         1.5480   0.0940   0.5050 H              1 S1                 0.0000
     34 ****         1.4119  -2.0854  -2.3537 H              1 S1                 0.0000
     35 ****         2.7906  -1.6029  -1.3671 H              1 S1                 0.0000
     36 ****         0.4207  -3.9022   1.6245 H              1 S1                 0.0000
     37 ****         1.0904  -6.2547   2.0339 H              1 S1                 0.0000
     38 ****         3.5097  -6.1881  -1.5285 H              1 S1                 0.0000
     39 ****         2.8590  -3.8596  -1.9511 H              1 S1                 0.0000
     40 ****        -2.7835   6.3091   0.2565 H              1 S1                 0.0000
     41 ****        -3.3365   5.3497  -1.1052 H              1 S1                 0.0000
     42 ****        -1.6863   5.9663  -1.0712 H              1 S1                 0.0000
     43 ****        -0.6334   0.6391   2.6902 LP             1 S1                 0.0000
     44 ****        -0.4182   0.0448   1.0776 LP             1 S1                 0.0000
     45 ****        -1.8983   3.9165  -2.7642 LP             1 S1                 0.0000
     46 ****         1.4538   1.4611  -0.3045 LP             1 S1                 0.0000
     47 ****         2.7630   0.4948  -0.4418 LP             1 S1                 0.0000
     48 ****         0.1687  -2.4073  -0.4558 LP             1 S1                 0.0000
     49 ****         1.3839  -1.9042   0.5121 LP             1 S1                 0.0000
     50 ****        -2.2535   4.8998   3.2681 LP             1 S1                 0.0000
     51 ****        -2.6258   5.9022   1.9055 LP             1 S1                 0.0000
@<TRIPOS>BOND
    1    1    2 1     
    2    1   26 1     
    3    1   27 1     
    4    1   28 1     
    5    2   24 am    
    6    2    3 am    
    7    3    4 2     
    8    3    5 1     
    9    5    9 1     
   10    5    6 2     
   11    6    7 1     
   12    6   22 1     
   13    7    8 2     
   14    8    9 1     
   15    8   29 1     
   16    9   10 1     
   17   10   11 1     
   18   10   30 1     
   19   10   31 1     
   20   11   12 1     
   21   11   13 1     
   22   11   32 1     
   23   12   33 1     
   24   13   14 1     
   25   13   34 1     
   26   13   35 1     
   27   14   15 1     
   28   15   21 ar    
   29   15   16 ar    
   30   16   17 ar    
   31   16   36 1     
   32   17   18 ar    
   33   17   37 1     
   34   18   19 1     
   35   18   20 ar    
   36   20   21 ar    
   37   20   38 1     
   38   21   39 1     
   39   22   23 1     
   40   22   24 am    
   41   23   40 1     
   42   23   41 1     
   43   23   42 1     
   44   24   25 2     
   45    4   43 1     
   46    4   44 1     
   47    7   45 1     
   48   12   46 1     
   49   12   47 1     
   50   14   48 1     
   51   14   49 1     
   52   25   50 1     
   53   25   51 1     
@<TRIPOS>SUBSTRUCTURE
      1 S1             1
@<TRIPOS>SET
LONE_PAIRS      STATIC     ATOMS    <user>   **** ""
9 43 44 45 46 47 48 49 50 51
DONOR_HYDROGENS      STATIC     ATOMS    <user>   **** ""
1 33
ATOM$BLUE        STATIC     ATOMS    COLORGROUP SYSTEM
9 43 44 45 46 47 48 49 50 51
ATOM$RED        STATIC     ATOMS    COLORGROUP SYSTEM
1 33
