AV-unprocessed.smi:2203|AV-procd|sdf|8935|dock4
  -GOLD-   2272012153D 1   1.00000     0.00000
 Structure written by MMmdl.
 48 49  0  0  0  0  0  0  0  0  1 V2000
  153.0546  138.2283  155.3298 C   0  0  0  0  0  0  0  0  0  0  0  0
  151.9612  139.2451  155.4932 C   0  0  0  0  0  0  0  0  0  0  0  0
  152.2189  140.3745  156.1299 N   0  0  0  0  0  0  0  0  0  0  0  0
  151.0583  141.0620  156.1027 N   0  0  0  0  0  0  0  0  0  0  0  0
  150.9966  142.3741  156.7299 C   0  0  0  0  0  0  0  0  0  0  0  0
  151.5733  142.3921  158.1619 C   0  0  0  0  0  0  0  0  0  0  0  0
  151.2318  141.0907  158.9017 C   0  0  0  0  0  0  0  0  0  0  0  0
  151.1201  143.6176  158.9740 C   0  0  0  0  0  0  0  0  0  0  0  0
  150.0670  140.3652  155.4354 C   0  0  0  0  0  0  0  0  0  0  0  0
  148.6855  140.9070  155.2483 C   0  0  0  0  0  0  0  0  0  0  0  0
  150.6146  139.1775  155.0295 C   0  0  0  0  0  0  0  0  0  0  0  0
  149.9613  138.0554  154.2636 C   0  0  0  0  0  0  0  0  0  0  0  0
  150.1053  136.7511  155.0470 C   0  0  0  0  0  0  0  0  0  0  0  0
  150.5879  136.7626  156.1792 O   0  0  0  0  0  0  0  0  0  0  0  0
  149.6754  135.6367  154.4385 N   0  0  0  0  0  0  0  0  0  0  0  0
  149.7119  134.3073  155.0307 C   0  0  0  0  0  0  0  0  0  0  0  0
  149.3651  133.2398  153.9842 C   0  0  2  0  0  0  0  0  0  0  0  0
  147.9069  133.2803  153.5273 C   0  0  0  0  0  0  0  0  0  0  0  0
  147.6705  131.8447  153.1184 C   0  0  0  0  0  0  0  0  0  0  0  0
  148.4516  131.0926  154.1901 C   0  0  0  0  0  0  0  0  0  0  0  0
  149.5549  131.9311  154.5211 O   0  0  0  0  0  0  0  0  0  0  0  0
  153.4957  138.2900  154.3348 H   0  0  0  0  0  0  0  0  0  0  0  0
  152.6735  137.2159  155.4625 H   0  0  0  0  0  0  0  0  0  0  0  0
  153.8532  138.3759  156.0578 H   0  0  0  0  0  0  0  0  0  0  0  0
  151.5326  143.0890  156.1030 H   0  0  0  0  0  0  0  0  0  0  0  0
  149.9566  142.7007  156.7371 H   0  0  0  0  0  0  0  0  0  0  0  0
  152.6598  142.4395  158.0852 H   0  0  0  0  0  0  0  0  0  0  0  0
  150.1544  140.9746  159.0231 H   0  0  0  0  0  0  0  0  0  0  0  0
  151.6828  141.0719  159.8944 H   0  0  0  0  0  0  0  0  0  0  0  0
  151.6015  140.2211  158.3576 H   0  0  0  0  0  0  0  0  0  0  0  0
  150.0335  143.6544  159.0590 H   0  0  0  0  0  0  0  0  0  0  0  0
  151.4507  144.5492  158.5147 H   0  0  0  0  0  0  0  0  0  0  0  0
  151.5318  143.5929  159.9832 H   0  0  0  0  0  0  0  0  0  0  0  0
  148.1291  140.3225  154.5157 H   0  0  0  0  0  0  0  0  0  0  0  0
  148.7108  141.9368  154.8925 H   0  0  0  0  0  0  0  0  0  0  0  0
  148.1297  140.8825  156.1855 H   0  0  0  0  0  0  0  0  0  0  0  0
  148.9052  138.2569  154.0799 H   0  0  0  0  0  0  0  0  0  0  0  0
  150.4140  137.9273  153.2799 H   0  0  0  0  0  0  0  0  0  0  0  0
  149.2967  135.7143  153.5058 H   0  0  0  0  0  0  0  0  0  0  0  0
  150.6988  134.1121  155.4534 H   0  0  0  0  0  0  0  0  0  0  0  0
  148.9951  134.2704  155.8521 H   0  0  0  0  0  0  0  0  0  0  0  0
  150.0126  133.3400  153.1114 H   0  0  0  0  0  0  0  0  0  0  0  0
  147.2484  133.5413  154.3574 H   0  0  0  0  0  0  0  0  0  0  0  0
  147.7343  133.9907  152.7186 H   0  0  0  0  0  0  0  0  0  0  0  0
  146.6150  131.5730  153.0887 H   0  0  0  0  0  0  0  0  0  0  0  0
  148.1024  131.6579  152.1342 H   0  0  0  0  0  0  0  0  0  0  0  0
  147.8391  130.9584  155.0826 H   0  0  0  0  0  0  0  0  0  0  0  0
  148.7819  130.1093  153.8549 H   0  0  0  0  0  0  0  0  0  0  0  0
  1  2  1  0  0  0  0
  1 22  1  0  0  0  0
  1 23  1  0  0  0  0
  1 24  1  0  0  0  0
  2 11  1  0  0  0  0
  2  3  2  0  0  0  0
  3  4  1  0  0  0  0
  4  5  1  0  0  0  0
  4  9  1  0  0  0  0
  5  6  1  0  0  0  0
  5 25  1  0  0  0  0
  5 26  1  0  0  0  0
  6  7  1  0  0  0  0
  6  8  1  0  0  0  0
  6 27  1  0  0  0  0
  7 28  1  0  0  0  0
  7 29  1  0  0  0  0
  7 30  1  0  0  0  0
  8 31  1  0  0  0  0
  8 32  1  0  0  0  0
  8 33  1  0  0  0  0
  9 10  1  0  0  0  0
  9 11  2  0  0  0  0
 10 34  1  0  0  0  0
 10 35  1  0  0  0  0
 10 36  1  0  0  0  0
 11 12  1  0  0  0  0
 12 13  1  0  0  0  0
 12 37  1  0  0  0  0
 12 38  1  0  0  0  0
 13 14  2  0  0  0  0
 13 15  1  0  0  0  0
 15 16  1  0  0  0  0
 15 39  1  0  0  0  0
 16 17  1  0  0  0  0
 16 40  1  0  0  0  0
 16 41  1  0  0  0  0
 17 21  1  0  0  0  0
 17 18  1  0  0  0  0
 17 42  1  0  0  0  0
 18 19  1  0  0  0  0
 18 43  1  0  0  0  0
 18 44  1  0  0  0  0
 19 20  1  0  0  0  0
 19 45  1  0  0  0  0
 19 46  1  0  0  0  0
 20 21  1  0  0  0  0
 20 47  1  0  0  0  0
 20 48  1  0  0  0  0
M  END
> <s_m_source_file>
AV-unprocessed.smi

> <i_m_source_file_index>
2203

> <i_lp_mmshare_version>
43012

> <i_f3d_flags>
0

> <s_epik_input>
W0NIM11jMW5uKFtDSDJdW0NIXShbQ0gzXSlbQ0gzXSljKFtDSDNdKWMxW0NIMl1DKD1PKVtOSF1bQ0gyXVtDQEBIXTJbQ0gyXVtDSDJdW0NIMl1PMg==

> <s_epik_cmdline>
J2VwaWtfcHl0aG9uJywgJy1waCcsICc3LjAnLCAnLXRuJywgJzgnLCAnLW1hJywgJzIwMCcsICctbWV0YWxfYmluZGluZycsICctaW1hZScsICc8aW5maWxlLm1hZT4nLCAnLW9tYWUnLCAnPG91dGZpbGUubWFlPic=

> <r_lp_tautomer_probability>
1

> <r_epik_Ionization_Penalty>
0.00306713

> <r_epik_Ionization_Penalty_Charging>
0

> <r_epik_Ionization_Penalty_Neutral>
0.00306713

> <r_epik_State_Penalty>
0.00215672

> <r_epik_Charging_Adjusted_Penalty>
0.00215672

> <i_epik_Tot_Q>
0

> <i_epik_Tot_abs_Q>
0

> <r_epik_Metal_State_Penalty>
-0

> <b_epik_Metal_Only>
0

> <s_lp_Force_Field>
OPLS_2005

> <r_lp_Energy>
15.5636

> <b_lp_Chiralities_Consistent>
1

> <s_lp_Variant>
AV-unprocessed.smi:2203-1

> <Gold.Version>
5.8.1

> <Gold.Id.Protein>
6NUR|6NUR_protein|mol2

> <Gold.PLP.Fitness>
42.9100

> <Gold.PLP.PLP>
-37.8131

> <Gold.PLP.part.hbond>
-2.4307

> <Gold.PLP.part.metal>
0.0000

> <Gold.PLP.part.buried>
-0.5728

> <Gold.PLP.part.nonpolar>
-35.6413

> <Gold.PLP.part.repulsive>
0.1113

> <Gold.PLP.ligand.clash>
0.0000

> <Gold.PLP.ligand.torsion>
0.4381

> <Gold.PLP.Chemscore.Hbond>
1.9675

> <Gold.PLP.Chemscore.CHOScore>
0.0000

> <Gold.PLP.Chemscore.Metal>
0.0000

> <Gold.Chemscore.Hbonds>
donor molecule, donor type, donor heavy atom, donor atom, acceptor molecule, acceptor atom, score
      L1  H    15    39       P1  7948  1.00
      P1  H  7997  8008       L1     3  0.69

> <Gold.PLP.Chemscore.Internal.Correction>
0.0707

> <Gold.Rescore>
     Score         DG    S(hbond)    S(metal)    S(lipo)     H(rot)  DE(clash)    DE(int)     intcor
     16.92     -18.49       1.77        0.00      96.25       1.63       1.13       0.44       ----

> <Gold.Chemscore.Fitness>
16.9199

> <Gold.Chemscore.DG>
-18.4884

> <Gold.Chemscore.ZeroCoef>
-5.4800

> <Gold.Chemscore.Hbond>
1.7747

> <Gold.Chemscore.Metal>
0.0000

> <Gold.Chemscore.Lipo>
96.2500

> <Gold.Chemscore.Internal_Hbond>
0.0000

> <Gold.Chemscore.DEClash>
1.1289

> <Gold.Chemscore.DEInternal>
0.4397

> <Gold.Chemscore.Rot>
1.6329

> <Gold.Chemscore.Internal.Correction>
   9.000000E+99

> <Gold.Chemscore.Hbonds>
donor molecule, donor type, donor heavy atom, donor atom, acceptor molecule, acceptor atom, score
      L1  H    15    39       P1  7948  0.50
      P1  H  7997  8008       L1     3  0.15

> <Gold.Chemscore.Hbond.Weighted>
-5.9274

> <Gold.Chemscore.Metal.Weighted>
-0.0000

> <Gold.Chemscore.Lipo.Weighted>
-11.2613

> <Gold.Chemscore.Internal_Hbond.Weighted>
0.0000

> <Gold.Chemscore.DEClash.Weighted>
1.1289

> <Gold.Chemscore.DEInternal.Weighted>
0.4397

> <Gold.Chemscore.Rot.Weighted>
4.1803

> <Gold.Chemscore.Internal.Correction.Weighted>
   9.000000E+99

> <Gold.Protein.RotatedTorsions>
[ 6907 6896 6895 6894 ] final  -75.26 input  -60.11 | X-H torsion
[ 7974 7965 7964 7962 ] final  -25.78 input  175.53 | X-H torsion
[ 8008 7997 7996 7995 ] final  -44.18 input   59.86 | X-H torsion
[ 10167 10162 10161 10158 ] final   84.26 input  -65.29 | X-H torsion
[ 10718 10713 10712 10709 ] final   -6.33 input   66.30 | X-H torsion
[ 10763 10752 10751 10750 ] final -102.07 input  -60.55 | X-H torsion
[ 11005 11000 10999 10996 ] final   21.95 input  -57.11 | X-H torsion

> <Gold.Protein.ActiveResidues>
 VAL166  LYS551  ARG553  GLY616  TRP617  ASP618  TYR619  PRO620  LYS621  CYS622 
 ASP623  PHE694  ASN695  SER759  ASP760  ASP761  ALA762  ILE779  LEU786  VAL792 
 PHE793  MET794  SER795  GLU796  ALA797  LYS798  CYS799  TRP800  GLU811  SER814 

> <Gold.Protein.RotatedAtoms>
  150.7065  134.4746  159.5441 H   0  0  0  0  0  0  0  0  0  0  0  0  # atno 6907 bound_to 6896
  152.2396  134.8239  160.0471 H   0  0  0  0  0  0  0  0  0  0  0  0  # atno 6908 bound_to 6896
  151.9025  133.3506  159.3872 H   0  0  0  0  0  0  0  0  0  0  0  0  # atno 6909 bound_to 6896
  146.1469  140.4932  142.8628 H   0  0  0  0  0  0  0  0  0  0  0  0  # atno 7974 bound_to 7965
  154.3997  140.1428  156.3641 H   0  0  0  0  0  0  0  0  0  0  0  0  # atno 8008 bound_to 7997
  155.8153  140.3471  155.5461 H   0  0  0  0  0  0  0  0  0  0  0  0  # atno 8009 bound_to 7997
  155.8344  140.0917  157.1763 H   0  0  0  0  0  0  0  0  0  0  0  0  # atno 8010 bound_to 7997
  139.9099  144.6278  150.8548 H   0  0  0  0  0  0  0  0  0  0  0  0  # atno 10167 bound_to 10162
  156.7335  130.5187  149.5840 H   0  0  0  0  0  0  0  0  0  0  0  0  # atno 10718 bound_to 10713
  154.7706  135.4874  153.9642 H   0  0  0  0  0  0  0  0  0  0  0  0  # atno 10763 bound_to 10752
  153.1363  135.6763  153.9105 H   0  0  0  0  0  0  0  0  0  0  0  0  # atno 10764 bound_to 10752
  153.8793  135.3134  155.3423 H   0  0  0  0  0  0  0  0  0  0  0  0  # atno 10765 bound_to 10752
  140.3859  134.1871  155.7663 H   0  0  0  0  0  0  0  0  0  0  0  0  # atno 11005 bound_to 11000
  144.7857  140.5930  143.6576 LP  0  0  0  0  0  0  0  0  0  0  0  0  # atno 17320 bound_to 7965
  145.4917  139.1488  143.3706 LP  0  0  0  0  0  0  0  0  0  0  0  0  # atno 17321 bound_to 7965
  140.7688  143.3373  151.2281 LP  0  0  0  0  0  0  0  0  0  0  0  0  # atno 17342 bound_to 10162
  139.6951  143.9626  152.2879 LP  0  0  0  0  0  0  0  0  0  0  0  0  # atno 17343 bound_to 10162
  156.1513  130.6312  151.0599 LP  0  0  0  0  0  0  0  0  0  0  0  0  # atno 17370 bound_to 10713
  157.6849  131.0828  150.7270 LP  0  0  0  0  0  0  0  0  0  0  0  0  # atno 17371 bound_to 10713
  141.1907  133.8210  157.0906 LP  0  0  0  0  0  0  0  0  0  0  0  0  # atno 17394 bound_to 11000
  140.0443  134.9838  157.1020 LP  0  0  0  0  0  0  0  0  0  0  0  0  # atno 17395 bound_to 11000

$$$$
