AV-unprocessed.smi:3045|AV-procd|sdf|11611|dock4
  -GOLD-   2272016593D 1   1.00000     0.00000
 Structure written by MMmdl.
 36 37  0  0  0  0  0  0  0  0  2 V2000
  145.8216  142.8702  153.9463 C   0  0  0  0  0  0  0  0  0  0  0  0
  146.6882  141.8414  154.5048 N   0  0  0  0  0  0  0  0  0  0  0  0
  147.9387  141.4815  153.8593 C   0  0  0  0  0  0  0  0  0  0  0  0
  148.6397  140.5043  154.8284 C   0  0  1  0  0  0  0  0  0  0  0  0
  149.8953  141.1190  155.4669 C   0  0  0  0  0  0  0  0  0  0  0  0
  151.0023  140.6158  155.2701 O   0  0  0  0  0  0  0  0  0  0  0  0
  149.7092  142.2054  156.2325 N   0  0  0  0  0  0  0  0  0  0  0  0
  150.7701  142.9383  156.9129 C   0  0  0  0  0  0  0  0  0  0  0  0
  151.4630  142.0786  157.9839 C   0  0  0  0  0  0  0  0  0  0  0  0
  151.6917  142.8457  159.2716 C   0  0  0  0  0  0  0  0  0  0  0  0
  152.3796  142.2448  160.3491 C   0  0  0  0  0  0  0  0  0  0  0  0
  152.5847  142.9799  161.5354 C   0  0  0  0  0  0  0  0  0  0  0  0
  152.0952  144.2995  161.6177 C   0  0  0  0  0  0  0  0  0  0  0  0
  151.4407  144.8408  160.5668 N   0  3  0  0  0  0  0  0  0  0  0  0
  151.2251  144.1705  159.4134 C   0  0  0  0  0  0  0  0  0  0  0  0
  147.5747  140.1544  155.8886 C   0  0  0  0  0  0  0  0  0  0  0  0
  146.4363  141.1186  155.5995 C   0  0  0  0  0  0  0  0  0  0  0  0
  145.4341  141.2009  156.3078 O   0  0  0  0  0  0  0  0  0  0  0  0
  144.8456  142.4542  153.6939 H   0  0  0  0  0  0  0  0  0  0  0  0
  146.2518  143.2973  153.0401 H   0  0  0  0  0  0  0  0  0  0  0  0
  145.6761  143.6775  154.6650 H   0  0  0  0  0  0  0  0  0  0  0  0
  147.7263  140.9959  152.9058 H   0  0  0  0  0  0  0  0  0  0  0  0
  148.5305  142.3743  153.6496 H   0  0  0  0  0  0  0  0  0  0  0  0
  148.9243  139.6003  154.2868 H   0  0  0  0  0  0  0  0  0  0  0  0
  148.7675  142.5544  156.3414 H   0  0  0  0  0  0  0  0  0  0  0  0
  151.4949  143.2983  156.1806 H   0  0  0  0  0  0  0  0  0  0  0  0
  150.3294  143.8224  157.3744 H   0  0  0  0  0  0  0  0  0  0  0  0
  150.8663  141.1897  158.1936 H   0  0  0  0  0  0  0  0  0  0  0  0
  152.4275  141.7211  157.6211 H   0  0  0  0  0  0  0  0  0  0  0  0
  152.7492  141.2327  160.2667 H   0  0  0  0  0  0  0  0  0  0  0  0
  153.1105  142.5375  162.3691 H   0  0  0  0  0  0  0  0  0  0  0  0
  152.2073  144.9337  162.4852 H   0  0  0  0  0  0  0  0  0  0  0  0
  150.6910  144.7115  158.6457 H   0  0  0  0  0  0  0  0  0  0  0  0
  147.2215  139.1298  155.7689 H   0  0  0  0  0  0  0  0  0  0  0  0
  147.9213  140.2723  156.9167 H   0  0  0  0  0  0  0  0  0  0  0  0
  151.0943  145.7973  160.6474 H   0  0  0  0  0  0  0  0  0  0  0  0
  1  2  1  0  0  0  0
  1 19  1  0  0  0  0
  1 20  1  0  0  0  0
  1 21  1  0  0  0  0
  2 17  1  0  0  0  0
  2  3  1  0  0  0  0
  3  4  1  0  0  0  0
  3 22  1  0  0  0  0
  3 23  1  0  0  0  0
  4  5  1  0  0  0  0
  4 16  1  0  0  0  0
  4 24  1  0  0  0  0
  5  6  2  0  0  0  0
  5  7  1  0  0  0  0
  7  8  1  0  0  0  0
  7 25  1  0  0  0  0
  8  9  1  0  0  0  0
  8 26  1  0  0  0  0
  8 27  1  0  0  0  0
  9 10  1  0  0  0  0
  9 28  1  0  0  0  0
  9 29  1  0  0  0  0
 10 15  1  0  0  0  0
 10 11  2  0  0  0  0
 11 12  1  0  0  0  0
 11 30  1  0  0  0  0
 12 13  2  0  0  0  0
 12 31  1  0  0  0  0
 13 14  1  0  0  0  0
 13 32  1  0  0  0  0
 14 15  2  0  0  0  0
 14 36  1  0  0  0  0
 15 33  1  0  0  0  0
 16 17  1  0  0  0  0
 16 34  1  0  0  0  0
 16 35  1  0  0  0  0
 17 18  2  0  0  0  0
M  CHG  1  14   1
M  END
> <s_m_source_file>
AV-unprocessed.smi

> <i_m_source_file_index>
3045

> <i_lp_mmshare_version>
43012

> <i_f3d_flags>
0

> <s_epik_input>
W0NIM11OMVtDSDJdW0NASF0oW0NIMl1DMT1PKUMoPU8pW05IXVtDSDJdW0NIMl1jMltjSF1bY0hdW2NIXW5bY0hdMg==

> <s_epik_cmdline>
J2VwaWtfcHl0aG9uJywgJy1waCcsICc3LjAnLCAnLXRuJywgJzgnLCAnLW1hJywgJzIwMCcsICctbWV0YWxfYmluZGluZycsICctaW1hZScsICc8aW5maWxlLm1hZT4nLCAnLW9tYWUnLCAnPG91dGZpbGUubWFlPic=

> <r_epik_Ionization_Penalty>
2.26523

> <r_epik_Ionization_Penalty_Charging>
2.26523

> <r_epik_Ionization_Penalty_Neutral>
2.92809e-08

> <r_epik_State_Penalty>
2.41338

> <r_epik_Charging_Adjusted_Penalty>
4.67861

> <i_epik_Tot_Q>
1

> <i_epik_Tot_abs_Q>
1

> <r_epik_Metal_State_Penalty>
2.42626

> <b_epik_Metal_Only>
0

> <s_lp_Force_Field>
OPLS_2005

> <r_lp_Energy>
17.4677

> <b_lp_Chiralities_Consistent>
1

> <s_lp_Variant>
AV-unprocessed.smi:3045-3

> <Gold.Version>
5.8.1

> <Gold.Id.Protein>
6NUR|6NUR_protein|mol2

> <Gold.PLP.Fitness>
43.6581

> <Gold.PLP.PLP>
-40.7994

> <Gold.PLP.part.hbond>
-2.0000

> <Gold.PLP.part.metal>
0.0000

> <Gold.PLP.part.buried>
-4.8484

> <Gold.PLP.part.nonpolar>
-33.2873

> <Gold.PLP.part.repulsive>
0.2796

> <Gold.PLP.ligand.clash>
0.0000

> <Gold.PLP.ligand.torsion>
0.3542

> <Gold.PLP.Chemscore.Hbond>
1.1797

> <Gold.PLP.Chemscore.CHOScore>
0.0000

> <Gold.PLP.Chemscore.Metal>
0.0000

> <Gold.Chemscore.Hbonds>
donor molecule, donor type, donor heavy atom, donor atom, acceptor molecule, acceptor atom, score
      L1  H     7    25       P1  8028  0.04
      P1  H  7989  7998       L1     6  0.91

> <Gold.PLP.Chemscore.Internal.Correction>
0.0280

> <Gold.Rescore>
     Score         DG    S(hbond)    S(metal)    S(lipo)     H(rot)  DE(clash)    DE(int)     intcor
     14.86     -15.57       1.04        0.00      93.88       1.71       0.08       0.63       ----

> <Gold.Chemscore.Fitness>
14.8566

> <Gold.Chemscore.DG>
-15.5653

> <Gold.Chemscore.ZeroCoef>
-5.4800

> <Gold.Chemscore.Hbond>
1.0418

> <Gold.Chemscore.Metal>
0.0000

> <Gold.Chemscore.Lipo>
93.8834

> <Gold.Chemscore.Internal_Hbond>
0.0000

> <Gold.Chemscore.DEClash>
0.0813

> <Gold.Chemscore.DEInternal>
0.6274

> <Gold.Chemscore.Rot>
1.7105

> <Gold.Chemscore.Internal.Correction>
   9.000000E+99

> <Gold.Chemscore.Hbonds>
donor molecule, donor type, donor heavy atom, donor atom, acceptor molecule, acceptor atom, score
      L1  H     7    25       P1  8028  0.05
      P1  H  7989  7998       L1     6  0.75

> <Gold.Chemscore.Hbond.Weighted>
-3.4798

> <Gold.Chemscore.Metal.Weighted>
-0.0000

> <Gold.Chemscore.Lipo.Weighted>
-10.9844

> <Gold.Chemscore.Internal_Hbond.Weighted>
0.0000

> <Gold.Chemscore.DEClash.Weighted>
0.0813

> <Gold.Chemscore.DEInternal.Weighted>
0.6274

> <Gold.Chemscore.Rot.Weighted>
4.3789

> <Gold.Chemscore.Internal.Correction.Weighted>
   9.000000E+99

> <Gold.Protein.RotatedTorsions>
[ 6907 6896 6895 6894 ] final -168.49 input  -60.11 | X-H torsion
[ 7974 7965 7964 7962 ] final  -88.13 input  175.53 | X-H torsion
[ 8008 7997 7996 7995 ] final  123.23 input   59.86 | X-H torsion
[ 10167 10162 10161 10158 ] final  -54.45 input  -65.29 | X-H torsion
[ 10718 10713 10712 10709 ] final -104.86 input   66.30 | X-H torsion
[ 10763 10752 10751 10750 ] final   78.29 input  -60.55 | X-H torsion
[ 11005 11000 10999 10996 ] final -146.04 input  -57.11 | X-H torsion

> <Gold.Protein.ActiveResidues>
 VAL166  LYS551  ARG553  GLY616  TRP617  ASP618  TYR619  PRO620  LYS621  CYS622 
 ASP623  PHE694  ASN695  SER759  ASP760  ASP761  ALA762  ILE779  LEU786  VAL792 
 PHE793  MET794  SER795  GLU796  ALA797  LYS798  CYS799  TRP800  GLU811  SER814 

> <Gold.Protein.RotatedAtoms>
  151.4764  133.3557  159.2831 H   0  0  0  0  0  0  0  0  0  0  0  0  # atno 6907 bound_to 6896
  150.8926  134.8333  159.7315 H   0  0  0  0  0  0  0  0  0  0  0  0  # atno 6908 bound_to 6896
  152.4832  134.4676  159.9677 H   0  0  0  0  0  0  0  0  0  0  0  0  # atno 6909 bound_to 6896
  145.4573  140.9561  143.1989 H   0  0  0  0  0  0  0  0  0  0  0  0  # atno 7974 bound_to 7965
  156.2758  140.2767  156.1594 H   0  0  0  0  0  0  0  0  0  0  0  0  # atno 8008 bound_to 7997
  155.0770  140.0387  157.2644 H   0  0  0  0  0  0  0  0  0  0  0  0  # atno 8009 bound_to 7997
  154.6995  140.2646  155.6739 H   0  0  0  0  0  0  0  0  0  0  0  0  # atno 8010 bound_to 7997
  140.6430  143.2518  151.4938 H   0  0  0  0  0  0  0  0  0  0  0  0  # atno 10167 bound_to 10162
  156.0322  130.5535  150.7457 H   0  0  0  0  0  0  0  0  0  0  0  0  # atno 10718 bound_to 10713
  153.0863  135.4882  154.8602 H   0  0  0  0  0  0  0  0  0  0  0  0  # atno 10763 bound_to 10752
  154.7214  135.3040  154.9043 H   0  0  0  0  0  0  0  0  0  0  0  0  # atno 10764 bound_to 10752
  153.9706  135.6801  153.4800 H   0  0  0  0  0  0  0  0  0  0  0  0  # atno 10765 bound_to 10752
  140.7861  134.3023  157.5029 H   0  0  0  0  0  0  0  0  0  0  0  0  # atno 11005 bound_to 11000
  144.8024  139.6115  143.7066 LP  0  0  0  0  0  0  0  0  0  0  0  0  # atno 17320 bound_to 7965
  146.2471  139.6120  142.9452 LP  0  0  0  0  0  0  0  0  0  0  0  0  # atno 17321 bound_to 7965
  139.5639  144.2089  152.1735 LP  0  0  0  0  0  0  0  0  0  0  0  0  # atno 17342 bound_to 10162
  140.1365  144.5241  150.6770 LP  0  0  0  0  0  0  0  0  0  0  0  0  # atno 17343 bound_to 10162
  157.5014  131.0919  151.0309 LP  0  0  0  0  0  0  0  0  0  0  0  0  # atno 17370 bound_to 10713
  157.0689  130.5856  149.5399 LP  0  0  0  0  0  0  0  0  0  0  0  0  # atno 17371 bound_to 10713
  139.8736  134.9347  156.3614 LP  0  0  0  0  0  0  0  0  0  0  0  0  # atno 17394 bound_to 11000
  140.9435  133.7498  156.0178 LP  0  0  0  0  0  0  0  0  0  0  0  0  # atno 17395 bound_to 11000

$$$$
