AV-unprocessed.smi:243|AV-procd|sdf|1849|dock4
  -GOLD-   2262020473D 1   1.00000     0.00000
 Structure written by MMmdl.
 58 61  0  0  0  0  0  0  0  0  2 V2000
  151.4689  141.9729  158.6151 C   0  0  0  0  0  0  0  0  0  0  0  0
  150.8176  142.8468  157.5332 C   0  0  0  0  0  0  0  0  0  0  0  0
  149.7509  142.1334  156.7854 N   0  3  1  0  0  0  0  0  0  0  0  0
  150.3106  141.1815  155.7923 C   0  0  0  0  0  0  0  0  0  0  0  0
  149.2097  140.5185  154.9411 C   0  0  0  0  0  0  0  0  0  0  0  0
  148.0402  139.9255  155.7549 C   0  0  1  0  0  0  0  0  0  0  0  0
  148.2780  138.5462  156.2198 N   0  0  0  0  0  0  0  0  0  0  0  0
  149.1777  138.1917  157.3140 C   0  0  0  0  0  0  0  0  0  0  0  0
  147.4590  137.5670  155.7569 C   0  0  0  0  0  0  0  0  0  0  0  0
  147.3250  136.4340  156.4949 N   0  0  0  0  0  0  0  0  0  0  0  0
  146.5220  135.4495  156.0811 C   0  0  0  0  0  0  0  0  0  0  0  0
  145.7749  135.3909  154.9777 N   0  0  0  0  0  0  0  0  0  0  0  0
  145.9095  136.5217  154.2274 C   0  0  0  0  0  0  0  0  0  0  0  0
  146.7187  137.6505  154.5415 C   0  0  0  0  0  0  0  0  0  0  0  0
  146.6019  138.6062  153.5381 N   0  0  0  0  0  0  0  0  0  0  0  0
  145.7633  138.0791  152.6891 C   0  0  0  0  0  0  0  0  0  0  0  0
  145.3073  136.8230  153.0180 N   0  0  0  0  0  0  0  0  0  0  0  0
  144.3757  136.0082  152.2542 C   0  0  0  0  0  0  0  0  0  0  0  0
  144.9871  135.3886  150.9715 C   0  0  1  0  0  0  0  0  0  0  0  0
  145.3484  136.4160  150.0684 O   0  0  0  0  0  0  0  0  0  0  0  0
  146.2030  134.5285  151.2760 C   0  0  0  0  0  0  0  0  0  0  0  0
  145.5883  133.1719  151.6167 C   0  0  0  0  0  0  0  0  0  0  0  0
  144.3324  133.1255  150.9446 O   0  0  0  0  0  0  0  0  0  0  0  0
  144.0890  134.3583  150.2761 C   0  0  0  0  0  0  0  0  0  0  0  0
  147.5739  140.9121  156.8530 C   0  0  1  0  0  0  0  0  0  0  0  0
  146.4485  140.3544  157.7414 C   0  0  0  0  0  0  0  0  0  0  0  0
  148.7489  141.4835  157.6705 C   0  0  0  0  0  0  0  0  0  0  0  0
  152.1700  142.5600  159.2088 H   0  0  0  0  0  0  0  0  0  0  0  0
  152.0282  141.1399  158.1902 H   0  0  0  0  0  0  0  0  0  0  0  0
  150.7213  141.5659  159.2966 H   0  0  0  0  0  0  0  0  0  0  0  0
  150.3864  143.7174  158.0295 H   0  0  0  0  0  0  0  0  0  0  0  0
  151.5700  143.2288  156.8415 H   0  0  0  0  0  0  0  0  0  0  0  0
  150.9840  141.7180  155.1231 H   0  0  0  0  0  0  0  0  0  0  0  0
  150.9261  140.4418  156.2992 H   0  0  0  0  0  0  0  0  0  0  0  0
  148.8011  141.2831  154.2790 H   0  0  0  0  0  0  0  0  0  0  0  0
  149.6395  139.7610  154.2845 H   0  0  0  0  0  0  0  0  0  0  0  0
  147.2028  139.8817  155.0578 H   0  0  0  0  0  0  0  0  0  0  0  0
  149.4059  137.1251  157.3028 H   0  0  0  0  0  0  0  0  0  0  0  0
  148.7278  138.4265  158.2781 H   0  0  0  0  0  0  0  0  0  0  0  0
  150.1287  138.7095  157.2422 H   0  0  0  0  0  0  0  0  0  0  0  0
  146.4703  134.5846  156.7261 H   0  0  0  0  0  0  0  0  0  0  0  0
  145.4584  138.5921  151.7884 H   0  0  0  0  0  0  0  0  0  0  0  0
  143.9990  135.2205  152.9079 H   0  0  0  0  0  0  0  0  0  0  0  0
  143.5153  136.6294  152.0033 H   0  0  0  0  0  0  0  0  0  0  0  0
  145.7817  136.0248  149.3254 H   0  0  0  0  0  0  0  0  0  0  0  0
  146.8257  134.4214  150.3861 H   0  0  0  0  0  0  0  0  0  0  0  0
  146.8317  134.9263  152.0733 H   0  0  0  0  0  0  0  0  0  0  0  0
  146.2295  132.3439  151.3135 H   0  0  0  0  0  0  0  0  0  0  0  0
  145.4122  133.0855  152.6892 H   0  0  0  0  0  0  0  0  0  0  0  0
  143.0312  134.6157  150.2705 H   0  0  0  0  0  0  0  0  0  0  0  0
  144.3940  134.2287  149.2364 H   0  0  0  0  0  0  0  0  0  0  0  0
  147.1387  141.7628  156.3255 H   0  0  0  0  0  0  0  0  0  0  0  0
  146.7965  139.5383  158.3740 H   0  0  0  0  0  0  0  0  0  0  0  0
  145.6228  139.9774  157.1372 H   0  0  0  0  0  0  0  0  0  0  0  0
  146.0483  141.1278  158.3974 H   0  0  0  0  0  0  0  0  0  0  0  0
  149.2300  140.7111  158.2694 H   0  0  0  0  0  0  0  0  0  0  0  0
  148.3538  142.2144  158.3749 H   0  0  0  0  0  0  0  0  0  0  0  0
  149.2579  142.8356  156.2524 H   0  0  0  0  0  0  0  0  0  0  0  0
  1  2  1  0  0  0  0
  1 28  1  0  0  0  0
  1 29  1  0  0  0  0
  1 30  1  0  0  0  0
  2  3  1  0  0  0  0
  2 31  1  0  0  0  0
  2 32  1  0  0  0  0
  3 27  1  0  0  0  0
  3  4  1  0  0  0  0
  3 58  1  0  0  0  0
  4  5  1  0  0  0  0
  4 33  1  0  0  0  0
  4 34  1  0  0  0  0
  5  6  1  0  0  0  0
  5 35  1  0  0  0  0
  5 36  1  0  0  0  0
  6  7  1  0  0  0  0
  6 25  1  0  0  0  0
  6 37  1  0  0  0  0
  7  8  1  0  0  0  0
  7  9  1  0  0  0  0
  8 38  1  0  0  0  0
  8 39  1  0  0  0  0
  8 40  1  0  0  0  0
  9 14  1  0  0  0  0
  9 10  2  0  0  0  0
 10 11  1  0  0  0  0
 11 12  2  0  0  0  0
 11 41  1  0  0  0  0
 12 13  1  0  0  0  0
 13 17  1  0  0  0  0
 13 14  2  0  0  0  0
 14 15  1  0  0  0  0
 15 16  2  0  0  0  0
 16 17  1  0  0  0  0
 16 42  1  0  0  0  0
 17 18  1  0  0  0  0
 18 19  1  0  0  0  0
 18 43  1  0  0  0  0
 18 44  1  0  0  0  0
 19 24  1  0  0  0  0
 19 20  1  0  0  0  0
 19 21  1  0  0  0  0
 20 45  1  0  0  0  0
 21 22  1  0  0  0  0
 21 46  1  0  0  0  0
 21 47  1  0  0  0  0
 22 23  1  0  0  0  0
 22 48  1  0  0  0  0
 22 49  1  0  0  0  0
 23 24  1  0  0  0  0
 24 50  1  0  0  0  0
 24 51  1  0  0  0  0
 25 26  1  0  0  0  0
 25 27  1  0  0  0  0
 25 52  1  0  0  0  0
 26 53  1  0  0  0  0
 26 54  1  0  0  0  0
 26 55  1  0  0  0  0
 27 56  1  0  0  0  0
 27 57  1  0  0  0  0
M  CHG  1   3   1
M  END
> <s_m_source_file>
AV-unprocessed.smi

> <i_m_source_file_index>
243

> <i_lp_mmshare_version>
43012

> <i_f3d_flags>
0

> <s_epik_input>
W0NIM11bQ0gyXU4xW0NIMl1bQ0gyXVtDQEhdKFtDQEBIXShbQ0gzXSlbQ0gyXTEpTihbQ0gzXSljKG5bY0hdbjIpYyhjMjMpbltjSF1uM1tDSDJdW0NAQF00KFtPSF0pW0NIMl1bQ0gyXU9bQ0gyXTQ=

> <s_epik_cmdline>
J2VwaWtfcHl0aG9uJywgJy1waCcsICc3LjAnLCAnLXRuJywgJzgnLCAnLW1hJywgJzIwMCcsICctbWV0YWxfYmluZGluZycsICctaW1hZScsICc8aW5maWxlLm1hZT4nLCAnLW9tYWUnLCAnPG91dGZpbGUubWFlPic=

> <r_lp_tautomer_probability>
1

> <r_epik_Ionization_Penalty>
0.00253099

> <r_epik_Ionization_Penalty_Charging>
0.00137877

> <r_epik_Ionization_Penalty_Neutral>
0.00115221

> <r_epik_State_Penalty>
-0

> <r_epik_Charging_Adjusted_Penalty>
0.00137877

> <i_epik_Tot_Q>
1

> <i_epik_Tot_abs_Q>
1

> <r_epik_Metal_State_Penalty>
-0

> <b_epik_Metal_Only>
0

> <s_lp_Force_Field>
OPLS_2005

> <r_lp_Energy>
52.4655

> <b_lp_Chiralities_Consistent>
1

> <s_lp_Variant>
AV-unprocessed.smi:243-2

> <Gold.Version>
5.8.1

> <Gold.Id.Protein>
6NUR|6NUR_protein|mol2

> <Gold.PLP.Fitness>
42.4652

> <Gold.PLP.PLP>
-30.7013

> <Gold.PLP.part.hbond>
-3.0000

> <Gold.PLP.part.metal>
0.0000

> <Gold.PLP.part.buried>
-4.8125

> <Gold.PLP.part.nonpolar>
-24.2381

> <Gold.PLP.part.repulsive>
0.4768

> <Gold.PLP.ligand.clash>
0.0000

> <Gold.PLP.ligand.torsion>
0.5449

> <Gold.PLP.Chemscore.Hbond>
3.0000

> <Gold.PLP.Chemscore.CHOScore>
1.1884

> <Gold.PLP.Chemscore.Metal>
0.0000

> <Gold.Chemscore.Hbonds>
donor molecule, donor type, donor heavy atom, donor atom, acceptor molecule, acceptor atom, score
      L1  H     3    58       P1  8028  2.00
      L1  H    20    45       P1  7921  0.86
      L1  C    16    42       P1 10171  1.00
      L1  C    16    42       P1 10175  0.39

> <Gold.PLP.Chemscore.Internal.Correction>
0.2884

> <Gold.Rescore>
     Score         DG    S(hbond)    S(metal)    S(lipo)     H(rot)  DE(clash)    DE(int)     intcor
     13.06     -14.80       1.96        0.00      72.55       2.24       0.04       1.70       ----

> <Gold.Chemscore.Fitness>
13.0586

> <Gold.Chemscore.DG>
-14.8001

> <Gold.Chemscore.ZeroCoef>
-5.4800

> <Gold.Chemscore.Hbond>
1.9642

> <Gold.Chemscore.Metal>
0.0000

> <Gold.Chemscore.Lipo>
72.5528

> <Gold.Chemscore.Internal_Hbond>
0.0000

> <Gold.Chemscore.DEClash>
0.0431

> <Gold.Chemscore.DEInternal>
1.6983

> <Gold.Chemscore.Rot>
2.2379

> <Gold.Chemscore.Internal.Correction>
   9.000000E+99

> <Gold.Chemscore.Hbonds>
donor molecule, donor type, donor heavy atom, donor atom, acceptor molecule, acceptor atom, score
      L1  H     3    58       P1  8028  0.93
      L1  H    20    45       P1  7921  0.84

> <Gold.Chemscore.Hbond.Weighted>
-6.5605

> <Gold.Chemscore.Metal.Weighted>
-0.0000

> <Gold.Chemscore.Lipo.Weighted>
-8.4887

> <Gold.Chemscore.Internal_Hbond.Weighted>
0.0000

> <Gold.Chemscore.DEClash.Weighted>
0.0431

> <Gold.Chemscore.DEInternal.Weighted>
1.6983

> <Gold.Chemscore.Rot.Weighted>
5.7291

> <Gold.Chemscore.Internal.Correction.Weighted>
   9.000000E+99

> <Gold.Protein.RotatedTorsions>
[ 6907 6896 6895 6894 ] final -174.52 input  -60.11 | X-H torsion
[ 7974 7965 7964 7962 ] final  -72.89 input  175.53 | X-H torsion
[ 8008 7997 7996 7995 ] final -100.98 input   59.86 | X-H torsion
[ 10167 10162 10161 10158 ] final  -18.21 input  -65.29 | X-H torsion
[ 10718 10713 10712 10709 ] final  106.98 input   66.30 | X-H torsion
[ 10763 10752 10751 10750 ] final -153.21 input  -60.55 | X-H torsion
[ 11005 11000 10999 10996 ] final -174.66 input  -57.11 | X-H torsion

> <Gold.Protein.ActiveResidues>
 VAL166  LYS551  ARG553  GLY616  TRP617  ASP618  TYR619  PRO620  LYS621  CYS622 
 ASP623  PHE694  ASN695  SER759  ASP760  ASP761  ALA762  ILE779  LEU786  VAL792 
 PHE793  MET794  SER795  GLU796  ALA797  LYS798  CYS799  TRP800  GLU811  SER814 

> <Gold.Protein.RotatedAtoms>
  151.5737  133.3386  159.2994 H   0  0  0  0  0  0  0  0  0  0  0  0  # atno 6907 bound_to 6896
  150.8353  134.7626  159.6898 H   0  0  0  0  0  0  0  0  0  0  0  0  # atno 6908 bound_to 6896
  152.4430  134.5559  159.9932 H   0  0  0  0  0  0  0  0  0  0  0  0  # atno 6909 bound_to 6896
  145.6592  140.9258  143.0943 H   0  0  0  0  0  0  0  0  0  0  0  0  # atno 7974 bound_to 7965
  154.8362  140.0437  157.1510 H   0  0  0  0  0  0  0  0  0  0  0  0  # atno 8008 bound_to 7997
  154.9098  140.3012  155.5252 H   0  0  0  0  0  0  0  0  0  0  0  0  # atno 8009 bound_to 7997
  156.2990  140.2360  156.4136 H   0  0  0  0  0  0  0  0  0  0  0  0  # atno 8010 bound_to 7997
  140.7256  143.4938  150.9957 H   0  0  0  0  0  0  0  0  0  0  0  0  # atno 10167 bound_to 10162
  157.6646  131.0863  150.6088 H   0  0  0  0  0  0  0  0  0  0  0  0  # atno 10718 bound_to 10713
  154.7942  135.3218  154.7705 H   0  0  0  0  0  0  0  0  0  0  0  0  # atno 10763 bound_to 10752
  153.8387  135.6873  153.4810 H   0  0  0  0  0  0  0  0  0  0  0  0  # atno 10764 bound_to 10752
  153.1626  135.4654  154.9735 H   0  0  0  0  0  0  0  0  0  0  0  0  # atno 10765 bound_to 10752
  140.4720  134.6156  157.4886 H   0  0  0  0  0  0  0  0  0  0  0  0  # atno 11005 bound_to 11000
  144.7095  139.8427  143.7419 LP  0  0  0  0  0  0  0  0  0  0  0  0  # atno 17320 bound_to 7965
  146.1139  139.4148  143.0270 LP  0  0  0  0  0  0  0  0  0  0  0  0  # atno 17321 bound_to 7965
  139.8644  143.7273  152.3171 LP  0  0  0  0  0  0  0  0  0  0  0  0  # atno 17342 bound_to 10162
  139.7499  144.7537  151.0522 LP  0  0  0  0  0  0  0  0  0  0  0  0  # atno 17343 bound_to 10162
  156.6390  130.4453  149.5759 LP  0  0  0  0  0  0  0  0  0  0  0  0  # atno 17370 bound_to 10713
  156.2224  130.6745  151.1381 LP  0  0  0  0  0  0  0  0  0  0  0  0  # atno 17371 bound_to 10713
  139.9879  134.7032  155.9741 LP  0  0  0  0  0  0  0  0  0  0  0  0  # atno 17394 bound_to 11000
  141.1572  133.6542  156.4200 LP  0  0  0  0  0  0  0  0  0  0  0  0  # atno 17395 bound_to 11000

$$$$
