#       Name:                AV-unprocessed.smi:1244
#       Creating user name   scv26
#       Creation time:       Fri Mar 27 04:34:33 2020


#       File generated by GOLD software.
#

@<TRIPOS>MOLECULE
AV-unprocessed.smi:1244
    60    62     1
SMALL
NO_CHARGES


@<TRIPOS>ATOM
      1 ****        -5.3392   4.6315  -0.1137 C.3            1 S1                 0.0000
      2 ****        -3.8820   4.4496  -0.5526 C.3            1 S1                 0.0000
      3 ****        -3.4210   2.9867  -0.4249 C.3            1 S1                 0.0000
      4 ****        -2.0419   2.8302  -0.9438 N.4            1 S1                 1.0000
      5 ****        -1.4964   1.4627  -0.7332 C.3            1 S1                 0.0000
      6 ****         0.0066   1.4820  -0.3875 C.3            1 S1                 0.0000
      7 ****         0.4838   0.1174  -0.1669 N.pl3          1 S1                -1.0000
      8 ****         0.6025  -0.4798   1.0489 C.2            1 S1                 0.0000
      9 ****         0.3582   0.0088   2.1577 O.2            1 S1                 0.0000
     10 ****         1.0579  -1.7400   0.9437 N.am           1 S1                 0.0000
     11 ****         1.3441  -2.6883   1.9666 C.ar           1 S1                 0.0000
     12 ****         0.5883  -2.7308   3.1663 C.ar           1 S1                 0.0000
     13 ****         0.9073  -3.6674   4.1669 C.ar           1 S1                 0.0000
     14 ****         1.9741  -4.5554   3.9506 C.ar           1 S1                 0.0000
     15 ****         2.6580  -4.5076   2.7891 N.pl3          1 S1                 1.0000
     16 ****         2.3908  -3.6391   1.7812 C.ar           1 S1                 0.0000
     17 ****         3.1902  -3.7247   0.6170 N.pl3          1 S1                 0.0000
     18 ****         4.3365  -4.6247   0.5714 C.3            1 S1                 0.0000
     19 ****         4.7388  -4.6815  -0.8998 C.3            1 S1                 0.0000
     20 ****         3.3938  -4.5788  -1.6121 C.3            1 S1                 0.0000
     21 ****         2.5702  -3.6608  -0.7030 C.3            1 S1                 0.0000
     22 ****        -1.9726   3.2981  -2.3532 C.3            1 S1                 0.0000
     23 ****        -2.4746   4.7490  -2.4791 C.3            1 S1                 0.0000
     24 ****        -1.4927   5.7900  -1.9118 C.3            1 S1                 0.0000
     25 ****        -3.7793   4.8674  -1.9116 O.3            1 S1                 0.0000
     26 ****        -5.4755   4.3386   0.9275 H              1 S1                 0.0000
     27 ****        -6.0131   4.0277  -0.7221 H              1 S1                 0.0000
     28 ****        -5.6478   5.6728  -0.2087 H              1 S1                 0.0000
     29 ****        -3.2586   5.0860   0.0758 H              1 S1                 0.0000
     30 ****        -3.4566   2.6869   0.6235 H              1 S1                 0.0000
     31 ****        -4.0929   2.3235  -0.9724 H              1 S1                 0.0000
     32 ****        -2.0241   0.9853   0.0942 H              1 S1                 0.0000
     33 ****        -1.6904   0.8428  -1.6101 H              1 S1                 0.0000
     34 ****         0.5512   1.9561  -1.2041 H              1 S1                 0.0000
     35 ****         0.1659   2.1280   0.4772 H              1 S1                 0.0000
     36 ****         1.3253  -2.0169   0.0108 H              1 S1                 0.0000
     37 ****        -0.2405  -2.0602   3.3342 H              1 S1                 0.0000
     38 ****         0.3412  -3.7019   5.0862 H              1 S1                 0.0000
     39 ****         2.2936  -5.3041   4.6606 H              1 S1                 0.0000
     40 ****         5.1517  -4.2673   1.2010 H              1 S1                 0.0000
     41 ****         4.0479  -5.6201   0.9112 H              1 S1                 0.0000
     42 ****         5.3596  -3.8205  -1.1514 H              1 S1                 0.0000
     43 ****         5.2911  -5.5861  -1.1557 H              1 S1                 0.0000
     44 ****         3.4786  -4.2002  -2.6309 H              1 S1                 0.0000
     45 ****         2.9277  -5.5639  -1.6575 H              1 S1                 0.0000
     46 ****         1.5221  -3.9623  -0.6816 H              1 S1                 0.0000
     47 ****         2.6237  -2.6338  -1.0649 H              1 S1                 0.0000
     48 ****        -0.9543   3.2257  -2.7365 H              1 S1                 0.0000
     49 ****        -2.5867   2.6444  -2.9748 H              1 S1                 0.0000
     50 ****        -2.5874   4.9696  -3.5410 H              1 S1                 0.0000
     51 ****        -0.5474   5.7648  -2.4545 H              1 S1                 0.0000
     52 ****        -1.2649   5.6162  -0.8604 H              1 S1                 0.0000
     53 ****        -1.8981   6.7977  -2.0048 H              1 S1                 0.0000
     54 ****        -1.4617   3.4479  -0.3940 H              1 S1                 0.0000
     55 ****         3.4194  -5.1730   2.6566 H              1 S1                 0.0000
     56 ****         0.7425  -0.4172  -0.9714 LP             1 S1                 0.0000
     57 ****         0.0317   0.9514   2.2278 LP             1 S1                 0.0000
     58 ****         0.4871  -0.5385   2.9847 LP             1 S1                 0.0000
     59 ****        -4.0548   5.8274  -1.9633 LP             1 S1                 0.0000
     60 ****        -4.4068   4.3108  -2.4561 LP             1 S1                 0.0000
@<TRIPOS>BOND
    1    1    2 1     
    2    1   26 1     
    3    1   27 1     
    4    1   28 1     
    5    2   25 1     
    6    2    3 1     
    7    2   29 1     
    8    3    4 1     
    9    3   30 1     
   10    3   31 1     
   11    4    5 1     
   12    4   22 1     
   13    4   54 1     
   14    5    6 1     
   15    5   32 1     
   16    5   33 1     
   17    6    7 1     
   18    6   34 1     
   19    6   35 1     
   20    7    8 1     
   21    8    9 2     
   22    8   10 am    
   23   10   11 1     
   24   10   36 1     
   25   11   16 ar    
   26   11   12 ar    
   27   12   13 ar    
   28   12   37 1     
   29   13   14 ar    
   30   13   38 1     
   31   14   15 ar    
   32   14   39 1     
   33   15   16 ar    
   34   15   55 1     
   35   16   17 1     
   36   17   21 1     
   37   17   18 1     
   38   18   19 1     
   39   18   40 1     
   40   18   41 1     
   41   19   20 1     
   42   19   42 1     
   43   19   43 1     
   44   20   21 1     
   45   20   44 1     
   46   20   45 1     
   47   21   46 1     
   48   21   47 1     
   49   22   23 1     
   50   22   48 1     
   51   22   49 1     
   52   23   24 1     
   53   23   25 1     
   54   23   50 1     
   55   24   51 1     
   56   24   52 1     
   57   24   53 1     
   58    7   56 1     
   59    9   57 1     
   60    9   58 1     
   61   25   59 1     
   62   25   60 1     
@<TRIPOS>SUBSTRUCTURE
      1 S1             1
@<TRIPOS>SET
LONE_PAIRS      STATIC     ATOMS    <user>   **** ""
5 56 57 58 59 60
DONOR_HYDROGENS      STATIC     ATOMS    <user>   **** ""
3 54 36 55
ATOM$BLUE        STATIC     ATOMS    COLORGROUP SYSTEM
5 56 57 58 59 60
ATOM$RED        STATIC     ATOMS    COLORGROUP SYSTEM
3 54 36 55
