#       Name:                AV-unprocessed.smi:3280
#       Creating user name   scv26
#       Creation time:       Fri Mar 27 18:47:22 2020


#       File generated by GOLD software.
#

@<TRIPOS>MOLECULE
AV-unprocessed.smi:3280
    43    44     1
SMALL
NO_CHARGES


@<TRIPOS>ATOM
      1 ****        -5.1395  -0.2209   0.2111 C.3            1 S1                 0.0000
      2 ****        -4.9060   1.0342  -0.6426 C.3            1 S1                 0.0000
      3 ****        -5.5168   0.9250  -2.0478 C.3            1 S1                 0.0000
      4 ****        -3.4555   1.4054  -0.6936 C.2            1 S1                 0.0000
      5 ****        -3.0148   2.5365  -0.1546 N.2            1 S1                 0.0000
      6 ****        -1.6333   2.4929  -0.3903 O.3            1 S1                 0.0000
      7 ****        -1.4096   1.3394  -1.0644 C.2            1 S1                 0.0000
      8 ****        -0.0081   0.9720  -1.4199 C.3            1 S1                 0.0000
      9 ****         0.6943   0.2093  -0.2896 C.3            1 S1                 0.0000
     10 ****         2.0579  -0.1123  -0.6879 N.3            1 S1                 0.0000
     11 ****         2.7463  -0.9162   0.3161 C.3            1 S1                 0.0000
     12 ****         3.2185  -0.0353   1.4956 C.3            1 S1                 0.0000
     13 ****         3.9466  -0.8446   2.5811 C.3            1 S1                 0.0000
     14 ****         5.2081  -1.5394   2.0512 C.3            1 S1                 0.0000
     15 ****         4.7988  -2.7339   0.7507 S.3            1 S1                 0.0000
     16 ****         3.9328  -1.6097  -0.3785 C.3            1 S1                 0.0000
     17 ****        -2.5060   0.6136  -1.2672 N.2            1 S1                 0.0000
     18 ****        -4.7560  -0.0835   1.2227 H              1 S1                 0.0000
     19 ****        -4.6424  -1.0915  -0.2183 H              1 S1                 0.0000
     20 ****        -6.2023  -0.4505   0.2892 H              1 S1                 0.0000
     21 ****        -5.4320   1.8488  -0.1417 H              1 S1                 0.0000
     22 ****        -5.3947   1.8563  -2.6020 H              1 S1                 0.0000
     23 ****        -6.5842   0.7095  -1.9954 H              1 S1                 0.0000
     24 ****        -5.0458   0.1289  -2.6253 H              1 S1                 0.0000
     25 ****        -0.0268   0.3702  -2.3295 H              1 S1                 0.0000
     26 ****         0.5398   1.8849  -1.6576 H              1 S1                 0.0000
     27 ****         0.6931   0.8156   0.6157 H              1 S1                 0.0000
     28 ****         0.1485  -0.7095  -0.0708 H              1 S1                 0.0000
     29 ****         2.0261  -0.6295  -1.5551 H              1 S1                 0.0000
     30 ****         2.0660  -1.6882   0.6794 H              1 S1                 0.0000
     31 ****         3.8746   0.7557   1.1297 H              1 S1                 0.0000
     32 ****         2.3711   0.4655   1.9626 H              1 S1                 0.0000
     33 ****         4.2213  -0.1790   3.3999 H              1 S1                 0.0000
     34 ****         3.2682  -1.5857   3.0054 H              1 S1                 0.0000
     35 ****         5.9085  -0.8046   1.6527 H              1 S1                 0.0000
     36 ****         5.7186  -2.0635   2.8594 H              1 S1                 0.0000
     37 ****         3.5899  -2.1906  -1.2356 H              1 S1                 0.0000
     38 ****         4.6447  -0.8739  -0.7552 H              1 S1                 0.0000
     39 ****        -3.5421   3.2488   0.3085 LP             1 S1                 0.0000
     40 ****        -1.1323   2.4931   0.4752 LP             1 S1                 0.0000
     41 ****        -1.3490   3.2782  -0.9402 LP             1 S1                 0.0000
     42 ****         2.5624   0.7447  -0.7930 LP             1 S1                 0.0000
     43 ****        -2.6063  -0.2732  -1.7185 LP             1 S1                 0.0000
@<TRIPOS>BOND
    1    1    2 1     
    2    1   18 1     
    3    1   19 1     
    4    1   20 1     
    5    2    3 1     
    6    2    4 1     
    7    2   21 1     
    8    3   22 1     
    9    3   23 1     
   10    3   24 1     
   11    4   17 1     
   12    4    5 2     
   13    5    6 1     
   14    6    7 1     
   15    7    8 1     
   16    7   17 2     
   17    8    9 1     
   18    8   25 1     
   19    8   26 1     
   20    9   10 1     
   21    9   27 1     
   22    9   28 1     
   23   10   11 1     
   24   10   29 1     
   25   11   16 1     
   26   11   12 1     
   27   11   30 1     
   28   12   13 1     
   29   12   31 1     
   30   12   32 1     
   31   13   14 1     
   32   13   33 1     
   33   13   34 1     
   34   14   15 1     
   35   14   35 1     
   36   14   36 1     
   37   15   16 1     
   38   16   37 1     
   39   16   38 1     
   40    5   39 1     
   41    6   40 1     
   42    6   41 1     
   43   10   42 1     
   44   17   43 1     
@<TRIPOS>SUBSTRUCTURE
      1 S1             1
@<TRIPOS>SET
LONE_PAIRS      STATIC     ATOMS    <user>   **** ""
5 39 40 41 42 43
DONOR_HYDROGENS      STATIC     ATOMS    <user>   **** ""
1 29
ATOM$BLUE        STATIC     ATOMS    COLORGROUP SYSTEM
5 39 40 41 42 43
ATOM$RED        STATIC     ATOMS    COLORGROUP SYSTEM
1 29
