AV-unprocessed.smi:720|AV-procd|sdf|3498|dock1
  -GOLD-   22720 0493D 1   1.00000     0.00000
 Structure written by MMmdl.
 47 49  0  0  0  0  0  0  0  0  2 V2000
  145.9705  135.1400  153.5613 C   0  0  0  0  0  0  0  0  0  0  0  0
  146.3406  136.0028  152.4159 N   0  3  0  0  0  0  0  0  0  0  0  0
  145.5592  135.6637  151.2059 C   0  0  0  0  0  0  0  0  0  0  0  0
  146.2821  137.4527  152.7277 C   0  0  0  0  0  0  0  0  0  0  0  0
  147.1254  137.8292  153.9602 C   0  0  0  0  0  0  0  0  0  0  0  0
  147.4059  139.2511  154.0029 N   0  0  0  0  0  0  0  0  0  0  0  0
  146.9293  140.2480  153.1749 C   0  0  0  0  0  0  0  0  0  0  0  0
  147.4645  141.4292  153.6048 C   0  0  0  0  0  0  0  0  0  0  0  0
  148.2628  141.0418  154.7160 C   0  0  0  0  0  0  0  0  0  0  0  0
  149.0016  142.0051  155.4479 N   0  0  0  0  0  0  0  0  0  0  0  0
  150.0423  141.7918  156.2773 C   0  0  0  0  0  0  0  0  0  0  0  0
  150.5128  140.6854  156.5366 O   0  0  0  0  0  0  0  0  0  0  0  0
  150.5527  142.9117  156.8199 N   0  0  0  0  0  0  0  0  0  0  0  0
  151.6764  143.0278  157.7538 C   0  0  1  0  0  0  0  0  0  0  0  0
  152.3910  144.3890  157.6042 C   0  0  0  0  0  0  0  0  0  0  0  0
  152.2986  144.9899  159.0192 C   0  0  1  0  0  0  0  0  0  0  0  0
  150.8459  145.4139  159.3063 C   0  0  0  0  0  0  0  0  0  0  0  0
  150.1305  144.0646  159.5062 C   0  0  0  0  0  0  0  0  0  0  0  0
  151.2589  143.0428  159.2475 C   0  0  2  0  0  0  0  0  0  0  0  0
  152.4449  143.7512  159.8928 C   0  0  0  0  0  0  0  0  0  0  0  0
  148.2252  139.7392  154.9586 N   0  0  0  0  0  0  0  0  0  0  0  0
  144.9483  135.3375  153.8865 H   0  0  0  0  0  0  0  0  0  0  0  0
  146.6363  135.2951  154.4095 H   0  0  0  0  0  0  0  0  0  0  0  0
  146.0409  134.0872  153.2861 H   0  0  0  0  0  0  0  0  0  0  0  0
  144.4995  135.8765  151.3527 H   0  0  0  0  0  0  0  0  0  0  0  0
  145.6650  134.6064  150.9605 H   0  0  0  0  0  0  0  0  0  0  0  0
  145.9080  136.2364  150.3459 H   0  0  0  0  0  0  0  0  0  0  0  0
  146.6624  138.0062  151.8678 H   0  0  0  0  0  0  0  0  0  0  0  0
  145.2449  137.7643  152.8604 H   0  0  0  0  0  0  0  0  0  0  0  0
  146.6153  137.5570  154.8841 H   0  0  0  0  0  0  0  0  0  0  0  0
  148.0753  137.2930  153.9513 H   0  0  0  0  0  0  0  0  0  0  0  0
  146.2568  140.0371  152.3564 H   0  0  0  0  0  0  0  0  0  0  0  0
  147.3088  142.4137  153.1887 H   0  0  0  0  0  0  0  0  0  0  0  0
  148.7180  142.9655  155.3206 H   0  0  0  0  0  0  0  0  0  0  0  0
  150.1083  143.7805  156.5596 H   0  0  0  0  0  0  0  0  0  0  0  0
  152.3969  142.2285  157.5700 H   0  0  0  0  0  0  0  0  0  0  0  0
  153.4327  144.2406  157.3165 H   0  0  0  0  0  0  0  0  0  0  0  0
  151.9343  145.0387  156.8559 H   0  0  0  0  0  0  0  0  0  0  0  0
  153.0294  145.7768  159.2076 H   0  0  0  0  0  0  0  0  0  0  0  0
  150.7867  146.0169  160.2133 H   0  0  0  0  0  0  0  0  0  0  0  0
  150.4175  145.9950  158.4888 H   0  0  0  0  0  0  0  0  0  0  0  0
  149.7684  143.9783  160.5315 H   0  0  0  0  0  0  0  0  0  0  0  0
  149.2697  143.9423  158.8490 H   0  0  0  0  0  0  0  0  0  0  0  0
  151.0472  142.0530  159.6531 H   0  0  0  0  0  0  0  0  0  0  0  0
  153.3922  143.2285  159.7489 H   0  0  0  0  0  0  0  0  0  0  0  0
  152.3048  143.9518  160.9566 H   0  0  0  0  0  0  0  0  0  0  0  0
  147.3037  135.7961  152.1918 H   0  0  0  0  0  0  0  0  0  0  0  0
  1  2  1  0  0  0  0
  1 22  1  0  0  0  0
  1 23  1  0  0  0  0
  1 24  1  0  0  0  0
  2  3  1  0  0  0  0
  2  4  1  0  0  0  0
  2 47  1  0  0  0  0
  3 25  1  0  0  0  0
  3 26  1  0  0  0  0
  3 27  1  0  0  0  0
  4  5  1  0  0  0  0
  4 28  1  0  0  0  0
  4 29  1  0  0  0  0
  5  6  1  0  0  0  0
  5 30  1  0  0  0  0
  5 31  1  0  0  0  0
  6 21  1  0  0  0  0
  6  7  1  0  0  0  0
  7  8  2  0  0  0  0
  7 32  1  0  0  0  0
  8  9  1  0  0  0  0
  8 33  1  0  0  0  0
  9 10  1  0  0  0  0
  9 21  2  0  0  0  0
 10 11  1  0  0  0  0
 10 34  1  0  0  0  0
 11 12  2  0  0  0  0
 11 13  1  0  0  0  0
 13 14  1  0  0  0  0
 13 35  1  0  0  0  0
 14 19  1  0  0  0  0
 14 15  1  0  0  0  0
 14 36  1  0  0  0  0
 15 16  1  0  0  0  0
 15 37  1  0  0  0  0
 15 38  1  0  0  0  0
 16 20  1  0  0  0  0
 16 17  1  0  0  0  0
 16 39  1  0  0  0  0
 17 18  1  0  0  0  0
 17 40  1  0  0  0  0
 17 41  1  0  0  0  0
 18 19  1  0  0  0  0
 18 42  1  0  0  0  0
 18 43  1  0  0  0  0
 19 20  1  0  0  0  0
 19 44  1  0  0  0  0
 20 45  1  0  0  0  0
 20 46  1  0  0  0  0
M  CHG  1   2   1
M  END
> <s_m_source_file>
AV-unprocessed.smi

> <i_m_source_file_index>
720

> <i_lp_mmshare_version>
43012

> <i_f3d_flags>
0

> <s_epik_input>
W0NIM11OKFtDSDNdKVtDSDJdW0NIMl1uMVtjSF1bY0hdYyhuMSlbTkhdQyg9TylbTkhdW0NASF0oW0NIMl1bQ0BIXTIzKVtDQEhdKFtDSDJdMylbQ0gyXVtDSDJdMg==

> <s_epik_cmdline>
J2VwaWtfcHl0aG9uJywgJy1waCcsICc3LjAnLCAnLXRuJywgJzgnLCAnLW1hJywgJzIwMCcsICctbWV0YWxfYmluZGluZycsICctaW1hZScsICc8aW5maWxlLm1hZT4nLCAnLW9tYWUnLCAnPG91dGZpbGUubWFlPic=

> <r_lp_tautomer_probability>
1

> <r_epik_Ionization_Penalty>
0.0272832

> <r_epik_Ionization_Penalty_Charging>
0.027243

> <r_epik_Ionization_Penalty_Neutral>
4.01867e-05

> <r_epik_State_Penalty>
0.0222865

> <r_epik_Charging_Adjusted_Penalty>
0.0495295

> <i_epik_Tot_Q>
1

> <i_epik_Tot_abs_Q>
1

> <r_epik_Metal_State_Penalty>
0.0222866

> <b_epik_Metal_Only>
0

> <s_lp_Force_Field>
OPLS_2005

> <r_lp_Energy>
60.2388

> <b_lp_Chiralities_Consistent>
1

> <s_lp_Variant>
AV-unprocessed.smi:720-4

> <Gold.Version>
5.8.1

> <Gold.Id.Protein>
6NUR|6NUR_protein|mol2

> <Gold.PLP.Fitness>
54.7091

> <Gold.PLP.PLP>
-41.0925

> <Gold.PLP.part.hbond>
-3.0000

> <Gold.PLP.part.metal>
0.0000

> <Gold.PLP.part.buried>
-4.3154

> <Gold.PLP.part.nonpolar>
-35.4396

> <Gold.PLP.part.repulsive>
0.3314

> <Gold.PLP.ligand.clash>
0.0000

> <Gold.PLP.ligand.torsion>
0.5622

> <Gold.PLP.Chemscore.Hbond>
3.9920

> <Gold.PLP.Chemscore.CHOScore>
0.8929

> <Gold.PLP.Chemscore.Metal>
0.0000

> <Gold.Chemscore.Hbonds>
donor molecule, donor type, donor heavy atom, donor atom, acceptor molecule, acceptor atom, score
      L1  H     2    47       P1  7948  2.00
      L1  H    10    34       P1  8028  1.00
      L1  H    13    35       P1  8028  1.00
      L1  C     7    32       P1 10175  0.71

> <Gold.PLP.Chemscore.Internal.Correction>
0.0863

> <Gold.Rescore>
     Score         DG    S(hbond)    S(metal)    S(lipo)     H(rot)  DE(clash)    DE(int)     intcor
     21.51     -24.10       2.79        0.00     114.88       1.62       0.40       2.19       ----

> <Gold.Chemscore.Fitness>
21.5097

> <Gold.Chemscore.DG>
-24.1022

> <Gold.Chemscore.ZeroCoef>
-5.4800

> <Gold.Chemscore.Hbond>
2.7938

> <Gold.Chemscore.Metal>
0.0000

> <Gold.Chemscore.Lipo>
114.8799

> <Gold.Chemscore.Internal_Hbond>
0.0000

> <Gold.Chemscore.DEClash>
0.4005

> <Gold.Chemscore.DEInternal>
2.1919

> <Gold.Chemscore.Rot>
1.6212

> <Gold.Chemscore.Internal.Correction>
   9.000000E+99

> <Gold.Chemscore.Hbonds>
donor molecule, donor type, donor heavy atom, donor atom, acceptor molecule, acceptor atom, score
      L1  H     2    47       P1  7948  0.98
      L1  H    10    34       P1  8028  0.97
      L1  H    13    35       P1  8028  0.97

> <Gold.Chemscore.Hbond.Weighted>
-9.3314

> <Gold.Chemscore.Metal.Weighted>
-0.0000

> <Gold.Chemscore.Lipo.Weighted>
-13.4410

> <Gold.Chemscore.Internal_Hbond.Weighted>
0.0000

> <Gold.Chemscore.DEClash.Weighted>
0.4005

> <Gold.Chemscore.DEInternal.Weighted>
2.1919

> <Gold.Chemscore.Rot.Weighted>
4.1502

> <Gold.Chemscore.Internal.Correction.Weighted>
   9.000000E+99

> <Gold.Protein.RotatedTorsions>
[ 6907 6896 6895 6894 ] final -164.66 input  -60.11 | X-H torsion
[ 7974 7965 7964 7962 ] final  168.11 input  175.53 | X-H torsion
[ 8008 7997 7996 7995 ] final   16.56 input   59.86 | X-H torsion
[ 10167 10162 10161 10158 ] final   78.50 input  -65.29 | X-H torsion
[ 10718 10713 10712 10709 ] final -157.98 input   66.30 | X-H torsion
[ 10763 10752 10751 10750 ] final  -24.01 input  -60.55 | X-H torsion
[ 11005 11000 10999 10996 ] final -154.43 input  -57.11 | X-H torsion

> <Gold.Protein.ActiveResidues>
 VAL166  LYS551  ARG553  GLY616  TRP617  ASP618  TYR619  PRO620  LYS621  CYS622 
 ASP623  PHE694  ASN695  SER759  ASP760  ASP761  ALA762  ILE779  LEU786  VAL792 
 PHE793  MET794  SER795  GLU796  ALA797  LYS798  CYS799  TRP800  GLU811  SER814 

> <Gold.Protein.RotatedAtoms>
  151.4153  133.3715  159.2748 H   0  0  0  0  0  0  0  0  0  0  0  0  # atno 6907 bound_to 6896
  150.9333  134.8748  159.7576 H   0  0  0  0  0  0  0  0  0  0  0  0  # atno 6908 bound_to 6896
  152.5038  134.4099  159.9497 H   0  0  0  0  0  0  0  0  0  0  0  0  # atno 6909 bound_to 6896
  144.7400  139.8859  143.6399 H   0  0  0  0  0  0  0  0  0  0  0  0  # atno 7974 bound_to 7965
  154.8787  140.2969  155.5438 H   0  0  0  0  0  0  0  0  0  0  0  0  # atno 8008 bound_to 7997
  156.3022  140.2446  156.3720 H   0  0  0  0  0  0  0  0  0  0  0  0  # atno 8009 bound_to 7997
  154.8740  140.0400  157.1731 H   0  0  0  0  0  0  0  0  0  0  0  0  # atno 8010 bound_to 7997
  139.9702  144.5899  150.7992 H   0  0  0  0  0  0  0  0  0  0  0  0  # atno 10167 bound_to 10162
  156.5478  130.8592  151.2770 H   0  0  0  0  0  0  0  0  0  0  0  0  # atno 10718 bound_to 10713
  153.6769  135.6969  153.5130 H   0  0  0  0  0  0  0  0  0  0  0  0  # atno 10763 bound_to 10752
  153.2514  135.4274  155.0801 H   0  0  0  0  0  0  0  0  0  0  0  0  # atno 10764 bound_to 10752
  154.8411  135.3532  154.6313 H   0  0  0  0  0  0  0  0  0  0  0  0  # atno 10765 bound_to 10752
  140.6974  134.3975  157.5213 H   0  0  0  0  0  0  0  0  0  0  0  0  # atno 11005 bound_to 11000
  146.1177  139.4190  143.0248 LP  0  0  0  0  0  0  0  0  0  0  0  0  # atno 17320 bound_to 7965
  145.7350  141.0029  143.1331 LP  0  0  0  0  0  0  0  0  0  0  0  0  # atno 17321 bound_to 7965
  140.7524  143.2990  151.3130 LP  0  0  0  0  0  0  0  0  0  0  0  0  # atno 17342 bound_to 10162
  139.6487  144.0403  152.2610 LP  0  0  0  0  0  0  0  0  0  0  0  0  # atno 17343 bound_to 10162
  157.7393  130.9829  150.2307 LP  0  0  0  0  0  0  0  0  0  0  0  0  # atno 17370 bound_to 10713
  156.2912  130.3746  149.7839 LP  0  0  0  0  0  0  0  0  0  0  0  0  # atno 17371 bound_to 10713
  139.8906  134.8800  156.2361 LP  0  0  0  0  0  0  0  0  0  0  0  0  # atno 17394 bound_to 11000
  141.0192  133.7051  156.1239 LP  0  0  0  0  0  0  0  0  0  0  0  0  # atno 17395 bound_to 11000

$$$$
