AV-unprocessed.smi:2902|AV-procd|sdf|11157|dock1
  -GOLD-   2272016 43D 1   1.00000     0.00000
 Structure written by MMmdl.
 47 48  0  0  0  0  0  0  0  0  1 V2000
  152.9024  139.2496  158.5397 C   0  0  0  0  0  0  0  0  0  0  0  0
  151.5806  140.0244  158.6101 C   0  0  0  0  0  0  0  0  0  0  0  0
  151.4648  141.1036  157.5172 C   0  0  2  0  0  0  0  0  0  0  0  0
  150.3932  141.9775  157.8758 O   0  0  0  0  0  0  0  0  0  0  0  0
  150.7435  143.2300  158.4621 C   0  0  0  0  0  0  0  0  0  0  0  0
  151.5706  144.1316  157.5407 C   0  0  0  0  0  0  0  0  0  0  0  0
  152.3390  145.0629  158.4855 C   0  0  0  0  0  0  0  0  0  0  0  0
  152.3810  144.3551  159.8492 C   0  0  0  0  0  0  0  0  0  0  0  0
  151.6743  143.0099  159.6530 C   0  0  0  0  0  0  0  0  0  0  0  0
  151.2066  140.4781  156.1368 C   0  0  0  0  0  0  0  0  0  0  0  0
  152.1106  139.8974  155.5358 O   0  0  0  0  0  0  0  0  0  0  0  0
  149.9569  140.5913  155.6610 N   0  0  0  0  0  0  0  0  0  0  0  0
  149.4750  140.0519  154.3918 C   0  0  1  0  0  0  0  0  0  0  0  0
  149.9058  138.5770  154.2693 C   0  0  0  0  0  0  0  0  0  0  0  0
  147.9426  140.2568  154.2819 C   0  0  1  0  0  0  0  0  0  0  0  0
  147.5478  141.7252  154.0383 C   0  0  0  0  0  0  0  0  0  0  0  0
  147.3562  139.4097  153.2527 N   0  0  0  0  0  0  0  0  0  0  0  0
  147.4060  139.4932  151.9208 C   0  0  0  0  0  0  0  0  0  0  0  0
  146.7357  138.5344  151.2975 N   0  0  0  0  0  0  0  0  0  0  0  0
  146.2606  137.8487  152.3792 C   0  0  0  0  0  0  0  0  0  0  0  0
  146.6006  138.3328  153.5737 N   0  0  0  0  0  0  0  0  0  0  0  0
  152.9477  138.4875  159.3177 H   0  0  0  0  0  0  0  0  0  0  0  0
  153.7569  139.9131  158.6748 H   0  0  0  0  0  0  0  0  0  0  0  0
  153.0152  138.7497  157.5774 H   0  0  0  0  0  0  0  0  0  0  0  0
  150.7564  139.3155  158.5170 H   0  0  0  0  0  0  0  0  0  0  0  0
  151.4832  140.4793  159.5968 H   0  0  0  0  0  0  0  0  0  0  0  0
  152.4042  141.6584  157.4884 H   0  0  0  0  0  0  0  0  0  0  0  0
  149.8622  143.7686  158.8133 H   0  0  0  0  0  0  0  0  0  0  0  0
  152.2787  143.5249  156.9742 H   0  0  0  0  0  0  0  0  0  0  0  0
  150.9572  144.6803  156.8254 H   0  0  0  0  0  0  0  0  0  0  0  0
  153.3389  145.2743  158.1058 H   0  0  0  0  0  0  0  0  0  0  0  0
  151.8184  146.0165  158.5811 H   0  0  0  0  0  0  0  0  0  0  0  0
  153.4010  144.2216  160.2112 H   0  0  0  0  0  0  0  0  0  0  0  0
  151.8483  144.9534  160.5895 H   0  0  0  0  0  0  0  0  0  0  0  0
  151.1436  142.6780  160.5458 H   0  0  0  0  0  0  0  0  0  0  0  0
  152.4127  142.2461  159.4043 H   0  0  0  0  0  0  0  0  0  0  0  0
  149.2812  141.0807  156.2298 H   0  0  0  0  0  0  0  0  0  0  0  0
  149.9430  140.6051  153.5750 H   0  0  0  0  0  0  0  0  0  0  0  0
  149.6414  138.1572  153.2989 H   0  0  0  0  0  0  0  0  0  0  0  0
  149.4342  137.9630  155.0373 H   0  0  0  0  0  0  0  0  0  0  0  0
  150.9859  138.4714  154.3776 H   0  0  0  0  0  0  0  0  0  0  0  0
  147.5015  139.9581  155.2352 H   0  0  0  0  0  0  0  0  0  0  0  0
  147.8715  142.3703  154.8552 H   0  0  0  0  0  0  0  0  0  0  0  0
  146.4654  141.8291  153.9548 H   0  0  0  0  0  0  0  0  0  0  0  0
  147.9902  142.1079  153.1181 H   0  0  0  0  0  0  0  0  0  0  0  0
  147.9445  140.2697  151.3974 H   0  0  0  0  0  0  0  0  0  0  0  0
  145.6440  136.9671  152.2835 H   0  0  0  0  0  0  0  0  0  0  0  0
  1  2  1  0  0  0  0
  1 22  1  0  0  0  0
  1 23  1  0  0  0  0
  1 24  1  0  0  0  0
  2  3  1  0  0  0  0
  2 25  1  0  0  0  0
  2 26  1  0  0  0  0
  3  4  1  0  0  0  0
  3 10  1  0  0  0  0
  3 27  1  0  0  0  0
  4  5  1  0  0  0  0
  5  9  1  0  0  0  0
  5  6  1  0  0  0  0
  5 28  1  0  0  0  0
  6  7  1  0  0  0  0
  6 29  1  0  0  0  0
  6 30  1  0  0  0  0
  7  8  1  0  0  0  0
  7 31  1  0  0  0  0
  7 32  1  0  0  0  0
  8  9  1  0  0  0  0
  8 33  1  0  0  0  0
  8 34  1  0  0  0  0
  9 35  1  0  0  0  0
  9 36  1  0  0  0  0
 10 11  2  0  0  0  0
 10 12  1  0  0  0  0
 12 13  1  0  0  0  0
 12 37  1  0  0  0  0
 13 14  1  0  0  0  0
 13 15  1  0  0  0  0
 13 38  1  0  0  0  0
 14 39  1  0  0  0  0
 14 40  1  0  0  0  0
 14 41  1  0  0  0  0
 15 16  1  0  0  0  0
 15 17  1  0  0  0  0
 15 42  1  0  0  0  0
 16 43  1  0  0  0  0
 16 44  1  0  0  0  0
 16 45  1  0  0  0  0
 17 21  1  0  0  0  0
 17 18  1  0  0  0  0
 18 19  2  0  0  0  0
 18 46  1  0  0  0  0
 19 20  1  0  0  0  0
 20 21  2  0  0  0  0
 20 47  1  0  0  0  0
M  END
> <s_m_source_file>
AV-unprocessed.smi

> <i_m_source_file_index>
2902

> <i_lp_mmshare_version>
43012

> <i_f3d_flags>
0

> <s_epik_input>
W0NIMl0xW0NIMl1bQ0gyXVtDSDJdW0NIXTFPW0NAQEhdKFtDSDJdW0NIM10pQyg9TylbTkhdW0NASF0oW0NIM10pW0NASF0oW0NIM10pbjJbY0hdbltjSF1uMg==

> <s_epik_cmdline>
J2VwaWtfcHl0aG9uJywgJy1waCcsICc3LjAnLCAnLXRuJywgJzgnLCAnLW1hJywgJzIwMCcsICctbWV0YWxfYmluZGluZycsICctaW1hZScsICc8aW5maWxlLm1hZT4nLCAnLW9tYWUnLCAnPG91dGZpbGUubWFlPic=

> <r_lp_tautomer_probability>
1

> <r_epik_Ionization_Penalty>
6.95617e-05

> <r_epik_Ionization_Penalty_Charging>
0

> <r_epik_Ionization_Penalty_Neutral>
6.95617e-05

> <r_epik_State_Penalty>
-0

> <r_epik_Charging_Adjusted_Penalty>
0

> <i_epik_Tot_Q>
0

> <i_epik_Tot_abs_Q>
0

> <r_epik_Metal_State_Penalty>
-0

> <b_epik_Metal_Only>
0

> <s_lp_Force_Field>
OPLS_2005

> <r_lp_Energy>
29.96

> <b_lp_Chiralities_Consistent>
1

> <s_lp_Variant>
AV-unprocessed.smi:2902-7

> <Gold.Version>
5.8.1

> <Gold.Id.Protein>
6NUR|6NUR_protein|mol2

> <Gold.PLP.Fitness>
44.2196

> <Gold.PLP.PLP>
-42.2459

> <Gold.PLP.part.hbond>
-1.9857

> <Gold.PLP.part.metal>
0.0000

> <Gold.PLP.part.buried>
2.6683

> <Gold.PLP.part.nonpolar>
-42.5179

> <Gold.PLP.part.repulsive>
0.7863

> <Gold.PLP.ligand.clash>
0.0000

> <Gold.PLP.ligand.torsion>
1.5731

> <Gold.PLP.Chemscore.Hbond>
1.4134

> <Gold.PLP.Chemscore.CHOScore>
0.1692

> <Gold.PLP.Chemscore.Metal>
0.0000

> <Gold.Chemscore.Hbonds>
donor molecule, donor type, donor heavy atom, donor atom, acceptor molecule, acceptor atom, score
      P1  H  7954  7966       L1    19  0.81
      P1  H  7989  7998       L1    11  0.20
      P1  H  7997  8008       L1    11  0.10
      L1  C    18    46       P1  7957  0.04

> <Gold.PLP.Chemscore.Internal.Correction>
0.3720

> <Gold.Rescore>
     Score         DG    S(hbond)    S(metal)    S(lipo)     H(rot)  DE(clash)    DE(int)     intcor
      8.71     -14.11       0.94        0.00     105.81       2.69       2.17       3.22       ----

> <Gold.Chemscore.Fitness>
8.7122

> <Gold.Chemscore.DG>
-14.1098

> <Gold.Chemscore.ZeroCoef>
-5.4800

> <Gold.Chemscore.Hbond>
0.9419

> <Gold.Chemscore.Metal>
0.0000

> <Gold.Chemscore.Lipo>
105.8051

> <Gold.Chemscore.Internal_Hbond>
0.0000

> <Gold.Chemscore.DEClash>
2.1729

> <Gold.Chemscore.DEInternal>
3.2246

> <Gold.Chemscore.Rot>
2.6935

> <Gold.Chemscore.Internal.Correction>
   9.000000E+99

> <Gold.Chemscore.Hbonds>
donor molecule, donor type, donor heavy atom, donor atom, acceptor molecule, acceptor atom, score
      P1  H  7954  7966       L1    19  0.24
      P1  H  7989  7998       L1    11  0.03
      P1  H  7997  8008       L1    11  0.12

> <Gold.Chemscore.Hbond.Weighted>
-3.1459

> <Gold.Chemscore.Metal.Weighted>
-0.0000

> <Gold.Chemscore.Lipo.Weighted>
-12.3792

> <Gold.Chemscore.Internal_Hbond.Weighted>
0.0000

> <Gold.Chemscore.DEClash.Weighted>
2.1729

> <Gold.Chemscore.DEInternal.Weighted>
3.2246

> <Gold.Chemscore.Rot.Weighted>
6.8954

> <Gold.Chemscore.Internal.Correction.Weighted>
   9.000000E+99

> <Gold.Protein.RotatedTorsions>
[ 6907 6896 6895 6894 ] final  154.83 input  -60.11 | X-H torsion
[ 7974 7965 7964 7962 ] final  -63.04 input  175.53 | X-H torsion
[ 8008 7997 7996 7995 ] final  -14.24 input   59.86 | X-H torsion
[ 10167 10162 10161 10158 ] final   40.31 input  -65.29 | X-H torsion
[ 10718 10713 10712 10709 ] final  -47.28 input   66.30 | X-H torsion
[ 10763 10752 10751 10750 ] final   56.78 input  -60.55 | X-H torsion
[ 11005 11000 10999 10996 ] final   16.15 input  -57.11 | X-H torsion

> <Gold.Protein.ActiveResidues>
 VAL166  LYS551  ARG553  GLY616  TRP617  ASP618  TYR619  PRO620  LYS621  CYS622 
 ASP623  PHE694  ASN695  SER759  ASP760  ASP761  ALA762  ILE779  LEU786  VAL792 
 PHE793  MET794  SER795  GLU796  ALA797  LYS798  CYS799  TRP800  GLU811  SER814 

> <Gold.Protein.RotatedAtoms>
  152.0529  133.4027  159.4384 H   0  0  0  0  0  0  0  0  0  0  0  0  # atno 6907 bound_to 6896
  150.6869  134.3288  159.4827 H   0  0  0  0  0  0  0  0  0  0  0  0  # atno 6908 bound_to 6896
  152.1100  134.9281  160.0617 H   0  0  0  0  0  0  0  0  0  0  0  0  # atno 6909 bound_to 6896
  145.7839  140.8747  143.0316 H   0  0  0  0  0  0  0  0  0  0  0  0  # atno 7974 bound_to 7965
  154.5226  140.2228  155.8948 H   0  0  0  0  0  0  0  0  0  0  0  0  # atno 8008 bound_to 7997
  156.1679  140.3128  155.8885 H   0  0  0  0  0  0  0  0  0  0  0  0  # atno 8009 bound_to 7997
  155.3619  140.0461  157.3037 H   0  0  0  0  0  0  0  0  0  0  0  0  # atno 8010 bound_to 7997
  140.3754  144.2050  150.6132 H   0  0  0  0  0  0  0  0  0  0  0  0  # atno 10167 bound_to 10162
  156.2100  130.4160  149.9127 H   0  0  0  0  0  0  0  0  0  0  0  0  # atno 10718 bound_to 10713
  152.9838  135.5664  154.5284 H   0  0  0  0  0  0  0  0  0  0  0  0  # atno 10763 bound_to 10752
  154.4760  135.2786  155.1609 H   0  0  0  0  0  0  0  0  0  0  0  0  # atno 10764 bound_to 10752
  154.3137  135.6283  153.5530 H   0  0  0  0  0  0  0  0  0  0  0  0  # atno 10765 bound_to 10752
  140.4504  134.1230  155.7701 H   0  0  0  0  0  0  0  0  0  0  0  0  # atno 11005 bound_to 11000
  144.6792  140.0027  143.7484 LP  0  0  0  0  0  0  0  0  0  0  0  0  # atno 17320 bound_to 7965
  146.0046  139.3119  143.0907 LP  0  0  0  0  0  0  0  0  0  0  0  0  # atno 17321 bound_to 7965
  140.4991  143.2323  151.8705 LP  0  0  0  0  0  0  0  0  0  0  0  0  # atno 17342 bound_to 10162
  139.4800  144.5080  151.8972 LP  0  0  0  0  0  0  0  0  0  0  0  0  # atno 17343 bound_to 10162
  156.6809  130.8857  151.3575 LP  0  0  0  0  0  0  0  0  0  0  0  0  # atno 17370 bound_to 10713
  157.7033  130.9357  150.0853 LP  0  0  0  0  0  0  0  0  0  0  0  0  # atno 17371 bound_to 10713
  141.1667  133.8689  157.1694 LP  0  0  0  0  0  0  0  0  0  0  0  0  # atno 17394 bound_to 11000
  140.0011  135.0027  157.0191 LP  0  0  0  0  0  0  0  0  0  0  0  0  # atno 17395 bound_to 11000

$$$$
