#       Name:                AV-unprocessed.smi:1197
#       Creating user name   scv26
#       Creation time:       Fri Mar 27 04:02:27 2020


#       File generated by GOLD software.
#

@<TRIPOS>MOLECULE
AV-unprocessed.smi:1197
    48    49     1
SMALL
NO_CHARGES


@<TRIPOS>ATOM
      1 ****        -7.8265   2.6538  -0.9896 C.3            1 S1                 0.0000
      2 ****        -7.2979   1.3332  -1.0383 O.3            1 S1                 0.0000
      3 ****        -5.9273   1.1753  -1.0272 C.ar           1 S1                 0.0000
      4 ****        -5.3987  -0.1298  -1.0785 C.ar           1 S1                 0.0000
      5 ****        -4.0011  -0.3000  -1.0669 C.ar           1 S1                 0.0000
      6 ****        -3.1732   0.8456  -0.9962 C.ar           1 S1                 0.0000
      7 ****        -1.7528   0.8045  -1.0000 N.am           1 S1                 0.0000
      8 ****        -0.9486  -0.2066  -0.6296 C.2            1 S1                 0.0000
      9 ****        -1.3286  -1.2846  -0.1731 O.2            1 S1                 0.0000
     10 ****         0.3423   0.1133  -0.8001 N.am           1 S1                 0.0000
     11 ****         1.4766  -0.7481  -0.4828 C.3            1 S1                 0.0000
     12 ****         2.5414   0.0320   0.3056 C.3            1 S1                 0.0000
     13 ****         3.7285  -0.8013   0.6227 N.4            1 S1                 1.0000
     14 ****         4.9461   0.0099   0.8618 C.3            1 S1                 0.0000
     15 ****         6.1562  -0.9008   1.1322 C.3            1 S1                 0.0000
     16 ****         5.8773  -1.7514   2.2370 O.3            1 S1                 0.0000
     17 ****         4.7621  -2.5982   1.9890 C.3            1 S1                 0.0000
     18 ****         3.5071  -1.7423   1.7489 C.3            1 S1                 0.0000
     19 ****        -3.8009   2.1080  -0.9644 C.ar           1 S1                 0.0000
     20 ****        -5.1398   2.2781  -0.9735 N.ar           1 S1                 0.0000
     21 ****        -8.9150   2.6074  -1.0162 H              1 S1                 0.0000
     22 ****        -7.5002   3.2468  -1.8451 H              1 S1                 0.0000
     23 ****        -7.5397   3.1641  -0.0690 H              1 S1                 0.0000
     24 ****        -6.0540  -0.9866  -1.1315 H              1 S1                 0.0000
     25 ****        -3.5954  -1.2980  -1.1277 H              1 S1                 0.0000
     26 ****        -1.2961   1.6644  -1.2671 H              1 S1                 0.0000
     27 ****         0.5560   1.0233  -1.1816 H              1 S1                 0.0000
     28 ****         1.1529  -1.6240   0.0795 H              1 S1                 0.0000
     29 ****         1.8985  -1.1168  -1.4182 H              1 S1                 0.0000
     30 ****         2.8535   0.8845  -0.2998 H              1 S1                 0.0000
     31 ****         2.1220   0.4444   1.2249 H              1 S1                 0.0000
     32 ****         5.1498   0.6383  -0.0059 H              1 S1                 0.0000
     33 ****         4.7820   0.6764   1.7100 H              1 S1                 0.0000
     34 ****         6.4015  -1.4962   0.2513 H              1 S1                 0.0000
     35 ****         7.0351  -0.2987   1.3638 H              1 S1                 0.0000
     36 ****         4.9623  -3.2450   1.1333 H              1 S1                 0.0000
     37 ****         4.6135  -3.2484   2.8514 H              1 S1                 0.0000
     38 ****         3.2632  -1.1817   2.6528 H              1 S1                 0.0000
     39 ****         2.6609  -2.3965   1.5425 H              1 S1                 0.0000
     40 ****        -3.2111   3.0122  -0.9260 H              1 S1                 0.0000
     41 ****         3.9185  -1.3590  -0.1979 H              1 S1                 0.0000
     42 ****        -7.6378   0.9092  -1.8778 LP             1 S1                 0.0000
     43 ****        -7.6589   0.8406  -0.2464 LP             1 S1                 0.0000
     44 ****        -2.3057  -1.4603  -0.0532 LP             1 S1                 0.0000
     45 ****        -0.6602  -1.9848   0.0778 LP             1 S1                 0.0000
     46 ****         5.6816  -1.1862   3.0383 LP             1 S1                 0.0000
     47 ****         6.6801  -2.3195   2.4178 LP             1 S1                 0.0000
     48 ****        -5.5408   3.1936  -0.9415 LP             1 S1                 0.0000
@<TRIPOS>BOND
    1    1    2 1     
    2    1   21 1     
    3    1   22 1     
    4    1   23 1     
    5    2    3 1     
    6    3   20 ar    
    7    3    4 ar    
    8    4    5 ar    
    9    4   24 1     
   10    5    6 ar    
   11    5   25 1     
   12    6    7 1     
   13    6   19 ar    
   14    7    8 am    
   15    7   26 1     
   16    8    9 2     
   17    8   10 am    
   18   10   11 1     
   19   10   27 1     
   20   11   12 1     
   21   11   28 1     
   22   11   29 1     
   23   12   13 1     
   24   12   30 1     
   25   12   31 1     
   26   13   18 1     
   27   13   14 1     
   28   13   41 1     
   29   14   15 1     
   30   14   32 1     
   31   14   33 1     
   32   15   16 1     
   33   15   34 1     
   34   15   35 1     
   35   16   17 1     
   36   17   18 1     
   37   17   36 1     
   38   17   37 1     
   39   18   38 1     
   40   18   39 1     
   41   19   20 ar    
   42   19   40 1     
   43    2   42 1     
   44    2   43 1     
   45    9   44 1     
   46    9   45 1     
   47   16   46 1     
   48   16   47 1     
   49   20   48 1     
@<TRIPOS>SUBSTRUCTURE
      1 S1             1
@<TRIPOS>SET
LONE_PAIRS      STATIC     ATOMS    <user>   **** ""
7 42 43 44 45 46 47 48
DONOR_HYDROGENS      STATIC     ATOMS    <user>   **** ""
3 26 27 41
ATOM$BLUE        STATIC     ATOMS    COLORGROUP SYSTEM
7 42 43 44 45 46 47 48
ATOM$RED        STATIC     ATOMS    COLORGROUP SYSTEM
3 26 27 41
