AV-unprocessed.smi:2304|AV-procd|sdf|9244|dock6
  -GOLD-   2272012463D 1   1.00000     0.00000
 Structure written by MMmdl.
 37 38  0  0  0  0  0  0  0  0  1 V2000
  151.6463  138.5360  154.2808 C   0  0  0  0  0  0  0  0  0  0  0  0
  150.3114  138.5948  154.7509 O   0  0  0  0  0  0  0  0  0  0  0  0
  150.0989  139.6634  155.6594 C   0  0  0  0  0  0  0  0  0  0  0  0
  149.9824  140.9987  154.9036 C   0  0  2  0  0  0  0  0  0  0  0  0
  149.9609  142.0825  155.8818 N   0  0  0  0  0  0  0  0  0  0  0  0
  150.7559  142.1783  156.9574 C   0  0  0  0  0  0  0  0  0  0  0  0
  151.6057  141.3376  157.2528 O   0  0  0  0  0  0  0  0  0  0  0  0
  150.4981  143.3006  157.6518 N   0  0  0  0  0  0  0  0  0  0  0  0
  151.1245  143.7611  158.8407 C   0  0  0  0  0  0  0  0  0  0  0  0
  151.2069  145.1660  158.9692 C   0  0  0  0  0  0  0  0  0  0  0  0
  151.8102  145.7227  160.1135 C   0  0  0  0  0  0  0  0  0  0  0  0
  152.3161  144.8600  161.1021 C   0  0  0  0  0  0  0  0  0  0  0  0
  152.1941  143.4718  160.8972 C   0  0  0  0  0  0  0  0  0  0  0  0
  152.7178  142.4842  161.9186 C   0  0  0  0  0  0  0  0  0  0  0  0
  151.6163  142.9376  159.7998 N   0  0  0  0  0  0  0  0  0  0  0  0
  148.7874  141.0153  153.9616 C   0  0  0  0  0  0  0  0  0  0  0  0
  147.7513  142.1140  154.0168 C   0  0  0  0  0  0  0  0  0  0  0  0
  147.3922  140.7140  154.4572 C   0  0  0  0  0  0  0  0  0  0  0  0
  151.7533  137.6999  153.5897 H   0  0  0  0  0  0  0  0  0  0  0  0
  152.3480  138.3857  155.1023 H   0  0  0  0  0  0  0  0  0  0  0  0
  151.9182  139.4490  153.7495 H   0  0  0  0  0  0  0  0  0  0  0  0
  149.1853  139.4776  156.2270 H   0  0  0  0  0  0  0  0  0  0  0  0
  150.9220  139.7108  156.3746 H   0  0  0  0  0  0  0  0  0  0  0  0
  150.8832  141.0977  154.2942 H   0  0  0  0  0  0  0  0  0  0  0  0
  149.2915  142.8207  155.7208 H   0  0  0  0  0  0  0  0  0  0  0  0
  149.7701  143.8964  157.2866 H   0  0  0  0  0  0  0  0  0  0  0  0
  150.8128  145.8151  158.2005 H   0  0  0  0  0  0  0  0  0  0  0  0
  151.8831  146.7940  160.2297 H   0  0  0  0  0  0  0  0  0  0  0  0
  152.7845  145.2556  161.9914 H   0  0  0  0  0  0  0  0  0  0  0  0
  153.0603  142.9919  162.8209 H   0  0  0  0  0  0  0  0  0  0  0  0
  153.5550  141.9211  161.5052 H   0  0  0  0  0  0  0  0  0  0  0  0
  151.9357  141.7794  162.2025 H   0  0  0  0  0  0  0  0  0  0  0  0
  149.0215  140.6460  152.9648 H   0  0  0  0  0  0  0  0  0  0  0  0
  147.8536  142.8714  154.7917 H   0  0  0  0  0  0  0  0  0  0  0  0
  147.3429  142.4659  153.0717 H   0  0  0  0  0  0  0  0  0  0  0  0
  146.7444  140.1305  153.8062 H   0  0  0  0  0  0  0  0  0  0  0  0
  147.2530  140.5480  155.5236 H   0  0  0  0  0  0  0  0  0  0  0  0
  1  2  1  0  0  0  0
  1 19  1  0  0  0  0
  1 20  1  0  0  0  0
  1 21  1  0  0  0  0
  2  3  1  0  0  0  0
  3  4  1  0  0  0  0
  3 22  1  0  0  0  0
  3 23  1  0  0  0  0
  4  5  1  0  0  0  0
  4 16  1  0  0  0  0
  4 24  1  0  0  0  0
  5  6  1  0  0  0  0
  5 25  1  0  0  0  0
  6  7  2  0  0  0  0
  6  8  1  0  0  0  0
  8  9  1  0  0  0  0
  8 26  1  0  0  0  0
  9 15  1  0  0  0  0
  9 10  2  0  0  0  0
 10 11  1  0  0  0  0
 10 27  1  0  0  0  0
 11 12  2  0  0  0  0
 11 28  1  0  0  0  0
 12 13  1  0  0  0  0
 12 29  1  0  0  0  0
 13 14  1  0  0  0  0
 13 15  2  0  0  0  0
 14 30  1  0  0  0  0
 14 31  1  0  0  0  0
 14 32  1  0  0  0  0
 16 18  1  0  0  0  0
 16 17  1  0  0  0  0
 16 33  1  0  0  0  0
 17 18  1  0  0  0  0
 17 34  1  0  0  0  0
 17 35  1  0  0  0  0
 18 36  1  0  0  0  0
 18 37  1  0  0  0  0
M  END
> <s_m_source_file>
AV-unprocessed.smi

> <i_m_source_file_index>
2304

> <i_lp_mmshare_version>
43012

> <i_f3d_flags>
0

> <s_epik_input>
W0NIM11PW0NIMl1bQ0BASF0oW0NIXTFbQ0gyXVtDSDJdMSlbTkhdQyg9TylbTkhdYzJbY0hdW2NIXVtjSF1jKG4yKVtDSDNd

> <s_epik_cmdline>
J2VwaWtfcHl0aG9uJywgJy1waCcsICc3LjAnLCAnLXRuJywgJzgnLCAnLW1hJywgJzIwMCcsICctbWV0YWxfYmluZGluZycsICctaW1hZScsICc8aW5maWxlLm1hZT4nLCAnLW9tYWUnLCAnPG91dGZpbGUubWFlPic=

> <r_lp_tautomer_probability>
1

> <r_epik_Ionization_Penalty>
8.58396e-05

> <r_epik_Ionization_Penalty_Charging>
0

> <r_epik_Ionization_Penalty_Neutral>
8.58396e-05

> <r_epik_State_Penalty>
-0

> <r_epik_Charging_Adjusted_Penalty>
0

> <i_epik_Tot_Q>
0

> <i_epik_Tot_abs_Q>
0

> <r_epik_Metal_State_Penalty>
-0

> <b_epik_Metal_Only>
0

> <s_lp_Force_Field>
OPLS_2005

> <r_lp_Energy>
16.2574

> <b_lp_Chiralities_Consistent>
1

> <s_lp_Variant>
AV-unprocessed.smi:2304-1

> <Gold.Version>
5.8.1

> <Gold.Id.Protein>
6NUR|6NUR_protein|mol2

> <Gold.PLP.Fitness>
45.2838

> <Gold.PLP.PLP>
-40.8084

> <Gold.PLP.part.hbond>
-2.0000

> <Gold.PLP.part.metal>
0.0000

> <Gold.PLP.part.buried>
-4.7105

> <Gold.PLP.part.nonpolar>
-33.0501

> <Gold.PLP.part.repulsive>
0.2954

> <Gold.PLP.ligand.clash>
0.0000

> <Gold.PLP.ligand.torsion>
1.2368

> <Gold.PLP.Chemscore.Hbond>
1.9595

> <Gold.PLP.Chemscore.CHOScore>
0.0000

> <Gold.PLP.Chemscore.Metal>
0.0000

> <Gold.Chemscore.Hbonds>
donor molecule, donor type, donor heavy atom, donor atom, acceptor molecule, acceptor atom, score
      L1  H     5    25       P1  8028  0.99
      L1  H     8    26       P1  8028  0.98

> <Gold.PLP.Chemscore.Internal.Correction>
1.0706

> <Gold.Rescore>
     Score         DG    S(hbond)    S(metal)    S(lipo)     H(rot)  DE(clash)    DE(int)     intcor
     14.14     -19.14       1.79        0.00     100.97       1.61       1.42       3.58       ----

> <Gold.Chemscore.Fitness>
14.1369

> <Gold.Chemscore.DG>
-19.1358

> <Gold.Chemscore.ZeroCoef>
-5.4800

> <Gold.Chemscore.Hbond>
1.7887

> <Gold.Chemscore.Metal>
0.0000

> <Gold.Chemscore.Lipo>
100.9741

> <Gold.Chemscore.Internal_Hbond>
0.0000

> <Gold.Chemscore.DEClash>
1.4151

> <Gold.Chemscore.DEInternal>
3.5838

> <Gold.Chemscore.Rot>
1.6142

> <Gold.Chemscore.Internal.Correction>
   9.000000E+99

> <Gold.Chemscore.Hbonds>
donor molecule, donor type, donor heavy atom, donor atom, acceptor molecule, acceptor atom, score
      L1  H     5    25       P1  8028  0.93
      L1  H     8    26       P1  8028  0.66

> <Gold.Chemscore.Hbond.Weighted>
-5.9742

> <Gold.Chemscore.Metal.Weighted>
-0.0000

> <Gold.Chemscore.Lipo.Weighted>
-11.8140

> <Gold.Chemscore.Internal_Hbond.Weighted>
0.0000

> <Gold.Chemscore.DEClash.Weighted>
1.4151

> <Gold.Chemscore.DEInternal.Weighted>
3.5838

> <Gold.Chemscore.Rot.Weighted>
4.1323

> <Gold.Chemscore.Internal.Correction.Weighted>
   9.000000E+99

> <Gold.Protein.RotatedTorsions>
[ 6907 6896 6895 6894 ] final   21.13 input  -60.11 | X-H torsion
[ 7974 7965 7964 7962 ] final -115.94 input  175.53 | X-H torsion
[ 8008 7997 7996 7995 ] final  -75.67 input   59.86 | X-H torsion
[ 10167 10162 10161 10158 ] final  131.72 input  -65.29 | X-H torsion
[ 10718 10713 10712 10709 ] final  145.49 input   66.30 | X-H torsion
[ 10763 10752 10751 10750 ] final  -69.95 input  -60.55 | X-H torsion
[ 11005 11000 10999 10996 ] final  -22.60 input  -57.11 | X-H torsion

> <Gold.Protein.ActiveResidues>
 VAL166  LYS551  ARG553  GLY616  TRP617  ASP618  TYR619  PRO620  LYS621  CYS622 
 ASP623  PHE694  ASN695  SER759  ASP760  ASP761  ALA762  ILE779  LEU786  VAL792 
 PHE793  MET794  SER795  GLU796  ALA797  LYS798  CYS799  TRP800  GLU811  SER814 

> <Gold.Protein.RotatedAtoms>
  151.9071  135.0354  160.0511 H   0  0  0  0  0  0  0  0  0  0  0  0  # atno 6907 bound_to 6896
  152.2310  133.5054  159.5224 H   0  0  0  0  0  0  0  0  0  0  0  0  # atno 6908 bound_to 6896
  150.7025  134.1133  159.4050 H   0  0  0  0  0  0  0  0  0  0  0  0  # atno 6909 bound_to 6896
  145.1026  140.8561  143.3917 H   0  0  0  0  0  0  0  0  0  0  0  0  # atno 7974 bound_to 7965
  154.5437  140.0740  156.8553 H   0  0  0  0  0  0  0  0  0  0  0  0  # atno 8008 bound_to 7997
  155.3129  140.3391  155.4225 H   0  0  0  0  0  0  0  0  0  0  0  0  # atno 8009 bound_to 7997
  156.1898  140.1682  156.8100 H   0  0  0  0  0  0  0  0  0  0  0  0  # atno 8010 bound_to 7997
  139.5371  144.6694  151.4748 H   0  0  0  0  0  0  0  0  0  0  0  0  # atno 10167 bound_to 10162
  157.3447  131.0941  151.1052 H   0  0  0  0  0  0  0  0  0  0  0  0  # atno 10718 bound_to 10713
  154.4108  135.6009  153.5951 H   0  0  0  0  0  0  0  0  0  0  0  0  # atno 10763 bound_to 10752
  152.9790  135.5929  154.4073 H   0  0  0  0  0  0  0  0  0  0  0  0  # atno 10764 bound_to 10752
  154.3885  135.2842  155.2147 H   0  0  0  0  0  0  0  0  0  0  0  0  # atno 10765 bound_to 10752
  140.8672  133.7746  156.0144 H   0  0  0  0  0  0  0  0  0  0  0  0  # atno 11005 bound_to 11000
  145.0938  139.2871  143.5721 LP  0  0  0  0  0  0  0  0  0  0  0  0  # atno 17320 bound_to 7965
  146.3529  140.0484  142.8637 LP  0  0  0  0  0  0  0  0  0  0  0  0  # atno 17321 bound_to 7965
  140.6583  143.8552  150.6860 LP  0  0  0  0  0  0  0  0  0  0  0  0  # atno 17342 bound_to 10162
  140.1938  143.4014  152.1843 LP  0  0  0  0  0  0  0  0  0  0  0  0  # atno 17343 bound_to 10162
  157.2251  130.6499  149.5827 LP  0  0  0  0  0  0  0  0  0  0  0  0  # atno 17370 bound_to 10713
  155.9712  130.4617  150.6118 LP  0  0  0  0  0  0  0  0  0  0  0  0  # atno 17371 bound_to 10713
  140.8615  134.2835  157.5232 LP  0  0  0  0  0  0  0  0  0  0  0  0  # atno 17394 bound_to 11000
  139.8710  134.9520  156.4103 LP  0  0  0  0  0  0  0  0  0  0  0  0  # atno 17395 bound_to 11000

$$$$
