AV-unprocessed.smi:2104|AV-procd|sdf|8584|dock6
  -GOLD-   2272011313D 1   1.00000     0.00000
 Structure written by MMmdl.
 43 44  0  0  0  0  0  0  0  0  1 V2000
  144.6475  131.5940  150.3399 C   0  0  0  0  0  0  0  0  0  0  0  0
  144.8586  133.0301  150.6773 C   0  0  0  0  0  0  0  0  0  0  0  0
  145.9402  133.7296  151.1338 C   0  0  0  0  0  0  0  0  0  0  0  0
  145.4423  135.0557  151.2387 C   0  0  0  0  0  0  0  0  0  0  0  0
  146.2762  136.1135  151.6825 N   0  0  0  0  0  0  0  0  0  0  0  0
  145.8935  137.3066  152.1675 C   0  0  0  0  0  0  0  0  0  0  0  0
  144.7284  137.6423  152.3826 O   0  0  0  0  0  0  0  0  0  0  0  0
  146.9486  138.1072  152.3793 N   0  0  0  0  0  0  0  0  0  0  0  0
  146.8709  139.5034  152.7977 C   0  0  0  0  0  0  0  0  0  0  0  0
  147.0133  139.6347  154.3216 C   0  0  0  0  0  0  0  0  0  0  0  0
  148.2656  139.0924  154.7106 O   0  0  0  0  0  0  0  0  0  0  0  0
  149.4007  139.8875  154.3934 C   0  0  1  0  0  0  0  0  0  0  0  0
  149.2375  141.3129  154.9658 C   0  0  0  0  0  0  0  0  0  0  0  0
  149.1814  141.3088  156.5029 C   0  0  0  0  0  0  0  0  0  0  0  0
  150.4107  140.6113  157.1043 C   0  0  0  0  0  0  0  0  0  0  0  0
  150.5837  139.1932  156.5372 C   0  0  0  0  0  0  0  0  0  0  0  0
  150.6476  139.2020  154.9958 C   0  0  1  0  0  0  0  0  0  0  0  0
  150.8623  137.7914  154.4257 C   0  0  0  0  0  0  0  0  0  0  0  0
  144.1728  135.1570  150.8756 N   0  0  0  0  0  0  0  0  0  0  0  0
  143.7919  133.8591  150.5150 O   0  0  0  0  0  0  0  0  0  0  0  0
  145.5308  131.0029  150.5821 H   0  0  0  0  0  0  0  0  0  0  0  0
  144.4415  131.4742  149.2763 H   0  0  0  0  0  0  0  0  0  0  0  0
  143.8044  131.1855  150.8972 H   0  0  0  0  0  0  0  0  0  0  0  0
  146.9269  133.3509  151.3554 H   0  0  0  0  0  0  0  0  0  0  0  0
  147.2687  135.9617  151.5802 H   0  0  0  0  0  0  0  0  0  0  0  0
  147.8697  137.7426  152.1852 H   0  0  0  0  0  0  0  0  0  0  0  0
  147.6199  140.1092  152.2850 H   0  0  0  0  0  0  0  0  0  0  0  0
  145.8985  139.8879  152.4894 H   0  0  0  0  0  0  0  0  0  0  0  0
  146.9729  140.6850  154.6127 H   0  0  0  0  0  0  0  0  0  0  0  0
  146.1835  139.1290  154.8152 H   0  0  0  0  0  0  0  0  0  0  0  0
  149.5198  139.9389  153.3094 H   0  0  0  0  0  0  0  0  0  0  0  0
  150.0801  141.9251  154.6421 H   0  0  0  0  0  0  0  0  0  0  0  0
  148.3478  141.7973  154.5647 H   0  0  0  0  0  0  0  0  0  0  0  0
  149.1163  142.3313  156.8755 H   0  0  0  0  0  0  0  0  0  0  0  0
  148.2753  140.8031  156.8371 H   0  0  0  0  0  0  0  0  0  0  0  0
  151.3037  141.2002  156.8922 H   0  0  0  0  0  0  0  0  0  0  0  0
  150.3184  140.5683  158.1900 H   0  0  0  0  0  0  0  0  0  0  0  0
  151.4913  138.7473  156.9454 H   0  0  0  0  0  0  0  0  0  0  0  0
  149.7570  138.5645  156.8716 H   0  0  0  0  0  0  0  0  0  0  0  0
  151.5171  139.7946  154.7076 H   0  0  0  0  0  0  0  0  0  0  0  0
  150.0437  137.1233  154.6956 H   0  0  0  0  0  0  0  0  0  0  0  0
  151.7856  137.3524  154.8045 H   0  0  0  0  0  0  0  0  0  0  0  0
  150.9295  137.8138  153.3378 H   0  0  0  0  0  0  0  0  0  0  0  0
  1  2  1  0  0  0  0
  1 21  1  0  0  0  0
  1 22  1  0  0  0  0
  1 23  1  0  0  0  0
  2 20  1  0  0  0  0
  2  3  2  0  0  0  0
  3  4  1  0  0  0  0
  3 24  1  0  0  0  0
  4  5  1  0  0  0  0
  4 19  2  0  0  0  0
  5  6  1  0  0  0  0
  5 25  1  0  0  0  0
  6  7  2  0  0  0  0
  6  8  1  0  0  0  0
  8  9  1  0  0  0  0
  8 26  1  0  0  0  0
  9 10  1  0  0  0  0
  9 27  1  0  0  0  0
  9 28  1  0  0  0  0
 10 11  1  0  0  0  0
 10 29  1  0  0  0  0
 10 30  1  0  0  0  0
 11 12  1  0  0  0  0
 12 17  1  0  0  0  0
 12 13  1  0  0  0  0
 12 31  1  0  0  0  0
 13 14  1  0  0  0  0
 13 32  1  0  0  0  0
 13 33  1  0  0  0  0
 14 15  1  0  0  0  0
 14 34  1  0  0  0  0
 14 35  1  0  0  0  0
 15 16  1  0  0  0  0
 15 36  1  0  0  0  0
 15 37  1  0  0  0  0
 16 17  1  0  0  0  0
 16 38  1  0  0  0  0
 16 39  1  0  0  0  0
 17 18  1  0  0  0  0
 17 40  1  0  0  0  0
 18 41  1  0  0  0  0
 18 42  1  0  0  0  0
 18 43  1  0  0  0  0
 19 20  1  0  0  0  0
M  END
> <s_m_source_file>
AV-unprocessed.smi

> <i_m_source_file_index>
2104

> <i_lp_mmshare_version>
43012

> <i_f3d_flags>
0

> <s_epik_input>
W0NIM11jMVtjSF1jKG5vMSlbTkhdQyg9TylbTkhdW0NIMl1bQ0gyXU9bQ0BASF0yW0NIMl1bQ0gyXVtDSDJdW0NIMl1bQ0BIXTJbQ0gzXQ==

> <s_epik_cmdline>
J2VwaWtfcHl0aG9uJywgJy1waCcsICc3LjAnLCAnLXRuJywgJzgnLCAnLW1hJywgJzIwMCcsICctbWV0YWxfYmluZGluZycsICctaW1hZScsICc8aW5maWxlLm1hZT4nLCAnLW9tYWUnLCAnPG91dGZpbGUubWFlPic=

> <r_lp_tautomer_probability>
1

> <r_epik_Ionization_Penalty>
2.94418e-05

> <r_epik_Ionization_Penalty_Charging>
0

> <r_epik_Ionization_Penalty_Neutral>
2.94418e-05

> <r_epik_State_Penalty>
-0

> <r_epik_Charging_Adjusted_Penalty>
0

> <i_epik_Tot_Q>
0

> <i_epik_Tot_abs_Q>
0

> <r_epik_Metal_State_Penalty>
0.0104148

> <b_epik_Metal_Only>
0

> <s_lp_Force_Field>
OPLS_2005

> <r_lp_Energy>
8.22598

> <b_lp_Chiralities_Consistent>
1

> <s_lp_Variant>
AV-unprocessed.smi:2104-2

> <Gold.Version>
5.8.1

> <Gold.Id.Protein>
6NUR|6NUR_protein|mol2

> <Gold.PLP.Fitness>
38.5596

> <Gold.PLP.PLP>
-33.2026

> <Gold.PLP.part.hbond>
-2.0000

> <Gold.PLP.part.metal>
0.0000

> <Gold.PLP.part.buried>
-2.9278

> <Gold.PLP.part.nonpolar>
-29.3200

> <Gold.PLP.part.repulsive>
0.8518

> <Gold.PLP.ligand.clash>
0.0000

> <Gold.PLP.ligand.torsion>
0.3172

> <Gold.PLP.Chemscore.Hbond>
1.9920

> <Gold.PLP.Chemscore.CHOScore>
0.0000

> <Gold.PLP.Chemscore.Metal>
0.0000

> <Gold.Chemscore.Hbonds>
donor molecule, donor type, donor heavy atom, donor atom, acceptor molecule, acceptor atom, score
      L1  H     5    25       P1  7948  1.00
      L1  H     8    26       P1  7948  0.98

> <Gold.PLP.Chemscore.Internal.Correction>
0.0155

> <Gold.Rescore>
     Score         DG    S(hbond)    S(metal)    S(lipo)     H(rot)  DE(clash)    DE(int)     intcor
     15.10     -16.75       1.94        0.00      79.36       1.75       0.04       1.61       ----

> <Gold.Chemscore.Fitness>
15.0996

> <Gold.Chemscore.DG>
-16.7546

> <Gold.Chemscore.ZeroCoef>
-5.4800

> <Gold.Chemscore.Hbond>
1.9388

> <Gold.Chemscore.Metal>
0.0000

> <Gold.Chemscore.Lipo>
79.3609

> <Gold.Chemscore.Internal_Hbond>
0.0000

> <Gold.Chemscore.DEClash>
0.0438

> <Gold.Chemscore.DEInternal>
1.6112

> <Gold.Chemscore.Rot>
1.7524

> <Gold.Chemscore.Internal.Correction>
   9.000000E+99

> <Gold.Chemscore.Hbonds>
donor molecule, donor type, donor heavy atom, donor atom, acceptor molecule, acceptor atom, score
      L1  H     5    25       P1  7948  0.99
      L1  H     8    26       P1  7948  0.93

> <Gold.Chemscore.Hbond.Weighted>
-6.4755

> <Gold.Chemscore.Metal.Weighted>
-0.0000

> <Gold.Chemscore.Lipo.Weighted>
-9.2852

> <Gold.Chemscore.Internal_Hbond.Weighted>
0.0000

> <Gold.Chemscore.DEClash.Weighted>
0.0438

> <Gold.Chemscore.DEInternal.Weighted>
1.6112

> <Gold.Chemscore.Rot.Weighted>
4.4861

> <Gold.Chemscore.Internal.Correction.Weighted>
   9.000000E+99

> <Gold.Protein.RotatedTorsions>
[ 6907 6896 6895 6894 ] final  -82.54 input  -60.11 | X-H torsion
[ 7974 7965 7964 7962 ] final   60.79 input  175.53 | X-H torsion
[ 8008 7997 7996 7995 ] final -112.31 input   59.86 | X-H torsion
[ 10167 10162 10161 10158 ] final  125.10 input  -65.29 | X-H torsion
[ 10718 10713 10712 10709 ] final   20.95 input   66.30 | X-H torsion
[ 10763 10752 10751 10750 ] final -171.63 input  -60.55 | X-H torsion
[ 11005 11000 10999 10996 ] final   54.77 input  -57.11 | X-H torsion

> <Gold.Protein.ActiveResidues>
 VAL166  LYS551  ARG553  GLY616  TRP617  ASP618  TYR619  PRO620  LYS621  CYS622 
 ASP623  PHE694  ASN695  SER759  ASP760  ASP761  ALA762  ILE779  LEU786  VAL792 
 PHE793  MET794  SER795  GLU796  ALA797  LYS798  CYS799  TRP800  GLU811  SER814 

> <Gold.Protein.RotatedAtoms>
  150.6896  134.3649  159.4966 H   0  0  0  0  0  0  0  0  0  0  0  0  # atno 6907 bound_to 6896
  152.1473  134.9013  160.0559 H   0  0  0  0  0  0  0  0  0  0  0  0  # atno 6908 bound_to 6896
  152.0124  133.3832  159.4262 H   0  0  0  0  0  0  0  0  0  0  0  0  # atno 6909 bound_to 6896
  145.8920  139.3518  143.0643 H   0  0  0  0  0  0  0  0  0  0  0  0  # atno 7974 bound_to 7965
  155.0033  140.0394  157.2369 H   0  0  0  0  0  0  0  0  0  0  0  0  # atno 8008 bound_to 7997
  154.7524  140.2769  155.6258 H   0  0  0  0  0  0  0  0  0  0  0  0  # atno 8009 bound_to 7997
  156.2888  140.2644  156.2282 H   0  0  0  0  0  0  0  0  0  0  0  0  # atno 8010 bound_to 7997
  139.5704  144.6935  151.3794 H   0  0  0  0  0  0  0  0  0  0  0  0  # atno 10167 bound_to 10162
  157.1317  130.6594  149.5954 H   0  0  0  0  0  0  0  0  0  0  0  0  # atno 10718 bound_to 10713
  154.6284  135.2883  155.0245 H   0  0  0  0  0  0  0  0  0  0  0  0  # atno 10763 bound_to 10752
  154.1415  135.6518  153.4947 H   0  0  0  0  0  0  0  0  0  0  0  0  # atno 10764 bound_to 10752
  153.0268  135.5334  154.7102 H   0  0  0  0  0  0  0  0  0  0  0  0  # atno 10765 bound_to 10752
  140.0660  134.5536  155.9099 H   0  0  0  0  0  0  0  0  0  0  0  0  # atno 11005 bound_to 11000
  145.8896  140.9312  143.0559 LP  0  0  0  0  0  0  0  0  0  0  0  0  # atno 17320 bound_to 7965
  144.6731  140.0888  143.7466 LP  0  0  0  0  0  0  0  0  0  0  0  0  # atno 17321 bound_to 7965
  140.6988  143.7682  150.7370 LP  0  0  0  0  0  0  0  0  0  0  0  0  # atno 17342 bound_to 10162
  140.1186  143.4632  152.2327 LP  0  0  0  0  0  0  0  0  0  0  0  0  # atno 17343 bound_to 10162
  155.9806  130.4809  150.6784 LP  0  0  0  0  0  0  0  0  0  0  0  0  # atno 17370 bound_to 10713
  157.4386  131.0858  151.0966 LP  0  0  0  0  0  0  0  0  0  0  0  0  # atno 17371 bound_to 10713
  141.1993  133.6606  156.5835 LP  0  0  0  0  0  0  0  0  0  0  0  0  # atno 17394 bound_to 11000
  140.3699  134.7615  157.4591 LP  0  0  0  0  0  0  0  0  0  0  0  0  # atno 17395 bound_to 11000

$$$$
