AV-unprocessed.smi:270|AV-procd|sdf|2048|dock5
  -GOLD-   2262021273D 1   1.00000     0.00000
 Structure written by MMmdl.
 54 57  0  0  0  0  0  0  0  0  1 V2000
  145.5302  129.8535  151.5334 C   0  0  0  0  0  0  0  0  0  0  0  0
  145.7211  131.0972  150.6513 C   0  0  1  0  0  0  0  0  0  0  0  0
  144.4484  131.4329  150.1029 O   0  0  0  0  0  0  0  0  0  0  0  0
  144.3779  132.8368  149.9274 C   0  0  0  0  0  0  0  0  0  0  0  0
  145.0670  133.3569  151.1792 C   0  0  0  0  0  0  0  0  0  0  0  0
  146.2304  132.3857  151.3582 C   0  0  2  0  0  0  0  0  0  0  0  0
  147.3277  132.8820  150.6087 O   0  0  0  0  0  0  0  0  0  0  0  0
  146.6900  132.2284  152.8317 C   0  0  0  0  0  0  0  0  0  0  0  0
  147.1962  133.4620  153.4150 N   0  0  0  0  0  0  0  0  0  0  0  0
  146.5661  134.6854  153.4230 C   0  0  0  0  0  0  0  0  0  0  0  0
  147.2208  135.6438  154.0187 N   0  0  0  0  0  0  0  0  0  0  0  0
  148.4014  135.0430  154.4411 C   0  0  0  0  0  0  0  0  0  0  0  0
  149.5498  135.5123  155.1440 C   0  0  0  0  0  0  0  0  0  0  0  0
  149.7117  136.8454  155.6200 N   0  0  0  0  0  0  0  0  0  0  0  0
  150.1373  137.8358  154.6419 C   0  0  0  0  0  0  0  0  0  0  0  0
  151.0617  138.3932  155.7294 C   0  0  0  0  0  0  0  0  0  0  0  0
  150.5388  139.5286  156.4014 O   0  0  0  0  0  0  0  0  0  0  0  0
  151.4486  140.6165  156.4383 C   0  0  0  0  0  0  0  0  0  0  0  0
  152.4367  140.3954  157.5897 C   0  0  0  0  0  0  0  0  0  0  0  0
  153.1857  139.4190  157.5357 O   0  0  0  0  0  0  0  0  0  0  0  0
  152.4579  141.2704  158.6223 N   0  0  0  0  0  0  0  0  0  0  0  0
  153.3484  141.1268  159.7784 C   0  0  0  0  0  0  0  0  0  0  0  0
  151.5595  142.4282  158.6279 C   0  0  0  0  0  0  0  0  0  0  0  0
  150.8290  137.1046  156.5200 C   0  0  0  0  0  0  0  0  0  0  0  0
  150.5143  134.5889  155.4031 N   0  0  0  0  0  0  0  0  0  0  0  0
  150.3914  133.3248  154.9887 C   0  0  0  0  0  0  0  0  0  0  0  0
  149.3879  132.7635  154.3144 N   0  0  0  0  0  0  0  0  0  0  0  0
  148.4002  133.6684  154.0660 C   0  0  0  0  0  0  0  0  0  0  0  0
  146.4725  129.5273  151.9733 H   0  0  0  0  0  0  0  0  0  0  0  0
  145.1422  129.0219  150.9448 H   0  0  0  0  0  0  0  0  0  0  0  0
  144.8211  130.0397  152.3404 H   0  0  0  0  0  0  0  0  0  0  0  0
  146.3796  130.8322  149.8219 H   0  0  0  0  0  0  0  0  0  0  0  0
  144.9217  133.1260  149.0268 H   0  0  0  0  0  0  0  0  0  0  0  0
  143.3473  133.1805  149.8377 H   0  0  0  0  0  0  0  0  0  0  0  0
  145.3688  134.4026  151.1035 H   0  0  0  0  0  0  0  0  0  0  0  0
  144.3741  133.2705  152.0165 H   0  0  0  0  0  0  0  0  0  0  0  0
  147.7884  132.1480  150.2320 H   0  0  0  0  0  0  0  0  0  0  0  0
  145.8669  131.8779  153.4550 H   0  0  0  0  0  0  0  0  0  0  0  0
  147.4755  131.4754  152.9053 H   0  0  0  0  0  0  0  0  0  0  0  0
  145.5947  134.8430  152.9770 H   0  0  0  0  0  0  0  0  0  0  0  0
  150.6830  137.4079  153.7996 H   0  0  0  0  0  0  0  0  0  0  0  0
  149.3371  138.5061  154.3276 H   0  0  0  0  0  0  0  0  0  0  0  0
  152.0994  138.5111  155.4134 H   0  0  0  0  0  0  0  0  0  0  0  0
  151.9942  140.6707  155.4948 H   0  0  0  0  0  0  0  0  0  0  0  0
  150.9327  141.5692  156.5621 H   0  0  0  0  0  0  0  0  0  0  0  0
  153.1993  140.1648  160.2693 H   0  0  0  0  0  0  0  0  0  0  0  0
  153.1824  141.8932  160.5354 H   0  0  0  0  0  0  0  0  0  0  0  0
  154.3929  141.2001  159.4741 H   0  0  0  0  0  0  0  0  0  0  0  0
  151.6975  143.0251  157.7251 H   0  0  0  0  0  0  0  0  0  0  0  0
  151.7225  143.0910  159.4776 H   0  0  0  0  0  0  0  0  0  0  0  0
  150.5193  142.1015  158.6624 H   0  0  0  0  0  0  0  0  0  0  0  0
  150.5300  137.2561  157.5575 H   0  0  0  0  0  0  0  0  0  0  0  0
  151.6536  136.3971  156.4192 H   0  0  0  0  0  0  0  0  0  0  0  0
  151.2135  132.6696  155.2363 H   0  0  0  0  0  0  0  0  0  0  0  0
  1  2  1  0  0  0  0
  1 29  1  0  0  0  0
  1 30  1  0  0  0  0
  1 31  1  0  0  0  0
  2  6  1  0  0  0  0
  2  3  1  0  0  0  0
  2 32  1  0  0  0  0
  3  4  1  0  0  0  0
  4  5  1  0  0  0  0
  4 33  1  0  0  0  0
  4 34  1  0  0  0  0
  5  6  1  0  0  0  0
  5 35  1  0  0  0  0
  5 36  1  0  0  0  0
  6  7  1  0  0  0  0
  6  8  1  0  0  0  0
  7 37  1  0  0  0  0
  8  9  1  0  0  0  0
  8 38  1  0  0  0  0
  8 39  1  0  0  0  0
  9 28  1  0  0  0  0
  9 10  1  0  0  0  0
 10 11  2  0  0  0  0
 10 40  1  0  0  0  0
 11 12  1  0  0  0  0
 12 28  2  0  0  0  0
 12 13  1  0  0  0  0
 13 14  1  0  0  0  0
 13 25  2  0  0  0  0
 14 24  1  0  0  0  0
 14 15  1  0  0  0  0
 15 16  1  0  0  0  0
 15 41  1  0  0  0  0
 15 42  1  0  0  0  0
 16 17  1  0  0  0  0
 16 24  1  0  0  0  0
 16 43  1  0  0  0  0
 17 18  1  0  0  0  0
 18 19  1  0  0  0  0
 18 44  1  0  0  0  0
 18 45  1  0  0  0  0
 19 20  2  0  0  0  0
 19 21  1  0  0  0  0
 21 22  1  0  0  0  0
 21 23  1  0  0  0  0
 22 46  1  0  0  0  0
 22 47  1  0  0  0  0
 22 48  1  0  0  0  0
 23 49  1  0  0  0  0
 23 50  1  0  0  0  0
 23 51  1  0  0  0  0
 24 52  1  0  0  0  0
 24 53  1  0  0  0  0
 25 26  1  0  0  0  0
 26 27  2  0  0  0  0
 26 54  1  0  0  0  0
 27 28  1  0  0  0  0
M  END
> <s_m_source_file>
AV-unprocessed.smi

> <i_m_source_file_index>
270

> <i_lp_mmshare_version>
43012

> <i_f3d_flags>
0

> <s_epik_input>
W0NIMl0xW0NIMl1PW0NAQEhdKFtDSDNdKVtDQEBdMShbT0hdKVtDSDJdbihbY0hdbjIpYyhjMjMpbltjSF1uYzNONFtDSDJdW0NIXShbQ0gyXTQpT1tDSDJdQyg9TylOKFtDSDNdKVtDSDNd

> <s_epik_cmdline>
J2VwaWtfcHl0aG9uJywgJy1waCcsICc3LjAnLCAnLXRuJywgJzgnLCAnLW1hJywgJzIwMCcsICctbWV0YWxfYmluZGluZycsICctaW1hZScsICc8aW5maWxlLm1hZT4nLCAnLW9tYWUnLCAnPG91dGZpbGUubWFlPic=

> <r_lp_tautomer_probability>
1

> <r_epik_Ionization_Penalty>
0.00375854

> <r_epik_Ionization_Penalty_Charging>
0

> <r_epik_Ionization_Penalty_Neutral>
0.00375854

> <r_epik_State_Penalty>
-0

> <r_epik_Charging_Adjusted_Penalty>
0

> <i_epik_Tot_Q>
0

> <i_epik_Tot_abs_Q>
0

> <r_epik_Metal_State_Penalty>
-0

> <b_epik_Metal_Only>
0

> <s_lp_Force_Field>
OPLS_2005

> <r_lp_Energy>
53.4022

> <b_lp_Chiralities_Consistent>
1

> <s_lp_Variant>
AV-unprocessed.smi:270-4

> <Gold.Version>
5.8.1

> <Gold.Id.Protein>
6NUR|6NUR_protein|mol2

> <Gold.PLP.Fitness>
43.4582

> <Gold.PLP.PLP>
-38.8152

> <Gold.PLP.part.hbond>
-3.0000

> <Gold.PLP.part.metal>
0.0000

> <Gold.PLP.part.buried>
-6.1429

> <Gold.PLP.part.nonpolar>
-30.1384

> <Gold.PLP.part.repulsive>
1.2074

> <Gold.PLP.ligand.clash>
0.0000

> <Gold.PLP.ligand.torsion>
1.2315

> <Gold.PLP.Chemscore.Hbond>
2.2668

> <Gold.PLP.Chemscore.CHOScore>
0.0000

> <Gold.PLP.Chemscore.Metal>
0.0000

> <Gold.Chemscore.Hbonds>
donor molecule, donor type, donor heavy atom, donor atom, acceptor molecule, acceptor atom, score
      L1  H     7    37       P1 10747  1.00
      P1  H  7997  8008       L1    20  0.90
      P1  H 10785 10796       L1     3  0.23

> <Gold.PLP.Chemscore.Internal.Correction>
0.3056

> <Gold.Rescore>
     Score         DG    S(hbond)    S(metal)    S(lipo)     H(rot)  DE(clash)    DE(int)     intcor
     12.69     -15.61       2.30        0.00      89.23       3.12       0.46       2.45       ----

> <Gold.Chemscore.Fitness>
12.6932

> <Gold.Chemscore.DG>
-15.6078

> <Gold.Chemscore.ZeroCoef>
-5.4800

> <Gold.Chemscore.Hbond>
2.3006

> <Gold.Chemscore.Metal>
0.0000

> <Gold.Chemscore.Lipo>
89.2289

> <Gold.Chemscore.Internal_Hbond>
0.0000

> <Gold.Chemscore.DEClash>
0.4645

> <Gold.Chemscore.DEInternal>
2.4502

> <Gold.Chemscore.Rot>
3.1234

> <Gold.Chemscore.Internal.Correction>
   9.000000E+99

> <Gold.Chemscore.Hbonds>
donor molecule, donor type, donor heavy atom, donor atom, acceptor molecule, acceptor atom, score
      L1  H     7    37       P1 10747  0.98
      P1  H  7997  8008       L1    20  0.17
      P1  H 10785 10796       L1     3  0.22

> <Gold.Chemscore.Hbond.Weighted>
-7.6839

> <Gold.Chemscore.Metal.Weighted>
-0.0000

> <Gold.Chemscore.Lipo.Weighted>
-10.4398

> <Gold.Chemscore.Internal_Hbond.Weighted>
0.0000

> <Gold.Chemscore.DEClash.Weighted>
0.4645

> <Gold.Chemscore.DEInternal.Weighted>
2.4502

> <Gold.Chemscore.Rot.Weighted>
7.9959

> <Gold.Chemscore.Internal.Correction.Weighted>
   9.000000E+99

> <Gold.Protein.RotatedTorsions>
[ 6907 6896 6895 6894 ] final  -57.72 input  -60.11 | X-H torsion
[ 7974 7965 7964 7962 ] final  -38.07 input  175.53 | X-H torsion
[ 8008 7997 7996 7995 ] final  -57.38 input   59.86 | X-H torsion
[ 10167 10162 10161 10158 ] final   -1.67 input  -65.29 | X-H torsion
[ 10718 10713 10712 10709 ] final  153.00 input   66.30 | X-H torsion
[ 10763 10752 10751 10750 ] final  -66.91 input  -60.55 | X-H torsion
[ 11005 11000 10999 10996 ] final    3.90 input  -57.11 | X-H torsion

> <Gold.Protein.ActiveResidues>
 VAL166  LYS551  ARG553  GLY616  TRP617  ASP618  TYR619  PRO620  LYS621  CYS622 
 ASP623  PHE694  ASN695  SER759  ASP760  ASP761  ALA762  ILE779  LEU786  VAL792 
 PHE793  MET794  SER795  GLU796  ALA797  LYS798  CYS799  TRP800  GLU811  SER814 

> <Gold.Protein.RotatedAtoms>
  150.8064  134.7191  159.6647 H   0  0  0  0  0  0  0  0  0  0  0  0  # atno 6907 bound_to 6896
  152.4183  134.5998  160.0007 H   0  0  0  0  0  0  0  0  0  0  0  0  # atno 6908 bound_to 6896
  151.6221  133.3301  159.3126 H   0  0  0  0  0  0  0  0  0  0  0  0  # atno 6909 bound_to 6896
  146.0519  140.6470  142.9038 H   0  0  0  0  0  0  0  0  0  0  0  0  # atno 7974 bound_to 7965
  154.4266  140.1108  156.5789 H   0  0  0  0  0  0  0  0  0  0  0  0  # atno 8008 bound_to 7997
  155.6133  140.3494  155.4610 H   0  0  0  0  0  0  0  0  0  0  0  0  # atno 8009 bound_to 7997
  156.0082  140.1213  157.0470 H   0  0  0  0  0  0  0  0  0  0  0  0  # atno 8010 bound_to 7997
  140.6819  143.6748  150.8154 H   0  0  0  0  0  0  0  0  0  0  0  0  # atno 10167 bound_to 10162
  157.2504  131.0777  151.1733 H   0  0  0  0  0  0  0  0  0  0  0  0  # atno 10718 bound_to 10713
  154.3668  135.6104  153.5719 H   0  0  0  0  0  0  0  0  0  0  0  0  # atno 10763 bound_to 10752
  152.9791  135.5828  154.4568 H   0  0  0  0  0  0  0  0  0  0  0  0  # atno 10764 bound_to 10752
  154.4315  135.2848  155.1886 H   0  0  0  0  0  0  0  0  0  0  0  0  # atno 10765 bound_to 10752
  140.5880  133.9951  155.8076 H   0  0  0  0  0  0  0  0  0  0  0  0  # atno 11005 bound_to 11000
  144.7127  140.4098  143.7068 LP  0  0  0  0  0  0  0  0  0  0  0  0  # atno 17320 bound_to 7965
  145.6710  139.1599  143.2754 LP  0  0  0  0  0  0  0  0  0  0  0  0  # atno 17321 bound_to 7965
  140.0450  143.5308  152.2700 LP  0  0  0  0  0  0  0  0  0  0  0  0  # atno 17342 bound_to 10162
  139.6149  144.7617  151.2870 LP  0  0  0  0  0  0  0  0  0  0  0  0  # atno 17343 bound_to 10162
  157.3284  130.6972  149.6309 LP  0  0  0  0  0  0  0  0  0  0  0  0  # atno 17370 bound_to 10713
  155.9666  130.4315  150.4922 LP  0  0  0  0  0  0  0  0  0  0  0  0  # atno 17371 bound_to 10713
  141.0953  133.9852  157.3169 LP  0  0  0  0  0  0  0  0  0  0  0  0  # atno 17394 bound_to 11000
  139.9287  135.0201  156.8325 LP  0  0  0  0  0  0  0  0  0  0  0  0  # atno 17395 bound_to 11000

$$$$
