AV-unprocessed.smi:861|AV-procd|sdf|3975|dock8
  -GOLD-   22720 1453D 1   1.00000     0.00000
 Structure written by MMmdl.
 45 46  0  0  0  0  0  0  0  0  3 V2000
  152.7616  138.0958  156.3197 C   0  0  0  0  0  0  0  0  0  0  0  0
  152.0350  139.3019  156.9385 C   0  0  0  0  0  0  0  0  0  0  0  0
  151.8316  139.0870  158.4461 C   0  0  0  0  0  0  0  0  0  0  0  0
  150.6901  139.5988  156.2439 C   0  0  0  0  0  0  0  0  0  0  0  0
  150.7833  139.6647  154.7069 C   0  0  0  0  0  0  0  0  0  0  0  0
  149.5165  140.1195  154.0805 N   0  3  2  0  0  0  0  0  0  0  0  0
  148.9399  141.3268  154.7218 C   0  0  0  0  0  0  0  0  0  0  0  0
  147.6470  141.7488  154.0061 C   0  0  0  0  0  0  0  0  0  0  0  0
  146.7267  140.6650  154.0109 O   0  0  0  0  0  0  0  0  0  0  0  0
  147.2218  139.5307  153.3069 C   0  0  2  0  0  0  0  0  0  0  0  0
  146.1251  138.4549  153.3084 C   0  0  0  0  0  0  0  0  0  0  0  0
  146.5608  137.2417  152.6329 N   0  0  0  0  0  0  0  0  0  0  0  0
  145.6256  136.2945  152.1953 C   0  0  0  0  0  0  0  0  0  0  0  0
  144.2271  136.4257  152.3599 C   0  0  0  0  0  0  0  0  0  0  0  0
  143.3995  135.4018  151.8686 C   0  0  0  0  0  0  0  0  0  0  0  0
  144.0201  134.3070  151.2412 C   0  0  0  0  0  0  0  0  0  0  0  0
  145.3596  134.1994  151.0948 N   0  0  0  0  0  0  0  0  0  0  0  0
  146.1246  135.1953  151.5759 N   0  3  0  0  0  0  0  0  0  0  0  0
  148.5031  139.0389  154.0104 C   0  0  0  0  0  0  0  0  0  0  0  0
  152.1523  137.1930  156.3776 H   0  0  0  0  0  0  0  0  0  0  0  0
  153.6989  137.8951  156.8395 H   0  0  0  0  0  0  0  0  0  0  0  0
  153.0083  138.2662  155.2723 H   0  0  0  0  0  0  0  0  0  0  0  0
  152.6778  140.1754  156.8225 H   0  0  0  0  0  0  0  0  0  0  0  0
  151.1939  138.2241  158.6412 H   0  0  0  0  0  0  0  0  0  0  0  0
  151.3658  139.9570  158.9098 H   0  0  0  0  0  0  0  0  0  0  0  0
  152.7831  138.9187  158.9516 H   0  0  0  0  0  0  0  0  0  0  0  0
  149.9594  138.8512  156.5527 H   0  0  0  0  0  0  0  0  0  0  0  0
  150.3130  140.5569  156.6043 H   0  0  0  0  0  0  0  0  0  0  0  0
  151.5768  140.3664  154.4458 H   0  0  0  0  0  0  0  0  0  0  0  0
  151.0708  138.7009  154.2855 H   0  0  0  0  0  0  0  0  0  0  0  0
  148.7316  141.1196  155.7726 H   0  0  0  0  0  0  0  0  0  0  0  0
  149.6503  142.1522  154.6933 H   0  0  0  0  0  0  0  0  0  0  0  0
  147.1941  142.5978  154.5180 H   0  0  0  0  0  0  0  0  0  0  0  0
  147.8516  142.0663  152.9823 H   0  0  0  0  0  0  0  0  0  0  0  0
  147.4554  139.8067  152.2765 H   0  0  0  0  0  0  0  0  0  0  0  0
  145.8651  138.1988  154.3362 H   0  0  0  0  0  0  0  0  0  0  0  0
  145.2229  138.8424  152.8331 H   0  0  0  0  0  0  0  0  0  0  0  0
  147.5237  137.1688  152.3358 H   0  0  0  0  0  0  0  0  0  0  0  0
  143.7865  137.2821  152.8481 H   0  0  0  0  0  0  0  0  0  0  0  0
  142.3253  135.4525  151.9680 H   0  0  0  0  0  0  0  0  0  0  0  0
  143.4281  133.4945  150.8461 H   0  0  0  0  0  0  0  0  0  0  0  0
  148.9148  138.1876  153.4665 H   0  0  0  0  0  0  0  0  0  0  0  0
  148.2718  138.6930  155.0194 H   0  0  0  0  0  0  0  0  0  0  0  0
  149.7372  140.3660  153.1259 H   0  0  0  0  0  0  0  0  0  0  0  0
  147.1364  135.1201  151.4686 H   0  0  0  0  0  0  0  0  0  0  0  0
  1  2  1  0  0  0  0
  1 20  1  0  0  0  0
  1 21  1  0  0  0  0
  1 22  1  0  0  0  0
  2  3  1  0  0  0  0
  2  4  1  0  0  0  0
  2 23  1  0  0  0  0
  3 24  1  0  0  0  0
  3 25  1  0  0  0  0
  3 26  1  0  0  0  0
  4  5  1  0  0  0  0
  4 27  1  0  0  0  0
  4 28  1  0  0  0  0
  5  6  1  0  0  0  0
  5 29  1  0  0  0  0
  5 30  1  0  0  0  0
  6 19  1  0  0  0  0
  6  7  1  0  0  0  0
  6 44  1  0  0  0  0
  7  8  1  0  0  0  0
  7 31  1  0  0  0  0
  7 32  1  0  0  0  0
  8  9  1  0  0  0  0
  8 33  1  0  0  0  0
  8 34  1  0  0  0  0
  9 10  1  0  0  0  0
 10 11  1  0  0  0  0
 10 19  1  0  0  0  0
 10 35  1  0  0  0  0
 11 12  1  0  0  0  0
 11 36  1  0  0  0  0
 11 37  1  0  0  0  0
 12 13  1  0  0  0  0
 12 38  1  0  0  0  0
 13 18  1  0  0  0  0
 13 14  2  0  0  0  0
 14 15  1  0  0  0  0
 14 39  1  0  0  0  0
 15 16  2  0  0  0  0
 15 40  1  0  0  0  0
 16 17  1  0  0  0  0
 16 41  1  0  0  0  0
 17 18  2  0  0  0  0
 18 45  1  0  0  0  0
 19 42  1  0  0  0  0
 19 43  1  0  0  0  0
M  CHG  1   6   1
M  CHG  1  18   1
M  END
> <s_m_source_file>
AV-unprocessed.smi

> <i_m_source_file_index>
861

> <i_lp_mmshare_version>
43012

> <i_f3d_flags>
0

> <s_epik_input>
W0NIM11bQ0hdKFtDSDNdKVtDSDJdW0NIMl1OMVtDSDJdW0NIMl1PW0NASF0oW0NIMl0xKVtDSDJdW05IXWMyW2NIXVtjSF1bY0hdbm4y

> <s_epik_cmdline>
J2VwaWtfcHl0aG9uJywgJy1waCcsICc3LjAnLCAnLXRuJywgJzgnLCAnLW1hJywgJzIwMCcsICctbWV0YWxfYmluZGluZycsICctaW1hZScsICc8aW5maWxlLm1hZT4nLCAnLW9tYWUnLCAnPG91dGZpbGUubWFlPic=

> <r_lp_tautomer_probability>
0.966961

> <r_epik_Ionization_Penalty>
2.478

> <r_epik_Ionization_Penalty_Charging>
2.47799

> <r_epik_Ionization_Penalty_Neutral>
3.15286e-06

> <r_epik_State_Penalty>
2.10794

> <r_epik_Charging_Adjusted_Penalty>
4.58594

> <i_epik_Tot_Q>
2

> <i_epik_Tot_abs_Q>
2

> <r_epik_Metal_State_Penalty>
2.11378

> <b_epik_Metal_Only>
0

> <s_lp_Force_Field>
OPLS_2005

> <r_lp_Energy>
32.9485

> <b_lp_Chiralities_Consistent>
1

> <s_lp_Variant>
AV-unprocessed.smi:861-10

> <Gold.Version>
5.8.1

> <Gold.Id.Protein>
6NUR|6NUR_protein|mol2

> <Gold.PLP.Fitness>
43.1006

> <Gold.PLP.PLP>
-29.4842

> <Gold.PLP.part.hbond>
-3.0000

> <Gold.PLP.part.metal>
0.0000

> <Gold.PLP.part.buried>
-1.9836

> <Gold.PLP.part.nonpolar>
-25.7031

> <Gold.PLP.part.repulsive>
0.8632

> <Gold.PLP.ligand.clash>
0.0000

> <Gold.PLP.ligand.torsion>
0.2942

> <Gold.PLP.Chemscore.Hbond>
4.7280

> <Gold.PLP.Chemscore.CHOScore>
0.0000

> <Gold.PLP.Chemscore.Metal>
0.0000

> <Gold.Chemscore.Hbonds>
donor molecule, donor type, donor heavy atom, donor atom, acceptor molecule, acceptor atom, score
      L1  H     6    44       P1  7957  1.00
      L1  H    12    38       P1  7948  2.00
      L1  H    18    45       P1  7948  1.32
      L1  C    16    41       P1 10186  0.06

> <Gold.PLP.Chemscore.Internal.Correction>
0.0208

> <Gold.Rescore>
     Score         DG    S(hbond)    S(metal)    S(lipo)     H(rot)  DE(clash)    DE(int)     intcor
     17.21     -17.71       2.47        0.00      72.77       1.78       0.25       0.25       ----

> <Gold.Chemscore.Fitness>
17.2074

> <Gold.Chemscore.DG>
-17.7068

> <Gold.Chemscore.ZeroCoef>
-5.4800

> <Gold.Chemscore.Hbond>
2.4729

> <Gold.Chemscore.Metal>
0.0000

> <Gold.Chemscore.Lipo>
72.7651

> <Gold.Chemscore.Internal_Hbond>
0.0000

> <Gold.Chemscore.DEClash>
0.2507

> <Gold.Chemscore.DEInternal>
0.2486

> <Gold.Chemscore.Rot>
1.7759

> <Gold.Chemscore.Internal.Correction>
   9.000000E+99

> <Gold.Chemscore.Hbonds>
donor molecule, donor type, donor heavy atom, donor atom, acceptor molecule, acceptor atom, score
      L1  H     6    44       P1  7957  0.93
      L1  H    12    38       P1  7948  0.97
      L1  H    18    45       P1  7948  0.56

> <Gold.Chemscore.Hbond.Weighted>
-8.2595

> <Gold.Chemscore.Metal.Weighted>
-0.0000

> <Gold.Chemscore.Lipo.Weighted>
-8.5135

> <Gold.Chemscore.Internal_Hbond.Weighted>
0.0000

> <Gold.Chemscore.DEClash.Weighted>
0.2507

> <Gold.Chemscore.DEInternal.Weighted>
0.2486

> <Gold.Chemscore.Rot.Weighted>
4.5462

> <Gold.Chemscore.Internal.Correction.Weighted>
   9.000000E+99

> <Gold.Protein.RotatedTorsions>
[ 6907 6896 6895 6894 ] final  -43.34 input  -60.11 | X-H torsion
[ 7974 7965 7964 7962 ] final  167.36 input  175.53 | X-H torsion
[ 8008 7997 7996 7995 ] final  157.59 input   59.86 | X-H torsion
[ 10167 10162 10161 10158 ] final  148.92 input  -65.29 | X-H torsion
[ 10718 10713 10712 10709 ] final  -64.60 input   66.30 | X-H torsion
[ 10763 10752 10751 10750 ] final   81.71 input  -60.55 | X-H torsion
[ 11005 11000 10999 10996 ] final -112.64 input  -57.11 | X-H torsion

> <Gold.Protein.ActiveResidues>
 VAL166  LYS551  ARG553  GLY616  TRP617  ASP618  TYR619  PRO620  LYS621  CYS622 
 ASP623  PHE694  ASN695  SER759  ASP760  ASP761  ALA762  ILE779  LEU786  VAL792 
 PHE793  MET794  SER795  GLU796  ALA797  LYS798  CYS799  TRP800  GLU811  SER814 

> <Gold.Protein.RotatedAtoms>
  150.9450  134.8856  159.7635 H   0  0  0  0  0  0  0  0  0  0  0  0  # atno 6907 bound_to 6896
  152.5096  134.3888  159.9386 H   0  0  0  0  0  0  0  0  0  0  0  0  # atno 6908 bound_to 6896
  151.3906  133.3750  159.2755 H   0  0  0  0  0  0  0  0  0  0  0  0  # atno 6909 bound_to 6896
  144.7427  139.8750  143.6392 H   0  0  0  0  0  0  0  0  0  0  0  0  # atno 7974 bound_to 7965
  156.2355  140.1881  156.7131 H   0  0  0  0  0  0  0  0  0  0  0  0  # atno 8008 bound_to 7997
  154.6098  140.0623  156.9506 H   0  0  0  0  0  0  0  0  0  0  0  0  # atno 8009 bound_to 7997
  155.2035  140.3294  155.4342 H   0  0  0  0  0  0  0  0  0  0  0  0  # atno 8010 bound_to 7997
  139.4868  144.5642  151.7175 H   0  0  0  0  0  0  0  0  0  0  0  0  # atno 10167 bound_to 10162
  156.0719  130.4236  150.1444 H   0  0  0  0  0  0  0  0  0  0  0  0  # atno 10718 bound_to 10713
  153.1140  135.4755  154.9084 H   0  0  0  0  0  0  0  0  0  0  0  0  # atno 10763 bound_to 10752
  154.7510  135.3106  154.8561 H   0  0  0  0  0  0  0  0  0  0  0  0  # atno 10764 bound_to 10752
  153.9142  135.6862  153.4803 H   0  0  0  0  0  0  0  0  0  0  0  0  # atno 10765 bound_to 10752
  141.0663  133.9453  157.2572 H   0  0  0  0  0  0  0  0  0  0  0  0  # atno 11005 bound_to 11000
  146.1253  139.4278  143.0203 LP  0  0  0  0  0  0  0  0  0  0  0  0  # atno 17320 bound_to 7965
  145.7244  141.0064  143.1385 LP  0  0  0  0  0  0  0  0  0  0  0  0  # atno 17321 bound_to 7965
  140.5218  144.0868  150.6025 LP  0  0  0  0  0  0  0  0  0  0  0  0  # atno 17342 bound_to 10162
  140.3828  143.2793  152.0151 LP  0  0  0  0  0  0  0  0  0  0  0  0  # atno 17343 bound_to 10162
  156.9493  130.9769  151.3501 LP  0  0  0  0  0  0  0  0  0  0  0  0  # atno 17370 bound_to 10713
  157.5794  130.8366  149.8502 LP  0  0  0  0  0  0  0  0  0  0  0  0  # atno 17371 bound_to 10713
  139.9479  135.0181  156.8908 LP  0  0  0  0  0  0  0  0  0  0  0  0  # atno 17394 bound_to 11000
  140.5766  134.0392  155.7449 LP  0  0  0  0  0  0  0  0  0  0  0  0  # atno 17395 bound_to 11000

$$$$
