AV-unprocessed.smi:234|AV-procd|sdf|1785|dock1
  -GOLD-   2262020333D 1   1.00000     0.00000
 Structure written by MMmdl.
 59 62  0  0  0  0  0  0  0  0  1 V2000
  152.3071  144.1808  158.7982 C   0  0  0  0  0  0  0  0  0  0  0  0
  151.3595  143.6179  157.7370 C   0  0  0  0  0  0  0  0  0  0  0  0
  151.5387  142.2135  157.6600 O   0  0  0  0  0  0  0  0  0  0  0  0
  150.6212  141.5864  156.7767 C   0  0  2  0  0  0  0  0  0  0  0  0
  149.1853  141.4965  157.3109 C   0  0  0  0  0  0  0  0  0  0  0  0
  149.1532  140.0523  156.7929 C   0  0  1  0  0  0  0  0  0  0  0  0
  148.4884  139.8854  155.4843 N   0  0  0  0  0  0  0  0  0  0  0  0
  148.9859  140.4673  154.2334 C   0  0  0  0  0  0  0  0  0  0  0  0
  147.7137  138.7744  155.3629 C   0  0  0  0  0  0  0  0  0  0  0  0
  147.5033  137.9894  156.4543 N   0  0  0  0  0  0  0  0  0  0  0  0
  146.7276  136.9052  156.3715 C   0  0  0  0  0  0  0  0  0  0  0  0
  146.0754  136.4258  155.3118 N   0  0  0  0  0  0  0  0  0  0  0  0
  146.2908  137.1978  154.2088 C   0  0  0  0  0  0  0  0  0  0  0  0
  147.0923  138.3736  154.1440 C   0  0  0  0  0  0  0  0  0  0  0  0
  147.0929  138.8674  152.8441 N   0  0  0  0  0  0  0  0  0  0  0  0
  146.3219  138.0464  152.1862 C   0  0  0  0  0  0  0  0  0  0  0  0
  145.7876  137.0206  152.9315 N   0  0  0  0  0  0  0  0  0  0  0  0
  144.8927  135.9745  152.4605 C   0  0  0  0  0  0  0  0  0  0  0  0
  145.6369  134.6983  151.9859 C   0  0  1  0  0  0  0  0  0  0  0  0
  146.4265  135.0420  150.8596 O   0  0  0  0  0  0  0  0  0  0  0  0
  146.5674  134.1090  153.0439 C   0  0  0  0  0  0  0  0  0  0  0  0
  146.5650  132.6236  152.7191 C   0  0  0  0  0  0  0  0  0  0  0  0
  145.2109  132.3935  152.3745 O   0  0  0  0  0  0  0  0  0  0  0  0
  144.7475  133.4866  151.5866 C   0  0  1  0  0  0  0  0  0  0  0  0
  143.2351  133.6280  151.8181 C   0  0  0  0  0  0  0  0  0  0  0  0
  150.7102  140.0407  156.8003 C   0  0  0  0  0  0  0  0  0  0  0  0
  151.4598  139.3703  155.6424 C   0  0  0  0  0  0  0  0  0  0  0  0
  151.2999  139.4330  158.0811 C   0  0  0  0  0  0  0  0  0  0  0  0
  152.1962  145.2618  158.8855 H   0  0  0  0  0  0  0  0  0  0  0  0
  153.3466  143.9704  158.5453 H   0  0  0  0  0  0  0  0  0  0  0  0
  152.1044  143.7432  159.7759 H   0  0  0  0  0  0  0  0  0  0  0  0
  150.3275  143.8558  157.9986 H   0  0  0  0  0  0  0  0  0  0  0  0
  151.5694  144.0771  156.7699 H   0  0  0  0  0  0  0  0  0  0  0  0
  150.6749  141.9861  155.7627 H   0  0  0  0  0  0  0  0  0  0  0  0
  149.1413  141.5438  158.4000 H   0  0  0  0  0  0  0  0  0  0  0  0
  148.4732  142.1916  156.8685 H   0  0  0  0  0  0  0  0  0  0  0  0
  148.7540  139.3964  157.5641 H   0  0  0  0  0  0  0  0  0  0  0  0
  148.1867  140.5029  153.4919 H   0  0  0  0  0  0  0  0  0  0  0  0
  149.8033  139.8860  153.8108 H   0  0  0  0  0  0  0  0  0  0  0  0
  149.3332  141.4902  154.3632 H   0  0  0  0  0  0  0  0  0  0  0  0
  146.6106  136.3427  157.2859 H   0  0  0  0  0  0  0  0  0  0  0  0
  146.1167  138.1715  151.1331 H   0  0  0  0  0  0  0  0  0  0  0  0
  144.2080  135.7371  153.2754 H   0  0  0  0  0  0  0  0  0  0  0  0
  144.2834  136.3843  151.6539 H   0  0  0  0  0  0  0  0  0  0  0  0
  147.3177  135.1700  151.1464 H   0  0  0  0  0  0  0  0  0  0  0  0
  147.5666  134.5472  153.0486 H   0  0  0  0  0  0  0  0  0  0  0  0
  146.1401  134.2473  154.0379 H   0  0  0  0  0  0  0  0  0  0  0  0
  147.2089  132.4036  151.8662 H   0  0  0  0  0  0  0  0  0  0  0  0
  146.8784  132.0058  153.5608 H   0  0  0  0  0  0  0  0  0  0  0  0
  144.9106  133.2252  150.5391 H   0  0  0  0  0  0  0  0  0  0  0  0
  142.8163  134.4438  151.2290 H   0  0  0  0  0  0  0  0  0  0  0  0
  143.0049  133.8096  152.8681 H   0  0  0  0  0  0  0  0  0  0  0  0
  142.7163  132.7153  151.5245 H   0  0  0  0  0  0  0  0  0  0  0  0
  151.2106  138.3116  155.5658 H   0  0  0  0  0  0  0  0  0  0  0  0
  152.5402  139.4420  155.7708 H   0  0  0  0  0  0  0  0  0  0  0  0
  151.2370  139.8279  154.6816 H   0  0  0  0  0  0  0  0  0  0  0  0
  151.1628  138.3514  158.1083 H   0  0  0  0  0  0  0  0  0  0  0  0
  150.8284  139.8364  158.9778 H   0  0  0  0  0  0  0  0  0  0  0  0
  152.3690  139.6312  158.1665 H   0  0  0  0  0  0  0  0  0  0  0  0
  1  2  1  0  0  0  0
  1 29  1  0  0  0  0
  1 30  1  0  0  0  0
  1 31  1  0  0  0  0
  2  3  1  0  0  0  0
  2 32  1  0  0  0  0
  2 33  1  0  0  0  0
  3  4  1  0  0  0  0
  4 26  1  0  0  0  0
  4  5  1  0  0  0  0
  4 34  1  0  0  0  0
  5  6  1  0  0  0  0
  5 35  1  0  0  0  0
  5 36  1  0  0  0  0
  6  7  1  0  0  0  0
  6 26  1  0  0  0  0
  6 37  1  0  0  0  0
  7  8  1  0  0  0  0
  7  9  1  0  0  0  0
  8 38  1  0  0  0  0
  8 39  1  0  0  0  0
  8 40  1  0  0  0  0
  9 14  1  0  0  0  0
  9 10  2  0  0  0  0
 10 11  1  0  0  0  0
 11 12  2  0  0  0  0
 11 41  1  0  0  0  0
 12 13  1  0  0  0  0
 13 17  1  0  0  0  0
 13 14  2  0  0  0  0
 14 15  1  0  0  0  0
 15 16  2  0  0  0  0
 16 17  1  0  0  0  0
 16 42  1  0  0  0  0
 17 18  1  0  0  0  0
 18 19  1  0  0  0  0
 18 43  1  0  0  0  0
 18 44  1  0  0  0  0
 19 24  1  0  0  0  0
 19 20  1  0  0  0  0
 19 21  1  0  0  0  0
 20 45  1  0  0  0  0
 21 22  1  0  0  0  0
 21 46  1  0  0  0  0
 21 47  1  0  0  0  0
 22 23  1  0  0  0  0
 22 48  1  0  0  0  0
 22 49  1  0  0  0  0
 23 24  1  0  0  0  0
 24 25  1  0  0  0  0
 24 50  1  0  0  0  0
 25 51  1  0  0  0  0
 25 52  1  0  0  0  0
 25 53  1  0  0  0  0
 26 27  1  0  0  0  0
 26 28  1  0  0  0  0
 27 54  1  0  0  0  0
 27 55  1  0  0  0  0
 27 56  1  0  0  0  0
 28 57  1  0  0  0  0
 28 58  1  0  0  0  0
 28 59  1  0  0  0  0
M  END
> <s_m_source_file>
AV-unprocessed.smi

> <i_m_source_file_index>
234

> <i_lp_mmshare_version>
43012

> <i_f3d_flags>
0

> <s_epik_input>
W0NIM11bQ0gyXU9bQ0BASF0oQzEoW0NIM10pW0NIM10pW0NIMl1bQ0BIXTFOKFtDSDNdKWMobltjSF1uMiljKGMyMyluW2NIXW4zW0NIMl1bQ0BAXTQoW09IXSlbQ0gyXVtDSDJdT1tDQEhdNFtDSDNd

> <s_epik_cmdline>
J2VwaWtfcHl0aG9uJywgJy1waCcsICc3LjAnLCAnLXRuJywgJzgnLCAnLW1hJywgJzIwMCcsICctbWV0YWxfYmluZGluZycsICctaW1hZScsICc8aW5maWxlLm1hZT4nLCAnLW9tYWUnLCAnPG91dGZpbGUubWFlPic=

> <r_lp_tautomer_probability>
1

> <r_epik_Ionization_Penalty>
0.00349132

> <r_epik_Ionization_Penalty_Charging>
0

> <r_epik_Ionization_Penalty_Neutral>
0.00349132

> <r_epik_State_Penalty>
0.00242418

> <r_epik_Charging_Adjusted_Penalty>
0.00242418

> <i_epik_Tot_Q>
0

> <i_epik_Tot_abs_Q>
0

> <r_epik_Metal_State_Penalty>
-0

> <b_epik_Metal_Only>
0

> <s_lp_Force_Field>
OPLS_2005

> <r_lp_Energy>
52.3915

> <b_lp_Chiralities_Consistent>
1

> <s_lp_Variant>
AV-unprocessed.smi:234-1

> <Gold.Version>
5.8.1

> <Gold.Id.Protein>
6NUR|6NUR_protein|mol2

> <Gold.PLP.Fitness>
40.6362

> <Gold.PLP.PLP>
-35.1319

> <Gold.PLP.part.hbond>
-2.0000

> <Gold.PLP.part.metal>
0.0000

> <Gold.PLP.part.buried>
0.9827

> <Gold.PLP.part.nonpolar>
-35.1363

> <Gold.PLP.part.repulsive>
0.4815

> <Gold.PLP.ligand.clash>
0.0000

> <Gold.PLP.ligand.torsion>
0.8344

> <Gold.PLP.Chemscore.Hbond>
1.0000

> <Gold.PLP.Chemscore.CHOScore>
1.0000

> <Gold.PLP.Chemscore.Metal>
0.0000

> <Gold.Chemscore.Hbonds>
donor molecule, donor type, donor heavy atom, donor atom, acceptor molecule, acceptor atom, score
      L1  H    20    45       P1  7948  1.00
      L1  C    16    42       P1 10171  0.76

> <Gold.PLP.Chemscore.Internal.Correction>
1.1732

> <Gold.Rescore>
     Score         DG    S(hbond)    S(metal)    S(lipo)     H(rot)  DE(clash)    DE(int)     intcor
      9.26     -12.69       0.90        0.00      87.61       2.37       0.21       3.22       ----

> <Gold.Chemscore.Fitness>
9.2563

> <Gold.Chemscore.DG>
-12.6861

> <Gold.Chemscore.ZeroCoef>
-5.4800

> <Gold.Chemscore.Hbond>
0.9032

> <Gold.Chemscore.Metal>
0.0000

> <Gold.Chemscore.Lipo>
87.6110

> <Gold.Chemscore.Internal_Hbond>
0.0000

> <Gold.Chemscore.DEClash>
0.2136

> <Gold.Chemscore.DEInternal>
3.2162

> <Gold.Chemscore.Rot>
2.3676

> <Gold.Chemscore.Internal.Correction>
   9.000000E+99

> <Gold.Chemscore.Hbonds>
donor molecule, donor type, donor heavy atom, donor atom, acceptor molecule, acceptor atom, score
      L1  H    20    45       P1  7948  0.52

> <Gold.Chemscore.Hbond.Weighted>
-3.0166

> <Gold.Chemscore.Metal.Weighted>
-0.0000

> <Gold.Chemscore.Lipo.Weighted>
-10.2505

> <Gold.Chemscore.Internal_Hbond.Weighted>
0.0000

> <Gold.Chemscore.DEClash.Weighted>
0.2136

> <Gold.Chemscore.DEInternal.Weighted>
3.2162

> <Gold.Chemscore.Rot.Weighted>
6.0610

> <Gold.Chemscore.Internal.Correction.Weighted>
   9.000000E+99

> <Gold.Protein.RotatedTorsions>
[ 6907 6896 6895 6894 ] final  -96.18 input  -60.11 | X-H torsion
[ 7974 7965 7964 7962 ] final   44.48 input  175.53 | X-H torsion
[ 8008 7997 7996 7995 ] final   14.95 input   59.86 | X-H torsion
[ 10167 10162 10161 10158 ] final  -81.08 input  -65.29 | X-H torsion
[ 10718 10713 10712 10709 ] final  134.36 input   66.30 | X-H torsion
[ 10763 10752 10751 10750 ] final   46.45 input  -60.55 | X-H torsion
[ 11005 11000 10999 10996 ] final   23.33 input  -57.11 | X-H torsion

> <Gold.Protein.ActiveResidues>
 VAL166  LYS551  ARG553  GLY616  TRP617  ASP618  TYR619  PRO620  LYS621  CYS622 
 ASP623  PHE694  ASN695  SER759  ASP760  ASP761  ALA762  ILE779  LEU786  VAL792 
 PHE793  MET794  SER795  GLU796  ALA797  LYS798  CYS799  TRP800  GLU811  SER814 

> <Gold.Protein.RotatedAtoms>
  150.6982  134.1542  159.4151 H   0  0  0  0  0  0  0  0  0  0  0  0  # atno 6907 bound_to 6896
  151.9524  135.0160  160.0552 H   0  0  0  0  0  0  0  0  0  0  0  0  # atno 6908 bound_to 6896
  152.1999  133.4798  159.5090 H   0  0  0  0  0  0  0  0  0  0  0  0  # atno 6909 bound_to 6896
  146.0564  139.5069  142.9685 H   0  0  0  0  0  0  0  0  0  0  0  0  # atno 7974 bound_to 7965
  154.8557  140.2936  155.5570 H   0  0  0  0  0  0  0  0  0  0  0  0  # atno 8008 bound_to 7997
  156.3018  140.2487  156.3456 H   0  0  0  0  0  0  0  0  0  0  0  0  # atno 8009 bound_to 7997
  154.8972  140.0392  157.1862 H   0  0  0  0  0  0  0  0  0  0  0  0  # atno 8010 bound_to 7997
  140.4444  143.2503  151.8579 H   0  0  0  0  0  0  0  0  0  0  0  0  # atno 10167 bound_to 10162
  157.4680  131.1078  150.9837 H   0  0  0  0  0  0  0  0  0  0  0  0  # atno 10718 bound_to 10713
  152.9810  135.6007  154.3602 H   0  0  0  0  0  0  0  0  0  0  0  0  # atno 10763 bound_to 10752
  154.3285  135.2769  155.2486 H   0  0  0  0  0  0  0  0  0  0  0  0  # atno 10764 bound_to 10752
  154.4621  135.5963  153.6318 H   0  0  0  0  0  0  0  0  0  0  0  0  # atno 10765 bound_to 10752
  140.3708  134.2025  155.7667 H   0  0  0  0  0  0  0  0  0  0  0  0  # atno 11005 bound_to 11000
  145.6635  141.0234  143.1696 LP  0  0  0  0  0  0  0  0  0  0  0  0  # atno 17320 bound_to 7965
  144.7150  139.8228  143.7401 LP  0  0  0  0  0  0  0  0  0  0  0  0  # atno 17321 bound_to 7965
  139.4792  144.5192  151.8825 LP  0  0  0  0  0  0  0  0  0  0  0  0  # atno 17342 bound_to 10162
  140.4280  144.2153  150.5887 LP  0  0  0  0  0  0  0  0  0  0  0  0  # atno 17343 bound_to 10162
  157.0612  130.5826  149.5386 LP  0  0  0  0  0  0  0  0  0  0  0  0  # atno 17370 bound_to 10713
  156.0060  130.5146  150.7830 LP  0  0  0  0  0  0  0  0  0  0  0  0  # atno 17371 bound_to 10713
  141.1955  133.8104  157.0712 LP  0  0  0  0  0  0  0  0  0  0  0  0  # atno 17394 bound_to 11000
  140.0553  134.9784  157.1210 LP  0  0  0  0  0  0  0  0  0  0  0  0  # atno 17395 bound_to 11000

$$$$
