AV-unprocessed.smi:1589|AV-procd|sdf|6394|dock4
  -GOLD-   22720 7 33D 1   1.00000     0.00000
 Structure written by MMmdl.
 43 44  0  0  0  0  0  0  0  0  1 V2000
  149.9019  141.1172  157.2317 C   0  0  0  0  0  0  0  0  0  0  0  0
  150.4497  141.5256  155.8464 C   0  0  0  0  0  0  0  0  0  0  0  0
  149.3267  142.2522  155.0743 C   0  0  0  0  0  0  0  0  0  0  0  0
  150.9692  140.3628  155.0977 N   0  0  0  0  0  0  0  0  0  0  0  0
  149.8746  139.5277  154.5730 C   0  0  0  0  0  0  0  0  0  0  0  0
  150.4193  138.3159  153.7935 C   0  0  0  0  0  0  0  0  0  0  0  0
  151.2495  137.5126  154.6984 N   0  0  0  0  0  0  0  0  0  0  0  0
  150.9571  136.2925  155.2155 C   0  0  0  0  0  0  0  0  0  0  0  0
  151.6203  135.7761  156.1157 O   0  0  0  0  0  0  0  0  0  0  0  0
  149.8926  135.6937  154.6490 N   0  0  0  0  0  0  0  0  0  0  0  0
  149.3364  134.4296  154.9673 C   0  0  0  0  0  0  0  0  0  0  0  0
  149.8591  133.3915  155.7892 C   0  0  0  0  0  0  0  0  0  0  0  0
  149.0324  132.3572  155.8309 N   0  0  0  0  0  0  0  0  0  0  0  0
  147.9850  132.7080  155.0432 N   0  0  0  0  0  0  0  0  0  0  0  0
  146.8740  131.7855  154.8679 C   0  0  0  0  0  0  0  0  0  0  0  0
  147.2898  130.4818  154.1745 C   0  0  0  0  0  0  0  0  0  0  0  0
  146.3215  129.5896  153.9529 N   0  0  0  0  0  0  0  0  0  0  0  0
  148.4564  130.2722  153.8448 O   0  0  0  0  0  0  0  0  0  0  0  0
  148.1406  133.9705  154.5038 C   0  0  0  0  0  0  0  0  0  0  0  0
  152.3857  138.3152  155.1507 C   0  0  0  0  0  0  0  0  0  0  0  0
  151.8518  139.5299  155.9340 C   0  0  0  0  0  0  0  0  0  0  0  0
  149.3887  141.9513  157.7109 H   0  0  0  0  0  0  0  0  0  0  0  0
  150.6912  140.8196  157.9210 H   0  0  0  0  0  0  0  0  0  0  0  0
  149.1880  140.2963  157.1526 H   0  0  0  0  0  0  0  0  0  0  0  0
  151.2658  142.2333  155.9999 H   0  0  0  0  0  0  0  0  0  0  0  0
  148.8540  143.0132  155.6958 H   0  0  0  0  0  0  0  0  0  0  0  0
  148.5468  141.5587  154.7573 H   0  0  0  0  0  0  0  0  0  0  0  0
  149.6986  142.7763  154.1945 H   0  0  0  0  0  0  0  0  0  0  0  0
  149.2337  139.1934  155.3904 H   0  0  0  0  0  0  0  0  0  0  0  0
  149.2517  140.0975  153.8862 H   0  0  0  0  0  0  0  0  0  0  0  0
  149.5890  137.7667  153.3499 H   0  0  0  0  0  0  0  0  0  0  0  0
  151.0244  138.6527  152.9500 H   0  0  0  0  0  0  0  0  0  0  0  0
  149.4222  136.2108  153.9205 H   0  0  0  0  0  0  0  0  0  0  0  0
  150.7833  133.3434  156.3453 H   0  0  0  0  0  0  0  0  0  0  0  0
  146.4375  131.5517  155.8404 H   0  0  0  0  0  0  0  0  0  0  0  0
  146.1035  132.2873  154.2812 H   0  0  0  0  0  0  0  0  0  0  0  0
  146.5342  128.7154  153.4945 H   0  0  0  0  0  0  0  0  0  0  0  0
  145.3755  129.7961  154.2404 H   0  0  0  0  0  0  0  0  0  0  0  0
  147.4045  134.4176  153.8519 H   0  0  0  0  0  0  0  0  0  0  0  0
  153.0768  137.7497  155.7771 H   0  0  0  0  0  0  0  0  0  0  0  0
  152.9696  138.6449  154.2898 H   0  0  0  0  0  0  0  0  0  0  0  0
  152.7155  140.1012  156.2689 H   0  0  0  0  0  0  0  0  0  0  0  0
  151.3174  139.1978  156.8256 H   0  0  0  0  0  0  0  0  0  0  0  0
  1  2  1  0  0  0  0
  1 22  1  0  0  0  0
  1 23  1  0  0  0  0
  1 24  1  0  0  0  0
  2  3  1  0  0  0  0
  2  4  1  0  0  0  0
  2 25  1  0  0  0  0
  3 26  1  0  0  0  0
  3 27  1  0  0  0  0
  3 28  1  0  0  0  0
  4 21  1  0  0  0  0
  4  5  1  0  0  0  0
  5  6  1  0  0  0  0
  5 29  1  0  0  0  0
  5 30  1  0  0  0  0
  6  7  1  0  0  0  0
  6 31  1  0  0  0  0
  6 32  1  0  0  0  0
  7  8  1  0  0  0  0
  7 20  1  0  0  0  0
  8  9  2  0  0  0  0
  8 10  1  0  0  0  0
 10 11  1  0  0  0  0
 10 33  1  0  0  0  0
 11 19  2  0  0  0  0
 11 12  1  0  0  0  0
 12 13  2  0  0  0  0
 12 34  1  0  0  0  0
 13 14  1  0  0  0  0
 14 15  1  0  0  0  0
 14 19  1  0  0  0  0
 15 16  1  0  0  0  0
 15 35  1  0  0  0  0
 15 36  1  0  0  0  0
 16 17  1  0  0  0  0
 16 18  2  0  0  0  0
 17 37  1  0  0  0  0
 17 38  1  0  0  0  0
 19 39  1  0  0  0  0
 20 21  1  0  0  0  0
 20 40  1  0  0  0  0
 20 41  1  0  0  0  0
 21 42  1  0  0  0  0
 21 43  1  0  0  0  0
M  END
> <s_m_source_file>
AV-unprocessed.smi

> <i_m_source_file_index>
1589

> <i_lp_mmshare_version>
43012

> <i_f3d_flags>
0

> <s_epik_input>
W0NIM11bQ0hdKFtDSDNdKU4xW0NIMl1bQ0gyXU4oW0NIMl1bQ0gyXTEpQyg9TylbTkhdYzJbY0hdbm4oW2NIXTIpW0NIMl1DKD1PKVtOSDJd

> <s_epik_cmdline>
J2VwaWtfcHl0aG9uJywgJy1waCcsICc3LjAnLCAnLXRuJywgJzgnLCAnLW1hJywgJzIwMCcsICctbWV0YWxfYmluZGluZycsICctaW1hZScsICc8aW5maWxlLm1hZT4nLCAnLW9tYWUnLCAnPG91dGZpbGUubWFlPic=

> <r_lp_tautomer_probability>
1

> <r_epik_Ionization_Penalty>
0.648545

> <r_epik_Ionization_Penalty_Charging>
0

> <r_epik_Ionization_Penalty_Neutral>
0.648545

> <r_epik_State_Penalty>
0.6668

> <r_epik_Charging_Adjusted_Penalty>
0.6668

> <i_epik_Tot_Q>
0

> <i_epik_Tot_abs_Q>
0

> <r_epik_Metal_State_Penalty>
0.666798

> <b_epik_Metal_Only>
0

> <s_lp_Force_Field>
OPLS_2005

> <r_lp_Energy>
50.3263

> <b_lp_Chiralities_Consistent>
1

> <s_lp_Variant>
AV-unprocessed.smi:1589-2

> <Gold.Version>
5.8.1

> <Gold.Id.Protein>
6NUR|6NUR_protein|mol2

> <Gold.PLP.Fitness>
39.5390

> <Gold.PLP.PLP>
-28.7538

> <Gold.PLP.part.hbond>
-4.0000

> <Gold.PLP.part.metal>
0.0000

> <Gold.PLP.part.buried>
1.3387

> <Gold.PLP.part.nonpolar>
-27.5715

> <Gold.PLP.part.repulsive>
0.2088

> <Gold.PLP.ligand.clash>
0.0000

> <Gold.PLP.ligand.torsion>
0.2290

> <Gold.PLP.Chemscore.Hbond>
3.7273

> <Gold.PLP.Chemscore.CHOScore>
0.0000

> <Gold.PLP.Chemscore.Metal>
0.0000

> <Gold.Chemscore.Hbonds>
donor molecule, donor type, donor heavy atom, donor atom, acceptor molecule, acceptor atom, score
      L1  H    10    33       P1  7948  0.74
      L1  H    17    38       P1 10956  0.63
      P1  H  7989  7998       L1     4  0.85
      P1  H 10752 10765       L1     9  0.60

> <Gold.PLP.Chemscore.Internal.Correction>
0.0614

> <Gold.Rescore>
     Score         DG    S(hbond)    S(metal)    S(lipo)     H(rot)  DE(clash)    DE(int)     intcor
     12.18     -16.79       2.40        0.00      68.09       1.82       3.21       1.40       ----

> <Gold.Chemscore.Fitness>
12.1781

> <Gold.Chemscore.DG>
-16.7946

> <Gold.Chemscore.ZeroCoef>
-5.4800

> <Gold.Chemscore.Hbond>
2.3970

> <Gold.Chemscore.Metal>
0.0000

> <Gold.Chemscore.Lipo>
68.0852

> <Gold.Chemscore.Internal_Hbond>
0.0000

> <Gold.Chemscore.DEClash>
3.2117

> <Gold.Chemscore.DEInternal>
1.4048

> <Gold.Chemscore.Rot>
1.8193

> <Gold.Chemscore.Internal.Correction>
   9.000000E+99

> <Gold.Chemscore.Hbonds>
donor molecule, donor type, donor heavy atom, donor atom, acceptor molecule, acceptor atom, score
      L1  H    10    33       P1  7948  0.56
      L1  H    17    38       P1 10956  0.48
      P1  H  7989  7998       L1     4  0.10
      P1  H 10752 10765       L1     9  0.04

> <Gold.Chemscore.Hbond.Weighted>
-8.0061

> <Gold.Chemscore.Metal.Weighted>
-0.0000

> <Gold.Chemscore.Lipo.Weighted>
-7.9660

> <Gold.Chemscore.Internal_Hbond.Weighted>
0.0000

> <Gold.Chemscore.DEClash.Weighted>
3.2117

> <Gold.Chemscore.DEInternal.Weighted>
1.4048

> <Gold.Chemscore.Rot.Weighted>
4.6575

> <Gold.Chemscore.Internal.Correction.Weighted>
   9.000000E+99

> <Gold.Protein.RotatedTorsions>
[ 6907 6896 6895 6894 ] final  104.56 input  -60.11 | X-H torsion
[ 7974 7965 7964 7962 ] final   33.09 input  175.53 | X-H torsion
[ 8008 7997 7996 7995 ] final    4.10 input   59.86 | X-H torsion
[ 10167 10162 10161 10158 ] final   42.92 input  -65.29 | X-H torsion
[ 10718 10713 10712 10709 ] final   10.57 input   66.30 | X-H torsion
[ 10763 10752 10751 10750 ] final -156.43 input  -60.55 | X-H torsion
[ 11005 11000 10999 10996 ] final -151.37 input  -57.11 | X-H torsion

> <Gold.Protein.ActiveResidues>
 VAL166  LYS551  ARG553  GLY616  TRP617  ASP618  TYR619  PRO620  LYS621  CYS622 
 ASP623  PHE694  ASN695  SER759  ASP760  ASP761  ALA762  ILE779  LEU786  VAL792 
 PHE793  MET794  SER795  GLU796  ALA797  LYS798  CYS799  TRP800  GLU811  SER814 

> <Gold.Protein.RotatedAtoms>
  152.5260  133.9659  159.7738 H   0  0  0  0  0  0  0  0  0  0  0  0  # atno 6907 bound_to 6896
  150.9940  133.6113  159.2711 H   0  0  0  0  0  0  0  0  0  0  0  0  # atno 6908 bound_to 6896
  151.3246  135.0833  159.9371 H   0  0  0  0  0  0  0  0  0  0  0  0  # atno 6909 bound_to 6896
  146.1444  139.6442  142.9141 H   0  0  0  0  0  0  0  0  0  0  0  0  # atno 7974 bound_to 7965
  154.7118  140.2694  155.6622 H   0  0  0  0  0  0  0  0  0  0  0  0  # atno 8008 bound_to 7997
  156.2797  140.2752  156.1686 H   0  0  0  0  0  0  0  0  0  0  0  0  # atno 8009 bound_to 7997
  155.0625  140.0371  157.2571 H   0  0  0  0  0  0  0  0  0  0  0  0  # atno 8010 bound_to 7997
  140.3495  144.2368  150.6147 H   0  0  0  0  0  0  0  0  0  0  0  0  # atno 10167 bound_to 10162
  156.9828  130.6012  149.5678 H   0  0  0  0  0  0  0  0  0  0  0  0  # atno 10718 bound_to 10713
  154.7713  135.3146  154.8184 H   0  0  0  0  0  0  0  0  0  0  0  0  # atno 10763 bound_to 10752
  153.8919  135.6824  153.4764 H   0  0  0  0  0  0  0  0  0  0  0  0  # atno 10764 bound_to 10752
  153.1327  135.4773  154.9309 H   0  0  0  0  0  0  0  0  0  0  0  0  # atno 10765 bound_to 10752
  140.7302  134.3629  157.5168 H   0  0  0  0  0  0  0  0  0  0  0  0  # atno 11005 bound_to 11000
  145.4973  141.0438  143.2560 LP  0  0  0  0  0  0  0  0  0  0  0  0  # atno 17320 bound_to 7965
  144.7829  139.6488  143.7147 LP  0  0  0  0  0  0  0  0  0  0  0  0  # atno 17321 bound_to 7965
  140.5232  143.2260  151.8356 LP  0  0  0  0  0  0  0  0  0  0  0  0  # atno 17342 bound_to 10162
  139.4828  144.4811  151.9305 LP  0  0  0  0  0  0  0  0  0  0  0  0  # atno 17343 bound_to 10162
  156.0237  130.5332  150.8348 LP  0  0  0  0  0  0  0  0  0  0  0  0  # atno 17370 bound_to 10713
  157.5514  131.0944  150.9690 LP  0  0  0  0  0  0  0  0  0  0  0  0  # atno 17371 bound_to 10713
  139.8828  134.9013  156.2808 LP  0  0  0  0  0  0  0  0  0  0  0  0  # atno 17394 bound_to 11000
  140.9927  133.7199  156.0839 LP  0  0  0  0  0  0  0  0  0  0  0  0  # atno 17395 bound_to 11000

$$$$
