AV-unprocessed.smi:2859|AV-procd|sdf|11004|dock9
  -GOLD-   2272015463D 1   1.00000     0.00000
 Structure written by MMmdl.
 51 52  0  0  0  0  0  0  0  0  1 V2000
  150.2127  144.1423  159.2530 C   0  0  0  0  0  0  0  0  0  0  0  0
  151.7545  144.0807  159.3342 C   0  0  0  0  0  0  0  0  0  0  0  0
  152.3156  145.0611  158.2833 C   0  0  0  0  0  0  0  0  0  0  0  0
  152.1649  144.5377  160.7494 C   0  0  0  0  0  0  0  0  0  0  0  0
  152.3014  142.6678  159.0677 C   0  0  0  0  0  0  0  0  0  0  0  0
  153.2728  142.0378  159.8825 C   0  0  0  0  0  0  0  0  0  0  0  0
  153.6666  140.7237  159.5264 C   0  0  0  0  0  0  0  0  0  0  0  0
  154.6220  139.9848  160.2610 N   0  0  0  0  0  0  0  0  0  0  0  0
  155.8681  139.6051  159.6024 C   0  0  0  0  0  0  0  0  0  0  0  0
  156.6112  138.5427  160.4265 C   0  0  0  0  0  0  0  0  0  0  0  0
  156.8080  139.0162  161.7529 O   0  0  0  0  0  0  0  0  0  0  0  0
  155.5727  139.2451  162.4305 C   0  0  1  0  0  0  0  0  0  0  0  0
  155.8725  139.6438  163.8832 C   0  0  0  0  0  0  0  0  0  0  0  0
  156.5453  140.7818  164.0778 N   0  0  0  0  0  0  0  0  0  0  0  0
  155.5210  138.9315  164.8220 O   0  0  0  0  0  0  0  0  0  0  0  0
  154.7705  140.3294  161.6757 C   0  0  0  0  0  0  0  0  0  0  0  0
  153.1265  140.1264  158.4391 N   0  0  0  0  0  0  0  0  0  0  0  0
  152.2469  140.8095  157.6997 C   0  0  0  0  0  0  0  0  0  0  0  0
  151.5427  140.0509  156.5625 C   0  0  0  0  0  0  0  0  0  0  0  0
  150.7460  138.8721  157.1504 C   0  0  0  0  0  0  0  0  0  0  0  0
  152.5654  139.5193  155.5304 C   0  0  0  0  0  0  0  0  0  0  0  0
  150.5896  140.9854  155.7806 C   0  0  0  0  0  0  0  0  0  0  0  0
  151.7903  142.0314  157.9895 N   0  0  0  0  0  0  0  0  0  0  0  0
  149.8472  145.1517  159.4454 H   0  0  0  0  0  0  0  0  0  0  0  0
  149.7439  143.4882  159.9892 H   0  0  0  0  0  0  0  0  0  0  0  0
  149.8489  143.8555  158.2655 H   0  0  0  0  0  0  0  0  0  0  0  0
  152.0447  144.7543  157.2724 H   0  0  0  0  0  0  0  0  0  0  0  0
  153.4036  145.1230  158.3270 H   0  0  0  0  0  0  0  0  0  0  0  0
  151.9308  146.0702  158.4351 H   0  0  0  0  0  0  0  0  0  0  0  0
  151.7763  145.5313  160.9744 H   0  0  0  0  0  0  0  0  0  0  0  0
  153.2486  144.5838  160.8625 H   0  0  0  0  0  0  0  0  0  0  0  0
  151.7843  143.8551  161.5102 H   0  0  0  0  0  0  0  0  0  0  0  0
  153.6813  142.5316  160.7487 H   0  0  0  0  0  0  0  0  0  0  0  0
  155.6660  139.1956  158.6122 H   0  0  0  0  0  0  0  0  0  0  0  0
  156.4934  140.4897  159.4750 H   0  0  0  0  0  0  0  0  0  0  0  0
  156.0569  137.6030  160.4417 H   0  0  0  0  0  0  0  0  0  0  0  0
  157.5818  138.3320  159.9772 H   0  0  0  0  0  0  0  0  0  0  0  0
  155.0007  138.3159  162.4576 H   0  0  0  0  0  0  0  0  0  0  0  0
  156.7705  141.0752  165.0175 H   0  0  0  0  0  0  0  0  0  0  0  0
  156.8330  141.3379  163.2859 H   0  0  0  0  0  0  0  0  0  0  0  0
  155.2747  141.2944  161.7464 H   0  0  0  0  0  0  0  0  0  0  0  0
  153.7985  140.4415  162.1568 H   0  0  0  0  0  0  0  0  0  0  0  0
  150.2337  138.3087  156.3700 H   0  0  0  0  0  0  0  0  0  0  0  0
  149.9906  139.2180  157.8570 H   0  0  0  0  0  0  0  0  0  0  0  0
  151.3999  138.1794  157.6819 H   0  0  0  0  0  0  0  0  0  0  0  0
  153.2480  138.7904  155.9693 H   0  0  0  0  0  0  0  0  0  0  0  0
  153.1679  140.3284  155.1153 H   0  0  0  0  0  0  0  0  0  0  0  0
  152.0675  139.0215  154.6978 H   0  0  0  0  0  0  0  0  0  0  0  0
  150.1220  140.4655  154.9437 H   0  0  0  0  0  0  0  0  0  0  0  0
  151.1224  141.8463  155.3750 H   0  0  0  0  0  0  0  0  0  0  0  0
  149.7807  141.3629  156.4075 H   0  0  0  0  0  0  0  0  0  0  0  0
  1  2  1  0  0  0  0
  1 24  1  0  0  0  0
  1 25  1  0  0  0  0
  1 26  1  0  0  0  0
  2  3  1  0  0  0  0
  2  4  1  0  0  0  0
  2  5  1  0  0  0  0
  3 27  1  0  0  0  0
  3 28  1  0  0  0  0
  3 29  1  0  0  0  0
  4 30  1  0  0  0  0
  4 31  1  0  0  0  0
  4 32  1  0  0  0  0
  5 23  1  0  0  0  0
  5  6  2  0  0  0  0
  6  7  1  0  0  0  0
  6 33  1  0  0  0  0
  7  8  1  0  0  0  0
  7 17  2  0  0  0  0
  8 16  1  0  0  0  0
  8  9  1  0  0  0  0
  9 10  1  0  0  0  0
  9 34  1  0  0  0  0
  9 35  1  0  0  0  0
 10 11  1  0  0  0  0
 10 36  1  0  0  0  0
 10 37  1  0  0  0  0
 11 12  1  0  0  0  0
 12 13  1  0  0  0  0
 12 16  1  0  0  0  0
 12 38  1  0  0  0  0
 13 14  1  0  0  0  0
 13 15  2  0  0  0  0
 14 39  1  0  0  0  0
 14 40  1  0  0  0  0
 16 41  1  0  0  0  0
 16 42  1  0  0  0  0
 17 18  1  0  0  0  0
 18 19  1  0  0  0  0
 18 23  2  0  0  0  0
 19 20  1  0  0  0  0
 19 21  1  0  0  0  0
 19 22  1  0  0  0  0
 20 43  1  0  0  0  0
 20 44  1  0  0  0  0
 20 45  1  0  0  0  0
 21 46  1  0  0  0  0
 21 47  1  0  0  0  0
 21 48  1  0  0  0  0
 22 49  1  0  0  0  0
 22 50  1  0  0  0  0
 22 51  1  0  0  0  0
M  END
> <s_m_source_file>
AV-unprocessed.smi

> <i_m_source_file_index>
2859

> <i_lp_mmshare_version>
43012

> <i_f3d_flags>
0

> <s_epik_input>
W0NIM11DKFtDSDNdKShbQ0gzXSljMVtjSF1jKG5jKG4xKUMoW0NIM10pKFtDSDNdKVtDSDNdKU4yW0NIMl1bQ0gyXU9bQ0BIXShbQ0gyXTIpQyg9TylbTkgyXQ==

> <s_epik_cmdline>
J2VwaWtfcHl0aG9uJywgJy1waCcsICc3LjAnLCAnLXRuJywgJzgnLCAnLW1hJywgJzIwMCcsICctbWV0YWxfYmluZGluZycsICctaW1hZScsICc8aW5maWxlLm1hZT4nLCAnLW9tYWUnLCAnPG91dGZpbGUubWFlPic=

> <r_lp_tautomer_probability>
1

> <r_epik_Ionization_Penalty>
0.0011326

> <r_epik_Ionization_Penalty_Charging>
0

> <r_epik_Ionization_Penalty_Neutral>
0.0011326

> <r_epik_State_Penalty>
0.000721507

> <r_epik_Charging_Adjusted_Penalty>
0.000721507

> <i_epik_Tot_Q>
0

> <i_epik_Tot_abs_Q>
0

> <r_epik_Metal_State_Penalty>
-0

> <b_epik_Metal_Only>
0

> <s_lp_Force_Field>
OPLS_2005

> <r_lp_Energy>
9.66703

> <b_lp_Chiralities_Consistent>
1

> <s_lp_Variant>
AV-unprocessed.smi:2859-1

> <Gold.Version>
5.8.1

> <Gold.Id.Protein>
6NUR|6NUR_protein|mol2

> <Gold.PLP.Fitness>
42.8010

> <Gold.PLP.PLP>
-41.1779

> <Gold.PLP.part.hbond>
-2.0000

> <Gold.PLP.part.metal>
0.0000

> <Gold.PLP.part.buried>
-3.8953

> <Gold.PLP.part.nonpolar>
-33.4344

> <Gold.PLP.part.repulsive>
0.0410

> <Gold.PLP.ligand.clash>
0.0000

> <Gold.PLP.ligand.torsion>
0.9592

> <Gold.PLP.Chemscore.Hbond>
0.9750

> <Gold.PLP.Chemscore.CHOScore>
0.0000

> <Gold.PLP.Chemscore.Metal>
0.0000

> <Gold.Chemscore.Hbonds>
donor molecule, donor type, donor heavy atom, donor atom, acceptor molecule, acceptor atom, score
      P1  H  7997  8010       L1    17  0.88

> <Gold.PLP.Chemscore.Internal.Correction>
0.6165

> <Gold.Rescore>
     Score         DG    S(hbond)    S(metal)    S(lipo)     H(rot)  DE(clash)    DE(int)     intcor
     13.36     -14.63       0.15        0.00     113.97       1.83       0.15       1.12       ----

> <Gold.Chemscore.Fitness>
13.3563

> <Gold.Chemscore.DG>
-14.6275

> <Gold.Chemscore.ZeroCoef>
-5.4800

> <Gold.Chemscore.Hbond>
0.1510

> <Gold.Chemscore.Metal>
0.0000

> <Gold.Chemscore.Lipo>
113.9660

> <Gold.Chemscore.Internal_Hbond>
0.0000

> <Gold.Chemscore.DEClash>
0.1495

> <Gold.Chemscore.DEInternal>
1.1217

> <Gold.Chemscore.Rot>
1.8323

> <Gold.Chemscore.Internal.Correction>
   9.000000E+99

> <Gold.Chemscore.Hbonds>
donor molecule, donor type, donor heavy atom, donor atom, acceptor molecule, acceptor atom, score
      P1  H  7997  8010       L1    17  0.08

> <Gold.Chemscore.Hbond.Weighted>
-0.5042

> <Gold.Chemscore.Metal.Weighted>
-0.0000

> <Gold.Chemscore.Lipo.Weighted>
-13.3340

> <Gold.Chemscore.Internal_Hbond.Weighted>
0.0000

> <Gold.Chemscore.DEClash.Weighted>
0.1495

> <Gold.Chemscore.DEInternal.Weighted>
1.1217

> <Gold.Chemscore.Rot.Weighted>
4.6907

> <Gold.Chemscore.Internal.Correction.Weighted>
   9.000000E+99

> <Gold.Protein.RotatedTorsions>
[ 6907 6896 6895 6894 ] final  -26.82 input  -60.11 | X-H torsion
[ 7974 7965 7964 7962 ] final   56.68 input  175.53 | X-H torsion
[ 8008 7997 7996 7995 ] final   31.03 input   59.86 | X-H torsion
[ 10167 10162 10161 10158 ] final -124.83 input  -65.29 | X-H torsion
[ 10718 10713 10712 10709 ] final   35.55 input   66.30 | X-H torsion
[ 10763 10752 10751 10750 ] final   39.98 input  -60.55 | X-H torsion
[ 11005 11000 10999 10996 ] final  129.83 input  -57.11 | X-H torsion

> <Gold.Protein.ActiveResidues>
 VAL166  LYS551  ARG553  GLY616  TRP617  ASP618  TYR619  PRO620  LYS621  CYS622 
 ASP623  PHE694  ASN695  SER759  ASP760  ASP761  ALA762  ILE779  LEU786  VAL792 
 PHE793  MET794  SER795  GLU796  ALA797  LYS798  CYS799  TRP800  GLU811  SER814 

> <Gold.Protein.RotatedAtoms>
  151.1555  135.0248  159.8687 H   0  0  0  0  0  0  0  0  0  0  0  0  # atno 6907 bound_to 6896
  152.5452  134.1339  159.8460 H   0  0  0  0  0  0  0  0  0  0  0  0  # atno 6908 bound_to 6896
  151.1428  133.4913  159.2629 H   0  0  0  0  0  0  0  0  0  0  0  0  # atno 6909 bound_to 6896
  145.9372  139.3858  143.0385 H   0  0  0  0  0  0  0  0  0  0  0  0  # atno 7974 bound_to 7965
  155.0998  140.3228  155.4550 H   0  0  0  0  0  0  0  0  0  0  0  0  # atno 8008 bound_to 7997
  156.2720  140.2063  156.6071 H   0  0  0  0  0  0  0  0  0  0  0  0  # atno 8009 bound_to 7997
  154.6838  140.0523  157.0280 H   0  0  0  0  0  0  0  0  0  0  0  0  # atno 8010 bound_to 7997
  139.9886  143.5665  152.2351 H   0  0  0  0  0  0  0  0  0  0  0  0  # atno 10167 bound_to 10162
  157.3240  130.7463  149.6804 H   0  0  0  0  0  0  0  0  0  0  0  0  # atno 10718 bound_to 10713
  152.9950  135.6204  154.2553 H   0  0  0  0  0  0  0  0  0  0  0  0  # atno 10763 bound_to 10752
  154.2290  135.2793  155.2898 H   0  0  0  0  0  0  0  0  0  0  0  0  # atno 10764 bound_to 10752
  154.5465  135.5746  153.6942 H   0  0  0  0  0  0  0  0  0  0  0  0  # atno 10765 bound_to 10752
  139.9638  134.9596  156.9206 H   0  0  0  0  0  0  0  0  0  0  0  0  # atno 11005 bound_to 11000
  145.8347  140.9612  143.0830 LP  0  0  0  0  0  0  0  0  0  0  0  0  # atno 17320 bound_to 7965
  144.6773  140.0208  143.7484 LP  0  0  0  0  0  0  0  0  0  0  0  0  # atno 17321 bound_to 7965
  139.6357  144.7649  151.2443 LP  0  0  0  0  0  0  0  0  0  0  0  0  # atno 17342 bound_to 10162
  140.7463  143.6403  150.8341 LP  0  0  0  0  0  0  0  0  0  0  0  0  # atno 17343 bound_to 10162
  155.9688  130.4214  150.4470 LP  0  0  0  0  0  0  0  0  0  0  0  0  # atno 17370 bound_to 10713
  157.2491  131.0542  151.2390 LP  0  0  0  0  0  0  0  0  0  0  0  0  # atno 17371 bound_to 10713
  140.5442  134.0690  155.7350 LP  0  0  0  0  0  0  0  0  0  0  0  0  # atno 17394 bound_to 11000
  141.1316  133.9292  157.2522 LP  0  0  0  0  0  0  0  0  0  0  0  0  # atno 17395 bound_to 11000

$$$$
