#       Name:                AV-unprocessed.smi:160
#       Creating user name   scv26
#       Creation time:       Thu Mar 26 19:06:08 2020


#       File generated by GOLD software.
#

@<TRIPOS>MOLECULE
AV-unprocessed.smi:160
    41    42     1
SMALL
NO_CHARGES


@<TRIPOS>ATOM
      1 ****        -3.7951   1.0471   0.1524 N.am           1 S1                 0.0000
      2 ****        -3.7907  -0.0128   0.9678 C.2            1 S1                 0.0000
      3 ****        -4.8106  -0.4247   1.5185 O.2            1 S1                 0.0000
      4 ****        -2.4607  -0.6810   1.1806 C.2            1 S1                 0.0000
      5 ****        -2.3368  -1.7632   2.0050 N.2            1 S1                 0.0000
      6 ****        -1.0347  -1.9801   1.8694 C.2            1 S1                 0.0000
      7 ****        -0.4211  -1.1279   1.0422 N.pl3          1 S1                 0.0000
      8 ****         1.0188  -1.0421   0.6444 C.3            1 S1                 0.0000
      9 ****         1.4304   0.2772   0.8431 O.3            1 S1                 0.0000
     10 ****         2.1206   0.7612  -0.3065 C.3            1 S1                 0.0000
     11 ****         2.0238   2.2938  -0.4062 C.3            1 S1                 0.0000
     12 ****         2.9997   2.8969   0.4167 O.3            1 S1                 0.0000
     13 ****         1.4983  -0.0195  -1.4727 C.3            1 S1                 0.0000
     14 ****         0.3034   0.5951  -1.9246 O.3            1 S1                 0.0000
     15 ****         1.2564  -1.3851  -0.8407 C.3            1 S1                 0.0000
     16 ****         0.2332  -2.1316  -1.4790 O.3            1 S1                 0.0000
     17 ****        -1.3487  -0.2528   0.5814 N.2            1 S1                 0.0000
     18 ****         1.5316  -1.7207   1.3272 H              1 S1                 0.0000
     19 ****         3.1662   0.4577  -0.2236 H              1 S1                 0.0000
     20 ****         2.1807  -0.0876  -2.3206 H              1 S1                 0.0000
     21 ****         2.1819  -1.9604  -0.8888 H              1 S1                 0.0000
     22 ****        -4.6570   1.5400  -0.0294 H              1 S1                 0.0000
     23 ****        -2.9315   1.3486  -0.2759 H              1 S1                 0.0000
     24 ****        -0.5181  -2.7783   2.3816 H              1 S1                 0.0000
     25 ****         2.2177   2.6172  -1.4293 H              1 S1                 0.0000
     26 ****         1.0287   2.6479  -0.1353 H              1 S1                 0.0000
     27 ****         2.9169   3.8353   0.3407 H              1 S1                 0.0000
     28 ****        -0.1287  -0.0005  -2.5180 H              1 S1                 0.0000
     29 ****         0.1260  -2.9505  -1.0198 H              1 S1                 0.0000
     30 ****        -5.6840   0.0368   1.3629 LP             1 S1                 0.0000
     31 ****        -4.7663  -1.2210   2.1217 LP             1 S1                 0.0000
     32 ****        -3.0226  -2.2473   2.5484 LP             1 S1                 0.0000
     33 ****         2.0405   0.3164   1.6344 LP             1 S1                 0.0000
     34 ****         0.6286   0.8506   1.0117 LP             1 S1                 0.0000
     35 ****         3.9121   2.6136   0.1213 LP             1 S1                 0.0000
     36 ****         2.8566   2.6214   1.3673 LP             1 S1                 0.0000
     37 ****         0.5200   1.4482  -2.3993 LP             1 S1                 0.0000
     38 ****        -0.2930   0.7892  -1.1458 LP             1 S1                 0.0000
     39 ****         0.4887  -2.3092  -2.4294 LP             1 S1                 0.0000
     40 ****        -0.6240  -1.6172  -1.4550 LP             1 S1                 0.0000
     41 ****        -1.2296   0.5163  -0.0466 LP             1 S1                 0.0000
@<TRIPOS>BOND
    1    1    2 am    
    2    1   22 1     
    3    1   23 1     
    4    2    3 2     
    5    2    4 1     
    6    4   17 2     
    7    4    5 1     
    8    5    6 2     
    9    6    7 1     
   10    6   24 1     
   11    7    8 1     
   12    7   17 1     
   13    8   18 1     
   14    8   15 1     
   15    8    9 1     
   16    9   10 1     
   17   10   19 1     
   18   10   11 1     
   19   10   13 1     
   20   11   12 1     
   21   11   25 1     
   22   11   26 1     
   23   12   27 1     
   24   13   20 1     
   25   13   14 1     
   26   13   15 1     
   27   14   28 1     
   28   15   21 1     
   29   15   16 1     
   30   16   29 1     
   31    3   30 1     
   32    3   31 1     
   33    5   32 1     
   34    9   33 1     
   35    9   34 1     
   36   12   35 1     
   37   12   36 1     
   38   14   37 1     
   39   14   38 1     
   40   16   39 1     
   41   16   40 1     
   42   17   41 1     
@<TRIPOS>SUBSTRUCTURE
      1 S1             1
@<TRIPOS>SET
LONE_PAIRS      STATIC     ATOMS    <user>   **** ""
12 30 31 32 33 34 35 36 37 38 39 40 41
DONOR_HYDROGENS      STATIC     ATOMS    <user>   **** ""
5 22 23 27 28 29
ATOM$BLUE        STATIC     ATOMS    COLORGROUP SYSTEM
12 30 31 32 33 34 35 36 37 38 39 40 41
ATOM$RED        STATIC     ATOMS    COLORGROUP SYSTEM
5 22 23 27 28 29
