AV-unprocessed.smi:2954|AV-procd|sdf|11297|dock7
  -GOLD-   2272016193D 1   1.00000     0.00000
 Structure written by MMmdl.
 42 44  0  0  0  0  0  0  0  0  1 V2000
  151.0283  138.0152  159.1866 C   0  0  0  0  0  0  0  0  0  0  0  0
  152.3724  138.7564  159.0594 C   0  0  2  0  0  0  0  0  0  0  0  0
  153.3598  138.3570  160.0649 N   0  0  0  0  0  0  0  0  0  0  0  0
  153.8370  137.1215  160.2744 C   0  0  0  0  0  0  0  0  0  0  0  0
  153.4861  136.1468  159.6144 O   0  0  0  0  0  0  0  0  0  0  0  0
  152.2179  140.2594  159.0597 C   0  0  0  0  0  0  0  0  0  0  0  0
  152.9109  141.0426  159.8909 N   0  0  0  0  0  0  0  0  0  0  0  0
  152.4612  142.3082  159.5753 C   0  0  0  0  0  0  0  0  0  0  0  0
  152.8079  143.5670  160.1157 C   0  0  0  0  0  0  0  0  0  0  0  0
  152.1989  144.7434  159.6322 C   0  0  0  0  0  0  0  0  0  0  0  0
  151.2372  144.6774  158.6035 C   0  0  0  0  0  0  0  0  0  0  0  0
  150.8807  143.4331  158.0492 C   0  0  0  0  0  0  0  0  0  0  0  0
  151.4927  142.2615  158.5348 C   0  0  0  0  0  0  0  0  0  0  0  0
  151.3696  140.9109  158.2198 N   0  0  0  0  0  0  0  0  0  0  0  0
  150.4829  140.3553  157.2057 C   0  0  0  0  0  0  0  0  0  0  0  0
  149.0408  140.8535  157.3751 C   0  0  0  0  0  0  0  0  0  0  0  0
  148.4545  140.9867  156.0875 O   0  0  0  0  0  0  0  0  0  0  0  0
  147.3511  141.7993  155.9430 C   0  0  0  0  0  0  0  0  0  0  0  0
  146.7567  142.5220  157.0084 C   0  0  0  0  0  0  0  0  0  0  0  0
  145.6284  143.3328  156.7782 C   0  0  0  0  0  0  0  0  0  0  0  0
  145.0803  143.4312  155.4862 C   0  0  0  0  0  0  0  0  0  0  0  0
  145.6619  142.7164  154.4232 C   0  0  0  0  0  0  0  0  0  0  0  0
  146.7910  141.9052  154.6505 C   0  0  0  0  0  0  0  0  0  0  0  0
  147.4929  141.0426  153.3280 Cl  0  0  0  0  0  0  0  0  0  0  0  0
  150.3716  138.2643  158.3525 H   0  0  0  0  0  0  0  0  0  0  0  0
  150.5004  138.2759  160.1045 H   0  0  0  0  0  0  0  0  0  0  0  0
  151.1730  136.9346  159.1795 H   0  0  0  0  0  0  0  0  0  0  0  0
  152.7994  138.4364  158.1119 H   0  0  0  0  0  0  0  0  0  0  0  0
  153.7163  139.0936  160.6560 H   0  0  0  0  0  0  0  0  0  0  0  0
  154.5714  137.0934  161.0936 H   0  0  0  0  0  0  0  0  0  0  0  0
  153.5414  143.6270  160.9062 H   0  0  0  0  0  0  0  0  0  0  0  0
  152.4693  145.7002  160.0541 H   0  0  0  0  0  0  0  0  0  0  0  0
  150.7724  145.5826  158.2407 H   0  0  0  0  0  0  0  0  0  0  0  0
  150.1402  143.3811  157.2651 H   0  0  0  0  0  0  0  0  0  0  0  0
  150.8557  140.6447  156.2228 H   0  0  0  0  0  0  0  0  0  0  0  0
  150.5319  139.2670  157.2304 H   0  0  0  0  0  0  0  0  0  0  0  0
  148.4736  140.1439  157.9792 H   0  0  0  0  0  0  0  0  0  0  0  0
  149.0407  141.8144  157.8918 H   0  0  0  0  0  0  0  0  0  0  0  0
  147.1467  142.4694  158.0135 H   0  0  0  0  0  0  0  0  0  0  0  0
  145.1827  143.8802  157.5955 H   0  0  0  0  0  0  0  0  0  0  0  0
  144.2152  144.0535  155.3108 H   0  0  0  0  0  0  0  0  0  0  0  0
  145.2415  142.7917  153.4310 H   0  0  0  0  0  0  0  0  0  0  0  0
  1  2  1  0  0  0  0
  1 25  1  0  0  0  0
  1 26  1  0  0  0  0
  1 27  1  0  0  0  0
  2  3  1  0  0  0  0
  2  6  1  0  0  0  0
  2 28  1  0  0  0  0
  3  4  1  0  0  0  0
  3 29  1  0  0  0  0
  4  5  2  0  0  0  0
  4 30  1  0  0  0  0
  6 14  1  0  0  0  0
  6  7  2  0  0  0  0
  7  8  1  0  0  0  0
  8 13  2  0  0  0  0
  8  9  1  0  0  0  0
  9 10  2  0  0  0  0
  9 31  1  0  0  0  0
 10 11  1  0  0  0  0
 10 32  1  0  0  0  0
 11 12  2  0  0  0  0
 11 33  1  0  0  0  0
 12 13  1  0  0  0  0
 12 34  1  0  0  0  0
 13 14  1  0  0  0  0
 14 15  1  0  0  0  0
 15 16  1  0  0  0  0
 15 35  1  0  0  0  0
 15 36  1  0  0  0  0
 16 17  1  0  0  0  0
 16 37  1  0  0  0  0
 16 38  1  0  0  0  0
 17 18  1  0  0  0  0
 18 23  1  0  0  0  0
 18 19  2  0  0  0  0
 19 20  1  0  0  0  0
 19 39  1  0  0  0  0
 20 21  2  0  0  0  0
 20 40  1  0  0  0  0
 21 22  1  0  0  0  0
 21 41  1  0  0  0  0
 22 23  2  0  0  0  0
 22 42  1  0  0  0  0
 23 24  1  0  0  0  0
M  END
> <s_m_source_file>
AV-unprocessed.smi

> <i_m_source_file_index>
2954

> <i_lp_mmshare_version>
43012

> <i_f3d_flags>
0

> <s_epik_input>
Tz1bQ0hdW05IXVtDQEBIXShbQ0gzXSljKG4xKW4oYyhjMTIpW2NIXVtjSF1bY0hdW2NIXTIpW0NIMl1bQ0gyXU9jM1tjSF1bY0hdW2NIXVtjSF1jM0Ns

> <s_epik_cmdline>
J2VwaWtfcHl0aG9uJywgJy1waCcsICc3LjAnLCAnLXRuJywgJzgnLCAnLW1hJywgJzIwMCcsICctbWV0YWxfYmluZGluZycsICctaW1hZScsICc8aW5maWxlLm1hZT4nLCAnLW9tYWUnLCAnPG91dGZpbGUubWFlPic=

> <r_lp_tautomer_probability>
1

> <r_epik_Ionization_Penalty>
0.0861383

> <r_epik_Ionization_Penalty_Charging>
0

> <r_epik_Ionization_Penalty_Neutral>
0.0861383

> <r_epik_State_Penalty>
0.0766841

> <r_epik_Charging_Adjusted_Penalty>
0.0766841

> <i_epik_Tot_Q>
0

> <i_epik_Tot_abs_Q>
0

> <r_epik_Metal_State_Penalty>
0.0668745

> <b_epik_Metal_Only>
0

> <s_lp_Force_Field>
OPLS_2005

> <r_lp_Energy>
13.8103

> <b_lp_Chiralities_Consistent>
1

> <s_lp_Variant>
AV-unprocessed.smi:2954-1

> <Gold.Version>
5.8.1

> <Gold.Id.Protein>
6NUR|6NUR_protein|mol2

> <Gold.PLP.Fitness>
46.8201

> <Gold.PLP.PLP>
-44.6459

> <Gold.PLP.part.hbond>
-1.0000

> <Gold.PLP.part.metal>
0.0000

> <Gold.PLP.part.buried>
-7.1842

> <Gold.PLP.part.nonpolar>
-37.1084

> <Gold.PLP.part.repulsive>
0.1326

> <Gold.PLP.ligand.clash>
0.0000

> <Gold.PLP.ligand.torsion>
0.4642

> <Gold.PLP.Chemscore.Hbond>
1.0000

> <Gold.PLP.Chemscore.CHOScore>
0.0000

> <Gold.PLP.Chemscore.Metal>
0.0000

> <Gold.Chemscore.Hbonds>
donor molecule, donor type, donor heavy atom, donor atom, acceptor molecule, acceptor atom, score
      P1  H  6896  6907       L1     5  1.00

> <Gold.PLP.Chemscore.Internal.Correction>
0.1026

> <Gold.Rescore>
     Score         DG    S(hbond)    S(metal)    S(lipo)     H(rot)  DE(clash)    DE(int)     intcor
     16.07     -16.52       1.00        0.00     115.81       2.28       0.00       0.44       ----

> <Gold.Chemscore.Fitness>
16.0695

> <Gold.Chemscore.DG>
-16.5185

> <Gold.Chemscore.ZeroCoef>
-5.4800

> <Gold.Chemscore.Hbond>
0.9994

> <Gold.Chemscore.Metal>
0.0000

> <Gold.Chemscore.Lipo>
115.8122

> <Gold.Chemscore.Internal_Hbond>
0.0000

> <Gold.Chemscore.DEClash>
0.0040

> <Gold.Chemscore.DEInternal>
0.4449

> <Gold.Chemscore.Rot>
2.2849

> <Gold.Chemscore.Internal.Correction>
   9.000000E+99

> <Gold.Chemscore.Hbonds>
donor molecule, donor type, donor heavy atom, donor atom, acceptor molecule, acceptor atom, score
      P1  H  6896  6907       L1     5  1.00

> <Gold.Chemscore.Hbond.Weighted>
-3.3379

> <Gold.Chemscore.Metal.Weighted>
-0.0000

> <Gold.Chemscore.Lipo.Weighted>
-13.5500

> <Gold.Chemscore.Internal_Hbond.Weighted>
0.0000

> <Gold.Chemscore.DEClash.Weighted>
0.0040

> <Gold.Chemscore.DEInternal.Weighted>
0.4449

> <Gold.Chemscore.Rot.Weighted>
5.8495

> <Gold.Chemscore.Internal.Correction.Weighted>
   9.000000E+99

> <Gold.Protein.RotatedTorsions>
[ 6907 6896 6895 6894 ] final   46.83 input  -60.11 | X-H torsion
[ 7974 7965 7964 7962 ] final  100.05 input  175.53 | X-H torsion
[ 8008 7997 7996 7995 ] final  -27.73 input   59.86 | X-H torsion
[ 10167 10162 10161 10158 ] final   29.92 input  -65.29 | X-H torsion
[ 10718 10713 10712 10709 ] final   89.25 input   66.30 | X-H torsion
[ 10763 10752 10751 10750 ] final  -75.04 input  -60.55 | X-H torsion
[ 11005 11000 10999 10996 ] final   11.46 input  -57.11 | X-H torsion

> <Gold.Protein.ActiveResidues>
 VAL166  LYS551  ARG553  GLY616  TRP617  ASP618  TYR619  PRO620  LYS621  CYS622 
 ASP623  PHE694  ASN695  SER759  ASP760  ASP761  ALA762  ILE779  LEU786  VAL792 
 PHE793  MET794  SER795  GLU796  ALA797  LYS798  CYS799  TRP800  GLU811  SER814 

> <Gold.Protein.RotatedAtoms>
  152.2609  134.8034  160.0430 H   0  0  0  0  0  0  0  0  0  0  0  0  # atno 6907 bound_to 6896
  151.8681  133.3465  159.3734 H   0  0  0  0  0  0  0  0  0  0  0  0  # atno 6908 bound_to 6896
  150.7116  134.5067  159.5632 H   0  0  0  0  0  0  0  0  0  0  0  0  # atno 6909 bound_to 6896
  145.3907  139.2363  143.3353 H   0  0  0  0  0  0  0  0  0  0  0  0  # atno 7974 bound_to 7965
  154.4364  140.1864  156.0978 H   0  0  0  0  0  0  0  0  0  0  0  0  # atno 8008 bound_to 7997
  156.0315  140.3330  155.7119 H   0  0  0  0  0  0  0  0  0  0  0  0  # atno 8009 bound_to 7997
  155.5832  140.0623  157.2768 H   0  0  0  0  0  0  0  0  0  0  0  0  # atno 8010 bound_to 7997
  140.4724  144.0743  150.6241 H   0  0  0  0  0  0  0  0  0  0  0  0  # atno 10167 bound_to 10162
  157.6954  131.0326  150.3398 H   0  0  0  0  0  0  0  0  0  0  0  0  # atno 10718 bound_to 10713
  154.4813  135.5844  153.6391 H   0  0  0  0  0  0  0  0  0  0  0  0  # atno 10763 bound_to 10752
  152.9848  135.6090  154.3243 H   0  0  0  0  0  0  0  0  0  0  0  0  # atno 10764 bound_to 10752
  154.3134  135.2844  155.2534 H   0  0  0  0  0  0  0  0  0  0  0  0  # atno 10765 bound_to 10752
  140.5029  134.0728  155.7798 H   0  0  0  0  0  0  0  0  0  0  0  0  # atno 11005 bound_to 11000
  146.2799  140.4590  142.8780 LP  0  0  0  0  0  0  0  0  0  0  0  0  # atno 17320 bound_to 7965
  144.8442  140.6903  143.6210 LP  0  0  0  0  0  0  0  0  0  0  0  0  # atno 17321 bound_to 7965
  140.3961  143.2727  152.0003 LP  0  0  0  0  0  0  0  0  0  0  0  0  # atno 17342 bound_to 10162
  139.4820  144.6037  151.7560 LP  0  0  0  0  0  0  0  0  0  0  0  0  # atno 17343 bound_to 10162
  156.3860  130.3889  149.7065 LP  0  0  0  0  0  0  0  0  0  0  0  0  # atno 17370 bound_to 10713
  156.4431  130.7871  151.2892 LP  0  0  0  0  0  0  0  0  0  0  0  0  # atno 17371 bound_to 10713
  141.1426  133.9112  157.2291 LP  0  0  0  0  0  0  0  0  0  0  0  0  # atno 17394 bound_to 11000
  139.9703  135.0130  156.9493 LP  0  0  0  0  0  0  0  0  0  0  0  0  # atno 17395 bound_to 11000

$$$$
