#       Name:                AV-unprocessed.smi:97
#       Creating user name   scv26
#       Creation time:       Thu Mar 26 17:30:52 2020


#       File generated by GOLD software.
#

@<TRIPOS>MOLECULE
AV-unprocessed.smi:97
    58    61     1
SMALL
NO_CHARGES


@<TRIPOS>ATOM
      1 ****        -0.9517  -0.5793   0.4042 O.2            1 S1                 0.0000
      2 ****        -0.0630  -1.3923   0.1449 C.2            1 S1                 0.0000
      3 ****         1.4174  -0.9827   0.1626 C.3            1 S1                 0.0000
      4 ****         1.6207   0.4819   0.2118 N.am           1 S1                 0.0000
      5 ****         1.6253   1.2041  -1.0077 C.2            1 S1                 0.0000
      6 ****         1.4866   0.6312  -2.0896 O.2            1 S1                 0.0000
      7 ****         1.7901   2.6478  -0.8837 C.2            1 S1                 0.0000
      8 ****         1.7904   3.4156  -1.9865 F              1 S1                 0.0000
      9 ****         1.9386   3.2279   0.3249 C.2            1 S1                 0.0000
     10 ****         1.9551   2.5103   1.5048 N.am           1 S1                 0.0000
     11 ****         2.0768   3.2504   2.8168 C.3            1 S1                 0.0000
     12 ****         3.2697   2.7904   3.6761 C.3            1 S1                 0.0000
     13 ****         2.6057   2.3403   4.9671 C.3            1 S1                 0.0000
     14 ****         1.2657   3.0667   4.9308 C.3            1 S1                 0.0000
     15 ****         0.9140   3.0383   3.5563 O.3            1 S1                 0.0000
     16 ****         1.7617   1.1098   1.4726 C.2            1 S1                 0.0000
     17 ****         1.7089   0.4525   2.5133 O.2            1 S1                 0.0000
     18 ****        -0.3110  -2.6726  -0.1685 N.am           1 S1                 0.0000
     19 ****        -1.6425  -3.2580  -0.2860 C.3            1 S1                 0.0000
     20 ****        -2.3710  -2.8841  -1.5700 C.ar           1 S1                 0.0000
     21 ****        -3.7772  -2.6913  -1.5408 C.ar           1 S1                 0.0000
     22 ****        -4.4872  -2.3445  -2.7128 C.ar           1 S1                 0.0000
     23 ****        -3.7559  -2.2028  -3.9030 C.ar           1 S1                 0.0000
     24 ****        -2.3906  -2.3946  -3.9401 C.ar           1 S1                 0.0000
     25 ****        -1.6627  -2.7403  -2.7903 C.ar           1 S1                 0.0000
     26 ****        -1.9378  -2.1987  -5.2045 O.3            1 S1                 0.0000
     27 ****        -3.0683  -1.8721  -5.9707 C.3            1 S1                 0.0000
     28 ****        -4.2033  -1.8800  -5.1432 O.3            1 S1                 0.0000
     29 ****         1.9010  -1.4818   1.0036 H              1 S1                 0.0000
     30 ****         1.9097  -1.4070  -0.7143 H              1 S1                 0.0000
     31 ****         2.0514   4.3014   0.3618 H              1 S1                 0.0000
     32 ****         2.1503   4.3081   2.5600 H              1 S1                 0.0000
     33 ****         3.8522   2.0023   3.1983 H              1 S1                 0.0000
     34 ****         3.9230   3.6463   3.8486 H              1 S1                 0.0000
     35 ****         2.4443   1.2623   4.9511 H              1 S1                 0.0000
     36 ****         3.1931   2.5794   5.8538 H              1 S1                 0.0000
     37 ****         0.5080   2.5857   5.5495 H              1 S1                 0.0000
     38 ****         1.3750   4.1017   5.2591 H              1 S1                 0.0000
     39 ****         0.4740  -3.2774  -0.3621 H              1 S1                 0.0000
     40 ****        -1.5412  -4.3428  -0.2538 H              1 S1                 0.0000
     41 ****        -2.2431  -2.9785   0.5814 H              1 S1                 0.0000
     42 ****        -4.3172  -2.8055  -0.6123 H              1 S1                 0.0000
     43 ****        -5.5564  -2.1936  -2.6939 H              1 S1                 0.0000
     44 ****        -0.5943  -2.8881  -2.8455 H              1 S1                 0.0000
     45 ****        -2.9403  -0.8807  -6.4063 H              1 S1                 0.0000
     46 ****        -3.1925  -2.6048  -6.7688 H              1 S1                 0.0000
     47 ****        -0.7145   0.3653   0.6311 LP             1 S1                 0.0000
     48 ****        -1.9102  -0.8639   0.3878 LP             1 S1                 0.0000
     49 ****         1.3679  -0.3614  -2.1182 LP             1 S1                 0.0000
     50 ****         1.4926   1.1587  -2.9391 LP             1 S1                 0.0000
     51 ****         0.5199   2.1490   3.3239 LP             1 S1                 0.0000
     52 ****         0.2492   3.7590   3.3599 LP             1 S1                 0.0000
     53 ****         1.5650  -0.5363   2.4734 LP             1 S1                 0.0000
     54 ****         1.8099   0.9077   3.3979 LP             1 S1                 0.0000
     55 ****        -1.5096  -3.0321  -5.5538 LP             1 S1                 0.0000
     56 ****        -1.2754  -1.4499  -5.2248 LP             1 S1                 0.0000
     57 ****        -4.6335  -0.9772  -5.1339 LP             1 S1                 0.0000
     58 ****        -4.8628  -2.5601  -5.4633 LP             1 S1                 0.0000
@<TRIPOS>BOND
    1    1    2 2     
    2    2    3 1     
    3    2   18 am    
    4    3    4 1     
    5    3   29 1     
    6    3   30 1     
    7    4   16 am    
    8    4    5 am    
    9    5    6 2     
   10    5    7 1     
   11    7    8 1     
   12    7    9 2     
   13    9   10 1     
   14    9   31 1     
   15   10   11 1     
   16   10   16 am    
   17   11   15 1     
   18   11   12 1     
   19   11   32 1     
   20   12   13 1     
   21   12   33 1     
   22   12   34 1     
   23   13   14 1     
   24   13   35 1     
   25   13   36 1     
   26   14   15 1     
   27   14   37 1     
   28   14   38 1     
   29   16   17 2     
   30   18   19 1     
   31   18   39 1     
   32   19   20 1     
   33   19   40 1     
   34   19   41 1     
   35   20   25 ar    
   36   20   21 ar    
   37   21   22 ar    
   38   21   42 1     
   39   22   23 ar    
   40   22   43 1     
   41   23   28 1     
   42   23   24 ar    
   43   24   25 ar    
   44   24   26 1     
   45   25   44 1     
   46   26   27 1     
   47   27   28 1     
   48   27   45 1     
   49   27   46 1     
   50    1   47 1     
   51    1   48 1     
   52    6   49 1     
   53    6   50 1     
   54   15   51 1     
   55   15   52 1     
   56   17   53 1     
   57   17   54 1     
   58   26   55 1     
   59   26   56 1     
   60   28   57 1     
   61   28   58 1     
@<TRIPOS>SUBSTRUCTURE
      1 S1             1
@<TRIPOS>SET
LONE_PAIRS      STATIC     ATOMS    <user>   **** ""
12 47 48 49 50 51 52 53 54 55 56 57 58
DONOR_HYDROGENS      STATIC     ATOMS    <user>   **** ""
1 39
ATOM$BLUE        STATIC     ATOMS    COLORGROUP SYSTEM
12 47 48 49 50 51 52 53 54 55 56 57 58
ATOM$RED        STATIC     ATOMS    COLORGROUP SYSTEM
1 39
