AV-unprocessed.smi:3030|AV-procd|sdf|11533|dock2
  -GOLD-   2272016483D 1   1.00000     0.00000
 Structure written by MMmdl.
 52 53  0  0  0  0  0  0  0  0  1 V2000
  145.3637  132.1405  149.0735 C   0  0  0  0  0  0  0  0  0  0  0  0
  144.1216  133.0269  149.2180 C   0  0  0  0  0  0  0  0  0  0  0  0
  144.1084  133.7323  150.4912 N   0  0  0  0  0  0  0  0  0  0  0  0
  143.0817  133.5451  151.4112 C   0  0  0  0  0  0  0  0  0  0  0  0
  143.0322  134.1404  152.6187 C   0  0  0  0  0  0  0  0  0  0  0  0
  144.1241  135.0491  153.0227 C   0  0  0  0  0  0  0  0  0  0  0  0
  144.1054  135.6194  154.1135 O   0  0  0  0  0  0  0  0  0  0  0  0
  145.2318  135.2319  152.0480 C   0  0  0  0  0  0  0  0  0  0  0  0
  146.2645  136.1016  152.4318 N   0  0  0  0  0  0  0  0  0  0  0  0
  146.1866  137.2587  153.1131 C   0  0  0  0  0  0  0  0  0  0  0  0
  145.1487  137.8040  153.4874 O   0  0  0  0  0  0  0  0  0  0  0  0
  147.4102  137.7624  153.3310 N   0  0  0  0  0  0  0  0  0  0  0  0
  147.7215  139.0149  154.0196 C   0  0  2  0  0  0  0  0  0  0  0  0
  147.0547  140.1644  153.2337 C   0  0  0  0  0  0  0  0  0  0  0  0
  147.3822  141.5590  153.7978 C   0  0  1  0  0  0  0  0  0  0  0  0
  146.6517  141.8532  155.1202 C   0  0  0  0  0  0  0  0  0  0  0  0
  148.9059  141.7439  153.9034 C   0  0  0  0  0  0  0  0  0  0  0  0
  149.5739  140.6219  154.7134 C   0  0  0  0  0  0  0  0  0  0  0  0
  149.2596  139.2197  154.1393 C   0  0  1  0  0  0  0  0  0  0  0  0
  149.9973  138.0738  154.8961 C   0  0  0  0  0  0  0  0  0  0  0  0
  149.6956  138.0208  156.4054 C   0  0  0  0  0  0  0  0  0  0  0  0
  151.5161  138.0900  154.6503 C   0  0  0  0  0  0  0  0  0  0  0  0
  145.1533  134.5763  150.8621 C   0  0  0  0  0  0  0  0  0  0  0  0
  145.3588  131.6197  148.1161 H   0  0  0  0  0  0  0  0  0  0  0  0
  145.4046  131.3882  149.8617 H   0  0  0  0  0  0  0  0  0  0  0  0
  146.2780  132.7324  149.1260 H   0  0  0  0  0  0  0  0  0  0  0  0
  144.0849  133.7490  148.4017 H   0  0  0  0  0  0  0  0  0  0  0  0
  143.2203  132.4195  149.1292 H   0  0  0  0  0  0  0  0  0  0  0  0
  142.3016  132.8755  151.0785 H   0  0  0  0  0  0  0  0  0  0  0  0
  142.2118  133.9680  153.2997 H   0  0  0  0  0  0  0  0  0  0  0  0
  147.1853  135.8175  152.1306 H   0  0  0  0  0  0  0  0  0  0  0  0
  148.1993  137.2376  152.9826 H   0  0  0  0  0  0  0  0  0  0  0  0
  147.2875  139.0067  155.0196 H   0  0  0  0  0  0  0  0  0  0  0  0
  147.3867  140.1249  152.1949 H   0  0  0  0  0  0  0  0  0  0  0  0
  145.9735  140.0209  153.2068 H   0  0  0  0  0  0  0  0  0  0  0  0
  147.0160  142.2928  153.0786 H   0  0  0  0  0  0  0  0  0  0  0  0
  146.9451  141.1680  155.9150 H   0  0  0  0  0  0  0  0  0  0  0  0
  145.5718  141.7684  154.9962 H   0  0  0  0  0  0  0  0  0  0  0  0
  146.8623  142.8661  155.4642 H   0  0  0  0  0  0  0  0  0  0  0  0
  149.3347  141.7593  152.9005 H   0  0  0  0  0  0  0  0  0  0  0  0
  149.1385  142.7132  154.3458 H   0  0  0  0  0  0  0  0  0  0  0  0
  150.6489  140.7977  154.7202 H   0  0  0  0  0  0  0  0  0  0  0  0
  149.2496  140.6871  155.7516 H   0  0  0  0  0  0  0  0  0  0  0  0
  149.6471  139.2102  153.1189 H   0  0  0  0  0  0  0  0  0  0  0  0
  149.6541  137.1283  154.4772 H   0  0  0  0  0  0  0  0  0  0  0  0
  150.0771  138.8988  156.9258 H   0  0  0  0  0  0  0  0  0  0  0  0
  150.1626  137.1473  156.8609 H   0  0  0  0  0  0  0  0  0  0  0  0
  148.6273  137.9506  156.6055 H   0  0  0  0  0  0  0  0  0  0  0  0
  151.9956  138.9492  155.1188 H   0  0  0  0  0  0  0  0  0  0  0  0
  151.7448  138.1168  153.5848 H   0  0  0  0  0  0  0  0  0  0  0  0
  151.9848  137.1954  155.0615 H   0  0  0  0  0  0  0  0  0  0  0  0
  145.8971  134.6770  150.0873 H   0  0  0  0  0  0  0  0  0  0  0  0
  1  2  1  0  0  0  0
  1 24  1  0  0  0  0
  1 25  1  0  0  0  0
  1 26  1  0  0  0  0
  2  3  1  0  0  0  0
  2 27  1  0  0  0  0
  2 28  1  0  0  0  0
  3 23  1  0  0  0  0
  3  4  1  0  0  0  0
  4  5  2  0  0  0  0
  4 29  1  0  0  0  0
  5  6  1  0  0  0  0
  5 30  1  0  0  0  0
  6  7  2  0  0  0  0
  6  8  1  0  0  0  0
  8  9  1  0  0  0  0
  8 23  2  0  0  0  0
  9 10  1  0  0  0  0
  9 31  1  0  0  0  0
 10 11  2  0  0  0  0
 10 12  1  0  0  0  0
 12 13  1  0  0  0  0
 12 32  1  0  0  0  0
 13 19  1  0  0  0  0
 13 14  1  0  0  0  0
 13 33  1  0  0  0  0
 14 15  1  0  0  0  0
 14 34  1  0  0  0  0
 14 35  1  0  0  0  0
 15 16  1  0  0  0  0
 15 17  1  0  0  0  0
 15 36  1  0  0  0  0
 16 37  1  0  0  0  0
 16 38  1  0  0  0  0
 16 39  1  0  0  0  0
 17 18  1  0  0  0  0
 17 40  1  0  0  0  0
 17 41  1  0  0  0  0
 18 19  1  0  0  0  0
 18 42  1  0  0  0  0
 18 43  1  0  0  0  0
 19 20  1  0  0  0  0
 19 44  1  0  0  0  0
 20 21  1  0  0  0  0
 20 22  1  0  0  0  0
 20 45  1  0  0  0  0
 21 46  1  0  0  0  0
 21 47  1  0  0  0  0
 21 48  1  0  0  0  0
 22 49  1  0  0  0  0
 22 50  1  0  0  0  0
 22 51  1  0  0  0  0
 23 52  1  0  0  0  0
M  END
> <s_m_source_file>
AV-unprocessed.smi

> <i_m_source_file_index>
3030

> <i_lp_mmshare_version>
43012

> <i_f3d_flags>
0

> <s_epik_input>
W0NIM11bQ0gyXW4xW2NIXVtjSF1jKD1PKWMoW2NIXTEpW05IXUMoPU8pW05IXVtDQEBIXTJbQ0gyXVtDQEBIXShbQ0gzXSlbQ0gyXVtDSDJdW0NASF0yW0NIXShbQ0gzXSlbQ0gzXQ==

> <s_epik_cmdline>
J2VwaWtfcHl0aG9uJywgJy1waCcsICc3LjAnLCAnLXRuJywgJzgnLCAnLW1hJywgJzIwMCcsICctbWV0YWxfYmluZGluZycsICctaW1hZScsICc8aW5maWxlLm1hZT4nLCAnLW9tYWUnLCAnPG91dGZpbGUubWFlPic=

> <r_lp_tautomer_probability>
1

> <r_epik_Ionization_Penalty>
0.00147933

> <r_epik_Ionization_Penalty_Charging>
0.00145753

> <r_epik_Ionization_Penalty_Neutral>
2.17987e-05

> <r_epik_State_Penalty>
0.00097457

> <r_epik_Charging_Adjusted_Penalty>
0.0024321

> <i_epik_Tot_Q>
0

> <i_epik_Tot_abs_Q>
0

> <r_epik_Metal_State_Penalty>
-0

> <b_epik_Metal_Only>
0

> <s_lp_Force_Field>
OPLS_2005

> <r_lp_Energy>
11.9489

> <b_lp_Chiralities_Consistent>
1

> <s_lp_Variant>
AV-unprocessed.smi:3030-1

> <Gold.Version>
5.8.1

> <Gold.Id.Protein>
6NUR|6NUR_protein|mol2

> <Gold.PLP.Fitness>
47.1821

> <Gold.PLP.PLP>
-37.7361

> <Gold.PLP.part.hbond>
-2.0000

> <Gold.PLP.part.metal>
0.0000

> <Gold.PLP.part.buried>
3.5622

> <Gold.PLP.part.nonpolar>
-38.1230

> <Gold.PLP.part.repulsive>
0.2647

> <Gold.PLP.ligand.clash>
0.0000

> <Gold.PLP.ligand.torsion>
0.4124

> <Gold.PLP.Chemscore.Hbond>
2.0000

> <Gold.PLP.Chemscore.CHOScore>
1.3928

> <Gold.PLP.Chemscore.Metal>
0.0000

> <Gold.Chemscore.Hbonds>
donor molecule, donor type, donor heavy atom, donor atom, acceptor molecule, acceptor atom, score
      L1  H     9    31       P1  7948  1.00
      L1  H    12    32       P1  7948  1.00
      L1  C     4    29       P1 10186  0.41
      L1  C    23    52       P1  7921  1.00

> <Gold.PLP.Chemscore.Internal.Correction>
0.0924

> <Gold.Rescore>
     Score         DG    S(hbond)    S(metal)    S(lipo)     H(rot)  DE(clash)    DE(int)     intcor
     14.73     -21.16       1.93        0.00     106.62       1.27       1.92       4.50       ----

> <Gold.Chemscore.Fitness>
14.7318

> <Gold.Chemscore.DG>
-21.1577

> <Gold.Chemscore.ZeroCoef>
-5.4800

> <Gold.Chemscore.Hbond>
1.9313

> <Gold.Chemscore.Metal>
0.0000

> <Gold.Chemscore.Lipo>
106.6219

> <Gold.Chemscore.Internal_Hbond>
0.0000

> <Gold.Chemscore.DEClash>
1.9228

> <Gold.Chemscore.DEInternal>
4.5032

> <Gold.Chemscore.Rot>
1.2685

> <Gold.Chemscore.Internal.Correction>
   9.000000E+99

> <Gold.Chemscore.Hbonds>
donor molecule, donor type, donor heavy atom, donor atom, acceptor molecule, acceptor atom, score
      L1  H     9    31       P1  7948  0.94
      L1  H    12    32       P1  7948  0.97

> <Gold.Chemscore.Hbond.Weighted>
-6.4504

> <Gold.Chemscore.Metal.Weighted>
-0.0000

> <Gold.Chemscore.Lipo.Weighted>
-12.4748

> <Gold.Chemscore.Internal_Hbond.Weighted>
0.0000

> <Gold.Chemscore.DEClash.Weighted>
1.9228

> <Gold.Chemscore.DEInternal.Weighted>
4.5032

> <Gold.Chemscore.Rot.Weighted>
3.2474

> <Gold.Chemscore.Internal.Correction.Weighted>
   9.000000E+99

> <Gold.Protein.RotatedTorsions>
[ 6907 6896 6895 6894 ] final  -22.53 input  -60.11 | X-H torsion
[ 7974 7965 7964 7962 ] final  -61.23 input  175.53 | X-H torsion
[ 8008 7997 7996 7995 ] final -166.98 input   59.86 | X-H torsion
[ 10167 10162 10161 10158 ] final  -19.20 input  -65.29 | X-H torsion
[ 10718 10713 10712 10709 ] final  -57.27 input   66.30 | X-H torsion
[ 10763 10752 10751 10750 ] final  156.41 input  -60.55 | X-H torsion
[ 11005 11000 10999 10996 ] final  -50.66 input  -57.11 | X-H torsion

> <Gold.Protein.ActiveResidues>
 VAL166  LYS551  ARG553  GLY616  TRP617  ASP618  TYR619  PRO620  LYS621  CYS622 
 ASP623  PHE694  ASN695  SER759  ASP760  ASP761  ALA762  ILE779  LEU786  VAL792 
 PHE793  MET794  SER795  GLU796  ALA797  LYS798  CYS799  TRP800  GLU811  SER814 

> <Gold.Protein.RotatedAtoms>
  151.2172  135.0504  159.8934 H   0  0  0  0  0  0  0  0  0  0  0  0  # atno 6907 bound_to 6896
  152.5419  134.0680  159.8191 H   0  0  0  0  0  0  0  0  0  0  0  0  # atno 6908 bound_to 6896
  151.0841  133.5319  159.2650 H   0  0  0  0  0  0  0  0  0  0  0  0  # atno 6909 bound_to 6896
  145.8060  140.8627  143.0207 H   0  0  0  0  0  0  0  0  0  0  0  0  # atno 7974 bound_to 7965
  155.8714  140.0994  157.1548 H   0  0  0  0  0  0  0  0  0  0  0  0  # atno 8008 bound_to 7997
  154.3997  140.1346  156.4145 H   0  0  0  0  0  0  0  0  0  0  0  0  # atno 8009 bound_to 7997
  155.7746  140.3460  155.5267 H   0  0  0  0  0  0  0  0  0  0  0  0  # atno 8010 bound_to 7997
  140.7266  143.4842  151.0077 H   0  0  0  0  0  0  0  0  0  0  0  0  # atno 10167 bound_to 10162
  156.1224  130.4165  150.0418 H   0  0  0  0  0  0  0  0  0  0  0  0  # atno 10718 bound_to 10713
  154.1839  135.2798  155.3043 H   0  0  0  0  0  0  0  0  0  0  0  0  # atno 10763 bound_to 10752
  154.5981  135.5538  153.7349 H   0  0  0  0  0  0  0  0  0  0  0  0  # atno 10764 bound_to 10752
  153.0130  135.6385  154.1978 H   0  0  0  0  0  0  0  0  0  0  0  0  # atno 10765 bound_to 10752
  141.0828  133.6649  156.3764 H   0  0  0  0  0  0  0  0  0  0  0  0  # atno 11005 bound_to 11000
  144.6763  140.0327  143.7482 LP  0  0  0  0  0  0  0  0  0  0  0  0  # atno 17320 bound_to 7965
  145.9828  139.2954  143.1031 LP  0  0  0  0  0  0  0  0  0  0  0  0  # atno 17321 bound_to 7965
  139.8542  143.7398  152.3176 LP  0  0  0  0  0  0  0  0  0  0  0  0  # atno 17342 bound_to 10162
  139.7591  144.7512  151.0391 LP  0  0  0  0  0  0  0  0  0  0  0  0  # atno 17343 bound_to 10162
  156.8353  130.9406  151.3635 LP  0  0  0  0  0  0  0  0  0  0  0  0  # atno 17370 bound_to 10713
  157.6407  130.8803  149.9442 LP  0  0  0  0  0  0  0  0  0  0  0  0  # atno 17371 bound_to 10713
  140.5430  134.6102  157.5385 LP  0  0  0  0  0  0  0  0  0  0  0  0  # atno 17394 bound_to 11000
  139.9643  134.7399  156.0170 LP  0  0  0  0  0  0  0  0  0  0  0  0  # atno 17395 bound_to 11000

$$$$
