AV-unprocessed.smi:2061|AV-procd|sdf|8370|dock6
  -GOLD-   2272011 43D 1   1.00000     0.00000
 Structure written by MMmdl.
 46 47  0  0  0  0  0  0  0  0  2 V2000
  137.9810  137.0753  154.3188 C   0  0  0  0  0  0  0  0  0  0  0  0
  139.4520  137.0007  154.0927 C   0  0  0  0  0  0  0  0  0  0  0  0
  140.3611  137.8839  153.5816 C   0  0  0  0  0  0  0  0  0  0  0  0
  141.5832  137.1646  153.6583 C   0  0  0  0  0  0  0  0  0  0  0  0
  142.7997  137.7458  153.2181 N   0  0  0  0  0  0  0  0  0  0  0  0
  144.0184  137.1795  153.2068 C   0  0  0  0  0  0  0  0  0  0  0  0
  144.2717  136.0297  153.5677 O   0  0  0  0  0  0  0  0  0  0  0  0
  144.9504  138.0298  152.7529 N   0  0  0  0  0  0  0  0  0  0  0  0
  146.3718  137.7166  152.6388 C   0  0  0  0  0  0  0  0  0  0  0  0
  147.2792  138.7371  153.3762 C   0  0  2  0  0  0  0  0  0  0  0  0
  147.5648  139.9533  152.4621 C   0  0  0  0  0  0  0  0  0  0  0  0
  148.5158  138.0544  153.8789 N   0  3  1  0  0  0  0  0  0  0  0  0
  149.7072  138.9239  154.0745 C   0  0  0  0  0  0  0  0  0  0  0  0
  150.9317  138.0946  154.5053 C   0  0  1  0  0  0  0  0  0  0  0  0
  152.1460  138.9799  154.8083 C   0  0  0  0  0  0  0  0  0  0  0  0
  150.6267  137.3564  155.6833 O   0  0  0  0  0  0  0  0  0  0  0  0
  149.5063  136.4832  155.5623 C   0  0  2  0  0  0  0  0  0  0  0  0
  149.8022  135.2631  154.6720 C   0  0  0  0  0  0  0  0  0  0  0  0
  148.2636  137.2797  155.1238 C   0  0  0  0  0  0  0  0  0  0  0  0
  141.4342  135.9525  154.1701 N   0  0  0  0  0  0  0  0  0  0  0  0
  140.0674  135.8412  154.4509 O   0  0  0  0  0  0  0  0  0  0  0  0
  137.5695  137.9955  153.9040 H   0  0  0  0  0  0  0  0  0  0  0  0
  137.7531  137.0527  155.3844 H   0  0  0  0  0  0  0  0  0  0  0  0
  137.4736  136.2347  153.8454 H   0  0  0  0  0  0  0  0  0  0  0  0
  140.1775  138.8824  153.2141 H   0  0  0  0  0  0  0  0  0  0  0  0
  142.7357  138.6973  152.8875 H   0  0  0  0  0  0  0  0  0  0  0  0
  144.6601  138.9559  152.4746 H   0  0  0  0  0  0  0  0  0  0  0  0
  146.5237  136.6995  152.9983 H   0  0  0  0  0  0  0  0  0  0  0  0
  146.6254  137.6990  151.5783 H   0  0  0  0  0  0  0  0  0  0  0  0
  146.7449  139.1228  154.2458 H   0  0  0  0  0  0  0  0  0  0  0  0
  146.6438  140.4080  152.0978 H   0  0  0  0  0  0  0  0  0  0  0  0
  148.1541  139.6684  151.5899 H   0  0  0  0  0  0  0  0  0  0  0  0
  148.0945  140.7459  152.9907 H   0  0  0  0  0  0  0  0  0  0  0  0
  149.9717  139.4339  153.1490 H   0  0  0  0  0  0  0  0  0  0  0  0
  149.4822  139.6891  154.8194 H   0  0  0  0  0  0  0  0  0  0  0  0
  151.2087  137.4092  153.7040 H   0  0  0  0  0  0  0  0  0  0  0  0
  152.4341  139.5662  153.9353 H   0  0  0  0  0  0  0  0  0  0  0  0
  153.0057  138.3759  155.0994 H   0  0  0  0  0  0  0  0  0  0  0  0
  151.9361  139.6738  155.6229 H   0  0  0  0  0  0  0  0  0  0  0  0
  149.3159  136.1004  156.5655 H   0  0  0  0  0  0  0  0  0  0  0  0
  148.9782  134.5501  154.7095 H   0  0  0  0  0  0  0  0  0  0  0  0
  150.7004  134.7452  155.0090 H   0  0  0  0  0  0  0  0  0  0  0  0
  149.9447  135.5360  153.6268 H   0  0  0  0  0  0  0  0  0  0  0  0
  147.9826  137.9729  155.9184 H   0  0  0  0  0  0  0  0  0  0  0  0
  147.4256  136.5947  155.0065 H   0  0  0  0  0  0  0  0  0  0  0  0
  148.7778  137.3896  153.1651 H   0  0  0  0  0  0  0  0  0  0  0  0
  1  2  1  0  0  0  0
  1 22  1  0  0  0  0
  1 23  1  0  0  0  0
  1 24  1  0  0  0  0
  2 21  1  0  0  0  0
  2  3  2  0  0  0  0
  3  4  1  0  0  0  0
  3 25  1  0  0  0  0
  4  5  1  0  0  0  0
  4 20  2  0  0  0  0
  5  6  1  0  0  0  0
  5 26  1  0  0  0  0
  6  7  2  0  0  0  0
  6  8  1  0  0  0  0
  8  9  1  0  0  0  0
  8 27  1  0  0  0  0
  9 10  1  0  0  0  0
  9 28  1  0  0  0  0
  9 29  1  0  0  0  0
 10 11  1  0  0  0  0
 10 12  1  0  0  0  0
 10 30  1  0  0  0  0
 11 31  1  0  0  0  0
 11 32  1  0  0  0  0
 11 33  1  0  0  0  0
 12 19  1  0  0  0  0
 12 13  1  0  0  0  0
 12 46  1  0  0  0  0
 13 14  1  0  0  0  0
 13 34  1  0  0  0  0
 13 35  1  0  0  0  0
 14 15  1  0  0  0  0
 14 16  1  0  0  0  0
 14 36  1  0  0  0  0
 15 37  1  0  0  0  0
 15 38  1  0  0  0  0
 15 39  1  0  0  0  0
 16 17  1  0  0  0  0
 17 18  1  0  0  0  0
 17 19  1  0  0  0  0
 17 40  1  0  0  0  0
 18 41  1  0  0  0  0
 18 42  1  0  0  0  0
 18 43  1  0  0  0  0
 19 44  1  0  0  0  0
 19 45  1  0  0  0  0
 20 21  1  0  0  0  0
M  CHG  1  12   1
M  END
> <s_m_source_file>
AV-unprocessed.smi

> <i_m_source_file_index>
2061

> <i_lp_mmshare_version>
43012

> <i_f3d_flags>
0

> <s_epik_input>
W0NIM11jMVtjSF1jKG5vMSlbTkhdQyg9TylbTkhdW0NIMl1bQ0BIXShbQ0gzXSlOMltDSDJdW0NAQEhdKFtDSDNdKU9bQ0BASF0oW0NIM10pW0NIMl0y

> <s_epik_cmdline>
J2VwaWtfcHl0aG9uJywgJy1waCcsICc3LjAnLCAnLXRuJywgJzgnLCAnLW1hJywgJzIwMCcsICctbWV0YWxfYmluZGluZycsICctaW1hZScsICc8aW5maWxlLm1hZT4nLCAnLW9tYWUnLCAnPG91dGZpbGUubWFlPic=

> <r_epik_Ionization_Penalty>
0.707076

> <r_epik_Ionization_Penalty_Charging>
0.707039

> <r_epik_Ionization_Penalty_Neutral>
3.6548e-05

> <r_epik_State_Penalty>
0.730276

> <r_epik_Charging_Adjusted_Penalty>
1.43732

> <i_epik_Tot_Q>
1

> <i_epik_Tot_abs_Q>
1

> <r_epik_Metal_State_Penalty>
0.743132

> <b_epik_Metal_Only>
0

> <s_lp_Force_Field>
OPLS_2005

> <r_lp_Energy>
19.8294

> <b_lp_Chiralities_Consistent>
1

> <s_lp_Variant>
AV-unprocessed.smi:2061-11

> <Gold.Version>
5.8.1

> <Gold.Id.Protein>
6NUR|6NUR_protein|mol2

> <Gold.PLP.Fitness>
45.5955

> <Gold.PLP.PLP>
-32.2872

> <Gold.PLP.part.hbond>
-4.6841

> <Gold.PLP.part.metal>
0.0000

> <Gold.PLP.part.buried>
1.6648

> <Gold.PLP.part.nonpolar>
-29.2989

> <Gold.PLP.part.repulsive>
0.3354

> <Gold.PLP.ligand.clash>
0.0000

> <Gold.PLP.ligand.torsion>
0.8687

> <Gold.PLP.Chemscore.Hbond>
5.0000

> <Gold.PLP.Chemscore.CHOScore>
0.0000

> <Gold.PLP.Chemscore.Metal>
0.0000

> <Gold.Chemscore.Hbonds>
donor molecule, donor type, donor heavy atom, donor atom, acceptor molecule, acceptor atom, score
      L1  H     5    26       P1 10175  1.00
      L1  H     8    27       P1 10175  1.00
      L1  H    12    46       P1  7948  2.00
      P1  H 11000 11005       L1    21  1.00

> <Gold.PLP.Chemscore.Internal.Correction>
0.0458

> <Gold.Rescore>
     Score         DG    S(hbond)    S(metal)    S(lipo)     H(rot)  DE(clash)    DE(int)     intcor
     18.50     -22.30       3.71        0.00      72.44       1.58       1.66       2.14       ----

> <Gold.Chemscore.Fitness>
18.5021

> <Gold.Chemscore.DG>
-22.2991

> <Gold.Chemscore.ZeroCoef>
-5.4800

> <Gold.Chemscore.Hbond>
3.7119

> <Gold.Chemscore.Metal>
0.0000

> <Gold.Chemscore.Lipo>
72.4352

> <Gold.Chemscore.Internal_Hbond>
0.0000

> <Gold.Chemscore.DEClash>
1.6592

> <Gold.Chemscore.DEInternal>
2.1378

> <Gold.Chemscore.Rot>
1.5834

> <Gold.Chemscore.Internal.Correction>
   9.000000E+99

> <Gold.Chemscore.Hbonds>
donor molecule, donor type, donor heavy atom, donor atom, acceptor molecule, acceptor atom, score
      L1  H     5    26       P1 10175  0.91
      L1  H     8    27       P1 10175  0.99
      L1  H    12    46       P1  7948  1.00
      P1  H 11000 11005       L1    21  0.35

> <Gold.Chemscore.Hbond.Weighted>
-12.3976

> <Gold.Chemscore.Metal.Weighted>
-0.0000

> <Gold.Chemscore.Lipo.Weighted>
-8.4749

> <Gold.Chemscore.Internal_Hbond.Weighted>
0.0000

> <Gold.Chemscore.DEClash.Weighted>
1.6592

> <Gold.Chemscore.DEInternal.Weighted>
2.1378

> <Gold.Chemscore.Rot.Weighted>
4.0535

> <Gold.Chemscore.Internal.Correction.Weighted>
   9.000000E+99

> <Gold.Protein.RotatedTorsions>
[ 6907 6896 6895 6894 ] final -141.94 input  -60.11 | X-H torsion
[ 7974 7965 7964 7962 ] final  -86.11 input  175.53 | X-H torsion
[ 8008 7997 7996 7995 ] final -102.41 input   59.86 | X-H torsion
[ 10167 10162 10161 10158 ] final   -6.71 input  -65.29 | X-H torsion
[ 10718 10713 10712 10709 ] final  128.33 input   66.30 | X-H torsion
[ 10763 10752 10751 10750 ] final  -77.78 input  -60.55 | X-H torsion
[ 11005 11000 10999 10996 ] final   56.87 input  -57.11 | X-H torsion

> <Gold.Protein.ActiveResidues>
 VAL166  LYS551  ARG553  GLY616  TRP617  ASP618  TYR619  PRO620  LYS621  CYS622 
 ASP623  PHE694  ASN695  SER759  ASP760  ASP761  ALA762  ILE779  LEU786  VAL792 
 PHE793  MET794  SER795  GLU796  ALA797  LYS798  CYS799  TRP800  GLU811  SER814 

> <Gold.Protein.RotatedAtoms>
  151.0804  133.5394  159.2620 H   0  0  0  0  0  0  0  0  0  0  0  0  # atno 6907 bound_to 6896
  151.2300  135.0550  159.8993 H   0  0  0  0  0  0  0  0  0  0  0  0  # atno 6908 bound_to 6896
  152.5423  134.0594  159.8199 H   0  0  0  0  0  0  0  0  0  0  0  0  # atno 6909 bound_to 6896
  145.4843  140.9555  143.1847 H   0  0  0  0  0  0  0  0  0  0  0  0  # atno 7974 bound_to 7965
  154.8563  140.0428  157.1637 H   0  0  0  0  0  0  0  0  0  0  0  0  # atno 8008 bound_to 7997
  154.8888  140.2983  155.5362 H   0  0  0  0  0  0  0  0  0  0  0  0  # atno 8009 bound_to 7997
  156.2997  140.2397  156.3900 H   0  0  0  0  0  0  0  0  0  0  0  0  # atno 8010 bound_to 7997
  140.7006  143.6163  150.8655 H   0  0  0  0  0  0  0  0  0  0  0  0  # atno 10167 bound_to 10162
  157.5254  131.1098  150.9091 H   0  0  0  0  0  0  0  0  0  0  0  0  # atno 10718 bound_to 10713
  154.5173  135.5752  153.6653 H   0  0  0  0  0  0  0  0  0  0  0  0  # atno 10763 bound_to 10752
  152.9909  135.6173  154.2800 H   0  0  0  0  0  0  0  0  0  0  0  0  # atno 10764 bound_to 10752
  154.2719  135.2853  155.2714 H   0  0  0  0  0  0  0  0  0  0  0  0  # atno 10765 bound_to 10752
  140.0496  134.5756  155.9280 H   0  0  0  0  0  0  0  0  0  0  0  0  # atno 11005 bound_to 11000
  144.7871  139.6405  143.7129 LP  0  0  0  0  0  0  0  0  0  0  0  0  # atno 17320 bound_to 7965
  146.2322  139.5836  142.9547 LP  0  0  0  0  0  0  0  0  0  0  0  0  # atno 17321 bound_to 7965
  139.9885  143.5873  152.2918 LP  0  0  0  0  0  0  0  0  0  0  0  0  # atno 17342 bound_to 10162
  139.6520  144.7661  151.2130 LP  0  0  0  0  0  0  0  0  0  0  0  0  # atno 17343 bound_to 10162
  156.9689  130.5483  149.5289 LP  0  0  0  0  0  0  0  0  0  0  0  0  # atno 17370 bound_to 10713
  156.0383  130.5468  150.8708 LP  0  0  0  0  0  0  0  0  0  0  0  0  # atno 17371 bound_to 10713
  141.1924  133.6575  156.5499 LP  0  0  0  0  0  0  0  0  0  0  0  0  # atno 17394 bound_to 11000
  140.3939  134.7416  157.4738 LP  0  0  0  0  0  0  0  0  0  0  0  0  # atno 17395 bound_to 11000

$$$$
