AV-unprocessed.smi:3282|AV-procd|sdf|12565|dock7
  -GOLD-   2272018483D 1   1.00000     0.00000
 Structure written by MMmdl.
 34 35  0  0  0  0  0  0  0  0  1 V2000
  152.4852  143.2490  162.2210 C   0  0  0  0  0  0  0  0  0  0  0  0
  153.3682  142.4395  161.2573 C   0  0  0  0  0  0  0  0  0  0  0  0
  152.5719  141.5864  160.2555 C   0  0  0  0  0  0  0  0  0  0  0  0
  152.3540  140.3984  160.4985 O   0  0  0  0  0  0  0  0  0  0  0  0
  152.1324  142.1769  159.1245 N   0  0  0  0  0  0  0  0  0  0  0  0
  152.3584  143.5851  158.8102 C   0  0  0  0  0  0  0  0  0  0  0  0
  151.4990  143.8856  157.5823 C   0  0  0  0  0  0  0  0  0  0  0  0
  151.3073  142.5318  156.9045 C   0  0  2  0  0  0  0  0  0  0  0  0
  150.0380  142.4638  156.1871 N   0  0  0  0  0  0  0  0  0  0  0  0
  149.7062  141.5227  155.2906 C   0  0  0  0  0  0  0  0  0  0  0  0
  150.4824  140.6125  154.9833 O   0  0  0  0  0  0  0  0  0  0  0  0
  148.4446  141.7666  154.7742 N   0  0  0  0  0  0  0  0  0  0  0  0
  147.8581  140.8157  154.1161 C   0  0  0  0  0  0  0  0  0  0  0  0
  146.5990  140.8335  153.5377 N   0  0  0  0  0  0  0  0  0  0  0  0
  146.3919  139.6241  152.9339 C   0  0  0  0  0  0  0  0  0  0  0  0
  147.4749  138.8755  153.1228 C   0  0  0  0  0  0  0  0  0  0  0  0
  148.3934  139.5773  153.8437 O   0  0  0  0  0  0  0  0  0  0  0  0
  151.3795  141.5208  158.0573 C   0  0  0  0  0  0  0  0  0  0  0  0
  153.0998  143.8234  162.9141 H   0  0  0  0  0  0  0  0  0  0  0  0
  151.8421  142.5977  162.8143 H   0  0  0  0  0  0  0  0  0  0  0  0
  151.8502  143.9545  161.6837 H   0  0  0  0  0  0  0  0  0  0  0  0
  154.0122  143.1230  160.7031 H   0  0  0  0  0  0  0  0  0  0  0  0
  154.0207  141.7878  161.8391 H   0  0  0  0  0  0  0  0  0  0  0  0
  152.0993  144.2388  159.6446 H   0  0  0  0  0  0  0  0  0  0  0  0
  153.4151  143.7307  158.5813 H   0  0  0  0  0  0  0  0  0  0  0  0
  150.5366  144.2814  157.9115 H   0  0  0  0  0  0  0  0  0  0  0  0
  151.9526  144.6264  156.9233 H   0  0  0  0  0  0  0  0  0  0  0  0
  152.1410  142.3629  156.2204 H   0  0  0  0  0  0  0  0  0  0  0  0
  149.3627  143.1886  156.3834 H   0  0  0  0  0  0  0  0  0  0  0  0
  145.9229  141.5836  153.5340 H   0  0  0  0  0  0  0  0  0  0  0  0
  145.4648  139.4230  152.4177 H   0  0  0  0  0  0  0  0  0  0  0  0
  147.7350  137.8715  152.8215 H   0  0  0  0  0  0  0  0  0  0  0  0
  151.8517  140.5937  157.7295 H   0  0  0  0  0  0  0  0  0  0  0  0
  150.3832  141.2794  158.4321 H   0  0  0  0  0  0  0  0  0  0  0  0
  1  2  1  0  0  0  0
  1 19  1  0  0  0  0
  1 20  1  0  0  0  0
  1 21  1  0  0  0  0
  2  3  1  0  0  0  0
  2 22  1  0  0  0  0
  2 23  1  0  0  0  0
  3  4  2  0  0  0  0
  3  5  1  0  0  0  0
  5 18  1  0  0  0  0
  5  6  1  0  0  0  0
  6  7  1  0  0  0  0
  6 24  1  0  0  0  0
  6 25  1  0  0  0  0
  7  8  1  0  0  0  0
  7 26  1  0  0  0  0
  7 27  1  0  0  0  0
  8  9  1  0  0  0  0
  8 18  1  0  0  0  0
  8 28  1  0  0  0  0
  9 29  1  0  0  0  0
  9 10  1  0  0  0  0
 10 12  1  0  0  0  0
 10 11  2  0  0  0  0
 12 13  2  0  0  0  0
 13 17  1  0  0  0  0
 13 14  1  0  0  0  0
 14 30  1  0  0  0  0
 14 15  1  0  0  0  0
 15 31  1  0  0  0  0
 15 16  2  0  0  0  0
 16 32  1  0  0  0  0
 16 17  1  0  0  0  0
 18 33  1  0  0  0  0
 18 34  1  0  0  0  0
M  END
> <s_m_source_file>
AV-unprocessed.smi

> <i_m_source_file_index>
3282

> <i_lp_mmshare_version>
43012

> <i_f3d_flags>
0

> <s_epik_input>
W0NIM11bQ0gyXUMoPU8pTjFbQ0gyXVtDSDJdW0NASF0oW0NIMl0xKVtOSF1DKD1PKVtOSF1jMm5bY0hdW2NIXW8y

> <s_epik_cmdline>
J2VwaWtfcHl0aG9uJywgJy1waCcsICc3LjAnLCAnLXRuJywgJzgnLCAnLW1hJywgJzIwMCcsICctbWV0YWxfYmluZGluZycsICctaW1hZScsICc8aW5maWxlLm1hZT4nLCAnLW9tYWUnLCAnPG91dGZpbGUubWFlPic=

> <r_lp_tautomer_probability>
0.107061

> <r_epik_Ionization_Penalty>
0.434703

> <r_epik_Ionization_Penalty_Charging>
0.434345

> <r_epik_Ionization_Penalty_Neutral>
0.000358141

> <r_epik_State_Penalty>
2.49584

> <r_epik_Charging_Adjusted_Penalty>
2.93019

> <i_epik_Tot_Q>
0

> <i_epik_Tot_abs_Q>
0

> <r_epik_Metal_State_Penalty>
4.06361

> <b_epik_Metal_Only>
0

> <s_lp_Force_Field>
OPLS_2005

> <r_lp_Energy>
49.1525

> <b_lp_Chiralities_Consistent>
1

> <s_lp_Variant>
AV-unprocessed.smi:3282-6

> <Gold.Version>
5.8.1

> <Gold.Id.Protein>
6NUR|6NUR_protein|mol2

> <Gold.PLP.Fitness>
41.9074

> <Gold.PLP.PLP>
-31.1567

> <Gold.PLP.part.hbond>
-2.7148

> <Gold.PLP.part.metal>
0.0000

> <Gold.PLP.part.buried>
-0.4747

> <Gold.PLP.part.nonpolar>
-29.6472

> <Gold.PLP.part.repulsive>
0.9613

> <Gold.PLP.ligand.clash>
0.0000

> <Gold.PLP.ligand.torsion>
0.5930

> <Gold.PLP.Chemscore.Hbond>
1.9760

> <Gold.PLP.Chemscore.CHOScore>
2.0000

> <Gold.PLP.Chemscore.Metal>
0.0000

> <Gold.Chemscore.Hbonds>
donor molecule, donor type, donor heavy atom, donor atom, acceptor molecule, acceptor atom, score
      L1  H     9    29       P1  8028  0.74
      P1  H  7989  7998       L1    11  0.94
      L1  C    15    31       P1 10175  1.00
      L1  C    16    32       P1  7948  1.00

> <Gold.PLP.Chemscore.Internal.Correction>
0.0087

> <Gold.Rescore>
     Score         DG    S(hbond)    S(metal)    S(lipo)     H(rot)  DE(clash)    DE(int)     intcor
     12.66     -16.53       1.57        0.00      78.64       1.32       1.64       2.22       ----

> <Gold.Chemscore.Fitness>
12.6639

> <Gold.Chemscore.DG>
-16.5317

> <Gold.Chemscore.ZeroCoef>
-5.4800

> <Gold.Chemscore.Hbond>
1.5657

> <Gold.Chemscore.Metal>
0.0000

> <Gold.Chemscore.Lipo>
78.6436

> <Gold.Chemscore.Internal_Hbond>
0.0000

> <Gold.Chemscore.DEClash>
1.6434

> <Gold.Chemscore.DEInternal>
2.2244

> <Gold.Chemscore.Rot>
1.3199

> <Gold.Chemscore.Internal.Correction>
   9.000000E+99

> <Gold.Chemscore.Hbonds>
donor molecule, donor type, donor heavy atom, donor atom, acceptor molecule, acceptor atom, score
      L1  H     9    29       P1  8028  0.74
      P1  H  7989  7998       L1    11  0.87

> <Gold.Chemscore.Hbond.Weighted>
-5.2293

> <Gold.Chemscore.Metal.Weighted>
-0.0000

> <Gold.Chemscore.Lipo.Weighted>
-9.2013

> <Gold.Chemscore.Internal_Hbond.Weighted>
0.0000

> <Gold.Chemscore.DEClash.Weighted>
1.6434

> <Gold.Chemscore.DEInternal.Weighted>
2.2244

> <Gold.Chemscore.Rot.Weighted>
3.3789

> <Gold.Chemscore.Internal.Correction.Weighted>
   9.000000E+99

> <Gold.Protein.RotatedTorsions>
[ 6907 6896 6895 6894 ] final  -66.24 input  -60.11 | X-H torsion
[ 7974 7965 7964 7962 ] final -151.24 input  175.53 | X-H torsion
[ 8008 7997 7996 7995 ] final  -32.35 input   59.86 | X-H torsion
[ 10167 10162 10161 10158 ] final -134.67 input  -65.29 | X-H torsion
[ 10718 10713 10712 10709 ] final  -69.21 input   66.30 | X-H torsion
[ 10763 10752 10751 10750 ] final -167.15 input  -60.55 | X-H torsion
[ 11005 11000 10999 10996 ] final  -12.41 input  -57.11 | X-H torsion

> <Gold.Protein.ActiveResidues>
 VAL166  LYS551  ARG553  GLY616  TRP617  ASP618  TYR619  PRO620  LYS621  CYS622 
 ASP623  PHE694  ASN695  SER759  ASP760  ASP761  ALA762  ILE779  LEU786  VAL792 
 PHE793  MET794  SER795  GLU796  ALA797  LYS798  CYS799  TRP800  GLU811  SER814 

> <Gold.Protein.RotatedAtoms>
  150.7477  134.6049  159.6055 H   0  0  0  0  0  0  0  0  0  0  0  0  # atno 6907 bound_to 6896
  152.3400  134.7144  160.0275 H   0  0  0  0  0  0  0  0  0  0  0  0  # atno 6908 bound_to 6896
  151.7600  133.3297  159.3451 H   0  0  0  0  0  0  0  0  0  0  0  0  # atno 6909 bound_to 6896
  144.7861  140.4824  143.5805 H   0  0  0  0  0  0  0  0  0  0  0  0  # atno 7974 bound_to 7965
  154.4183  140.1740  156.1713 H   0  0  0  0  0  0  0  0  0  0  0  0  # atno 8008 bound_to 7997
  155.9758  140.3382  155.6593 H   0  0  0  0  0  0  0  0  0  0  0  0  # atno 8009 bound_to 7997
  155.6565  140.0696  157.2559 H   0  0  0  0  0  0  0  0  0  0  0  0  # atno 8010 bound_to 7997
  139.8857  143.6785  152.2620 H   0  0  0  0  0  0  0  0  0  0  0  0  # atno 10167 bound_to 10162
  156.0467  130.4308  150.2114 H   0  0  0  0  0  0  0  0  0  0  0  0  # atno 10718 bound_to 10713
  154.6761  135.2947  154.9677 H   0  0  0  0  0  0  0  0  0  0  0  0  # atno 10763 bound_to 10752
  154.0687  135.6621  153.4825 H   0  0  0  0  0  0  0  0  0  0  0  0  # atno 10764 bound_to 10752
  153.0517  135.5170  154.7780 H   0  0  0  0  0  0  0  0  0  0  0  0  # atno 10765 bound_to 10752
  140.7654  133.8481  155.9160 H   0  0  0  0  0  0  0  0  0  0  0  0  # atno 11005 bound_to 11000
  145.5918  139.1496  143.3178 LP  0  0  0  0  0  0  0  0  0  0  0  0  # atno 17320 bound_to 7965
  146.2093  140.6043  142.9067 LP  0  0  0  0  0  0  0  0  0  0  0  0  # atno 17321 bound_to 7965
  139.7156  144.7612  151.1040 LP  0  0  0  0  0  0  0  0  0  0  0  0  # atno 17342 bound_to 10162
  140.7736  143.5274  150.9463 LP  0  0  0  0  0  0  0  0  0  0  0  0  # atno 17343 bound_to 10162
  157.0202  130.9977  151.3341 LP  0  0  0  0  0  0  0  0  0  0  0  0  # atno 17370 bound_to 10713
  157.5349  130.8082  149.7960 LP  0  0  0  0  0  0  0  0  0  0  0  0  # atno 17371 bound_to 10713
  140.9624  134.1638  157.4643 LP  0  0  0  0  0  0  0  0  0  0  0  0  # atno 17394 bound_to 11000
  139.8764  134.9949  156.5719 LP  0  0  0  0  0  0  0  0  0  0  0  0  # atno 17395 bound_to 11000

$$$$
