AV-unprocessed.smi:199|AV-procd|sdf|1569|dock2
  -GOLD-   2262019443D 1   1.00000     0.00000
 Structure written by MMmdl.
 51 55  0  0  0  0  0  0  0  0  1 V2000
  152.4369  138.8057  155.2623 C   0  0  0  0  0  0  0  0  0  0  0  0
  151.0400  139.3650  155.5770 C   0  0  1  0  0  0  0  0  0  0  0  0
  150.9678  140.7446  155.2478 O   0  0  0  0  0  0  0  0  0  0  0  0
  149.5947  141.0854  155.1903 C   0  0  0  0  0  0  0  0  0  0  0  0
  148.9891  139.9173  154.4211 C   0  0  0  0  0  0  0  0  0  0  0  0
  149.8357  138.7133  154.8465 C   0  0  1  0  0  0  0  0  0  0  0  0
  150.2417  138.0253  153.6746 O   0  0  0  0  0  0  0  0  0  0  0  0
  149.0409  137.7259  155.7367 C   0  0  0  0  0  0  0  0  0  0  0  0
  148.0420  136.9611  155.0051 N   0  0  0  0  0  0  0  0  0  0  0  0
  146.8422  137.4254  154.5173 C   0  0  0  0  0  0  0  0  0  0  0  0
  146.1233  136.5436  153.8795 N   0  0  0  0  0  0  0  0  0  0  0  0
  146.8726  135.3744  153.9444 C   0  0  0  0  0  0  0  0  0  0  0  0
  146.6925  134.0451  153.4622 C   0  0  0  0  0  0  0  0  0  0  0  0
  145.6011  133.6362  152.7585 N   0  0  0  0  0  0  0  0  0  0  0  0
  144.4646  134.5250  152.5522 C   0  0  1  0  0  0  0  0  0  0  0  0
  144.9581  135.5271  151.4874 C   0  0  0  0  0  0  0  0  0  0  0  0
  145.8877  134.6373  150.6491 C   0  0  0  0  0  0  0  0  0  0  0  0
  145.7215  133.2732  151.3542 C   0  0  2  0  0  0  0  0  0  0  0  0
  144.3304  132.6526  151.0855 C   0  0  2  0  0  0  0  0  0  0  0  0
  143.9076  132.4694  149.6159 C   0  0  0  0  0  0  0  0  0  0  0  0
  142.5024  132.5376  149.4982 O   0  0  0  0  0  0  0  0  0  0  0  0
  143.4262  133.5918  151.9047 C   0  0  0  0  0  0  0  0  0  0  0  0
  147.6935  133.1564  153.7024 N   0  0  0  0  0  0  0  0  0  0  0  0
  148.7786  133.5250  154.3880 C   0  0  0  0  0  0  0  0  0  0  0  0
  149.0711  134.7178  154.9073 N   0  0  0  0  0  0  0  0  0  0  0  0
  148.0841  135.6231  154.6519 C   0  0  0  0  0  0  0  0  0  0  0  0
  152.4983  137.7428  155.4971 H   0  0  0  0  0  0  0  0  0  0  0  0
  153.1980  139.3173  155.8511 H   0  0  0  0  0  0  0  0  0  0  0  0
  152.6938  138.9358  154.2108 H   0  0  0  0  0  0  0  0  0  0  0  0
  150.8812  139.3082  156.6543 H   0  0  0  0  0  0  0  0  0  0  0  0
  149.1863  141.1452  156.2005 H   0  0  0  0  0  0  0  0  0  0  0  0
  149.4366  142.0437  154.6955 H   0  0  0  0  0  0  0  0  0  0  0  0
  147.9248  139.7965  154.6263 H   0  0  0  0  0  0  0  0  0  0  0  0
  149.0927  140.1116  153.3522 H   0  0  0  0  0  0  0  0  0  0  0  0
  149.5303  137.4727  153.3894 H   0  0  0  0  0  0  0  0  0  0  0  0
  149.7246  137.0245  156.2166 H   0  0  0  0  0  0  0  0  0  0  0  0
  148.5383  138.2595  156.5447 H   0  0  0  0  0  0  0  0  0  0  0  0
  146.5188  138.4487  154.6399 H   0  0  0  0  0  0  0  0  0  0  0  0
  144.0861  135.0046  153.4557 H   0  0  0  0  0  0  0  0  0  0  0  0
  144.1433  135.9567  150.9037 H   0  0  0  0  0  0  0  0  0  0  0  0
  145.5164  136.3473  151.9402 H   0  0  0  0  0  0  0  0  0  0  0  0
  145.6347  134.6233  149.5903 H   0  0  0  0  0  0  0  0  0  0  0  0
  146.9183  134.9855  150.7309 H   0  0  0  0  0  0  0  0  0  0  0  0
  146.5237  132.5757  151.1210 H   0  0  0  0  0  0  0  0  0  0  0  0
  144.3100  131.6698  151.5608 H   0  0  0  0  0  0  0  0  0  0  0  0
  144.3412  133.2625  149.0062 H   0  0  0  0  0  0  0  0  0  0  0  0
  144.2659  131.5286  149.1996 H   0  0  0  0  0  0  0  0  0  0  0  0
  142.1423  131.6874  149.6995 H   0  0  0  0  0  0  0  0  0  0  0  0
  142.8785  133.0291  152.6617 H   0  0  0  0  0  0  0  0  0  0  0  0
  142.6997  134.1346  151.2986 H   0  0  0  0  0  0  0  0  0  0  0  0
  149.5191  132.7539  154.5403 H   0  0  0  0  0  0  0  0  0  0  0  0
  1  2  1  0  0  0  0
  1 27  1  0  0  0  0
  1 28  1  0  0  0  0
  1 29  1  0  0  0  0
  2  6  1  0  0  0  0
  2  3  1  0  0  0  0
  2 30  1  0  0  0  0
  3  4  1  0  0  0  0
  4  5  1  0  0  0  0
  4 31  1  0  0  0  0
  4 32  1  0  0  0  0
  5  6  1  0  0  0  0
  5 33  1  0  0  0  0
  5 34  1  0  0  0  0
  6  7  1  0  0  0  0
  6  8  1  0  0  0  0
  7 35  1  0  0  0  0
  8  9  1  0  0  0  0
  8 36  1  0  0  0  0
  8 37  1  0  0  0  0
  9 26  1  0  0  0  0
  9 10  1  0  0  0  0
 10 11  2  0  0  0  0
 10 38  1  0  0  0  0
 11 12  1  0  0  0  0
 12 26  2  0  0  0  0
 12 13  1  0  0  0  0
 13 14  1  0  0  0  0
 13 23  2  0  0  0  0
 14 18  1  0  0  0  0
 14 15  1  0  0  0  0
 15 22  1  0  0  0  0
 15 16  1  0  0  0  0
 15 39  1  0  0  0  0
 16 17  1  0  0  0  0
 16 40  1  0  0  0  0
 16 41  1  0  0  0  0
 17 18  1  0  0  0  0
 17 42  1  0  0  0  0
 17 43  1  0  0  0  0
 18 19  1  0  0  0  0
 18 44  1  0  0  0  0
 19 20  1  0  0  0  0
 19 22  1  0  0  0  0
 19 45  1  0  0  0  0
 20 21  1  0  0  0  0
 20 46  1  0  0  0  0
 20 47  1  0  0  0  0
 21 48  1  0  0  0  0
 22 49  1  0  0  0  0
 22 50  1  0  0  0  0
 23 24  1  0  0  0  0
 24 25  2  0  0  0  0
 24 51  1  0  0  0  0
 25 26  1  0  0  0  0
M  END
> <s_m_source_file>
AV-unprocessed.smi

> <i_m_source_file_index>
199

> <i_lp_mmshare_version>
43012

> <i_f3d_flags>
0

> <s_epik_input>
W0NIMl0xW0NIMl1PW0NAQEhdKFtDSDNdKVtDQEBdMShbT0hdKVtDSDJdbihbY0hdbjIpYyhjMjMpbltjSF1uYzNOKFtDQEBIXTQ1KVtDQEhdKFtDSDJdW0NIMl00KVtDQEhdKFtDSDJdNSlbQ0gyXVtPSF0=

> <s_epik_cmdline>
J2VwaWtfcHl0aG9uJywgJy1waCcsICc3LjAnLCAnLXRuJywgJzgnLCAnLW1hJywgJzIwMCcsICctbWV0YWxfYmluZGluZycsICctaW1hZScsICc8aW5maWxlLm1hZT4nLCAnLW9tYWUnLCAnPG91dGZpbGUubWFlPic=

> <r_lp_tautomer_probability>
1

> <r_epik_Ionization_Penalty>
0.00583903

> <r_epik_Ionization_Penalty_Charging>
0

> <r_epik_Ionization_Penalty_Neutral>
0.00583903

> <r_epik_State_Penalty>
-0

> <r_epik_Charging_Adjusted_Penalty>
0

> <i_epik_Tot_Q>
0

> <i_epik_Tot_abs_Q>
0

> <r_epik_Metal_State_Penalty>
-0

> <b_epik_Metal_Only>
0

> <s_lp_Force_Field>
OPLS_2005

> <r_lp_Energy>
83.7467

> <b_lp_Chiralities_Consistent>
1

> <s_lp_Variant>
AV-unprocessed.smi:199-10

> <Gold.Version>
5.8.1

> <Gold.Id.Protein>
6NUR|6NUR_protein|mol2

> <Gold.PLP.Fitness>
45.0846

> <Gold.PLP.PLP>
-38.4320

> <Gold.PLP.part.hbond>
-4.6956

> <Gold.PLP.part.metal>
0.0000

> <Gold.PLP.part.buried>
-3.1272

> <Gold.PLP.part.nonpolar>
-30.8732

> <Gold.PLP.part.repulsive>
0.4507

> <Gold.PLP.ligand.clash>
0.0000

> <Gold.PLP.ligand.torsion>
0.6672

> <Gold.PLP.Chemscore.Hbond>
2.6480

> <Gold.PLP.Chemscore.CHOScore>
0.0000

> <Gold.PLP.Chemscore.Metal>
0.0000

> <Gold.Chemscore.Hbonds>
donor molecule, donor type, donor heavy atom, donor atom, acceptor molecule, acceptor atom, score
      L1  H     7    35       P1  7948  0.82
      L1  H    21    48       P1 10952  1.00
      P1  H  7989  7998       L1     3  0.85

> <Gold.PLP.Chemscore.Internal.Correction>
0.0431

> <Gold.Rescore>
     Score         DG    S(hbond)    S(metal)    S(lipo)     H(rot)  DE(clash)    DE(int)     intcor
     10.54     -13.98       2.04        0.00      81.67       3.07       0.12       3.32       ----

> <Gold.Chemscore.Fitness>
10.5370

> <Gold.Chemscore.DG>
-13.9827

> <Gold.Chemscore.ZeroCoef>
-5.4800

> <Gold.Chemscore.Hbond>
2.0403

> <Gold.Chemscore.Metal>
0.0000

> <Gold.Chemscore.Lipo>
81.6661

> <Gold.Chemscore.Internal_Hbond>
0.0000

> <Gold.Chemscore.DEClash>
0.1221

> <Gold.Chemscore.DEInternal>
3.3236

> <Gold.Chemscore.Rot>
3.0729

> <Gold.Chemscore.Internal.Correction>
   9.000000E+99

> <Gold.Chemscore.Hbonds>
donor molecule, donor type, donor heavy atom, donor atom, acceptor molecule, acceptor atom, score
      L1  H     7    35       P1  7948  0.68
      L1  H    21    48       P1 10952  0.96
      P1  H  7989  7998       L1     3  0.28

> <Gold.Chemscore.Hbond.Weighted>
-6.8145

> <Gold.Chemscore.Metal.Weighted>
-0.0000

> <Gold.Chemscore.Lipo.Weighted>
-9.5549

> <Gold.Chemscore.Internal_Hbond.Weighted>
0.0000

> <Gold.Chemscore.DEClash.Weighted>
0.1221

> <Gold.Chemscore.DEInternal.Weighted>
3.3236

> <Gold.Chemscore.Rot.Weighted>
7.8667

> <Gold.Chemscore.Internal.Correction.Weighted>
   9.000000E+99

> <Gold.Protein.RotatedTorsions>
[ 6907 6896 6895 6894 ] final -132.78 input  -60.11 | X-H torsion
[ 7974 7965 7964 7962 ] final  -49.55 input  175.53 | X-H torsion
[ 8008 7997 7996 7995 ] final -100.87 input   59.86 | X-H torsion
[ 10167 10162 10161 10158 ] final  -53.78 input  -65.29 | X-H torsion
[ 10718 10713 10712 10709 ] final -109.89 input   66.30 | X-H torsion
[ 10763 10752 10751 10750 ] final  -95.76 input  -60.55 | X-H torsion
[ 11005 11000 10999 10996 ] final   61.12 input  -57.11 | X-H torsion

> <Gold.Protein.ActiveResidues>
 VAL166  LYS551  ARG553  GLY616  TRP617  ASP618  TYR619  PRO620  LYS621  CYS622 
 ASP623  PHE694  ASN695  SER759  ASP760  ASP761  ALA762  ILE779  LEU786  VAL792 
 PHE793  MET794  SER795  GLU796  ALA797  LYS798  CYS799  TRP800  GLU811  SER814 

> <Gold.Protein.RotatedAtoms>
  150.9664  133.6390  159.2745 H   0  0  0  0  0  0  0  0  0  0  0  0  # atno 6907 bound_to 6896
  151.3695  135.0918  159.9470 H   0  0  0  0  0  0  0  0  0  0  0  0  # atno 6908 bound_to 6896
  152.5167  133.9221  159.7594 H   0  0  0  0  0  0  0  0  0  0  0  0  # atno 6909 bound_to 6896
  145.9393  140.7677  142.9560 H   0  0  0  0  0  0  0  0  0  0  0  0  # atno 7974 bound_to 7965
  154.8346  140.0438  157.1500 H   0  0  0  0  0  0  0  0  0  0  0  0  # atno 8008 bound_to 7997
  154.9114  140.3014  155.5244 H   0  0  0  0  0  0  0  0  0  0  0  0  # atno 8009 bound_to 7997
  156.2989  140.2357  156.4153 H   0  0  0  0  0  0  0  0  0  0  0  0  # atno 8010 bound_to 7997
  140.6466  143.2539  151.4841 H   0  0  0  0  0  0  0  0  0  0  0  0  # atno 10167 bound_to 10162
  156.0561  130.5787  150.8162 H   0  0  0  0  0  0  0  0  0  0  0  0  # atno 10718 bound_to 10713
  154.7177  135.5109  153.8764 H   0  0  0  0  0  0  0  0  0  0  0  0  # atno 10763 bound_to 10752
  153.0835  135.6638  154.0005 H   0  0  0  0  0  0  0  0  0  0  0  0  # atno 10764 bound_to 10752
  153.9834  135.3027  155.3397 H   0  0  0  0  0  0  0  0  0  0  0  0  # atno 10765 bound_to 10752
  140.0183  134.6191  155.9677 H   0  0  0  0  0  0  0  0  0  0  0  0  # atno 11005 bound_to 11000
  144.6776  140.2254  143.7361 LP  0  0  0  0  0  0  0  0  0  0  0  0  # atno 17320 bound_to 7965
  145.8321  139.2090  143.1877 LP  0  0  0  0  0  0  0  0  0  0  0  0  # atno 17321 bound_to 7965
  139.5678  144.2001  152.1791 LP  0  0  0  0  0  0  0  0  0  0  0  0  # atno 17342 bound_to 10162
  140.1288  144.5307  150.6815 LP  0  0  0  0  0  0  0  0  0  0  0  0  # atno 17343 bound_to 10162
  157.5532  131.0944  150.9666 LP  0  0  0  0  0  0  0  0  0  0  0  0  # atno 17370 bound_to 10713
  156.9921  130.5567  149.5304 LP  0  0  0  0  0  0  0  0  0  0  0  0  # atno 17371 bound_to 10713
  141.1757  133.6540  156.4821 LP  0  0  0  0  0  0  0  0  0  0  0  0  # atno 17394 bound_to 11000
  140.4431  134.6997  157.5002 LP  0  0  0  0  0  0  0  0  0  0  0  0  # atno 17395 bound_to 11000

$$$$
