AV-unprocessed.smi:1075|AV-procd|sdf|4696|dock4
  -GOLD-   22720 3213D 1   1.00000     0.00000
 Structure written by MMmdl.
 50 51  0  0  0  0  0  0  0  0  1 V2000
  150.4792  145.0843  160.9373 C   0  0  0  0  0  0  0  0  0  0  0  0
  151.5798  144.0851  160.7215 C   0  0  0  0  0  0  0  0  0  0  0  0
  152.3529  143.7475  161.7393 N   0  0  0  0  0  0  0  0  0  0  0  0
  153.2161  142.8467  161.2313 N   0  0  0  0  0  0  0  0  0  0  0  0
  154.2189  142.2607  162.0998 C   0  0  0  0  0  0  0  0  0  0  0  0
  152.9863  142.6106  159.8892 C   0  0  0  0  0  0  0  0  0  0  0  0
  153.8118  141.6396  159.1041 C   0  0  0  0  0  0  0  0  0  0  0  0
  151.9308  143.4058  159.5171 C   0  0  0  0  0  0  0  0  0  0  0  0
  151.2512  143.5499  158.1698 C   0  0  1  0  0  0  0  0  0  0  0  0
  152.0662  144.4274  157.2007 C   0  0  0  0  0  0  0  0  0  0  0  0
  150.9324  142.1555  157.6074 C   0  0  0  0  0  0  0  0  0  0  0  0
  151.2547  141.1397  158.2244 O   0  0  0  0  0  0  0  0  0  0  0  0
  150.2838  142.1391  156.4282 N   0  0  0  0  0  0  0  0  0  0  0  0
  149.7727  140.9885  155.6741 C   0  0  1  0  0  0  0  0  0  0  0  0
  148.8557  141.4780  154.5284 C   0  0  0  0  0  0  0  0  0  0  0  0
  150.9631  140.1446  155.1410 C   0  0  0  0  0  0  0  0  0  0  0  0
  150.5510  138.7538  154.6277 C   0  0  0  0  0  0  0  0  0  0  0  0
  149.7842  137.9551  155.6943 C   0  0  2  0  0  0  0  0  0  0  0  0
  149.3821  136.5660  155.1787 C   0  0  0  0  0  0  0  0  0  0  0  0
  148.5612  138.7554  156.1710 C   0  0  0  0  0  0  0  0  0  0  0  0
  148.9630  140.1461  156.6922 C   0  0  0  0  0  0  0  0  0  0  0  0
  149.5298  144.7065  160.5570 H   0  0  0  0  0  0  0  0  0  0  0  0
  150.6967  146.0195  160.4209 H   0  0  0  0  0  0  0  0  0  0  0  0
  150.3411  145.3134  161.9946 H   0  0  0  0  0  0  0  0  0  0  0  0
  153.9857  141.2094  162.2695 H   0  0  0  0  0  0  0  0  0  0  0  0
  154.2464  142.7763  163.0610 H   0  0  0  0  0  0  0  0  0  0  0  0
  155.2009  142.3375  161.6329 H   0  0  0  0  0  0  0  0  0  0  0  0
  153.2527  141.2343  158.2620 H   0  0  0  0  0  0  0  0  0  0  0  0
  154.1260  140.7957  159.7182 H   0  0  0  0  0  0  0  0  0  0  0  0
  154.7060  142.1248  158.7124 H   0  0  0  0  0  0  0  0  0  0  0  0
  150.2885  144.0468  158.2939 H   0  0  0  0  0  0  0  0  0  0  0  0
  153.0497  144.0070  156.9917 H   0  0  0  0  0  0  0  0  0  0  0  0
  152.2166  145.4241  157.6164 H   0  0  0  0  0  0  0  0  0  0  0  0
  151.5499  144.5480  156.2478 H   0  0  0  0  0  0  0  0  0  0  0  0
  150.0817  143.0413  156.0221 H   0  0  0  0  0  0  0  0  0  0  0  0
  148.3874  140.6495  153.9986 H   0  0  0  0  0  0  0  0  0  0  0  0
  149.4050  142.0534  153.7834 H   0  0  0  0  0  0  0  0  0  0  0  0
  148.0547  142.1131  154.9079 H   0  0  0  0  0  0  0  0  0  0  0  0
  151.4850  140.6747  154.3440 H   0  0  0  0  0  0  0  0  0  0  0  0
  151.6951  140.0098  155.9394 H   0  0  0  0  0  0  0  0  0  0  0  0
  149.9407  138.8572  153.7298 H   0  0  0  0  0  0  0  0  0  0  0  0
  151.4427  138.2037  154.3250 H   0  0  0  0  0  0  0  0  0  0  0  0
  150.4469  137.8099  156.5489 H   0  0  0  0  0  0  0  0  0  0  0  0
  148.7144  136.6391  154.3195 H   0  0  0  0  0  0  0  0  0  0  0  0
  148.8686  135.9941  155.9518 H   0  0  0  0  0  0  0  0  0  0  0  0
  150.2574  135.9930  154.8722 H   0  0  0  0  0  0  0  0  0  0  0  0
  147.8407  138.8542  155.3586 H   0  0  0  0  0  0  0  0  0  0  0  0
  148.0486  138.2091  156.9635 H   0  0  0  0  0  0  0  0  0  0  0  0
  149.5579  140.0043  157.5965 H   0  0  0  0  0  0  0  0  0  0  0  0
  148.0711  140.6899  157.0066 H   0  0  0  0  0  0  0  0  0  0  0  0
  1  2  1  0  0  0  0
  1 22  1  0  0  0  0
  1 23  1  0  0  0  0
  1 24  1  0  0  0  0
  2  8  1  0  0  0  0
  2  3  2  0  0  0  0
  3  4  1  0  0  0  0
  4  5  1  0  0  0  0
  4  6  1  0  0  0  0
  5 25  1  0  0  0  0
  5 26  1  0  0  0  0
  5 27  1  0  0  0  0
  6  7  1  0  0  0  0
  6  8  2  0  0  0  0
  7 28  1  0  0  0  0
  7 29  1  0  0  0  0
  7 30  1  0  0  0  0
  8  9  1  0  0  0  0
  9 10  1  0  0  0  0
  9 11  1  0  0  0  0
  9 31  1  0  0  0  0
 10 32  1  0  0  0  0
 10 33  1  0  0  0  0
 10 34  1  0  0  0  0
 11 12  2  0  0  0  0
 11 13  1  0  0  0  0
 13 14  1  0  0  0  0
 13 35  1  0  0  0  0
 14 21  1  0  0  0  0
 14 15  1  0  0  0  0
 14 16  1  0  0  0  0
 15 36  1  0  0  0  0
 15 37  1  0  0  0  0
 15 38  1  0  0  0  0
 16 17  1  0  0  0  0
 16 39  1  0  0  0  0
 16 40  1  0  0  0  0
 17 18  1  0  0  0  0
 17 41  1  0  0  0  0
 17 42  1  0  0  0  0
 18 19  1  0  0  0  0
 18 20  1  0  0  0  0
 18 43  1  0  0  0  0
 19 44  1  0  0  0  0
 19 45  1  0  0  0  0
 19 46  1  0  0  0  0
 20 21  1  0  0  0  0
 20 47  1  0  0  0  0
 20 48  1  0  0  0  0
 21 49  1  0  0  0  0
 21 50  1  0  0  0  0
M  END
> <s_m_source_file>
AV-unprocessed.smi

> <i_m_source_file_index>
1075

> <i_lp_mmshare_version>
43012

> <i_f3d_flags>
0

> <s_epik_input>
W0NIM11jMW5uKFtDSDNdKWMoW0NIM10pYzFbQ0BIXShbQ0gzXSlDKD1PKVtOSF1bQ0BAXTIoW0NIM10pW0NIMl1bQ0gyXVtDQEBIXShbQ0gzXSlbQ0gyXVtDSDJdMg==

> <s_epik_cmdline>
J2VwaWtfcHl0aG9uJywgJy1waCcsICc3LjAnLCAnLXRuJywgJzgnLCAnLW1hJywgJzIwMCcsICctbWV0YWxfYmluZGluZycsICctaW1hZScsICc8aW5maWxlLm1hZT4nLCAnLW9tYWUnLCAnPG91dGZpbGUubWFlPic=

> <r_lp_tautomer_probability>
1

> <r_epik_Ionization_Penalty>
0.00502928

> <r_epik_Ionization_Penalty_Charging>
0

> <r_epik_Ionization_Penalty_Neutral>
0.00502928

> <r_epik_State_Penalty>
0.0036576

> <r_epik_Charging_Adjusted_Penalty>
0.0036576

> <i_epik_Tot_Q>
0

> <i_epik_Tot_abs_Q>
0

> <r_epik_Metal_State_Penalty>
-0

> <b_epik_Metal_Only>
0

> <s_lp_Force_Field>
OPLS_2005

> <r_lp_Energy>
7.42101

> <b_lp_Chiralities_Consistent>
1

> <s_lp_Variant>
AV-unprocessed.smi:1075-4

> <Gold.Version>
5.8.1

> <Gold.Id.Protein>
6NUR|6NUR_protein|mol2

> <Gold.PLP.Fitness>
42.1337

> <Gold.PLP.PLP>
-40.3094

> <Gold.PLP.part.hbond>
-1.0000

> <Gold.PLP.part.metal>
0.0000

> <Gold.PLP.part.buried>
-1.9794

> <Gold.PLP.part.nonpolar>
-39.4484

> <Gold.PLP.part.repulsive>
0.9586

> <Gold.PLP.ligand.clash>
0.0000

> <Gold.PLP.ligand.torsion>
0.5123

> <Gold.PLP.Chemscore.Hbond>
0.9188

> <Gold.PLP.Chemscore.CHOScore>
0.0000

> <Gold.PLP.Chemscore.Metal>
0.0000

> <Gold.Chemscore.Hbonds>
donor molecule, donor type, donor heavy atom, donor atom, acceptor molecule, acceptor atom, score
      L1  H    13    35       P1  8028  0.84

> <Gold.PLP.Chemscore.Internal.Correction>
0.0923

> <Gold.Rescore>
     Score         DG    S(hbond)    S(metal)    S(lipo)     H(rot)  DE(clash)    DE(int)     intcor
     13.92     -19.50       0.95        0.00     119.77       1.23       1.73       3.85       ----

> <Gold.Chemscore.Fitness>
13.9183

> <Gold.Chemscore.DG>
-19.4964

> <Gold.Chemscore.ZeroCoef>
-5.4800

> <Gold.Chemscore.Hbond>
0.9454

> <Gold.Chemscore.Metal>
0.0000

> <Gold.Chemscore.Lipo>
119.7664

> <Gold.Chemscore.Internal_Hbond>
0.0000

> <Gold.Chemscore.DEClash>
1.7276

> <Gold.Chemscore.DEInternal>
3.8504

> <Gold.Chemscore.Rot>
1.2321

> <Gold.Chemscore.Internal.Correction>
   9.000000E+99

> <Gold.Chemscore.Hbonds>
donor molecule, donor type, donor heavy atom, donor atom, acceptor molecule, acceptor atom, score
      L1  H    13    35       P1  8028  0.82

> <Gold.Chemscore.Hbond.Weighted>
-3.1578

> <Gold.Chemscore.Metal.Weighted>
-0.0000

> <Gold.Chemscore.Lipo.Weighted>
-14.0127

> <Gold.Chemscore.Internal_Hbond.Weighted>
0.0000

> <Gold.Chemscore.DEClash.Weighted>
1.7276

> <Gold.Chemscore.DEInternal.Weighted>
3.8504

> <Gold.Chemscore.Rot.Weighted>
3.1541

> <Gold.Chemscore.Internal.Correction.Weighted>
   9.000000E+99

> <Gold.Protein.RotatedTorsions>
[ 6907 6896 6895 6894 ] final   38.69 input  -60.11 | X-H torsion
[ 7974 7965 7964 7962 ] final -108.21 input  175.53 | X-H torsion
[ 8008 7997 7996 7995 ] final  -33.82 input   59.86 | X-H torsion
[ 10167 10162 10161 10158 ] final  112.48 input  -65.29 | X-H torsion
[ 10718 10713 10712 10709 ] final -175.09 input   66.30 | X-H torsion
[ 10763 10752 10751 10750 ] final  -60.54 input  -60.55 | X-H torsion
[ 11005 11000 10999 10996 ] final  104.71 input  -57.11 | X-H torsion

> <Gold.Protein.ActiveResidues>
 VAL166  LYS551  ARG553  GLY616  TRP617  ASP618  TYR619  PRO620  LYS621  CYS622 
 ASP623  PHE694  ASN695  SER759  ASP760  ASP761  ALA762  ILE779  LEU786  VAL792 
 PHE793  MET794  SER795  GLU796  ALA797  LYS798  CYS799  TRP800  GLU811  SER814 

> <Gold.Protein.RotatedAtoms>
  152.1598  134.8921  160.0542 H   0  0  0  0  0  0  0  0  0  0  0  0  # atno 6907 bound_to 6896
  151.9921  133.3790  159.4157 H   0  0  0  0  0  0  0  0  0  0  0  0  # atno 6908 bound_to 6896
  150.6886  134.3847  159.5093 H   0  0  0  0  0  0  0  0  0  0  0  0  # atno 6909 bound_to 6896
  145.1957  140.9034  143.3398 H   0  0  0  0  0  0  0  0  0  0  0  0  # atno 7974 bound_to 7965
  154.4138  140.1700  156.1950 H   0  0  0  0  0  0  0  0  0  0  0  0  # atno 8008 bound_to 7997
  155.9571  140.3396  155.6435 H   0  0  0  0  0  0  0  0  0  0  0  0  # atno 8009 bound_to 7997
  155.6796  140.0721  157.2480 H   0  0  0  0  0  0  0  0  0  0  0  0  # atno 8010 bound_to 7997
  139.6532  144.7128  151.2007 H   0  0  0  0  0  0  0  0  0  0  0  0  # atno 10167 bound_to 10162
  156.7948  130.9531  151.3120 H   0  0  0  0  0  0  0  0  0  0  0  0  # atno 10718 bound_to 10713
  154.2707  135.6291  153.5309 H   0  0  0  0  0  0  0  0  0  0  0  0  # atno 10763 bound_to 10752
  152.9880  135.5609  154.5603 H   0  0  0  0  0  0  0  0  0  0  0  0  # atno 10764 bound_to 10752
  154.5172  135.2880  155.1268 H   0  0  0  0  0  0  0  0  0  0  0  0  # atno 10765 bound_to 10752
  139.8794  134.9310  156.5403 H   0  0  0  0  0  0  0  0  0  0  0  0  # atno 11005 bound_to 11000
  144.9997  139.3610  143.6174 LP  0  0  0  0  0  0  0  0  0  0  0  0  # atno 17320 bound_to 7965
  146.3427  139.9214  142.8766 LP  0  0  0  0  0  0  0  0  0  0  0  0  # atno 17321 bound_to 7965
  140.7547  143.6115  150.8601 LP  0  0  0  0  0  0  0  0  0  0  0  0  # atno 17342 bound_to 10162
  139.9765  143.5998  152.2957 LP  0  0  0  0  0  0  0  0  0  0  0  0  # atno 17343 bound_to 10162
  157.6583  130.8944  149.9775 LP  0  0  0  0  0  0  0  0  0  0  0  0  # atno 17370 bound_to 10713
  156.1137  130.3649  150.0005 LP  0  0  0  0  0  0  0  0  0  0  0  0  # atno 17371 bound_to 10713
  140.8315  133.8275  155.8989 LP  0  0  0  0  0  0  0  0  0  0  0  0  # atno 17394 bound_to 11000
  140.9324  134.2005  157.4855 LP  0  0  0  0  0  0  0  0  0  0  0  0  # atno 17395 bound_to 11000

$$$$
