AV-unprocessed.smi:2559|AV-procd|sdf|10036|dock6
  -GOLD-   2272014 83D 1   1.00000     0.00000
 Structure written by MMmdl.
 43 45  0  0  0  0  0  0  0  0  2 V2000
  154.3977  138.7949  162.2135 C   0  0  0  0  0  0  0  0  0  0  0  0
  153.7966  138.2498  160.9926 N   0  0  0  0  0  0  0  0  0  0  0  0
  153.8083  136.9037  160.7408 C   0  0  0  0  0  0  0  0  0  0  0  0
  154.3355  136.1582  161.5674 O   0  0  0  0  0  0  0  0  0  0  0  0
  153.2358  136.4188  159.5854 N   0  5  0  0  0  0  0  0  0  0  0  0
  152.6199  137.1656  158.6153 C   0  0  0  0  0  0  0  0  0  0  0  0
  152.0939  136.7380  157.5906 O   0  0  0  0  0  0  0  0  0  0  0  0
  152.6348  138.6142  158.9282 C   0  0  0  0  0  0  0  0  0  0  0  0
  153.1845  139.1314  160.0607 C   0  0  0  0  0  0  0  0  0  0  0  0
  153.0211  140.5062  160.1164 N   0  0  0  0  0  0  0  0  0  0  0  0
  152.3846  140.7802  158.9768 C   0  0  0  0  0  0  0  0  0  0  0  0
  151.9961  142.0731  158.6180 N   0  0  0  0  0  0  0  0  0  0  0  0
  150.7710  142.4397  157.9064 C   0  0  0  0  0  0  0  0  0  0  0  0
  150.0282  143.5904  158.6087 C   0  0  0  0  0  0  0  0  0  0  0  0
  150.9393  144.8192  158.7309 C   0  0  0  0  0  0  0  0  0  0  0  0
  152.2763  144.4214  159.3725 C   0  0  0  0  0  0  0  0  0  0  0  0
  152.9016  143.2211  158.6381 C   0  0  0  0  0  0  0  0  0  0  0  0
  152.0991  139.6916  158.2099 N   0  0  0  0  0  0  0  0  0  0  0  0
  151.3503  139.6548  156.9520 C   0  0  0  0  0  0  0  0  0  0  0  0
  152.0989  138.8874  155.8445 C   0  0  2  0  0  0  0  0  0  0  0  0
  152.6956  139.8132  154.9571 O   0  0  0  0  0  0  0  0  0  0  0  0
  151.1544  137.9738  155.0453 C   0  0  0  0  0  0  0  0  0  0  0  0
  151.8904  137.1753  154.1426 O   0  0  0  0  0  0  0  0  0  0  0  0
  155.4332  138.4668  162.3149 H   0  0  0  0  0  0  0  0  0  0  0  0
  153.8454  138.4567  163.0907 H   0  0  0  0  0  0  0  0  0  0  0  0
  154.4046  139.8843  162.2288 H   0  0  0  0  0  0  0  0  0  0  0  0
  151.0355  142.7407  156.8919 H   0  0  0  0  0  0  0  0  0  0  0  0
  150.1225  141.5723  157.7906 H   0  0  0  0  0  0  0  0  0  0  0  0
  149.1260  143.8491  158.0541 H   0  0  0  0  0  0  0  0  0  0  0  0
  149.7029  143.2744  159.5997 H   0  0  0  0  0  0  0  0  0  0  0  0
  151.1210  145.2381  157.7404 H   0  0  0  0  0  0  0  0  0  0  0  0
  150.4515  145.5985  159.3168 H   0  0  0  0  0  0  0  0  0  0  0  0
  152.9632  145.2680  159.3583 H   0  0  0  0  0  0  0  0  0  0  0  0
  152.1195  144.1670  160.4214 H   0  0  0  0  0  0  0  0  0  0  0  0
  153.8338  142.9413  159.1301 H   0  0  0  0  0  0  0  0  0  0  0  0
  153.1609  143.4944  157.6144 H   0  0  0  0  0  0  0  0  0  0  0  0
  150.3804  139.1994  157.1271 H   0  0  0  0  0  0  0  0  0  0  0  0
  151.1093  140.6627  156.6241 H   0  0  0  0  0  0  0  0  0  0  0  0
  152.8870  138.2884  156.3017 H   0  0  0  0  0  0  0  0  0  0  0  0
  153.4549  140.1866  155.3779 H   0  0  0  0  0  0  0  0  0  0  0  0
  150.6263  137.2967  155.7173 H   0  0  0  0  0  0  0  0  0  0  0  0
  150.3973  138.5501  154.5119 H   0  0  0  0  0  0  0  0  0  0  0  0
  151.4036  137.1098  153.3357 H   0  0  0  0  0  0  0  0  0  0  0  0
  1  2  1  0  0  0  0
  1 24  1  0  0  0  0
  1 25  1  0  0  0  0
  1 26  1  0  0  0  0
  2  9  1  0  0  0  0
  2  3  1  0  0  0  0
  3  4  2  0  0  0  0
  3  5  1  0  0  0  0
  5  6  1  0  0  0  0
  6  7  2  0  0  0  0
  6  8  1  0  0  0  0
  8 18  1  0  0  0  0
  8  9  2  0  0  0  0
  9 10  1  0  0  0  0
 10 11  2  0  0  0  0
 11 12  1  0  0  0  0
 11 18  1  0  0  0  0
 12 17  1  0  0  0  0
 12 13  1  0  0  0  0
 13 14  1  0  0  0  0
 13 27  1  0  0  0  0
 13 28  1  0  0  0  0
 14 15  1  0  0  0  0
 14 29  1  0  0  0  0
 14 30  1  0  0  0  0
 15 16  1  0  0  0  0
 15 31  1  0  0  0  0
 15 32  1  0  0  0  0
 16 17  1  0  0  0  0
 16 33  1  0  0  0  0
 16 34  1  0  0  0  0
 17 35  1  0  0  0  0
 17 36  1  0  0  0  0
 18 19  1  0  0  0  0
 19 20  1  0  0  0  0
 19 37  1  0  0  0  0
 19 38  1  0  0  0  0
 20 21  1  0  0  0  0
 20 22  1  0  0  0  0
 20 39  1  0  0  0  0
 21 40  1  0  0  0  0
 22 23  1  0  0  0  0
 22 41  1  0  0  0  0
 22 42  1  0  0  0  0
 23 43  1  0  0  0  0
M  CHG  1   5  -1
M  END
> <s_m_source_file>
AV-unprocessed.smi

> <i_m_source_file_index>
2559

> <i_lp_mmshare_version>
43012

> <i_f3d_flags>
0

> <s_epik_input>
Tz1jMVtuSF1jKD1PKW4oW0NIM10pYyhjMTIpbmMobjJbQ0gyXVtDQEhdKFtPSF0pW0NIMl1bT0hdKU4zW0NIMl1bQ0gyXVtDSDJdW0NIMl1bQ0gyXTM=

> <s_epik_cmdline>
J2VwaWtfcHl0aG9uJywgJy1waCcsICc3LjAnLCAnLXRuJywgJzgnLCAnLW1hJywgJzIwMCcsICctbWV0YWxfYmluZGluZycsICctaW1hZScsICc8aW5maWxlLm1hZT4nLCAnLW9tYWUnLCAnPG91dGZpbGUubWFlPic=

> <r_lp_tautomer_probability>
1

> <r_epik_Ionization_Penalty>
5.90509

> <r_epik_Ionization_Penalty_Charging>
0.0759636

> <r_epik_Ionization_Penalty_Neutral>
5.82913

> <r_epik_State_Penalty>
5.18635

> <r_epik_Charging_Adjusted_Penalty>
5.26231

> <i_epik_Tot_Q>
-1

> <i_epik_Tot_abs_Q>
1

> <r_epik_Metal_State_Penalty>
1.25614

> <b_epik_Metal_Only>
1

> <s_lp_Force_Field>
OPLS_2005

> <r_lp_Energy>
44.2417

> <b_lp_Chiralities_Consistent>
1

> <s_lp_Variant>
AV-unprocessed.smi:2559-3

> <Gold.Version>
5.8.1

> <Gold.Id.Protein>
6NUR|6NUR_protein|mol2

> <Gold.PLP.Fitness>
51.3074

> <Gold.PLP.PLP>
-40.8667

> <Gold.PLP.part.hbond>
-5.0000

> <Gold.PLP.part.metal>
0.0000

> <Gold.PLP.part.buried>
-6.6491

> <Gold.PLP.part.nonpolar>
-29.6147

> <Gold.PLP.part.repulsive>
0.0000

> <Gold.PLP.ligand.clash>
0.0000

> <Gold.PLP.ligand.torsion>
1.3629

> <Gold.PLP.Chemscore.Hbond>
4.1695

> <Gold.PLP.Chemscore.CHOScore>
0.0000

> <Gold.PLP.Chemscore.Metal>
0.0000

> <Gold.Chemscore.Hbonds>
donor molecule, donor type, donor heavy atom, donor atom, acceptor molecule, acceptor atom, score
      L1  H    23    43       P1  7949  0.58
      P1  H  6896  6907       L1     5  2.00
      P1  H  7989  7998       L1    21  0.49
      P1  H 10752 10765       L1    23  1.00

> <Gold.PLP.Chemscore.Internal.Correction>
0.6581

> <Gold.Rescore>
     Score         DG    S(hbond)    S(metal)    S(lipo)     H(rot)  DE(clash)    DE(int)     intcor
      9.65     -14.16       2.01        0.00      80.92       2.93       0.00       4.51       ----

> <Gold.Chemscore.Fitness>
9.6455

> <Gold.Chemscore.DG>
-14.1630

> <Gold.Chemscore.ZeroCoef>
-5.4800

> <Gold.Chemscore.Hbond>
2.0132

> <Gold.Chemscore.Metal>
0.0000

> <Gold.Chemscore.Lipo>
80.9168

> <Gold.Chemscore.Internal_Hbond>
0.0000

> <Gold.Chemscore.DEClash>
0.0033

> <Gold.Chemscore.DEInternal>
4.5142

> <Gold.Chemscore.Rot>
2.9330

> <Gold.Chemscore.Internal.Correction>
   9.000000E+99

> <Gold.Chemscore.Hbonds>
donor molecule, donor type, donor heavy atom, donor atom, acceptor molecule, acceptor atom, score
      L1  H    23    43       P1  7949  0.45
      P1  H  6896  6907       L1     5  0.51
      P1  H  7989  7998       L1    21  0.45
      P1  H 10752 10765       L1    23  0.54

> <Gold.Chemscore.Hbond.Weighted>
-6.7241

> <Gold.Chemscore.Metal.Weighted>
-0.0000

> <Gold.Chemscore.Lipo.Weighted>
-9.4673

> <Gold.Chemscore.Internal_Hbond.Weighted>
0.0000

> <Gold.Chemscore.DEClash.Weighted>
0.0033

> <Gold.Chemscore.DEInternal.Weighted>
4.5142

> <Gold.Chemscore.Rot.Weighted>
7.5084

> <Gold.Chemscore.Internal.Correction.Weighted>
   9.000000E+99

> <Gold.Protein.RotatedTorsions>
[ 6907 6896 6895 6894 ] final   40.25 input  -60.11 | X-H torsion
[ 7974 7965 7964 7962 ] final -173.70 input  175.53 | X-H torsion
[ 8008 7997 7996 7995 ] final   95.34 input   59.86 | X-H torsion
[ 10167 10162 10161 10158 ] final   58.79 input  -65.29 | X-H torsion
[ 10718 10713 10712 10709 ] final  -79.00 input   66.30 | X-H torsion
[ 10763 10752 10751 10750 ] final  156.72 input  -60.55 | X-H torsion
[ 11005 11000 10999 10996 ] final -127.84 input  -57.11 | X-H torsion

> <Gold.Protein.ActiveResidues>
 VAL166  LYS551  ARG553  GLY616  TRP617  ASP618  TYR619  PRO620  LYS621  CYS622 
 ASP623  PHE694  ASN695  SER759  ASP760  ASP761  ALA762  ILE779  LEU786  VAL792 
 PHE793  MET794  SER795  GLU796  ALA797  LYS798  CYS799  TRP800  GLU811  SER814 

> <Gold.Protein.RotatedAtoms>
  152.1801  134.8761  160.0526 H   0  0  0  0  0  0  0  0  0  0  0  0  # atno 6907 bound_to 6896
  151.9689  133.3714  159.4072 H   0  0  0  0  0  0  0  0  0  0  0  0  # atno 6908 bound_to 6896
  150.6916  134.4084  159.5194 H   0  0  0  0  0  0  0  0  0  0  0  0  # atno 6909 bound_to 6896
  144.7136  140.1583  143.6378 H   0  0  0  0  0  0  0  0  0  0  0  0  # atno 7974 bound_to 7965
  156.0678  140.3288  155.7538 H   0  0  0  0  0  0  0  0  0  0  0  0  # atno 8008 bound_to 7997
  155.5354  140.0597  157.2898 H   0  0  0  0  0  0  0  0  0  0  0  0  # atno 8009 bound_to 7997
  154.4514  140.1920  156.0526 H   0  0  0  0  0  0  0  0  0  0  0  0  # atno 8010 bound_to 7997
  140.1835  144.4158  150.6604 H   0  0  0  0  0  0  0  0  0  0  0  0  # atno 10167 bound_to 10162
  156.0103  130.4533  150.3582 H   0  0  0  0  0  0  0  0  0  0  0  0  # atno 10718 bound_to 10713
  154.1888  135.2796  155.3028 H   0  0  0  0  0  0  0  0  0  0  0  0  # atno 10763 bound_to 10752
  154.5945  135.5549  153.7315 H   0  0  0  0  0  0  0  0  0  0  0  0  # atno 10764 bound_to 10752
  153.0118  135.6376  154.2027 H   0  0  0  0  0  0  0  0  0  0  0  0  # atno 10765 bound_to 10752
  140.9566  134.0993  157.4010 H   0  0  0  0  0  0  0  0  0  0  0  0  # atno 11005 bound_to 11000
  145.9054  139.2455  143.1469 LP  0  0  0  0  0  0  0  0  0  0  0  0  # atno 17320 bound_to 7965
  145.9769  140.8714  143.0134 LP  0  0  0  0  0  0  0  0  0  0  0  0  # atno 17321 bound_to 7965
  140.6504  143.2223  151.6090 LP  0  0  0  0  0  0  0  0  0  0  0  0  # atno 17342 bound_to 10162
  139.5286  144.2983  152.1094 LP  0  0  0  0  0  0  0  0  0  0  0  0  # atno 17343 bound_to 10162
  157.1671  131.0359  151.2813 LP  0  0  0  0  0  0  0  0  0  0  0  0  # atno 17370 bound_to 10713
  157.4261  130.7464  149.6952 LP  0  0  0  0  0  0  0  0  0  0  0  0  # atno 17371 bound_to 10713
  139.8864  135.0081  156.6497 LP  0  0  0  0  0  0  0  0  0  0  0  0  # atno 17394 bound_to 11000
  140.7527  133.8884  155.8359 LP  0  0  0  0  0  0  0  0  0  0  0  0  # atno 17395 bound_to 11000

$$$$
