AV-unprocessed.smi:735|AV-procd|sdf|3534|dock5
  -GOLD-   22720 0523D 1   1.00000     0.00000
 Structure written by MMmdl.
 16 16  0  0  0  0  0  0  0  0  3 V2000
  151.4916  140.4515  155.1562 O   0  0  0  0  0  0  0  0  0  0  0  0
  152.0511  139.8370  156.0924 C   0  0  0  0  0  0  0  0  0  0  0  0
  153.1066  139.1733  155.9749 O   0  5  0  0  0  0  0  0  0  0  0  0
  151.4218  139.9745  157.4907 C   0  0  0  0  0  0  0  0  0  0  0  0
  150.1691  139.5231  157.3881 F   0  0  0  0  0  0  0  0  0  0  0  0
  152.0553  139.1507  158.3302 F   0  0  0  0  0  0  0  0  0  0  0  0
  151.4068  141.4195  158.0114 C   0  0  0  0  0  0  0  0  0  0  0  0
  150.7662  142.4056  157.3423 C   0  0  0  0  0  0  0  0  0  0  0  0
  150.7066  143.7120  157.8298 N   0  0  0  0  0  0  0  0  0  0  0  0
  151.2671  144.0548  159.0080 C   0  0  0  0  0  0  0  0  0  0  0  0
  151.1579  145.2243  159.3704 O   0  0  0  0  0  0  0  0  0  0  0  0
  151.9171  143.0864  159.7209 N   0  5  0  0  0  0  0  0  0  0  0  0
  152.0355  141.7911  159.2943 C   0  0  0  0  0  0  0  0  0  0  0  0
  152.6615  140.9575  159.9479 O   0  0  0  0  0  0  0  0  0  0  0  0
  150.2216  144.4049  157.2787 H   0  0  0  0  0  0  0  0  0  0  0  0
  150.2529  142.2660  156.4026 H   0  0  0  0  0  0  0  0  0  0  0  0
  1  2  2  0  0  0  0
  2  3  1  0  0  0  0
  2  4  1  0  0  0  0
  4  5  1  0  0  0  0
  4  6  1  0  0  0  0
  4  7  1  0  0  0  0
  7 13  1  0  0  0  0
  7  8  2  0  0  0  0
  8  9  1  0  0  0  0
  8 16  1  0  0  0  0
  9 15  1  0  0  0  0
  9 10  1  0  0  0  0
 10 11  2  0  0  0  0
 10 12  1  0  0  0  0
 12 13  1  0  0  0  0
 13 14  2  0  0  0  0
M  CHG  1   3  -1
M  CHG  1  12  -1
M  END
> <s_m_source_file>
AV-unprocessed.smi

> <i_m_source_file_index>
735

> <i_lp_mmshare_version>
43012

> <i_f3d_flags>
0

> <s_epik_input>
Tz1DKFtPSF0pQyhGKShGKWMxW2NIXVtuSF1jKD1PKVtuSF1jMT1P

> <s_epik_cmdline>
J2VwaWtfcHl0aG9uJywgJy1waCcsICc3LjAnLCAnLXRuJywgJzgnLCAnLW1hJywgJzIwMCcsICctbWV0YWxfYmluZGluZycsICctaW1hZScsICc8aW5maWxlLm1hZT4nLCAnLW9tYWUnLCAnPG91dGZpbGUubWFlPic=

> <r_lp_tautomer_probability>
0.999514

> <r_epik_Ionization_Penalty>
1.58373

> <r_epik_Ionization_Penalty_Charging>
0.000433443

> <r_epik_Ionization_Penalty_Neutral>
1.5833

> <r_epik_State_Penalty>
2.35383

> <r_epik_Charging_Adjusted_Penalty>
2.35426

> <i_epik_Tot_Q>
-2

> <i_epik_Tot_abs_Q>
2

> <r_epik_Metal_State_Penalty>
1.75831

> <b_epik_Metal_Only>
1

> <s_lp_Force_Field>
OPLS_2005

> <r_lp_Energy>
21.8504

> <b_lp_Chiralities_Consistent>
1

> <s_lp_Variant>
AV-unprocessed.smi:735-3

> <Gold.Version>
5.8.1

> <Gold.Id.Protein>
6NUR|6NUR_protein|mol2

> <Gold.PLP.Fitness>
38.5339

> <Gold.PLP.PLP>
-26.2828

> <Gold.PLP.part.hbond>
-4.0000

> <Gold.PLP.part.metal>
0.0000

> <Gold.PLP.part.buried>
-5.6342

> <Gold.PLP.part.nonpolar>
-17.1686

> <Gold.PLP.part.repulsive>
0.1822

> <Gold.PLP.ligand.clash>
0.0093

> <Gold.PLP.ligand.torsion>
0.0915

> <Gold.PLP.Chemscore.Hbond>
3.8880

> <Gold.PLP.Chemscore.CHOScore>
0.2346

> <Gold.PLP.Chemscore.Metal>
0.0000

> <Gold.Chemscore.Hbonds>
donor molecule, donor type, donor heavy atom, donor atom, acceptor molecule, acceptor atom, score
      L1  H     9    15       P1  8028  0.78
      P1  H  7989  7998       L1     1  0.90
      P1  H  7997  8009       L1     3  2.00
      L1  C     8    16       P1  8028  0.04

> <Gold.PLP.Chemscore.Internal.Correction>
0.0756

> <Gold.Rescore>
     Score         DG    S(hbond)    S(metal)    S(lipo)     H(rot)  DE(clash)    DE(int)     intcor
      9.68     -12.00       2.66        0.00      19.31       1.81       0.20       2.12       ----

> <Gold.Chemscore.Fitness>
9.6828

> <Gold.Chemscore.DG>
-11.9957

> <Gold.Chemscore.ZeroCoef>
-5.4800

> <Gold.Chemscore.Hbond>
2.6590

> <Gold.Chemscore.Metal>
0.0000

> <Gold.Chemscore.Lipo>
19.3076

> <Gold.Chemscore.Internal_Hbond>
0.0000

> <Gold.Chemscore.DEClash>
0.1958

> <Gold.Chemscore.DEInternal>
2.1172

> <Gold.Chemscore.Rot>
1.8064

> <Gold.Chemscore.Internal.Correction>
   9.000000E+99

> <Gold.Chemscore.Hbonds>
donor molecule, donor type, donor heavy atom, donor atom, acceptor molecule, acceptor atom, score
      L1  H     9    15       P1  8028  0.46
      P1  H  7989  7998       L1     1  0.88
      P1  H  7997  8009       L1     3  0.73

> <Gold.Chemscore.Hbond.Weighted>
-8.8812

> <Gold.Chemscore.Metal.Weighted>
-0.0000

> <Gold.Chemscore.Lipo.Weighted>
-2.2590

> <Gold.Chemscore.Internal_Hbond.Weighted>
0.0000

> <Gold.Chemscore.DEClash.Weighted>
0.1958

> <Gold.Chemscore.DEInternal.Weighted>
2.1172

> <Gold.Chemscore.Rot.Weighted>
4.6244

> <Gold.Chemscore.Internal.Correction.Weighted>
   9.000000E+99

> <Gold.Protein.RotatedTorsions>
[ 6907 6896 6895 6894 ] final  -18.07 input  -60.11 | X-H torsion
[ 7974 7965 7964 7962 ] final -176.88 input  175.53 | X-H torsion
[ 8008 7997 7996 7995 ] final -150.60 input   59.86 | X-H torsion
[ 10167 10162 10161 10158 ] final    3.15 input  -65.29 | X-H torsion
[ 10718 10713 10712 10709 ] final -115.02 input   66.30 | X-H torsion
[ 10763 10752 10751 10750 ] final  120.29 input  -60.55 | X-H torsion
[ 11005 11000 10999 10996 ] final  -46.55 input  -57.11 | X-H torsion

> <Gold.Protein.ActiveResidues>
 VAL166  LYS551  ARG553  GLY616  TRP617  ASP618  TYR619  PRO620  LYS621  CYS622 
 ASP623  PHE694  ASN695  SER759  ASP760  ASP761  ALA762  ILE779  LEU786  VAL792 
 PHE793  MET794  SER795  GLU796  ALA797  LYS798  CYS799  TRP800  GLU811  SER814 

> <Gold.Protein.RotatedAtoms>
  151.2838  135.0721  159.9178 H   0  0  0  0  0  0  0  0  0  0  0  0  # atno 6907 bound_to 6896
  152.5329  134.0003  159.7902 H   0  0  0  0  0  0  0  0  0  0  0  0  # atno 6908 bound_to 6896
  151.0261  133.5781  159.2696 H   0  0  0  0  0  0  0  0  0  0  0  0  # atno 6909 bound_to 6896
  144.7127  140.1104  143.6411 H   0  0  0  0  0  0  0  0  0  0  0  0  # atno 7974 bound_to 7965
  155.6260  140.0686  157.2663 H   0  0  0  0  0  0  0  0  0  0  0  0  # atno 8008 bound_to 7997
  154.4217  140.1776  156.1471 H   0  0  0  0  0  0  0  0  0  0  0  0  # atno 8009 bound_to 7997
  155.9971  140.3339  155.6812 H   0  0  0  0  0  0  0  0  0  0  0  0  # atno 8010 bound_to 7997
  140.6600  143.7328  150.7722 H   0  0  0  0  0  0  0  0  0  0  0  0  # atno 10167 bound_to 10162
  156.0868  130.6058  150.8851 H   0  0  0  0  0  0  0  0  0  0  0  0  # atno 10718 bound_to 10713
  153.5963  135.3456  155.2929 H   0  0  0  0  0  0  0  0  0  0  0  0  # atno 10763 bound_to 10752
  154.8644  135.4217  154.2462 H   0  0  0  0  0  0  0  0  0  0  0  0  # atno 10764 bound_to 10752
  153.3280  135.7042  153.7043 H   0  0  0  0  0  0  0  0  0  0  0  0  # atno 10765 bound_to 10752
  141.0586  133.6717  156.3171 H   0  0  0  0  0  0  0  0  0  0  0  0  # atno 11005 bound_to 11000
  145.9460  139.2701  143.1240 LP  0  0  0  0  0  0  0  0  0  0  0  0  # atno 17320 bound_to 7965
  145.9373  140.9005  143.0325 LP  0  0  0  0  0  0  0  0  0  0  0  0  # atno 17321 bound_to 7965
  140.0995  143.4801  152.2433 LP  0  0  0  0  0  0  0  0  0  0  0  0  # atno 17342 bound_to 10162
  139.5832  144.7519  151.3587 LP  0  0  0  0  0  0  0  0  0  0  0  0  # atno 17343 bound_to 10162
  157.6005  131.0941  150.8968 LP  0  0  0  0  0  0  0  0  0  0  0  0  # atno 17370 bound_to 10713
  156.9127  130.5286  149.5280 LP  0  0  0  0  0  0  0  0  0  0  0  0  # atno 17371 bound_to 10713
  140.5914  134.5646  157.5500 LP  0  0  0  0  0  0  0  0  0  0  0  0  # atno 17394 bound_to 11000
  139.9412  134.7783  156.0674 LP  0  0  0  0  0  0  0  0  0  0  0  0  # atno 17395 bound_to 11000

$$$$
