#       Name:                AV-unprocessed.smi:1335
#       Creating user name   scv26
#       Creation time:       Fri Mar 27 05:07:30 2020


#       File generated by GOLD software.
#

@<TRIPOS>MOLECULE
AV-unprocessed.smi:1335
    55    57     1
SMALL
NO_CHARGES


@<TRIPOS>ATOM
      1 ****         0.1571   5.8857  -0.5566 C.3            1 S1                 0.0000
      2 ****        -0.4663   4.6332  -0.7996 O.3            1 S1                 0.0000
      3 ****        -1.1734   4.0407   0.2268 C.ar           1 S1                 0.0000
      4 ****        -1.3508   4.6408   1.5002 C.ar           1 S1                 0.0000
      5 ****        -2.0735   3.9798   2.5114 C.ar           1 S1                 0.0000
      6 ****        -2.6268   2.7108   2.2684 C.ar           1 S1                 0.0000
      7 ****        -2.4597   2.1059   1.0101 C.ar           1 S1                 0.0000
      8 ****        -1.7414   2.7642  -0.0098 C.ar           1 S1                 0.0000
      9 ****        -1.5895   2.0692  -1.3552 C.3            1 S1                 0.0000
     10 ****        -0.7057   0.9603  -1.2996 O.3            1 S1                 0.0000
     11 ****         0.6667   1.3211  -1.2323 C.3            1 S1                 0.0000
     12 ****         1.4988   0.0404  -1.0753 C.3            1 S1                 0.0000
     13 ****         2.8554   0.3905  -1.2602 O.3            1 S1                 0.0000
     14 ****         1.3335  -0.5904   0.3236 C.3            1 S1                 0.0000
     15 ****         1.3566  -2.0489   0.2559 N.am           1 S1                 0.0000
     16 ****         2.4515  -2.8407   0.3326 C.2            1 S1                 0.0000
     17 ****         3.6113  -2.4556   0.4791 O.2            1 S1                 0.0000
     18 ****         2.0483  -4.1262   0.2011 N.am           1 S1                 0.0000
     19 ****         2.8910  -5.3157   0.2179 C.3            1 S1                 0.0000
     20 ****         0.6614  -4.1554   0.0067 C.ar           1 S1                 0.0000
     21 ****        -0.2189  -5.2310  -0.2004 C.ar           1 S1                 0.0000
     22 ****        -1.5879  -4.9201  -0.3755 C.ar           1 S1                 0.0000
     23 ****        -2.0381  -3.5743  -0.3428 C.ar           1 S1                 0.0000
     24 ****        -1.1293  -2.5104  -0.1340 C.ar           1 S1                 0.0000
     25 ****         0.2245  -2.8478   0.0399 C.ar           1 S1                 0.0000
     26 ****         0.6893   6.2016  -1.4537 H              1 S1                 0.0000
     27 ****         0.8866   5.8179   0.2517 H              1 S1                 0.0000
     28 ****        -0.5763   6.6576  -0.3203 H              1 S1                 0.0000
     29 ****        -0.9400   5.6119   1.7297 H              1 S1                 0.0000
     30 ****        -2.2015   4.4479   3.4762 H              1 S1                 0.0000
     31 ****        -3.1789   2.2023   3.0452 H              1 S1                 0.0000
     32 ****        -2.8850   1.1299   0.8271 H              1 S1                 0.0000
     33 ****        -2.5703   1.6923  -1.6466 H              1 S1                 0.0000
     34 ****        -1.2921   2.7591  -2.1456 H              1 S1                 0.0000
     35 ****         0.9396   1.8426  -2.1512 H              1 S1                 0.0000
     36 ****         0.8614   2.0000  -0.4008 H              1 S1                 0.0000
     37 ****         1.2143  -0.6627  -1.8597 H              1 S1                 0.0000
     38 ****         3.3821  -0.3888  -1.1666 H              1 S1                 0.0000
     39 ****         2.0888  -0.2214   1.0200 H              1 S1                 0.0000
     40 ****         0.3785  -0.2956   0.7597 H              1 S1                 0.0000
     41 ****         2.9785  -5.7276  -0.7879 H              1 S1                 0.0000
     42 ****         2.4573  -6.0793   0.8644 H              1 S1                 0.0000
     43 ****         3.8951  -5.0996   0.5853 H              1 S1                 0.0000
     44 ****         0.1322  -6.2518  -0.2276 H              1 S1                 0.0000
     45 ****        -2.2986  -5.7171  -0.5378 H              1 S1                 0.0000
     46 ****        -3.0874  -3.3592  -0.4804 H              1 S1                 0.0000
     47 ****        -1.4669  -1.4848  -0.1119 H              1 S1                 0.0000
     48 ****         0.2525   3.9931  -1.0711 LP             1 S1                 0.0000
     49 ****        -1.1023   4.7624  -1.5604 LP             1 S1                 0.0000
     50 ****        -0.8455   0.4048  -2.1193 LP             1 S1                 0.0000
     51 ****        -0.9294   0.4197  -0.4886 LP             1 S1                 0.0000
     52 ****         3.1262   1.0650  -0.5735 LP             1 S1                 0.0000
     53 ****         2.9827   0.7758  -2.1742 LP             1 S1                 0.0000
     54 ****         3.8080  -1.4779   0.5526 LP             1 S1                 0.0000
     55 ****         4.3569  -3.1205   0.5246 LP             1 S1                 0.0000
@<TRIPOS>BOND
    1    1    2 1     
    2    1   26 1     
    3    1   27 1     
    4    1   28 1     
    5    2    3 1     
    6    3    8 ar    
    7    3    4 ar    
    8    4    5 ar    
    9    4   29 1     
   10    5    6 ar    
   11    5   30 1     
   12    6    7 ar    
   13    6   31 1     
   14    7    8 ar    
   15    7   32 1     
   16    8    9 1     
   17    9   10 1     
   18    9   33 1     
   19    9   34 1     
   20   10   11 1     
   21   11   12 1     
   22   11   35 1     
   23   11   36 1     
   24   12   13 1     
   25   12   14 1     
   26   12   37 1     
   27   13   38 1     
   28   14   15 1     
   29   14   39 1     
   30   14   40 1     
   31   15   25 1     
   32   15   16 am    
   33   16   17 2     
   34   16   18 am    
   35   18   19 1     
   36   18   20 1     
   37   19   41 1     
   38   19   42 1     
   39   19   43 1     
   40   20   25 ar    
   41   20   21 ar    
   42   21   22 ar    
   43   21   44 1     
   44   22   23 ar    
   45   22   45 1     
   46   23   24 ar    
   47   23   46 1     
   48   24   25 ar    
   49   24   47 1     
   50    2   48 1     
   51    2   49 1     
   52   10   50 1     
   53   10   51 1     
   54   13   52 1     
   55   13   53 1     
   56   17   54 1     
   57   17   55 1     
@<TRIPOS>SUBSTRUCTURE
      1 S1             1
@<TRIPOS>SET
LONE_PAIRS      STATIC     ATOMS    <user>   **** ""
8 48 49 50 51 52 53 54 55
DONOR_HYDROGENS      STATIC     ATOMS    <user>   **** ""
1 38
ATOM$BLUE        STATIC     ATOMS    COLORGROUP SYSTEM
8 48 49 50 51 52 53 54 55
ATOM$RED        STATIC     ATOMS    COLORGROUP SYSTEM
1 38
