AV-unprocessed.smi:2579|AV-procd|sdf|10123|dock4
  -GOLD-   2272014143D 1   1.00000     0.00000
 Structure written by MMmdl.
 39 41  0  0  0  0  0  0  0  0  2 V2000
  149.4032  141.0940  153.5003 O   0  0  0  0  0  0  0  0  0  0  0  0
  148.0446  141.3099  153.8154 C   0  0  0  0  0  0  0  0  0  0  0  0
  147.9154  141.8124  155.2624 C   0  0  0  0  0  0  0  0  0  0  0  0
  148.6908  141.0122  156.2000 N   0  0  0  0  0  0  0  0  0  0  0  0
  149.7114  141.6078  156.9511 C   0  0  0  0  0  0  0  0  0  0  0  0
  149.9235  142.9429  157.0999 N   0  3  0  0  0  0  0  0  0  0  0  0
  151.0424  143.1223  157.9182 C   0  0  0  0  0  0  0  0  0  0  0  0
  151.6642  144.2850  158.3634 C   0  0  0  0  0  0  0  0  0  0  0  0
  152.7964  144.1223  159.1883 C   0  0  0  0  0  0  0  0  0  0  0  0
  153.2728  142.8427  159.5398 C   0  0  0  0  0  0  0  0  0  0  0  0
  152.6363  141.6695  159.0846 C   0  0  0  0  0  0  0  0  0  0  0  0
  151.5146  141.8355  158.2725 C   0  0  0  0  0  0  0  0  0  0  0  0
  150.6509  140.9228  157.6525 N   0  0  0  0  0  0  0  0  0  0  0  0
  150.8660  139.4784  157.8150 C   0  0  0  0  0  0  0  0  0  0  0  0
  151.7312  138.8922  156.6881 C   0  0  2  0  0  0  0  0  0  0  0  0
  151.4611  139.5135  155.3181 C   0  0  0  0  0  0  0  0  0  0  0  0
  151.8590  138.3916  154.3870 C   0  0  0  0  0  0  0  0  0  0  0  0
  151.3516  137.1717  155.1480 C   0  0  0  0  0  0  0  0  0  0  0  0
  151.4987  137.4935  156.5276 O   0  0  0  0  0  0  0  0  0  0  0  0
  149.4670  140.3312  152.9456 H   0  0  0  0  0  0  0  0  0  0  0  0
  147.5921  141.9958  153.0988 H   0  0  0  0  0  0  0  0  0  0  0  0
  147.5287  140.3550  153.7132 H   0  0  0  0  0  0  0  0  0  0  0  0
  148.2542  142.8471  155.3219 H   0  0  0  0  0  0  0  0  0  0  0  0
  146.8701  141.8208  155.5727 H   0  0  0  0  0  0  0  0  0  0  0  0
  148.6605  140.0061  156.1147 H   0  0  0  0  0  0  0  0  0  0  0  0
  151.3048  145.2674  158.0943 H   0  0  0  0  0  0  0  0  0  0  0  0
  153.3115  144.9971  159.5578 H   0  0  0  0  0  0  0  0  0  0  0  0
  154.1455  142.7586  160.1712 H   0  0  0  0  0  0  0  0  0  0  0  0
  153.0144  140.6947  159.3547 H   0  0  0  0  0  0  0  0  0  0  0  0
  151.3109  139.2944  158.7932 H   0  0  0  0  0  0  0  0  0  0  0  0
  149.8881  138.9960  157.8264 H   0  0  0  0  0  0  0  0  0  0  0  0
  152.7876  139.0167  156.9315 H   0  0  0  0  0  0  0  0  0  0  0  0
  150.3999  139.7363  155.1960 H   0  0  0  0  0  0  0  0  0  0  0  0
  152.0243  140.4317  155.1494 H   0  0  0  0  0  0  0  0  0  0  0  0
  151.4255  138.4839  153.3908 H   0  0  0  0  0  0  0  0  0  0  0  0
  152.9446  138.3520  154.2889 H   0  0  0  0  0  0  0  0  0  0  0  0
  150.2929  137.0088  154.9425 H   0  0  0  0  0  0  0  0  0  0  0  0
  151.8919  136.2609  154.8890 H   0  0  0  0  0  0  0  0  0  0  0  0
  149.3539  143.6654  156.6793 H   0  0  0  0  0  0  0  0  0  0  0  0
  1  2  1  0  0  0  0
  1 20  1  0  0  0  0
  2  3  1  0  0  0  0
  2 21  1  0  0  0  0
  2 22  1  0  0  0  0
  3  4  1  0  0  0  0
  3 23  1  0  0  0  0
  3 24  1  0  0  0  0
  4  5  1  0  0  0  0
  4 25  1  0  0  0  0
  5 13  1  0  0  0  0
  5  6  2  0  0  0  0
  6  7  1  0  0  0  0
  6 39  1  0  0  0  0
  7 12  2  0  0  0  0
  7  8  1  0  0  0  0
  8  9  2  0  0  0  0
  8 26  1  0  0  0  0
  9 10  1  0  0  0  0
  9 27  1  0  0  0  0
 10 11  2  0  0  0  0
 10 28  1  0  0  0  0
 11 12  1  0  0  0  0
 11 29  1  0  0  0  0
 12 13  1  0  0  0  0
 13 14  1  0  0  0  0
 14 15  1  0  0  0  0
 14 30  1  0  0  0  0
 14 31  1  0  0  0  0
 15 19  1  0  0  0  0
 15 16  1  0  0  0  0
 15 32  1  0  0  0  0
 16 17  1  0  0  0  0
 16 33  1  0  0  0  0
 16 34  1  0  0  0  0
 17 18  1  0  0  0  0
 17 35  1  0  0  0  0
 17 36  1  0  0  0  0
 18 19  1  0  0  0  0
 18 37  1  0  0  0  0
 18 38  1  0  0  0  0
M  CHG  1   6   1
M  END
> <s_m_source_file>
AV-unprocessed.smi

> <i_m_source_file_index>
2579

> <i_lp_mmshare_version>
43012

> <i_f3d_flags>
0

> <s_epik_input>
W09IXVtDSDJdW0NIMl1bTkhdYyhuMSluKGMoYzEyKVtjSF1bY0hdW2NIXVtjSF0yKVtDSDJdW0NAQEhdM1tDSDJdW0NIMl1bQ0gyXU8z

> <s_epik_cmdline>
J2VwaWtfcHl0aG9uJywgJy1waCcsICc3LjAnLCAnLXRuJywgJzgnLCAnLW1hJywgJzIwMCcsICctbWV0YWxfYmluZGluZycsICctaW1hZScsICc8aW5maWxlLm1hZT4nLCAnLW9tYWUnLCAnPG91dGZpbGUubWFlPic=

> <r_epik_Ionization_Penalty>
0.0735651

> <r_epik_Ionization_Penalty_Charging>
0.0735628

> <r_epik_Ionization_Penalty_Neutral>
2.35277e-06

> <r_epik_State_Penalty>
0.0647164

> <r_epik_Charging_Adjusted_Penalty>
0.138279

> <i_epik_Tot_Q>
1

> <i_epik_Tot_abs_Q>
1

> <r_epik_Metal_State_Penalty>
2.81856

> <b_epik_Metal_Only>
0

> <s_lp_Force_Field>
OPLS_2005

> <r_lp_Energy>
32.6829

> <b_lp_Chiralities_Consistent>
1

> <s_lp_Variant>
AV-unprocessed.smi:2579-1

> <Gold.Version>
5.8.1

> <Gold.Id.Protein>
6NUR|6NUR_protein|mol2

> <Gold.PLP.Fitness>
51.8700

> <Gold.PLP.PLP>
-42.0259

> <Gold.PLP.part.hbond>
-3.9190

> <Gold.PLP.part.metal>
0.0000

> <Gold.PLP.part.buried>
-3.6157

> <Gold.PLP.part.nonpolar>
-34.5725

> <Gold.PLP.part.repulsive>
0.0135

> <Gold.PLP.ligand.clash>
0.0000

> <Gold.PLP.ligand.torsion>
0.6462

> <Gold.PLP.Chemscore.Hbond>
3.7106

> <Gold.PLP.Chemscore.CHOScore>
0.0000

> <Gold.PLP.Chemscore.Metal>
0.0000

> <Gold.Chemscore.Hbonds>
donor molecule, donor type, donor heavy atom, donor atom, acceptor molecule, acceptor atom, score
      L1  H     1    20       P1  7957  0.70
      L1  H     6    39       P1  8028  2.00
      P1  H  7989  7998       L1     1  0.01
      P1  H  8011  8017       L1     1  1.00

> <Gold.PLP.Chemscore.Internal.Correction>
0.0049

> <Gold.Rescore>
     Score         DG    S(hbond)    S(metal)    S(lipo)     H(rot)  DE(clash)    DE(int)     intcor
     17.68     -18.65       1.84        0.00     108.58       2.22       0.17       0.80       ----

> <Gold.Chemscore.Fitness>
17.6819

> <Gold.Chemscore.DG>
-18.6460

> <Gold.Chemscore.ZeroCoef>
-5.4800

> <Gold.Chemscore.Hbond>
1.8400

> <Gold.Chemscore.Metal>
0.0000

> <Gold.Chemscore.Lipo>
108.5817

> <Gold.Chemscore.Internal_Hbond>
0.0000

> <Gold.Chemscore.DEClash>
0.1681

> <Gold.Chemscore.DEInternal>
0.7961

> <Gold.Chemscore.Rot>
2.2202

> <Gold.Chemscore.Internal.Correction>
   9.000000E+99

> <Gold.Chemscore.Hbonds>
donor molecule, donor type, donor heavy atom, donor atom, acceptor molecule, acceptor atom, score
      L1  H     1    20       P1  7957  0.70
      L1  H     6    39       P1  8028  0.90
      P1  H  8011  8017       L1     1  0.13

> <Gold.Chemscore.Hbond.Weighted>
-6.1457

> <Gold.Chemscore.Metal.Weighted>
-0.0000

> <Gold.Chemscore.Lipo.Weighted>
-12.7041

> <Gold.Chemscore.Internal_Hbond.Weighted>
0.0000

> <Gold.Chemscore.DEClash.Weighted>
0.1681

> <Gold.Chemscore.DEInternal.Weighted>
0.7961

> <Gold.Chemscore.Rot.Weighted>
5.6837

> <Gold.Chemscore.Internal.Correction.Weighted>
   9.000000E+99

> <Gold.Protein.RotatedTorsions>
[ 6907 6896 6895 6894 ] final  102.18 input  -60.11 | X-H torsion
[ 7974 7965 7964 7962 ] final  -57.57 input  175.53 | X-H torsion
[ 8008 7997 7996 7995 ] final  168.67 input   59.86 | X-H torsion
[ 10167 10162 10161 10158 ] final   -3.50 input  -65.29 | X-H torsion
[ 10718 10713 10712 10709 ] final  -48.89 input   66.30 | X-H torsion
[ 10763 10752 10751 10750 ] final  -54.91 input  -60.55 | X-H torsion
[ 11005 11000 10999 10996 ] final  115.82 input  -57.11 | X-H torsion

> <Gold.Protein.ActiveResidues>
 VAL166  LYS551  ARG553  GLY616  TRP617  ASP618  TYR619  PRO620  LYS621  CYS622 
 ASP623  PHE694  ASN695  SER759  ASP760  ASP761  ALA762  ILE779  LEU786  VAL792 
 PHE793  MET794  SER795  GLU796  ALA797  LYS798  CYS799  TRP800  GLU811  SER814 

> <Gold.Protein.RotatedAtoms>
  152.5330  134.0014  159.7896 H   0  0  0  0  0  0  0  0  0  0  0  0  # atno 6907 bound_to 6896
  151.0232  133.5850  159.2676 H   0  0  0  0  0  0  0  0  0  0  0  0  # atno 6908 bound_to 6896
  151.2882  135.0741  159.9248 H   0  0  0  0  0  0  0  0  0  0  0  0  # atno 6909 bound_to 6896
  145.8495  140.8362  142.9993 H   0  0  0  0  0  0  0  0  0  0  0  0  # atno 7974 bound_to 7965
  156.1526  140.1584  156.8745 H   0  0  0  0  0  0  0  0  0  0  0  0  # atno 8008 bound_to 7997
  154.5085  140.0807  156.7979 H   0  0  0  0  0  0  0  0  0  0  0  0  # atno 8009 bound_to 7997
  155.3866  140.3408  155.4251 H   0  0  0  0  0  0  0  0  0  0  0  0  # atno 8010 bound_to 7997
  140.6892  143.6532  150.8331 H   0  0  0  0  0  0  0  0  0  0  0  0  # atno 10167 bound_to 10162
  156.1945  130.4154  149.9326 H   0  0  0  0  0  0  0  0  0  0  0  0  # atno 10718 bound_to 10713
  154.1824  135.6441  153.5037 H   0  0  0  0  0  0  0  0  0  0  0  0  # atno 10763 bound_to 10752
  153.0056  135.5409  154.6500 H   0  0  0  0  0  0  0  0  0  0  0  0  # atno 10764 bound_to 10752
  154.5868  135.2930  155.0649 H   0  0  0  0  0  0  0  0  0  0  0  0  # atno 10765 bound_to 10752
  139.9022  134.9589  156.7104 H   0  0  0  0  0  0  0  0  0  0  0  0  # atno 11005 bound_to 11000
  144.6730  140.0932  143.7464 LP  0  0  0  0  0  0  0  0  0  0  0  0  # atno 17320 bound_to 7965
  145.9373  139.2646  143.1289 LP  0  0  0  0  0  0  0  0  0  0  0  0  # atno 17321 bound_to 7965
  140.0243  143.5509  152.2787 LP  0  0  0  0  0  0  0  0  0  0  0  0  # atno 17342 bound_to 10162
  139.6279  144.7640  151.2599 LP  0  0  0  0  0  0  0  0  0  0  0  0  # atno 17343 bound_to 10162
  156.7056  130.8950  151.3604 LP  0  0  0  0  0  0  0  0  0  0  0  0  # atno 17370 bound_to 10713
  157.6949  130.9271  150.0616 LP  0  0  0  0  0  0  0  0  0  0  0  0  # atno 17371 bound_to 10713
  140.7080  133.9248  155.8066 LP  0  0  0  0  0  0  0  0  0  0  0  0  # atno 17394 bound_to 11000
  141.0321  134.0741  157.4001 LP  0  0  0  0  0  0  0  0  0  0  0  0  # atno 17395 bound_to 11000

$$$$
