AV-unprocessed.smi:21|AV-procd|sdf|160|dock2
  -GOLD-   2262015393D 1   1.00000     0.00000
 Structure written by MMmdl.
 61 64  0  0  0  0  0  0  0  0  1 V2000
  155.2563  135.8184  150.7895 C   0  0  0  0  0  0  0  0  0  0  0  0
  155.3743  136.6308  151.9469 O   0  0  0  0  0  0  0  0  0  0  0  0
  156.6813  137.1551  152.1341 C   0  0  2  0  0  0  0  0  0  0  0  0
  157.7234  136.0424  152.3361 C   0  0  0  0  0  0  0  0  0  0  0  0
  158.4993  136.4771  153.5870 C   0  0  2  0  0  0  0  0  0  0  0  0
  159.2153  135.3153  154.3137 C   0  0  0  0  0  0  0  0  0  0  0  0
  158.3054  134.2651  154.7739 N   0  0  0  0  0  0  0  0  0  0  0  0
  157.9281  134.2630  156.1840 C   0  0  0  0  0  0  0  0  0  0  0  0
  158.3190  133.0774  154.1121 C   0  0  0  0  0  0  0  0  0  0  0  0
  157.4100  132.1223  154.4469 N   0  0  0  0  0  0  0  0  0  0  0  0
  157.4288  130.9278  153.8494 C   0  0  0  0  0  0  0  0  0  0  0  0
  158.2565  130.4820  152.9039 N   0  0  0  0  0  0  0  0  0  0  0  0
  159.1580  131.4398  152.5459 C   0  0  0  0  0  0  0  0  0  0  0  0
  159.2525  132.7550  153.0841 C   0  0  0  0  0  0  0  0  0  0  0  0
  160.2735  133.4490  152.4441 N   0  0  0  0  0  0  0  0  0  0  0  0
  160.7666  132.5897  151.5956 C   0  0  0  0  0  0  0  0  0  0  0  0
  160.1755  131.3473  151.6124 N   0  0  0  0  0  0  0  0  0  0  0  0
  160.5304  130.2057  150.7886 C   0  0  0  0  0  0  0  0  0  0  0  0
  160.0229  130.2817  149.3208 C   0  0  1  0  0  0  0  0  0  0  0  0
  161.1304  130.8999  148.4328 C   0  0  0  0  0  0  0  0  0  0  0  0
  162.3250  130.1483  148.4997 O   0  0  0  0  0  0  0  0  0  0  0  0
  159.5480  128.9059  148.7619 C   0  0  2  0  0  0  0  0  0  0  0  0
  158.9108  128.9581  147.3807 C   0  0  0  0  0  0  0  0  0  0  0  0
  158.1632  127.6347  147.3139 C   0  0  0  0  0  0  0  0  0  0  0  0
  157.6600  127.4446  148.6256 O   0  0  0  0  0  0  0  0  0  0  0  0
  158.4252  128.2094  149.5513 C   0  0  0  0  0  0  0  0  0  0  0  0
  157.4998  137.1602  154.3922 N   0  0  0  0  0  0  0  0  0  0  0  0
  158.0549  137.9697  155.4689 C   0  0  0  0  0  0  0  0  0  0  0  0
  156.7478  137.9580  153.4397 C   0  0  0  0  0  0  0  0  0  0  0  0
  156.9540  137.8082  151.3030 H   0  0  0  0  0  0  0  0  0  0  0  0
  159.2464  137.2098  153.2769 H   0  0  0  0  0  0  0  0  0  0  0  0
  154.2328  135.4543  150.7020 H   0  0  0  0  0  0  0  0  0  0  0  0
  155.9169  134.9520  150.8369 H   0  0  0  0  0  0  0  0  0  0  0  0
  155.4877  136.3836  149.8859 H   0  0  0  0  0  0  0  0  0  0  0  0
  157.2256  135.0886  152.5196 H   0  0  0  0  0  0  0  0  0  0  0  0
  158.3665  135.9221  151.4645 H   0  0  0  0  0  0  0  0  0  0  0  0
  159.9247  134.8409  153.6364 H   0  0  0  0  0  0  0  0  0  0  0  0
  159.8191  135.7125  155.1265 H   0  0  0  0  0  0  0  0  0  0  0  0
  156.9977  133.7144  156.3353 H   0  0  0  0  0  0  0  0  0  0  0  0
  157.7752  135.2820  156.5401 H   0  0  0  0  0  0  0  0  0  0  0  0
  158.7058  133.8039  156.7952 H   0  0  0  0  0  0  0  0  0  0  0  0
  156.6776  130.2267  154.1818 H   0  0  0  0  0  0  0  0  0  0  0  0
  161.5929  132.8352  150.9446 H   0  0  0  0  0  0  0  0  0  0  0  0
  161.6175  130.1281  150.8155 H   0  0  0  0  0  0  0  0  0  0  0  0
  160.1507  129.3013  151.2656 H   0  0  0  0  0  0  0  0  0  0  0  0
  159.1710  130.9618  149.2824 H   0  0  0  0  0  0  0  0  0  0  0  0
  160.8029  130.9675  147.3949 H   0  0  0  0  0  0  0  0  0  0  0  0
  161.3854  131.9084  148.7548 H   0  0  0  0  0  0  0  0  0  0  0  0
  162.8637  130.4995  149.1925 H   0  0  0  0  0  0  0  0  0  0  0  0
  160.4033  128.2303  148.7075 H   0  0  0  0  0  0  0  0  0  0  0  0
  158.2060  129.7881  147.3146 H   0  0  0  0  0  0  0  0  0  0  0  0
  159.6363  129.0563  146.5728 H   0  0  0  0  0  0  0  0  0  0  0  0
  157.3627  127.6372  146.5739 H   0  0  0  0  0  0  0  0  0  0  0  0
  158.8484  126.8200  147.0764 H   0  0  0  0  0  0  0  0  0  0  0  0
  158.8129  127.5553  150.3307 H   0  0  0  0  0  0  0  0  0  0  0  0
  157.7594  128.9358  150.0177 H   0  0  0  0  0  0  0  0  0  0  0  0
  157.2619  138.5037  155.9937 H   0  0  0  0  0  0  0  0  0  0  0  0
  158.7632  138.7059  155.0864 H   0  0  0  0  0  0  0  0  0  0  0  0
  158.5707  137.3490  156.2011 H   0  0  0  0  0  0  0  0  0  0  0  0
  157.2718  138.8955  153.2461 H   0  0  0  0  0  0  0  0  0  0  0  0
  155.7605  138.2120  153.8268 H   0  0  0  0  0  0  0  0  0  0  0  0
  1  2  1  0  0  0  0
  1 32  1  0  0  0  0
  1 33  1  0  0  0  0
  1 34  1  0  0  0  0
  2  3  1  0  0  0  0
  3 30  1  0  0  0  0
  3 29  1  0  0  0  0
  3  4  1  0  0  0  0
  4  5  1  0  0  0  0
  4 35  1  0  0  0  0
  4 36  1  0  0  0  0
  5 31  1  0  0  0  0
  5  6  1  0  0  0  0
  5 27  1  0  0  0  0
  6  7  1  0  0  0  0
  6 37  1  0  0  0  0
  6 38  1  0  0  0  0
  7  8  1  0  0  0  0
  7  9  1  0  0  0  0
  8 39  1  0  0  0  0
  8 40  1  0  0  0  0
  8 41  1  0  0  0  0
  9 14  1  0  0  0  0
  9 10  2  0  0  0  0
 10 11  1  0  0  0  0
 11 12  2  0  0  0  0
 11 42  1  0  0  0  0
 12 13  1  0  0  0  0
 13 17  1  0  0  0  0
 13 14  2  0  0  0  0
 14 15  1  0  0  0  0
 15 16  2  0  0  0  0
 16 17  1  0  0  0  0
 16 43  1  0  0  0  0
 17 18  1  0  0  0  0
 18 19  1  0  0  0  0
 18 44  1  0  0  0  0
 18 45  1  0  0  0  0
 19 20  1  0  0  0  0
 19 22  1  0  0  0  0
 19 46  1  0  0  0  0
 20 21  1  0  0  0  0
 20 47  1  0  0  0  0
 20 48  1  0  0  0  0
 21 49  1  0  0  0  0
 22 26  1  0  0  0  0
 22 23  1  0  0  0  0
 22 50  1  0  0  0  0
 23 24  1  0  0  0  0
 23 51  1  0  0  0  0
 23 52  1  0  0  0  0
 24 25  1  0  0  0  0
 24 53  1  0  0  0  0
 24 54  1  0  0  0  0
 25 26  1  0  0  0  0
 26 55  1  0  0  0  0
 26 56  1  0  0  0  0
 27 28  1  0  0  0  0
 27 29  1  0  0  0  0
 28 57  1  0  0  0  0
 28 58  1  0  0  0  0
 28 59  1  0  0  0  0
 29 60  1  0  0  0  0
 29 61  1  0  0  0  0
M  END
> <s_m_source_file>
AV-unprocessed.smi

> <i_m_source_file_index>
21

> <i_lp_mmshare_version>
43012

> <i_f3d_flags>
0

> <s_epik_input>
W0NIM11PW0NASF0xW0NIMl1bQ0BIXShOKFtDSDNdKVtDSDJdMSlbQ0gyXU4oW0NIM10pYyhuW2NIXW4yKWMoYzIzKW5bY0hdbjNbQ0gyXVtDQEhdKFtDSDJdW09IXSlbQ0BASF00W0NIMl1bQ0gyXU9bQ0gyXTQ=

> <s_epik_cmdline>
J2VwaWtfcHl0aG9uJywgJy1waCcsICc3LjAnLCAnLXRuJywgJzgnLCAnLW1hJywgJzIwMCcsICctbWV0YWxfYmluZGluZycsICctaW1hZScsICc8aW5maWxlLm1hZT4nLCAnLW9tYWUnLCAnPG91dGZpbGUubWFlPic=

> <r_lp_tautomer_probability>
1

> <r_epik_Ionization_Penalty>
2.17574

> <r_epik_Ionization_Penalty_Charging>
0

> <r_epik_Ionization_Penalty_Neutral>
2.17574

> <r_epik_State_Penalty>
2.31336

> <r_epik_Charging_Adjusted_Penalty>
2.31336

> <i_epik_Tot_Q>
0

> <i_epik_Tot_abs_Q>
0

> <r_epik_Metal_State_Penalty>
2.31025

> <b_epik_Metal_Only>
0

> <s_lp_Force_Field>
OPLS_2005

> <r_lp_Energy>
69.8382

> <b_lp_Chiralities_Consistent>
1

> <s_lp_Variant>
AV-unprocessed.smi:21-40

> <Gold.Version>
5.8.1

> <Gold.Id.Protein>
6NUR|6NUR_protein|mol2

> <Gold.PLP.Fitness>
42.2351

> <Gold.PLP.PLP>
-39.6249

> <Gold.PLP.part.hbond>
-3.0000

> <Gold.PLP.part.metal>
0.0000

> <Gold.PLP.part.buried>
2.0351

> <Gold.PLP.part.nonpolar>
-37.9794

> <Gold.PLP.part.repulsive>
0.2979

> <Gold.PLP.ligand.clash>
0.0000

> <Gold.PLP.ligand.torsion>
1.2087

> <Gold.PLP.Chemscore.Hbond>
1.3413

> <Gold.PLP.Chemscore.CHOScore>
0.0000

> <Gold.PLP.Chemscore.Metal>
0.0000

> <Gold.Chemscore.Hbonds>
donor molecule, donor type, donor heavy atom, donor atom, acceptor molecule, acceptor atom, score
      P1  H 10713 10718       L1    12  0.39
      P1  H 10752 10763       L1     2  0.83

> <Gold.PLP.Chemscore.Internal.Correction>
1.0038

> <Gold.Rescore>
     Score         DG    S(hbond)    S(metal)    S(lipo)     H(rot)  DE(clash)    DE(int)     intcor
     10.30     -15.88       0.84        0.00     130.58       3.00       3.11       2.46       ----

> <Gold.Chemscore.Fitness>
10.3018

> <Gold.Chemscore.DG>
-15.8773

> <Gold.Chemscore.ZeroCoef>
-5.4800

> <Gold.Chemscore.Hbond>
0.8405

> <Gold.Chemscore.Metal>
0.0000

> <Gold.Chemscore.Lipo>
130.5826

> <Gold.Chemscore.Internal_Hbond>
0.0000

> <Gold.Chemscore.DEClash>
3.1131

> <Gold.Chemscore.DEInternal>
2.4624

> <Gold.Chemscore.Rot>
3.0031

> <Gold.Chemscore.Internal.Correction>
   9.000000E+99

> <Gold.Chemscore.Hbonds>
donor molecule, donor type, donor heavy atom, donor atom, acceptor molecule, acceptor atom, score
      P1  H 10752 10763       L1     2  0.48

> <Gold.Chemscore.Hbond.Weighted>
-2.8071

> <Gold.Chemscore.Metal.Weighted>
-0.0000

> <Gold.Chemscore.Lipo.Weighted>
-15.2782

> <Gold.Chemscore.Internal_Hbond.Weighted>
0.0000

> <Gold.Chemscore.DEClash.Weighted>
3.1131

> <Gold.Chemscore.DEInternal.Weighted>
2.4624

> <Gold.Chemscore.Rot.Weighted>
7.6880

> <Gold.Chemscore.Internal.Correction.Weighted>
   9.000000E+99

> <Gold.Protein.RotatedTorsions>
[ 6907 6896 6895 6894 ] final   -3.73 input  -60.11 | X-H torsion
[ 7974 7965 7964 7962 ] final  -20.72 input  175.53 | X-H torsion
[ 8008 7997 7996 7995 ] final -145.80 input   59.86 | X-H torsion
[ 10167 10162 10161 10158 ] final    8.85 input  -65.29 | X-H torsion
[ 10718 10713 10712 10709 ] final  171.32 input   66.30 | X-H torsion
[ 10763 10752 10751 10750 ] final  -62.22 input  -60.55 | X-H torsion
[ 11005 11000 10999 10996 ] final   76.32 input  -57.11 | X-H torsion

> <Gold.Protein.ActiveResidues>
 VAL166  LYS551  ARG553  GLY616  TRP617  ASP618  TYR619  PRO620  LYS621  CYS622 
 ASP623  PHE694  ASN695  SER759  ASP760  ASP761  ALA762  ILE779  LEU786  VAL792 
 PHE793  MET794  SER795  GLU796  ALA797  LYS798  CYS799  TRP800  GLU811  SER814 

> <Gold.Protein.RotatedAtoms>
  151.5091  135.1064  159.9848 H   0  0  0  0  0  0  0  0  0  0  0  0  # atno 6907 bound_to 6896
  152.4669  133.7939  159.6927 H   0  0  0  0  0  0  0  0  0  0  0  0  # atno 6908 bound_to 6896
  150.8658  133.7514  159.3003 H   0  0  0  0  0  0  0  0  0  0  0  0  # atno 6909 bound_to 6896
  146.1773  140.4241  142.8508 H   0  0  0  0  0  0  0  0  0  0  0  0  # atno 7974 bound_to 7965
  155.5490  140.0615  157.2854 H   0  0  0  0  0  0  0  0  0  0  0  0  # atno 8008 bound_to 7997
  154.4427  140.1906  156.0712 H   0  0  0  0  0  0  0  0  0  0  0  0  # atno 8009 bound_to 7997
  156.0530  140.3282  155.7376 H   0  0  0  0  0  0  0  0  0  0  0  0  # atno 8010 bound_to 7997
  140.6290  143.8036  150.7270 H   0  0  0  0  0  0  0  0  0  0  0  0  # atno 10167 bound_to 10162
  156.9953  131.0160  151.2845 H   0  0  0  0  0  0  0  0  0  0  0  0  # atno 10718 bound_to 10713
  154.2966  135.6243  153.5407 H   0  0  0  0  0  0  0  0  0  0  0  0  # atno 10763 bound_to 10752
  152.9845  135.5668  154.5331 H   0  0  0  0  0  0  0  0  0  0  0  0  # atno 10764 bound_to 10752
  154.4952  135.2869  155.1440 H   0  0  0  0  0  0  0  0  0  0  0  0  # atno 10765 bound_to 10752
  139.9303  134.7591  156.1381 H   0  0  0  0  0  0  0  0  0  0  0  0  # atno 11005 bound_to 11000
  144.8256  140.6623  143.6324 LP  0  0  0  0  0  0  0  0  0  0  0  0  # atno 17320 bound_to 7965
  145.4176  139.1569  143.4091 LP  0  0  0  0  0  0  0  0  0  0  0  0  # atno 17321 bound_to 7965
  140.1643  143.4248  152.2045 LP  0  0  0  0  0  0  0  0  0  0  0  0  # atno 17342 bound_to 10162
  139.5506  144.7335  151.4446 LP  0  0  0  0  0  0  0  0  0  0  0  0  # atno 17343 bound_to 10162
  157.5429  130.8132  149.8051 LP  0  0  0  0  0  0  0  0  0  0  0  0  # atno 17370 bound_to 10713
  156.0191  130.3802  150.2016 LP  0  0  0  0  0  0  0  0  0  0  0  0  # atno 17371 bound_to 10713
  141.0888  133.6723  156.2495 LP  0  0  0  0  0  0  0  0  0  0  0  0  # atno 17394 bound_to 11000
  140.6219  134.5352  157.5548 LP  0  0  0  0  0  0  0  0  0  0  0  0  # atno 17395 bound_to 11000

$$$$
