AV-unprocessed.smi:2955|AV-procd|sdf|11304|dock4
  -GOLD-   2272016203D 1   1.00000     0.00000
 Structure written by MMmdl.
 46 48  0  0  0  0  0  0  0  0  2 V2000
  152.5744  143.6319  162.3989 C   0  0  0  0  0  0  0  0  0  0  0  0
  152.1262  143.6619  160.9520 C   0  0  0  0  0  0  0  0  0  0  0  0
  151.7437  144.8795  160.3550 C   0  0  0  0  0  0  0  0  0  0  0  0
  151.3280  144.9029  159.0112 C   0  0  0  0  0  0  0  0  0  0  0  0
  151.2950  143.7109  158.2634 C   0  0  0  0  0  0  0  0  0  0  0  0
  151.6771  142.4842  158.8439 C   0  0  0  0  0  0  0  0  0  0  0  0
  151.6146  141.3673  158.0397 O   0  0  0  0  0  0  0  0  0  0  0  0
  150.6468  141.3368  156.9986 C   0  0  0  0  0  0  0  0  0  0  0  0
  151.2617  140.6725  155.7591 C   0  0  0  0  0  0  0  0  0  0  0  0
  150.2559  139.9672  154.9499 N   0  0  0  0  0  0  0  0  0  0  0  0
  150.2326  138.6849  154.4797 C   0  0  0  0  0  0  0  0  0  0  0  0
  151.2850  137.6304  154.6659 C   0  0  1  0  0  0  0  0  0  0  0  0
  152.6900  138.2102  154.4477 C   0  0  0  0  0  0  0  0  0  0  0  0
  151.2041  137.0177  155.9857 N   0  0  0  0  0  0  0  0  0  0  0  0
  150.8977  135.7321  156.1992 C   0  0  0  0  0  0  0  0  0  0  0  0
  150.6574  134.9397  155.2923 O   0  0  0  0  0  0  0  0  0  0  0  0
  149.0758  138.5401  153.7712 N   0  3  0  0  0  0  0  0  0  0  0  0
  148.3445  139.7268  153.8073 C   0  0  0  0  0  0  0  0  0  0  0  0
  147.1145  140.0563  153.2464 C   0  0  0  0  0  0  0  0  0  0  0  0
  146.6438  141.3652  153.4785 C   0  0  0  0  0  0  0  0  0  0  0  0
  147.3874  142.2880  154.2425 C   0  0  0  0  0  0  0  0  0  0  0  0
  148.6340  141.9424  154.8048 C   0  0  0  0  0  0  0  0  0  0  0  0
  149.0938  140.6470  154.5680 C   0  0  0  0  0  0  0  0  0  0  0  0
  152.0955  142.4698  160.1988 C   0  0  0  0  0  0  0  0  0  0  0  0
  152.1821  144.4877  162.9494 H   0  0  0  0  0  0  0  0  0  0  0  0
  153.6627  143.6563  162.4565 H   0  0  0  0  0  0  0  0  0  0  0  0
  152.2237  142.7250  162.8923 H   0  0  0  0  0  0  0  0  0  0  0  0
  151.7671  145.7973  160.9243 H   0  0  0  0  0  0  0  0  0  0  0  0
  151.0335  145.8357  158.5537 H   0  0  0  0  0  0  0  0  0  0  0  0
  150.9715  143.7389  157.2334 H   0  0  0  0  0  0  0  0  0  0  0  0
  149.7665  140.7771  157.3184 H   0  0  0  0  0  0  0  0  0  0  0  0
  150.3306  142.3497  156.7453 H   0  0  0  0  0  0  0  0  0  0  0  0
  151.7737  141.4058  155.1360 H   0  0  0  0  0  0  0  0  0  0  0  0
  152.0216  139.9503  156.0572 H   0  0  0  0  0  0  0  0  0  0  0  0
  151.1382  136.8487  153.9198 H   0  0  0  0  0  0  0  0  0  0  0  0
  152.7804  138.6500  153.4539 H   0  0  0  0  0  0  0  0  0  0  0  0
  153.4516  137.4345  154.5333 H   0  0  0  0  0  0  0  0  0  0  0  0
  152.9243  138.9865  155.1770 H   0  0  0  0  0  0  0  0  0  0  0  0
  151.3993  137.6034  156.7847 H   0  0  0  0  0  0  0  0  0  0  0  0
  150.8933  135.4823  157.2716 H   0  0  0  0  0  0  0  0  0  0  0  0
  146.5424  139.3501  152.6627 H   0  0  0  0  0  0  0  0  0  0  0  0
  145.6929  141.6671  153.0635 H   0  0  0  0  0  0  0  0  0  0  0  0
  146.9939  143.2817  154.4006 H   0  0  0  0  0  0  0  0  0  0  0  0
  149.1931  142.6566  155.3905 H   0  0  0  0  0  0  0  0  0  0  0  0
  152.3970  141.5533  160.6827 H   0  0  0  0  0  0  0  0  0  0  0  0
  148.8077  137.6851  153.3012 H   0  0  0  0  0  0  0  0  0  0  0  0
  1  2  1  0  0  0  0
  1 25  1  0  0  0  0
  1 26  1  0  0  0  0
  1 27  1  0  0  0  0
  2 24  1  0  0  0  0
  2  3  2  0  0  0  0
  3  4  1  0  0  0  0
  3 28  1  0  0  0  0
  4  5  2  0  0  0  0
  4 29  1  0  0  0  0
  5  6  1  0  0  0  0
  5 30  1  0  0  0  0
  6  7  1  0  0  0  0
  6 24  2  0  0  0  0
  7  8  1  0  0  0  0
  8  9  1  0  0  0  0
  8 31  1  0  0  0  0
  8 32  1  0  0  0  0
  9 10  1  0  0  0  0
  9 33  1  0  0  0  0
  9 34  1  0  0  0  0
 10 23  1  0  0  0  0
 10 11  1  0  0  0  0
 11 12  1  0  0  0  0
 11 17  2  0  0  0  0
 12 13  1  0  0  0  0
 12 14  1  0  0  0  0
 12 35  1  0  0  0  0
 13 36  1  0  0  0  0
 13 37  1  0  0  0  0
 13 38  1  0  0  0  0
 14 15  1  0  0  0  0
 14 39  1  0  0  0  0
 15 16  2  0  0  0  0
 15 40  1  0  0  0  0
 17 18  1  0  0  0  0
 17 46  1  0  0  0  0
 18 23  2  0  0  0  0
 18 19  1  0  0  0  0
 19 20  2  0  0  0  0
 19 41  1  0  0  0  0
 20 21  1  0  0  0  0
 20 42  1  0  0  0  0
 21 22  2  0  0  0  0
 21 43  1  0  0  0  0
 22 23  1  0  0  0  0
 22 44  1  0  0  0  0
 24 45  1  0  0  0  0
M  CHG  1  17   1
M  END
> <s_m_source_file>
AV-unprocessed.smi

> <i_m_source_file_index>
2955

> <i_lp_mmshare_version>
43012

> <i_f3d_flags>
0

> <s_epik_input>
W0NIM11jMVtjSF1bY0hdW2NIXWMoW2NIXTEpT1tDSDJdW0NIMl1uKGMobjIpW0NASF0oW0NIM10pW05IXVtDSF09TyljKGMyMylbY0hdW2NIXVtjSF1bY0hdMw==

> <s_epik_cmdline>
J2VwaWtfcHl0aG9uJywgJy1waCcsICc3LjAnLCAnLXRuJywgJzgnLCAnLW1hJywgJzIwMCcsICctbWV0YWxfYmluZGluZycsICctaW1hZScsICc8aW5maWxlLm1hZT4nLCAnLW9tYWUnLCAnPG91dGZpbGUubWFlPic=

> <r_lp_tautomer_probability>
1

> <r_epik_Ionization_Penalty>
1.15027

> <r_epik_Ionization_Penalty_Charging>
1.15027

> <r_epik_Ionization_Penalty_Neutral>
5.5802e-08

> <r_epik_State_Penalty>
1.21159

> <r_epik_Charging_Adjusted_Penalty>
2.36186

> <i_epik_Tot_Q>
1

> <i_epik_Tot_abs_Q>
1

> <r_epik_Metal_State_Penalty>
1.29223

> <b_epik_Metal_Only>
0

> <s_lp_Force_Field>
OPLS_2005

> <r_lp_Energy>
16.9999

> <b_lp_Chiralities_Consistent>
1

> <s_lp_Variant>
AV-unprocessed.smi:2955-4

> <Gold.Version>
5.8.1

> <Gold.Id.Protein>
6NUR|6NUR_protein|mol2

> <Gold.PLP.Fitness>
58.4808

> <Gold.PLP.PLP>
-55.0851

> <Gold.PLP.part.hbond>
-2.0406

> <Gold.PLP.part.metal>
0.0000

> <Gold.PLP.part.buried>
0.9652

> <Gold.PLP.part.nonpolar>
-54.1906

> <Gold.PLP.part.repulsive>
0.2339

> <Gold.PLP.ligand.clash>
0.0000

> <Gold.PLP.ligand.torsion>
1.3596

> <Gold.PLP.Chemscore.Hbond>
2.0000

> <Gold.PLP.Chemscore.CHOScore>
0.0000

> <Gold.PLP.Chemscore.Metal>
0.0000

> <Gold.Chemscore.Hbonds>
donor molecule, donor type, donor heavy atom, donor atom, acceptor molecule, acceptor atom, score
      L1  H    17    46       P1  7948  1.98

> <Gold.PLP.Chemscore.Internal.Correction>
0.1148

> <Gold.Rescore>
     Score         DG    S(hbond)    S(metal)    S(lipo)     H(rot)  DE(clash)    DE(int)     intcor
     16.75     -19.57       0.70        0.00     151.36       2.32       0.47       2.35       ----

> <Gold.Chemscore.Fitness>
16.7450

> <Gold.Chemscore.DG>
-19.5685

> <Gold.Chemscore.ZeroCoef>
-5.4800

> <Gold.Chemscore.Hbond>
0.6958

> <Gold.Chemscore.Metal>
0.0000

> <Gold.Chemscore.Lipo>
151.3621

> <Gold.Chemscore.Internal_Hbond>
0.0000

> <Gold.Chemscore.DEClash>
0.4687

> <Gold.Chemscore.DEInternal>
2.3547

> <Gold.Chemscore.Rot>
2.3223

> <Gold.Chemscore.Internal.Correction>
   9.000000E+99

> <Gold.Chemscore.Hbonds>
donor molecule, donor type, donor heavy atom, donor atom, acceptor molecule, acceptor atom, score
      L1  H    17    46       P1  7948  0.90

> <Gold.Chemscore.Hbond.Weighted>
-2.3241

> <Gold.Chemscore.Metal.Weighted>
-0.0000

> <Gold.Chemscore.Lipo.Weighted>
-17.7094

> <Gold.Chemscore.Internal_Hbond.Weighted>
0.0000

> <Gold.Chemscore.DEClash.Weighted>
0.4687

> <Gold.Chemscore.DEInternal.Weighted>
2.3547

> <Gold.Chemscore.Rot.Weighted>
5.9450

> <Gold.Chemscore.Internal.Correction.Weighted>
   9.000000E+99

> <Gold.Protein.RotatedTorsions>
[ 6907 6896 6895 6894 ] final  168.31 input  -60.11 | X-H torsion
[ 7974 7965 7964 7962 ] final  -52.54 input  175.53 | X-H torsion
[ 8008 7997 7996 7995 ] final  102.58 input   59.86 | X-H torsion
[ 10167 10162 10161 10158 ] final   -4.64 input  -65.29 | X-H torsion
[ 10718 10713 10712 10709 ] final  116.06 input   66.30 | X-H torsion
[ 10763 10752 10751 10750 ] final  -13.53 input  -60.55 | X-H torsion
[ 11005 11000 10999 10996 ] final   -7.01 input  -57.11 | X-H torsion

> <Gold.Protein.ActiveResidues>
 VAL166  LYS551  ARG553  GLY616  TRP617  ASP618  TYR619  PRO620  LYS621  CYS622 
 ASP623  PHE694  ASN695  SER759  ASP760  ASP761  ALA762  ILE779  LEU786  VAL792 
 PHE793  MET794  SER795  GLU796  ALA797  LYS798  CYS799  TRP800  GLU811  SER814 

> <Gold.Protein.RotatedAtoms>
  151.8497  133.3437  159.3669 H   0  0  0  0  0  0  0  0  0  0  0  0  # atno 6907 bound_to 6896
  150.7210  134.5311  159.5710 H   0  0  0  0  0  0  0  0  0  0  0  0  # atno 6908 bound_to 6896
  152.2802  134.7837  160.0449 H   0  0  0  0  0  0  0  0  0  0  0  0  # atno 6909 bound_to 6896
  145.9068  140.7948  142.9715 H   0  0  0  0  0  0  0  0  0  0  0  0  # atno 7974 bound_to 7965
  156.1406  140.3179  155.8489 H   0  0  0  0  0  0  0  0  0  0  0  0  # atno 8008 bound_to 7997
  155.4161  140.0509  157.3046 H   0  0  0  0  0  0  0  0  0  0  0  0  # atno 8009 bound_to 7997
  154.4973  140.2115  155.9432 H   0  0  0  0  0  0  0  0  0  0  0  0  # atno 8010 bound_to 7997
  140.6935  143.6400  150.8444 H   0  0  0  0  0  0  0  0  0  0  0  0  # atno 10167 bound_to 10162
  157.6184  131.1020  150.7419 H   0  0  0  0  0  0  0  0  0  0  0  0  # atno 10718 bound_to 10713
  153.5146  135.7016  153.5763 H   0  0  0  0  0  0  0  0  0  0  0  0  # atno 10763 bound_to 10752
  153.3838  135.3913  155.1875 H   0  0  0  0  0  0  0  0  0  0  0  0  # atno 10764 bound_to 10752
  154.8700  135.3841  154.4629 H   0  0  0  0  0  0  0  0  0  0  0  0  # atno 10765 bound_to 10752
  140.7081  133.8932  155.8731 H   0  0  0  0  0  0  0  0  0  0  0  0  # atno 11005 bound_to 11000
  144.6740  140.1764  143.7410 LP  0  0  0  0  0  0  0  0  0  0  0  0  # atno 17320 bound_to 7965
  145.8721  139.2278  143.1655 LP  0  0  0  0  0  0  0  0  0  0  0  0  # atno 17321 bound_to 7965
  140.0116  143.5637  152.2837 LP  0  0  0  0  0  0  0  0  0  0  0  0  # atno 17342 bound_to 10162
  139.6363  144.7650  151.2432 LP  0  0  0  0  0  0  0  0  0  0  0  0  # atno 17343 bound_to 10162
  156.7781  130.4850  149.5406 LP  0  0  0  0  0  0  0  0  0  0  0  0  # atno 17370 bound_to 10713
  156.1317  130.6182  151.0342 LP  0  0  0  0  0  0  0  0  0  0  0  0  # atno 17371 bound_to 10713
  141.0107  134.1024  157.4224 LP  0  0  0  0  0  0  0  0  0  0  0  0  # atno 17394 bound_to 11000
  139.8879  135.0093  156.6587 LP  0  0  0  0  0  0  0  0  0  0  0  0  # atno 17395 bound_to 11000

$$$$
