AV-unprocessed.smi:34|AV-procd|sdf|224|dock2
  -GOLD-   2262015543D 1   1.00000     0.00000
 Structure written by MMmdl.
 55 59  0  0  0  0  0  0  0  0  1 V2000
  152.9302  140.0711  158.2228 O   0  0  0  0  0  0  0  0  0  0  0  0
  152.1744  140.9773  157.8711 C   0  0  0  0  0  0  0  0  0  0  0  0
  151.1977  140.8023  156.8102 N   0  0  0  0  0  0  0  0  0  0  0  0
  151.0020  139.7189  156.0224 C   0  0  0  0  0  0  0  0  0  0  0  0
  150.9571  139.8009  154.6665 N   0  0  0  0  0  0  0  0  0  0  0  0
  150.7630  138.7015  153.9321 C   0  0  0  0  0  0  0  0  0  0  0  0
  150.5938  137.4433  154.3435 N   0  0  0  0  0  0  0  0  0  0  0  0
  150.6389  137.3518  155.7038 C   0  0  0  0  0  0  0  0  0  0  0  0
  150.8375  138.4350  156.6048 C   0  0  0  0  0  0  0  0  0  0  0  0
  150.8225  137.9673  157.9127 N   0  0  0  0  0  0  0  0  0  0  0  0
  150.6220  136.6828  157.7868 C   0  0  0  0  0  0  0  0  0  0  0  0
  150.5039  136.2274  156.4925 N   0  0  0  0  0  0  0  0  0  0  0  0
  150.2662  134.8257  156.0360 C   0  0  1  0  0  0  0  0  0  0  0  0
  150.2109  134.0117  157.1641 O   0  0  0  0  0  0  0  0  0  0  0  0
  149.3040  132.9530  156.9024 C   0  0  1  0  0  0  0  0  0  0  0  0
  148.8515  132.2848  158.2063 C   0  0  0  0  0  0  0  0  0  0  0  0
  148.4196  133.2855  159.1134 O   0  0  0  0  0  0  0  0  0  0  0  0
  148.0311  132.9467  160.3580 C   0  0  0  0  0  0  0  0  0  0  0  0
  147.9545  131.7826  160.7562 O   0  0  0  0  0  0  0  0  0  0  0  0
  147.6992  134.1296  161.2039 C   0  0  0  0  0  0  0  0  0  0  0  0
  147.9798  135.4286  160.7195 C   0  0  0  0  0  0  0  0  0  0  0  0
  147.6807  136.5643  161.4970 C   0  0  0  0  0  0  0  0  0  0  0  0
  147.0958  136.4149  162.7679 C   0  0  0  0  0  0  0  0  0  0  0  0
  146.8108  135.1282  163.2606 C   0  0  0  0  0  0  0  0  0  0  0  0
  147.1104  133.9912  162.4850 C   0  0  0  0  0  0  0  0  0  0  0  0
  148.1839  133.6437  156.1215 C   0  0  1  0  0  0  0  0  0  0  0  0
  147.3268  134.2445  156.9486 F   0  0  0  0  0  0  0  0  0  0  0  0
  148.9200  134.6960  155.2995 C   0  0  2  0  0  0  0  0  0  0  0  0
  149.0861  134.2335  153.9740 O   0  0  0  0  0  0  0  0  0  0  0  0
  152.1548  142.3052  158.5710 C   0  0  0  0  0  0  0  0  0  0  0  0
  152.7870  142.4520  159.8264 C   0  0  0  0  0  0  0  0  0  0  0  0
  152.7864  143.6976  160.4840 C   0  0  0  0  0  0  0  0  0  0  0  0
  152.1600  144.8087  159.8887 C   0  0  0  0  0  0  0  0  0  0  0  0
  151.5385  144.6746  158.6328 C   0  0  0  0  0  0  0  0  0  0  0  0
  151.5390  143.4297  157.9739 C   0  0  0  0  0  0  0  0  0  0  0  0
  150.6037  141.5969  156.6228 H   0  0  0  0  0  0  0  0  0  0  0  0
  150.7399  138.8513  152.8629 H   0  0  0  0  0  0  0  0  0  0  0  0
  150.5553  136.0270  158.6428 H   0  0  0  0  0  0  0  0  0  0  0  0
  151.1313  134.5719  155.4211 H   0  0  0  0  0  0  0  0  0  0  0  0
  149.7927  132.2238  156.2532 H   0  0  0  0  0  0  0  0  0  0  0  0
  148.0520  131.5688  158.0091 H   0  0  0  0  0  0  0  0  0  0  0  0
  149.6825  131.7387  158.6545 H   0  0  0  0  0  0  0  0  0  0  0  0
  148.4298  135.5682  159.7473 H   0  0  0  0  0  0  0  0  0  0  0  0
  147.9008  137.5510  161.1171 H   0  0  0  0  0  0  0  0  0  0  0  0
  146.8663  137.2860  163.3638 H   0  0  0  0  0  0  0  0  0  0  0  0
  146.3612  135.0121  164.2356 H   0  0  0  0  0  0  0  0  0  0  0  0
  146.8787  133.0184  162.8934 H   0  0  0  0  0  0  0  0  0  0  0  0
  147.5977  132.9473  155.5202 H   0  0  0  0  0  0  0  0  0  0  0  0
  148.3820  135.6454  155.2834 H   0  0  0  0  0  0  0  0  0  0  0  0
  149.2608  134.9760  153.4162 H   0  0  0  0  0  0  0  0  0  0  0  0
  153.2728  141.6090  160.2963 H   0  0  0  0  0  0  0  0  0  0  0  0
  153.2681  143.8004  161.4453 H   0  0  0  0  0  0  0  0  0  0  0  0
  152.1600  145.7637  160.3931 H   0  0  0  0  0  0  0  0  0  0  0  0
  151.0631  145.5282  158.1725 H   0  0  0  0  0  0  0  0  0  0  0  0
  151.0650  143.3523  157.0061 H   0  0  0  0  0  0  0  0  0  0  0  0
  1  2  2  0  0  0  0
  2  3  1  0  0  0  0
  2 30  1  0  0  0  0
  3  4  1  0  0  0  0
  3 36  1  0  0  0  0
  4  9  1  0  0  0  0
  4  5  2  0  0  0  0
  5  6  1  0  0  0  0
  6  7  2  0  0  0  0
  6 37  1  0  0  0  0
  7  8  1  0  0  0  0
  8 12  1  0  0  0  0
  8  9  2  0  0  0  0
  9 10  1  0  0  0  0
 10 11  2  0  0  0  0
 11 12  1  0  0  0  0
 11 38  1  0  0  0  0
 12 13  1  0  0  0  0
 13 28  1  0  0  0  0
 13 14  1  0  0  0  0
 13 39  1  0  0  0  0
 14 15  1  0  0  0  0
 15 16  1  0  0  0  0
 15 26  1  0  0  0  0
 15 40  1  0  0  0  0
 16 17  1  0  0  0  0
 16 41  1  0  0  0  0
 16 42  1  0  0  0  0
 17 18  1  0  0  0  0
 18 19  2  0  0  0  0
 18 20  1  0  0  0  0
 20 25  1  0  0  0  0
 20 21  2  0  0  0  0
 21 22  1  0  0  0  0
 21 43  1  0  0  0  0
 22 23  2  0  0  0  0
 22 44  1  0  0  0  0
 23 24  1  0  0  0  0
 23 45  1  0  0  0  0
 24 25  2  0  0  0  0
 24 46  1  0  0  0  0
 25 47  1  0  0  0  0
 26 27  1  0  0  0  0
 26 28  1  0  0  0  0
 26 48  1  0  0  0  0
 28 29  1  0  0  0  0
 28 49  1  0  0  0  0
 29 50  1  0  0  0  0
 30 35  1  0  0  0  0
 30 31  2  0  0  0  0
 31 32  1  0  0  0  0
 31 51  1  0  0  0  0
 32 33  2  0  0  0  0
 32 52  1  0  0  0  0
 33 34  1  0  0  0  0
 33 53  1  0  0  0  0
 34 35  2  0  0  0  0
 34 54  1  0  0  0  0
 35 55  1  0  0  0  0
M  END
> <s_m_source_file>
AV-unprocessed.smi

> <i_m_source_file_index>
34

> <i_lp_mmshare_version>
43012

> <i_f3d_flags>
0

> <s_epik_input>
W2NIXTFbY0hdW2NIXVtjSF1bY0hdYzFDKD1PKVtOSF1jKG5bY0hdbjIpYyhjMjMpbltjSF1uM1tDQEBIXTRPW0NASF0oW0NAQEhdKEYpW0NASF00W09IXSlbQ0gyXU9DKD1PKWM1W2NIXVtjSF1bY0hdW2NIXVtjSF01

> <s_epik_cmdline>
J2VwaWtfcHl0aG9uJywgJy1waCcsICc3LjAnLCAnLXRuJywgJzgnLCAnLW1hJywgJzIwMCcsICctbWV0YWxfYmluZGluZycsICctaW1hZScsICc8aW5maWxlLm1hZT4nLCAnLW9tYWUnLCAnPG91dGZpbGUubWFlPic=

> <r_lp_tautomer_probability>
1

> <r_epik_Ionization_Penalty>
0.00257489

> <r_epik_Ionization_Penalty_Charging>
0

> <r_epik_Ionization_Penalty_Neutral>
0.00257489

> <r_epik_State_Penalty>
0.00519398

> <r_epik_Charging_Adjusted_Penalty>
0.00519398

> <i_epik_Tot_Q>
0

> <i_epik_Tot_abs_Q>
0

> <r_epik_Metal_State_Penalty>
0.335891

> <b_epik_Metal_Only>
0

> <s_epik_Chemistry_Notes>
This compound has an ester and may undergo hydrolysis at high or low pH. This compound contains an acetal/aminal-like group ( X-CH(R)-Y where X, Y are N, S, or O) that may be acid/base labile, releasing an aldehyde.

> <s_lp_Force_Field>
OPLS_2005

> <r_lp_Energy>
46.9795

> <b_lp_Chiralities_Consistent>
1

> <s_lp_Variant>
AV-unprocessed.smi:34-10

> <Gold.Version>
5.8.1

> <Gold.Id.Protein>
6NUR|6NUR_protein|mol2

> <Gold.PLP.Fitness>
66.5323

> <Gold.PLP.PLP>
-54.8065

> <Gold.PLP.part.hbond>
-4.2056

> <Gold.PLP.part.metal>
0.0000

> <Gold.PLP.part.buried>
-7.7048

> <Gold.PLP.part.nonpolar>
-43.8339

> <Gold.PLP.part.repulsive>
0.3991

> <Gold.PLP.ligand.clash>
0.0000

> <Gold.PLP.ligand.torsion>
0.6784

> <Gold.PLP.Chemscore.Hbond>
3.2067

> <Gold.PLP.Chemscore.CHOScore>
0.9406

> <Gold.PLP.Chemscore.Metal>
0.0000

> <Gold.Chemscore.Hbonds>
donor molecule, donor type, donor heavy atom, donor atom, acceptor molecule, acceptor atom, score
      L1  H    29    50       P1  7948  0.75
      P1  H  6896  6907       L1    14  0.42
      P1  H  7989  7998       L1     5  1.00
      P1  H  7997  8009       L1     1  0.98
      L1  C     6    37       P1  7957  0.92

> <Gold.PLP.Chemscore.Internal.Correction>
0.6407

> <Gold.Rescore>
     Score         DG    S(hbond)    S(metal)    S(lipo)     H(rot)  DE(clash)    DE(int)     intcor
     16.97     -22.05       2.18        0.00     139.00       2.72       1.72       3.37       ----

> <Gold.Chemscore.Fitness>
16.9661

> <Gold.Chemscore.DG>
-22.0499

> <Gold.Chemscore.ZeroCoef>
-5.4800

> <Gold.Chemscore.Hbond>
2.1777

> <Gold.Chemscore.Metal>
0.0000

> <Gold.Chemscore.Lipo>
139.0023

> <Gold.Chemscore.Internal_Hbond>
0.0000

> <Gold.Chemscore.DEClash>
1.7169

> <Gold.Chemscore.DEInternal>
3.3668

> <Gold.Chemscore.Rot>
2.7215

> <Gold.Chemscore.Internal.Correction>
   9.000000E+99

> <Gold.Chemscore.Hbonds>
donor molecule, donor type, donor heavy atom, donor atom, acceptor molecule, acceptor atom, score
      L1  H    29    50       P1  7948  0.09
      P1  H  6896  6907       L1    14  0.21
      P1  H  7989  7998       L1     5  0.30
      P1  H  7997  8009       L1     1  0.53

> <Gold.Chemscore.Hbond.Weighted>
-7.2737

> <Gold.Chemscore.Metal.Weighted>
-0.0000

> <Gold.Chemscore.Lipo.Weighted>
-16.2633

> <Gold.Chemscore.Internal_Hbond.Weighted>
0.0000

> <Gold.Chemscore.DEClash.Weighted>
1.7169

> <Gold.Chemscore.DEInternal.Weighted>
3.3668

> <Gold.Chemscore.Rot.Weighted>
6.9670

> <Gold.Chemscore.Internal.Correction.Weighted>
   9.000000E+99

> <Gold.Protein.RotatedTorsions>
[ 6907 6896 6895 6894 ] final -134.60 input  -60.11 | X-H torsion
[ 7974 7965 7964 7962 ] final  106.59 input  175.53 | X-H torsion
[ 8008 7997 7996 7995 ] final  163.06 input   59.86 | X-H torsion
[ 10167 10162 10161 10158 ] final    5.42 input  -65.29 | X-H torsion
[ 10718 10713 10712 10709 ] final  -98.55 input   66.30 | X-H torsion
[ 10763 10752 10751 10750 ] final  130.01 input  -60.55 | X-H torsion
[ 11005 11000 10999 10996 ] final   54.65 input  -57.11 | X-H torsion

> <Gold.Protein.ActiveResidues>
 VAL166  LYS551  ARG553  GLY616  TRP617  ASP618  TYR619  PRO620  LYS621  CYS622 
 ASP623  PHE694  ASN695  SER759  ASP760  ASP761  ALA762  ILE779  LEU786  VAL792 
 PHE793  MET794  SER795  GLU796  ALA797  LYS798  CYS799  TRP800  GLU811  SER814 

> <Gold.Protein.RotatedAtoms>
  150.9878  133.6180  159.2712 H   0  0  0  0  0  0  0  0  0  0  0  0  # atno 6907 bound_to 6896
  151.3412  135.0863  159.9381 H   0  0  0  0  0  0  0  0  0  0  0  0  # atno 6908 bound_to 6896
  152.5236  133.9489  159.7716 H   0  0  0  0  0  0  0  0  0  0  0  0  # atno 6909 bound_to 6896
  145.3046  139.2559  143.3795 H   0  0  0  0  0  0  0  0  0  0  0  0  # atno 7974 bound_to 7965
  156.1985  140.1733  156.7949 H   0  0  0  0  0  0  0  0  0  0  0  0  # atno 8008 bound_to 7997
  154.5561  140.0708  156.8776 H   0  0  0  0  0  0  0  0  0  0  0  0  # atno 8009 bound_to 7997
  155.2937  140.3357  155.4253 H   0  0  0  0  0  0  0  0  0  0  0  0  # atno 8010 bound_to 7997
  140.6483  143.7608  150.7534 H   0  0  0  0  0  0  0  0  0  0  0  0  # atno 10167 bound_to 10162
  156.0110  130.5243  150.6540 H   0  0  0  0  0  0  0  0  0  0  0  0  # atno 10718 bound_to 10713
  153.7511  135.3210  155.3321 H   0  0  0  0  0  0  0  0  0  0  0  0  # atno 10763 bound_to 10752
  154.8263  135.4567  154.0931 H   0  0  0  0  0  0  0  0  0  0  0  0  # atno 10764 bound_to 10752
  153.2134  135.6939  153.8169 H   0  0  0  0  0  0  0  0  0  0  0  0  # atno 10765 bound_to 10752
  140.0669  134.5523  155.9089 H   0  0  0  0  0  0  0  0  0  0  0  0  # atno 11005 bound_to 11000
  146.3140  140.3568  142.8661 LP  0  0  0  0  0  0  0  0  0  0  0  0  # atno 17320 bound_to 7965
  144.9065  140.7706  143.5834 LP  0  0  0  0  0  0  0  0  0  0  0  0  # atno 17321 bound_to 7965
  140.1253  143.4575  152.2288 LP  0  0  0  0  0  0  0  0  0  0  0  0  # atno 17342 bound_to 10162
  139.5695  144.7455  151.3928 LP  0  0  0  0  0  0  0  0  0  0  0  0  # atno 17343 bound_to 10162
  157.4295  131.0847  151.1052 LP  0  0  0  0  0  0  0  0  0  0  0  0  # atno 17370 bound_to 10713
  157.1629  130.6233  149.5616 LP  0  0  0  0  0  0  0  0  0  0  0  0  # atno 17371 bound_to 10713
  141.1996  133.6608  156.5855 LP  0  0  0  0  0  0  0  0  0  0  0  0  # atno 17394 bound_to 11000
  140.3685  134.7626  157.4582 LP  0  0  0  0  0  0  0  0  0  0  0  0  # atno 17395 bound_to 11000

$$$$
