AV-unprocessed.smi:780|AV-procd|sdf|3706|dock4
  -GOLD-   22720 1133D 1   1.00000     0.00000
 Structure written by MMmdl.
 48 49  0  0  0  0  0  0  0  0  1 V2000
  152.0038  144.9196  159.4104 C   0  0  0  0  0  0  0  0  0  0  0  0
  152.5480  143.5174  159.5894 C   0  0  0  0  0  0  0  0  0  0  0  0
  153.2230  143.1377  160.8127 C   0  0  0  0  0  0  0  0  0  0  0  0
  153.7008  141.8895  160.9347 C   0  0  0  0  0  0  0  0  0  0  0  0
  153.5663  140.9371  159.9078 N   0  0  0  0  0  0  0  0  0  0  0  0
  154.1859  139.6173  160.1361 C   0  0  0  0  0  0  0  0  0  0  0  0
  154.9048  139.4785  161.4909 C   0  0  0  0  0  0  0  0  0  0  0  0
  155.8681  140.2008  161.7429 O   0  0  0  0  0  0  0  0  0  0  0  0
  154.4495  138.5495  162.3442 N   0  0  0  0  0  0  0  0  0  0  0  0
  155.0163  138.2190  163.6424 C   0  0  0  0  0  0  0  0  0  0  0  0
  154.1422  137.1722  164.3530 C   0  0  0  0  0  0  0  0  0  0  0  0
  154.4052  135.7319  163.8841 C   0  0  0  0  0  0  0  0  0  0  0  0
  153.5234  134.8536  164.5666 O   0  0  0  0  0  0  0  0  0  0  0  0
  153.7676  133.4736  164.3232 C   0  0  0  0  0  0  0  0  0  0  0  0
  153.7368  133.1639  162.8101 C   0  0  0  0  0  0  0  0  0  0  0  0
  153.8664  131.6557  162.5423 C   0  0  0  0  0  0  0  0  0  0  0  0
  152.7854  130.8594  163.2898 C   0  0  0  0  0  0  0  0  0  0  0  0
  152.8108  131.1664  164.7955 C   0  0  0  0  0  0  0  0  0  0  0  0
  152.6755  132.6751  165.0567 C   0  0  0  0  0  0  0  0  0  0  0  0
  152.9350  141.2301  158.7309 C   0  0  0  0  0  0  0  0  0  0  0  0
  152.8244  140.4054  157.8237 O   0  0  0  0  0  0  0  0  0  0  0  0
  152.4151  142.5971  158.6090 C   0  0  0  0  0  0  0  0  0  0  0  0
  152.3879  145.5906  160.1791 H   0  0  0  0  0  0  0  0  0  0  0  0
  150.9153  144.9136  159.4734 H   0  0  0  0  0  0  0  0  0  0  0  0
  152.2915  145.3209  158.4380 H   0  0  0  0  0  0  0  0  0  0  0  0
  153.3467  143.8481  161.6168 H   0  0  0  0  0  0  0  0  0  0  0  0
  154.2227  141.5442  161.8155 H   0  0  0  0  0  0  0  0  0  0  0  0
  153.4251  138.8375  160.0751 H   0  0  0  0  0  0  0  0  0  0  0  0
  154.8952  139.3799  159.3414 H   0  0  0  0  0  0  0  0  0  0  0  0
  153.6509  138.0041  162.0542 H   0  0  0  0  0  0  0  0  0  0  0  0
  156.0294  137.8371  163.5082 H   0  0  0  0  0  0  0  0  0  0  0  0
  155.0880  139.1206  164.2525 H   0  0  0  0  0  0  0  0  0  0  0  0
  154.3039  137.2369  165.4293 H   0  0  0  0  0  0  0  0  0  0  0  0
  153.0916  137.4155  164.1884 H   0  0  0  0  0  0  0  0  0  0  0  0
  154.2510  135.6536  162.8085 H   0  0  0  0  0  0  0  0  0  0  0  0
  155.4408  135.4541  164.0856 H   0  0  0  0  0  0  0  0  0  0  0  0
  154.7364  133.1900  164.7391 H   0  0  0  0  0  0  0  0  0  0  0  0
  152.8044  133.5311  162.3795 H   0  0  0  0  0  0  0  0  0  0  0  0
  154.5407  133.6837  162.2907 H   0  0  0  0  0  0  0  0  0  0  0  0
  153.7967  131.4614  161.4718 H   0  0  0  0  0  0  0  0  0  0  0  0
  154.8541  131.3139  162.8547 H   0  0  0  0  0  0  0  0  0  0  0  0
  151.8037  131.1061  162.8834 H   0  0  0  0  0  0  0  0  0  0  0  0
  152.9290  129.7912  163.1251 H   0  0  0  0  0  0  0  0  0  0  0  0
  152.0065  130.6282  165.2976 H   0  0  0  0  0  0  0  0  0  0  0  0
  153.7439  130.8028  165.2279 H   0  0  0  0  0  0  0  0  0  0  0  0
  152.7290  132.8708  166.1281 H   0  0  0  0  0  0  0  0  0  0  0  0
  151.6910  133.0131  164.7300 H   0  0  0  0  0  0  0  0  0  0  0  0
  151.9122  142.8744  157.6937 H   0  0  0  0  0  0  0  0  0  0  0  0
  1  2  1  0  0  0  0
  1 23  1  0  0  0  0
  1 24  1  0  0  0  0
  1 25  1  0  0  0  0
  2 22  2  0  0  0  0
  2  3  1  0  0  0  0
  3  4  2  0  0  0  0
  3 26  1  0  0  0  0
  4  5  1  0  0  0  0
  4 27  1  0  0  0  0
  5  6  1  0  0  0  0
  5 20  1  0  0  0  0
  6  7  1  0  0  0  0
  6 28  1  0  0  0  0
  6 29  1  0  0  0  0
  7  8  2  0  0  0  0
  7  9  1  0  0  0  0
  9 10  1  0  0  0  0
  9 30  1  0  0  0  0
 10 11  1  0  0  0  0
 10 31  1  0  0  0  0
 10 32  1  0  0  0  0
 11 12  1  0  0  0  0
 11 33  1  0  0  0  0
 11 34  1  0  0  0  0
 12 13  1  0  0  0  0
 12 35  1  0  0  0  0
 12 36  1  0  0  0  0
 13 14  1  0  0  0  0
 14 19  1  0  0  0  0
 14 15  1  0  0  0  0
 14 37  1  0  0  0  0
 15 16  1  0  0  0  0
 15 38  1  0  0  0  0
 15 39  1  0  0  0  0
 16 17  1  0  0  0  0
 16 40  1  0  0  0  0
 16 41  1  0  0  0  0
 17 18  1  0  0  0  0
 17 42  1  0  0  0  0
 17 43  1  0  0  0  0
 18 19  1  0  0  0  0
 18 44  1  0  0  0  0
 18 45  1  0  0  0  0
 19 46  1  0  0  0  0
 19 47  1  0  0  0  0
 20 21  2  0  0  0  0
 20 22  1  0  0  0  0
 22 48  1  0  0  0  0
M  END
> <s_m_source_file>
AV-unprocessed.smi

> <i_m_source_file_index>
780

> <i_lp_mmshare_version>
43012

> <i_f3d_flags>
0

> <s_epik_input>
W0NIM11jMVtjSF1bY0hdbihjKD1PKVtjSF0xKVtDSDJdQyg9TylbTkhdW0NIMl1bQ0gyXVtDSDJdT1tDSF0yW0NIMl1bQ0gyXVtDSDJdW0NIMl1bQ0gyXTI=

> <s_epik_cmdline>
J2VwaWtfcHl0aG9uJywgJy1waCcsICc3LjAnLCAnLXRuJywgJzgnLCAnLW1hJywgJzIwMCcsICctbWV0YWxfYmluZGluZycsICctaW1hZScsICc8aW5maWxlLm1hZT4nLCAnLW9tYWUnLCAnPG91dGZpbGUubWFlPic=

> <r_lp_tautomer_probability>
1

> <r_epik_Ionization_Penalty>
5.32667e-07

> <r_epik_Ionization_Penalty_Charging>
5.13386e-07

> <r_epik_Ionization_Penalty_Neutral>
1.92812e-08

> <r_epik_State_Penalty>
-0

> <r_epik_Charging_Adjusted_Penalty>
5.13386e-07

> <i_epik_Tot_Q>
0

> <i_epik_Tot_abs_Q>
0

> <r_epik_Metal_State_Penalty>
-0

> <b_epik_Metal_Only>
0

> <s_lp_Force_Field>
OPLS_2005

> <r_lp_Energy>
20.4059

> <b_lp_Chiralities_Consistent>
1

> <s_lp_Variant>
AV-unprocessed.smi:780-1

> <Gold.Version>
5.8.1

> <Gold.Id.Protein>
6NUR|6NUR_protein|mol2

> <Gold.PLP.Fitness>
50.3775

> <Gold.PLP.PLP>
-47.8059

> <Gold.PLP.part.hbond>
-2.0000

> <Gold.PLP.part.metal>
0.0000

> <Gold.PLP.part.buried>
-5.1551

> <Gold.PLP.part.nonpolar>
-40.9516

> <Gold.PLP.part.repulsive>
0.1012

> <Gold.PLP.ligand.clash>
0.0000

> <Gold.PLP.ligand.torsion>
0.1393

> <Gold.PLP.Chemscore.Hbond>
0.9280

> <Gold.PLP.Chemscore.CHOScore>
0.0000

> <Gold.PLP.Chemscore.Metal>
0.0000

> <Gold.Chemscore.Hbonds>
donor molecule, donor type, donor heavy atom, donor atom, acceptor molecule, acceptor atom, score
      P1  H  7997  8008       L1    21  0.88

> <Gold.PLP.Chemscore.Internal.Correction>
0.0661

> <Gold.Rescore>
     Score         DG    S(hbond)    S(metal)    S(lipo)     H(rot)  DE(clash)    DE(int)     intcor
     16.15     -17.96       0.78        0.00     127.58       1.97       0.41       1.39       ----

> <Gold.Chemscore.Fitness>
16.1541

> <Gold.Chemscore.DG>
-17.9607

> <Gold.Chemscore.ZeroCoef>
-5.4800

> <Gold.Chemscore.Hbond>
0.7753

> <Gold.Chemscore.Metal>
0.0000

> <Gold.Chemscore.Lipo>
127.5812

> <Gold.Chemscore.Internal_Hbond>
0.0000

> <Gold.Chemscore.DEClash>
0.4127

> <Gold.Chemscore.DEInternal>
1.3939

> <Gold.Chemscore.Rot>
1.9671

> <Gold.Chemscore.Internal.Correction>
   9.000000E+99

> <Gold.Chemscore.Hbonds>
donor molecule, donor type, donor heavy atom, donor atom, acceptor molecule, acceptor atom, score
      P1  H  7997  8008       L1    21  0.73

> <Gold.Chemscore.Hbond.Weighted>
-2.5895

> <Gold.Chemscore.Metal.Weighted>
-0.0000

> <Gold.Chemscore.Lipo.Weighted>
-14.9270

> <Gold.Chemscore.Internal_Hbond.Weighted>
0.0000

> <Gold.Chemscore.DEClash.Weighted>
0.4127

> <Gold.Chemscore.DEInternal.Weighted>
1.3939

> <Gold.Chemscore.Rot.Weighted>
5.0359

> <Gold.Chemscore.Internal.Correction.Weighted>
   9.000000E+99

> <Gold.Protein.RotatedTorsions>
[ 6907 6896 6895 6894 ] final -100.59 input  -60.11 | X-H torsion
[ 7974 7965 7964 7962 ] final   78.85 input  175.53 | X-H torsion
[ 8008 7997 7996 7995 ] final  -76.72 input   59.86 | X-H torsion
[ 10167 10162 10161 10158 ] final  -69.66 input  -65.29 | X-H torsion
[ 10718 10713 10712 10709 ] final  125.56 input   66.30 | X-H torsion
[ 10763 10752 10751 10750 ] final  115.91 input  -60.55 | X-H torsion
[ 11005 11000 10999 10996 ] final    2.19 input  -57.11 | X-H torsion

> <Gold.Protein.ActiveResidues>
 VAL166  LYS551  ARG553  GLY616  TRP617  ASP618  TYR619  PRO620  LYS621  CYS622 
 ASP623  PHE694  ASN695  SER759  ASP760  ASP761  ALA762  ILE779  LEU786  VAL792 
 PHE793  MET794  SER795  GLU796  ALA797  LYS798  CYS799  TRP800  GLU811  SER814 

> <Gold.Protein.RotatedAtoms>
  150.7121  134.0864  159.3915 H   0  0  0  0  0  0  0  0  0  0  0  0  # atno 6907 bound_to 6896
  151.8849  135.0437  160.0501 H   0  0  0  0  0  0  0  0  0  0  0  0  # atno 6908 bound_to 6896
  152.2538  133.5202  159.5377 H   0  0  0  0  0  0  0  0  0  0  0  0  # atno 6909 bound_to 6896
  145.6718  139.2499  143.1864 H   0  0  0  0  0  0  0  0  0  0  0  0  # atno 7974 bound_to 7965
  154.5530  140.0722  156.8699 H   0  0  0  0  0  0  0  0  0  0  0  0  # atno 8008 bound_to 7997
  155.2956  140.3381  155.4232 H   0  0  0  0  0  0  0  0  0  0  0  0  # atno 8009 bound_to 7997
  156.1978  140.1710  156.7948 H   0  0  0  0  0  0  0  0  0  0  0  0  # atno 8010 bound_to 7997
  140.5413  143.2315  151.7084 H   0  0  0  0  0  0  0  0  0  0  0  0  # atno 10167 bound_to 10162
  157.5493  131.1094  150.8729 H   0  0  0  0  0  0  0  0  0  0  0  0  # atno 10718 bound_to 10713
  153.5292  135.3581  155.2668 H   0  0  0  0  0  0  0  0  0  0  0  0  # atno 10763 bound_to 10752
  154.8728  135.4064  154.3170 H   0  0  0  0  0  0  0  0  0  0  0  0  # atno 10764 bound_to 10752
  153.3856  135.7070  153.6600 H   0  0  0  0  0  0  0  0  0  0  0  0  # atno 10765 bound_to 10752
  140.6071  133.9782  155.8159 H   0  0  0  0  0  0  0  0  0  0  0  0  # atno 11005 bound_to 11000
  146.1039  140.7511  142.9536 LP  0  0  0  0  0  0  0  0  0  0  0  0  # atno 17320 bound_to 7965
  144.7054  140.3830  143.7122 LP  0  0  0  0  0  0  0  0  0  0  0  0  # atno 17321 bound_to 7965
  139.4990  144.3964  152.0227 LP  0  0  0  0  0  0  0  0  0  0  0  0  # atno 17342 bound_to 10162
  140.3073  144.3578  150.6043 LP  0  0  0  0  0  0  0  0  0  0  0  0  # atno 17343 bound_to 10162
  156.9258  130.5332  149.5279 LP  0  0  0  0  0  0  0  0  0  0  0  0  # atno 17370 bound_to 10713
  156.0563  130.5624  150.9098 LP  0  0  0  0  0  0  0  0  0  0  0  0  # atno 17371 bound_to 10713
  141.0833  134.0029  157.3352 LP  0  0  0  0  0  0  0  0  0  0  0  0  # atno 17394 bound_to 11000
  139.9208  135.0200  156.8055 LP  0  0  0  0  0  0  0  0  0  0  0  0  # atno 17395 bound_to 11000

$$$$
