AV-unprocessed.smi:1217|AV-procd|sdf|5104|dock2
  -GOLD-   22720 4153D 1   1.00000     0.00000
 Structure written by MMmdl.
 34 35  0  0  0  0  0  0  0  0  1 V2000
  145.9110  138.2698  154.8689 C   0  0  0  0  0  0  0  0  0  0  0  0
  146.2529  138.5789  153.4039 C   0  0  2  0  0  0  0  0  0  0  0  0
  146.5350  137.3217  152.7120 N   0  0  0  0  0  0  0  0  0  0  0  0
  145.6209  136.4452  152.2690 C   0  0  0  0  0  0  0  0  0  0  0  0
  144.4064  136.6058  152.3928 O   0  0  0  0  0  0  0  0  0  0  0  0
  146.2086  135.3904  151.6774 N   0  0  0  0  0  0  0  0  0  0  0  0
  145.5889  134.2626  151.0755 C   0  0  0  0  0  0  0  0  0  0  0  0
  146.4796  133.3034  150.5419 C   0  0  0  0  0  0  0  0  0  0  0  0
  145.9643  132.1477  149.9235 C   0  0  0  0  0  0  0  0  0  0  0  0
  144.5698  131.9806  149.8538 C   0  0  0  0  0  0  0  0  0  0  0  0
  143.7535  132.9834  150.4088 C   0  0  0  0  0  0  0  0  0  0  0  0
  144.2451  134.0914  151.0023 N   0  0  0  0  0  0  0  0  0  0  0  0
  147.4521  139.5425  153.2851 C   0  0  1  0  0  0  0  0  0  0  0  0
  147.2698  140.8939  153.9805 C   0  0  0  0  0  0  0  0  0  0  0  0
  148.7021  141.3124  154.2171 C   0  0  0  0  0  0  0  0  0  0  0  0
  149.3548  139.9829  154.5819 C   0  0  0  0  0  0  0  0  0  0  0  0
  148.6102  138.9783  153.8976 O   0  0  0  0  0  0  0  0  0  0  0  0
  145.6537  139.1784  155.4140 H   0  0  0  0  0  0  0  0  0  0  0  0
  146.7500  137.8005  155.3837 H   0  0  0  0  0  0  0  0  0  0  0  0
  145.0570  137.5953  154.9382 H   0  0  0  0  0  0  0  0  0  0  0  0
  145.3800  139.0597  152.9588 H   0  0  0  0  0  0  0  0  0  0  0  0
  147.5087  137.1036  152.5601 H   0  0  0  0  0  0  0  0  0  0  0  0
  147.2173  135.3969  151.6506 H   0  0  0  0  0  0  0  0  0  0  0  0
  147.5485  133.4476  150.6032 H   0  0  0  0  0  0  0  0  0  0  0  0
  146.6283  131.4030  149.5099 H   0  0  0  0  0  0  0  0  0  0  0  0
  144.1371  131.1080  149.3874 H   0  0  0  0  0  0  0  0  0  0  0  0
  142.6778  132.8940  150.3759 H   0  0  0  0  0  0  0  0  0  0  0  0
  147.6889  139.7175  152.2340 H   0  0  0  0  0  0  0  0  0  0  0  0
  146.7089  141.6108  153.3802 H   0  0  0  0  0  0  0  0  0  0  0  0
  146.7566  140.7705  154.9355 H   0  0  0  0  0  0  0  0  0  0  0  0
  149.1342  141.7052  153.2958 H   0  0  0  0  0  0  0  0  0  0  0  0
  148.8077  142.0678  154.9959 H   0  0  0  0  0  0  0  0  0  0  0  0
  150.4104  139.9506  154.3112 H   0  0  0  0  0  0  0  0  0  0  0  0
  149.2744  139.8006  155.6541 H   0  0  0  0  0  0  0  0  0  0  0  0
  1  2  1  0  0  0  0
  1 18  1  0  0  0  0
  1 19  1  0  0  0  0
  1 20  1  0  0  0  0
  2  3  1  0  0  0  0
  2 13  1  0  0  0  0
  2 21  1  0  0  0  0
  3  4  1  0  0  0  0
  3 22  1  0  0  0  0
  4  5  2  0  0  0  0
  4  6  1  0  0  0  0
  6  7  1  0  0  0  0
  6 23  1  0  0  0  0
  7 12  1  0  0  0  0
  7  8  2  0  0  0  0
  8  9  1  0  0  0  0
  8 24  1  0  0  0  0
  9 10  2  0  0  0  0
  9 25  1  0  0  0  0
 10 11  1  0  0  0  0
 10 26  1  0  0  0  0
 11 12  2  0  0  0  0
 11 27  1  0  0  0  0
 13 17  1  0  0  0  0
 13 14  1  0  0  0  0
 13 28  1  0  0  0  0
 14 15  1  0  0  0  0
 14 29  1  0  0  0  0
 14 30  1  0  0  0  0
 15 16  1  0  0  0  0
 15 31  1  0  0  0  0
 15 32  1  0  0  0  0
 16 17  1  0  0  0  0
 16 33  1  0  0  0  0
 16 34  1  0  0  0  0
M  END
> <s_m_source_file>
AV-unprocessed.smi

> <i_m_source_file_index>
1217

> <i_lp_mmshare_version>
43012

> <i_f3d_flags>
0

> <s_epik_input>
TzFbQ0gyXVtDSDJdW0NIMl1bQ0BIXTFbQ0BIXShbQ0gzXSlbTkhdQyg9TylbTkhdYzJbY0hdW2NIXVtjSF1bY0hdbjI=

> <s_epik_cmdline>
J2VwaWtfcHl0aG9uJywgJy1waCcsICc3LjAnLCAnLXRuJywgJzgnLCAnLW1hJywgJzIwMCcsICctbWV0YWxfYmluZGluZycsICctaW1hZScsICc8aW5maWxlLm1hZT4nLCAnLW9tYWUnLCAnPG91dGZpbGUubWFlPic=

> <r_lp_tautomer_probability>
1

> <r_epik_Ionization_Penalty>
4.51768e-05

> <r_epik_Ionization_Penalty_Charging>
0

> <r_epik_Ionization_Penalty_Neutral>
4.51768e-05

> <r_epik_State_Penalty>
-0

> <r_epik_Charging_Adjusted_Penalty>
0

> <i_epik_Tot_Q>
0

> <i_epik_Tot_abs_Q>
0

> <r_epik_Metal_State_Penalty>
-0

> <b_epik_Metal_Only>
0

> <s_lp_Force_Field>
OPLS_2005

> <r_lp_Energy>
19.7674

> <b_lp_Chiralities_Consistent>
1

> <s_lp_Variant>
AV-unprocessed.smi:1217-3

> <Gold.Version>
5.8.1

> <Gold.Id.Protein>
6NUR|6NUR_protein|mol2

> <Gold.PLP.Fitness>
38.2055

> <Gold.PLP.PLP>
-29.7681

> <Gold.PLP.part.hbond>
-2.0000

> <Gold.PLP.part.metal>
0.0000

> <Gold.PLP.part.buried>
-2.2468

> <Gold.PLP.part.nonpolar>
-26.1913

> <Gold.PLP.part.repulsive>
1.3562

> <Gold.PLP.ligand.clash>
0.0000

> <Gold.PLP.ligand.torsion>
0.2767

> <Gold.PLP.Chemscore.Hbond>
2.0000

> <Gold.PLP.Chemscore.CHOScore>
0.9934

> <Gold.PLP.Chemscore.Metal>
0.0000

> <Gold.Chemscore.Hbonds>
donor molecule, donor type, donor heavy atom, donor atom, acceptor molecule, acceptor atom, score
      L1  H     3    22       P1  7948  1.00
      L1  H     6    23       P1  7948  1.00
      L1  C    11    27       P1 10186  1.00

> <Gold.PLP.Chemscore.Internal.Correction>
0.0106

> <Gold.Rescore>
     Score         DG    S(hbond)    S(metal)    S(lipo)     H(rot)  DE(clash)    DE(int)     intcor
     15.60     -17.16       1.97        0.00      71.10       1.25       0.04       1.53       ----

> <Gold.Chemscore.Fitness>
15.5988

> <Gold.Chemscore.DG>
-17.1630

> <Gold.Chemscore.ZeroCoef>
-5.4800

> <Gold.Chemscore.Hbond>
1.9657

> <Gold.Chemscore.Metal>
0.0000

> <Gold.Chemscore.Lipo>
71.1049

> <Gold.Chemscore.Internal_Hbond>
0.0000

> <Gold.Chemscore.DEClash>
0.0361

> <Gold.Chemscore.DEInternal>
1.5282

> <Gold.Chemscore.Rot>
1.2506

> <Gold.Chemscore.Internal.Correction>
   9.000000E+99

> <Gold.Chemscore.Hbonds>
donor molecule, donor type, donor heavy atom, donor atom, acceptor molecule, acceptor atom, score
      L1  H     3    22       P1  7948  0.99
      L1  H     6    23       P1  7948  0.96

> <Gold.Chemscore.Hbond.Weighted>
-6.5653

> <Gold.Chemscore.Metal.Weighted>
-0.0000

> <Gold.Chemscore.Lipo.Weighted>
-8.3193

> <Gold.Chemscore.Internal_Hbond.Weighted>
0.0000

> <Gold.Chemscore.DEClash.Weighted>
0.0361

> <Gold.Chemscore.DEInternal.Weighted>
1.5282

> <Gold.Chemscore.Rot.Weighted>
3.2016

> <Gold.Chemscore.Internal.Correction.Weighted>
   9.000000E+99

> <Gold.Protein.RotatedTorsions>
[ 6907 6896 6895 6894 ] final  -79.82 input  -60.11 | X-H torsion
[ 7974 7965 7964 7962 ] final  -77.37 input  175.53 | X-H torsion
[ 8008 7997 7996 7995 ] final -126.65 input   59.86 | X-H torsion
[ 10167 10162 10161 10158 ] final   98.31 input  -65.29 | X-H torsion
[ 10718 10713 10712 10709 ] final  128.91 input   66.30 | X-H torsion
[ 10763 10752 10751 10750 ] final  -12.58 input  -60.55 | X-H torsion
[ 11005 11000 10999 10996 ] final  -94.95 input  -57.11 | X-H torsion

> <Gold.Protein.ActiveResidues>
 VAL166  LYS551  ARG553  GLY616  TRP617  ASP618  TYR619  PRO620  LYS621  CYS622 
 ASP623  PHE694  ASN695  SER759  ASP760  ASP761  ALA762  ILE779  LEU786  VAL792 
 PHE793  MET794  SER795  GLU796  ALA797  LYS798  CYS799  TRP800  GLU811  SER814 

> <Gold.Protein.RotatedAtoms>
  150.6942  134.4062  159.5141 H   0  0  0  0  0  0  0  0  0  0  0  0  # atno 6907 bound_to 6896
  152.1828  134.8736  160.0534 H   0  0  0  0  0  0  0  0  0  0  0  0  # atno 6908 bound_to 6896
  151.9721  133.3694  159.4112 H   0  0  0  0  0  0  0  0  0  0  0  0  # atno 6909 bound_to 6896
  145.6005  140.9410  143.1243 H   0  0  0  0  0  0  0  0  0  0  0  0  # atno 7974 bound_to 7965
  155.2332  140.0426  157.2965 H   0  0  0  0  0  0  0  0  0  0  0  0  # atno 8008 bound_to 7997
  154.5875  140.2417  155.7937 H   0  0  0  0  0  0  0  0  0  0  0  0  # atno 8009 bound_to 7997
  156.2236  140.2962  156.0021 H   0  0  0  0  0  0  0  0  0  0  0  0  # atno 8010 bound_to 7997
  139.7720  144.6919  151.0142 H   0  0  0  0  0  0  0  0  0  0  0  0  # atno 10167 bound_to 10162
  157.5202  131.1098  150.9165 H   0  0  0  0  0  0  0  0  0  0  0  0  # atno 10718 bound_to 10713
  153.5006  135.7017  153.5834 H   0  0  0  0  0  0  0  0  0  0  0  0  # atno 10763 bound_to 10752
  153.3967  135.3882  155.1960 H   0  0  0  0  0  0  0  0  0  0  0  0  # atno 10764 bound_to 10752
  154.8711  135.3871  154.4476 H   0  0  0  0  0  0  0  0  0  0  0  0  # atno 10765 bound_to 10752
  141.1456  133.7992  157.0368 H   0  0  0  0  0  0  0  0  0  0  0  0  # atno 11005 bound_to 11000
  144.7312  139.7721  143.7346 LP  0  0  0  0  0  0  0  0  0  0  0  0  # atno 17320 bound_to 7965
  146.1579  139.4684  143.0007 LP  0  0  0  0  0  0  0  0  0  0  0  0  # atno 17321 bound_to 7965
  140.7814  143.4578  151.0321 LP  0  0  0  0  0  0  0  0  0  0  0  0  # atno 17342 bound_to 10162
  139.8261  143.7754  152.3178 LP  0  0  0  0  0  0  0  0  0  0  0  0  # atno 17343 bound_to 10162
  156.9778  130.5515  149.5294 LP  0  0  0  0  0  0  0  0  0  0  0  0  # atno 17370 bound_to 10713
  156.0348  130.5436  150.8626 LP  0  0  0  0  0  0  0  0  0  0  0  0  # atno 17371 bound_to 10713
  140.0718  134.9698  157.1480 LP  0  0  0  0  0  0  0  0  0  0  0  0  # atno 17394 bound_to 11000
  140.3700  134.2401  155.7179 LP  0  0  0  0  0  0  0  0  0  0  0  0  # atno 17395 bound_to 11000

$$$$
