AV-unprocessed.smi:763|AV-procd|sdf|3639|dock10
  -GOLD-   22720 1 43D 1   1.00000     0.00000
 Structure written by MMmdl.
 43 44  0  0  0  0  0  0  0  0  2 V2000
  156.2541  136.2654  154.2000 C   0  0  0  0  0  0  0  0  0  0  0  0
  155.7223  135.6512  155.3603 O   0  0  0  0  0  0  0  0  0  0  0  0
  155.7254  136.5177  156.4830 C   0  0  0  0  0  0  0  0  0  0  0  0
  154.2895  136.6983  156.9836 C   0  0  0  0  0  0  0  0  0  0  0  0
  153.9394  138.0731  156.8650 O   0  0  0  0  0  0  0  0  0  0  0  0
  152.7788  138.4148  156.1952 C   0  0  0  0  0  0  0  0  0  0  0  0
  152.0390  137.4140  155.6526 N   0  0  0  0  0  0  0  0  0  0  0  0
  150.9064  137.7342  154.9979 C   0  0  0  0  0  0  0  0  0  0  0  0
  150.4560  139.0561  154.8490 C   0  0  0  0  0  0  0  0  0  0  0  0
  151.2260  140.0889  155.4131 C   0  0  0  0  0  0  0  0  0  0  0  0
  152.4213  139.7842  156.1101 C   0  0  0  0  0  0  0  0  0  0  0  0
  153.1997  140.7220  156.6769 N   0  5  0  0  0  0  0  0  0  0  0  0
  152.6977  142.0039  157.5275 S   0  0  0  0  0  0  0  0  0  0  0  0
  151.7722  142.8360  156.7425 O   0  0  0  0  0  0  0  0  0  0  0  0
  152.2514  141.6107  158.8723 O   0  0  0  0  0  0  0  0  0  0  0  0
  154.3015  142.9595  157.6911 C   0  0  1  0  0  0  0  0  0  0  0  0
  154.2167  144.3261  156.9787 C   0  0  0  0  0  0  0  0  0  0  0  0
  153.3331  145.3234  157.7474 C   0  0  0  0  0  0  0  0  0  0  0  0
  153.8608  145.5350  159.1754 C   0  0  0  0  0  0  0  0  0  0  0  0
  153.9693  144.2061  159.9405 C   0  0  0  0  0  0  0  0  0  0  0  0
  154.7902  143.1656  159.1493 C   0  0  1  0  0  0  0  0  0  0  0  0
  154.8536  141.9446  159.8578 O   0  0  0  0  0  0  0  0  0  0  0  0
  156.2255  135.5625  153.3676 H   0  0  0  0  0  0  0  0  0  0  0  0
  157.2924  136.5629  154.3535 H   0  0  0  0  0  0  0  0  0  0  0  0
  155.6751  137.1455  153.9178 H   0  0  0  0  0  0  0  0  0  0  0  0
  156.3593  136.1259  157.2802 H   0  0  0  0  0  0  0  0  0  0  0  0
  156.1326  137.4854  156.1858 H   0  0  0  0  0  0  0  0  0  0  0  0
  153.6186  136.0973  156.3680 H   0  0  0  0  0  0  0  0  0  0  0  0
  154.2019  136.3528  158.0150 H   0  0  0  0  0  0  0  0  0  0  0  0
  150.3430  136.9129  154.5804 H   0  0  0  0  0  0  0  0  0  0  0  0
  149.5425  139.2745  154.3166 H   0  0  0  0  0  0  0  0  0  0  0  0
  150.8861  141.1078  155.3018 H   0  0  0  0  0  0  0  0  0  0  0  0
  155.0507  142.3739  157.1574 H   0  0  0  0  0  0  0  0  0  0  0  0
  155.2206  144.7429  156.8880 H   0  0  0  0  0  0  0  0  0  0  0  0
  153.8564  144.2079  155.9568 H   0  0  0  0  0  0  0  0  0  0  0  0
  153.3074  146.2766  157.2190 H   0  0  0  0  0  0  0  0  0  0  0  0
  152.3043  144.9637  157.7840 H   0  0  0  0  0  0  0  0  0  0  0  0
  154.8417  146.0098  159.1322 H   0  0  0  0  0  0  0  0  0  0  0  0
  153.2089  146.2217  159.7157 H   0  0  0  0  0  0  0  0  0  0  0  0
  154.4380  144.3836  160.9091 H   0  0  0  0  0  0  0  0  0  0  0  0
  152.9701  143.8364  160.1616 H   0  0  0  0  0  0  0  0  0  0  0  0
  155.8156  143.5334  159.0971 H   0  0  0  0  0  0  0  0  0  0  0  0
  155.1909  141.2776  159.2792 H   0  0  0  0  0  0  0  0  0  0  0  0
  1  2  1  0  0  0  0
  1 23  1  0  0  0  0
  1 24  1  0  0  0  0
  1 25  1  0  0  0  0
  2  3  1  0  0  0  0
  3  4  1  0  0  0  0
  3 26  1  0  0  0  0
  3 27  1  0  0  0  0
  4  5  1  0  0  0  0
  4 28  1  0  0  0  0
  4 29  1  0  0  0  0
  5  6  1  0  0  0  0
  6 11  1  0  0  0  0
  6  7  2  0  0  0  0
  7  8  1  0  0  0  0
  8  9  2  0  0  0  0
  8 30  1  0  0  0  0
  9 10  1  0  0  0  0
  9 31  1  0  0  0  0
 10 11  2  0  0  0  0
 10 32  1  0  0  0  0
 11 12  1  0  0  0  0
 12 13  1  0  0  0  0
 13 14  2  0  0  0  0
 13 15  2  0  0  0  0
 13 16  1  0  0  0  0
 16 21  1  0  0  0  0
 16 17  1  0  0  0  0
 16 33  1  0  0  0  0
 17 18  1  0  0  0  0
 17 34  1  0  0  0  0
 17 35  1  0  0  0  0
 18 19  1  0  0  0  0
 18 36  1  0  0  0  0
 18 37  1  0  0  0  0
 19 20  1  0  0  0  0
 19 38  1  0  0  0  0
 19 39  1  0  0  0  0
 20 21  1  0  0  0  0
 20 40  1  0  0  0  0
 20 41  1  0  0  0  0
 21 22  1  0  0  0  0
 21 42  1  0  0  0  0
 22 43  1  0  0  0  0
M  CHG  1  12  -1
M  END
> <s_m_source_file>
AV-unprocessed.smi

> <i_m_source_file_index>
763

> <i_lp_mmshare_version>
43012

> <i_f3d_flags>
0

> <s_epik_input>
W0NIM11PW0NIMl1bQ0gyXU9jMW5bY0hdW2NIXVtjSF1jMVtOSF1TKD1PKSg9TylbQ0BASF0yW0NIMl1bQ0gyXVtDSDJdW0NIMl1bQ0BIXTJbT0hd

> <s_epik_cmdline>
J2VwaWtfcHl0aG9uJywgJy1waCcsICc3LjAnLCAnLXRuJywgJzgnLCAnLW1hJywgJzIwMCcsICctbWV0YWxfYmluZGluZycsICctaW1hZScsICc8aW5maWxlLm1hZT4nLCAnLW9tYWUnLCAnPG91dGZpbGUubWFlPic=

> <r_epik_Ionization_Penalty>
0.985866

> <r_epik_Ionization_Penalty_Charging>
0.984689

> <r_epik_Ionization_Penalty_Neutral>
0.00117669

> <r_epik_State_Penalty>
1.03185

> <r_epik_Charging_Adjusted_Penalty>
2.01654

> <i_epik_Tot_Q>
-1

> <i_epik_Tot_abs_Q>
1

> <r_epik_Metal_State_Penalty>
0.379327

> <b_epik_Metal_Only>
0

> <s_lp_Force_Field>
OPLS_2005

> <r_lp_Energy>
9.05773

> <b_lp_Chiralities_Consistent>
1

> <s_lp_Variant>
AV-unprocessed.smi:763-6

> <Gold.Version>
5.8.1

> <Gold.Id.Protein>
6NUR|6NUR_protein|mol2

> <Gold.PLP.Fitness>
49.5367

> <Gold.PLP.PLP>
-41.5781

> <Gold.PLP.part.hbond>
-4.1276

> <Gold.PLP.part.metal>
0.0000

> <Gold.PLP.part.buried>
-0.1412

> <Gold.PLP.part.nonpolar>
-36.7750

> <Gold.PLP.part.repulsive>
0.1373

> <Gold.PLP.ligand.clash>
0.0000

> <Gold.PLP.ligand.torsion>
2.1188

> <Gold.PLP.Chemscore.Hbond>
2.6324

> <Gold.PLP.Chemscore.CHOScore>
1.0388

> <Gold.PLP.Chemscore.Metal>
0.0000

> <Gold.Chemscore.Hbonds>
donor molecule, donor type, donor heavy atom, donor atom, acceptor molecule, acceptor atom, score
      P1  H  7997  8008       L1    12  0.44
      P1  H 10752 10763       L1     7  0.34

> <Gold.PLP.Chemscore.Internal.Correction>
1.1827

> <Gold.Rescore>
     Score         DG    S(hbond)    S(metal)    S(lipo)     H(rot)  DE(clash)    DE(int)     intcor
     10.42     -16.08       0.90        0.00     116.27       2.35       2.06       3.60       ----

> <Gold.Chemscore.Fitness>
10.4223

> <Gold.Chemscore.DG>
-16.0802

> <Gold.Chemscore.ZeroCoef>
-5.4800

> <Gold.Chemscore.Hbond>
0.9028

> <Gold.Chemscore.Metal>
0.0000

> <Gold.Chemscore.Lipo>
116.2663

> <Gold.Chemscore.Internal_Hbond>
0.0000

> <Gold.Chemscore.DEClash>
2.0600

> <Gold.Chemscore.DEInternal>
3.5978

> <Gold.Chemscore.Rot>
2.3509

> <Gold.Chemscore.Internal.Correction>
   9.000000E+99

> <Gold.Chemscore.Hbonds>
donor molecule, donor type, donor heavy atom, donor atom, acceptor molecule, acceptor atom, score
      P1  H  7997  8008       L1    12  0.13
      P1  H 10752 10763       L1     7  0.29

> <Gold.Chemscore.Hbond.Weighted>
-3.0153

> <Gold.Chemscore.Metal.Weighted>
-0.0000

> <Gold.Chemscore.Lipo.Weighted>
-13.6032

> <Gold.Chemscore.Internal_Hbond.Weighted>
0.0000

> <Gold.Chemscore.DEClash.Weighted>
2.0600

> <Gold.Chemscore.DEInternal.Weighted>
3.5978

> <Gold.Chemscore.Rot.Weighted>
6.0182

> <Gold.Chemscore.Internal.Correction.Weighted>
   9.000000E+99

> <Gold.Protein.RotatedTorsions>
[ 6907 6896 6895 6894 ] final   43.28 input  -60.11 | X-H torsion
[ 7974 7965 7964 7962 ] final   76.29 input  175.53 | X-H torsion
[ 8008 7997 7996 7995 ] final  -81.15 input   59.86 | X-H torsion
[ 10167 10162 10161 10158 ] final    9.93 input  -65.29 | X-H torsion
[ 10718 10713 10712 10709 ] final  164.44 input   66.30 | X-H torsion
[ 10763 10752 10751 10750 ] final   82.20 input  -60.55 | X-H torsion
[ 11005 11000 10999 10996 ] final -135.77 input  -57.11 | X-H torsion

> <Gold.Protein.ActiveResidues>
 VAL166  LYS551  ARG553  GLY616  TRP617  ASP618  TYR619  PRO620  LYS621  CYS622 
 ASP623  PHE694  ASN695  SER759  ASP760  ASP761  ALA762  ILE779  LEU786  VAL792 
 PHE793  MET794  SER795  GLU796  ALA797  LYS798  CYS799  TRP800  GLU811  SER814 

> <Gold.Protein.RotatedAtoms>
  152.2184  134.8436  160.0488 H   0  0  0  0  0  0  0  0  0  0  0  0  # atno 6907 bound_to 6896
  151.9229  133.3585  159.3911 H   0  0  0  0  0  0  0  0  0  0  0  0  # atno 6908 bound_to 6896
  150.6993  134.4542  159.5394 H   0  0  0  0  0  0  0  0  0  0  0  0  # atno 6909 bound_to 6896
  145.7047  139.2594  143.1685 H   0  0  0  0  0  0  0  0  0  0  0  0  # atno 7974 bound_to 7965
  154.5955  140.0652  156.9297 H   0  0  0  0  0  0  0  0  0  0  0  0  # atno 8008 bound_to 7997
  155.2222  140.3331  155.4296 H   0  0  0  0  0  0  0  0  0  0  0  0  # atno 8009 bound_to 7997
  156.2284  140.1829  156.7289 H   0  0  0  0  0  0  0  0  0  0  0  0  # atno 8010 bound_to 7997
  140.6225  143.8173  150.7192 H   0  0  0  0  0  0  0  0  0  0  0  0  # atno 10167 bound_to 10162
  157.0943  131.0426  151.2524 H   0  0  0  0  0  0  0  0  0  0  0  0  # atno 10718 bound_to 10713
  153.1182  135.4737  154.9151 H   0  0  0  0  0  0  0  0  0  0  0  0  # atno 10763 bound_to 10752
  154.7549  135.3116  154.8491 H   0  0  0  0  0  0  0  0  0  0  0  0  # atno 10764 bound_to 10752
  153.9062  135.6870  153.4806 H   0  0  0  0  0  0  0  0  0  0  0  0  # atno 10765 bound_to 10752
  140.8867  134.1863  157.4555 H   0  0  0  0  0  0  0  0  0  0  0  0  # atno 11005 bound_to 11000
  146.0766  140.7810  142.9662 LP  0  0  0  0  0  0  0  0  0  0  0  0  # atno 17320 bound_to 7965
  144.6958  140.3424  143.7196 LP  0  0  0  0  0  0  0  0  0  0  0  0  # atno 17321 bound_to 7965
  140.1766  143.4149  152.1963 LP  0  0  0  0  0  0  0  0  0  0  0  0  # atno 17342 bound_to 10162
  139.5451  144.7291  151.4609 LP  0  0  0  0  0  0  0  0  0  0  0  0  # atno 17343 bound_to 10162
  157.4695  130.7700  149.7310 LP  0  0  0  0  0  0  0  0  0  0  0  0  # atno 17370 bound_to 10713
  155.9890  130.3955  150.3093 LP  0  0  0  0  0  0  0  0  0  0  0  0  # atno 17371 bound_to 10713
  139.8725  134.9841  156.5225 LP  0  0  0  0  0  0  0  0  0  0  0  0  # atno 17394 bound_to 11000
  140.8396  133.8215  155.9062 LP  0  0  0  0  0  0  0  0  0  0  0  0  # atno 17395 bound_to 11000

$$$$
