AV-unprocessed.smi:1788|AV-procd|sdf|7210|dock3
  -GOLD-   22720 8453D 1   1.00000     0.00000
 Structure written by MMmdl.
 55 57  0  0  0  0  0  0  0  0  2 V2000
  146.0205  132.2799  149.8386 C   0  0  0  0  0  0  0  0  0  0  0  0
  146.5233  133.3474  150.8203 C   0  0  2  0  0  0  0  0  0  0  0  0
  146.7746  132.7526  152.2161 C   0  0  0  0  0  0  0  0  0  0  0  0
  147.2522  133.8450  153.1807 C   0  0  0  0  0  0  0  0  0  0  0  0
  146.2610  135.0190  153.2161 C   0  0  0  0  0  0  0  0  0  0  0  0
  146.0410  135.5754  151.8562 N   0  3  2  0  0  0  0  0  0  0  0  0
  145.1951  136.7953  151.8805 C   0  0  0  0  0  0  0  0  0  0  0  0
  145.9991  138.0736  151.5740 C   0  0  0  0  0  0  0  0  0  0  0  0
  147.2886  138.0721  152.2552 N   0  0  0  0  0  0  0  0  0  0  0  0
  147.6846  138.9836  153.1551 C   0  0  0  0  0  0  0  0  0  0  0  0
  146.9813  139.9284  153.5110 O   0  0  0  0  0  0  0  0  0  0  0  0
  148.9301  138.7243  153.5897 N   0  0  0  0  0  0  0  0  0  0  0  0
  149.7214  139.4363  154.5327 C   0  0  0  0  0  0  0  0  0  0  0  0
  151.0199  139.0599  154.9495 C   0  0  0  0  0  0  0  0  0  0  0  0
  151.6982  139.8673  155.8828 C   0  0  0  0  0  0  0  0  0  0  0  0
  151.0721  141.0370  156.3750 C   0  0  0  0  0  0  0  0  0  0  0  0
  151.7354  141.8632  157.3092 N   0  0  0  0  0  0  0  0  0  0  0  0
  151.1721  143.1995  157.4884 C   0  0  0  0  0  0  0  0  0  0  0  0
  152.1443  144.0901  158.2816 C   0  0  0  0  0  0  0  0  0  0  0  0
  152.4760  143.4625  159.5153 O   0  0  0  0  0  0  0  0  0  0  0  0
  153.1281  142.2135  159.3136 C   0  0  0  0  0  0  0  0  0  0  0  0
  152.1913  141.2553  158.5587 C   0  0  0  0  0  0  0  0  0  0  0  0
  149.8283  141.3943  155.9718 N   0  0  0  0  0  0  0  0  0  0  0  0
  149.1820  140.6187  155.0771 C   0  0  0  0  0  0  0  0  0  0  0  0
  145.5443  134.5354  150.9146 C   0  0  0  0  0  0  0  0  0  0  0  0
  145.0688  131.8585  150.1639 H   0  0  0  0  0  0  0  0  0  0  0  0
  146.7345  131.4605  149.7499 H   0  0  0  0  0  0  0  0  0  0  0  0
  145.8755  132.6987  148.8424 H   0  0  0  0  0  0  0  0  0  0  0  0
  147.4733  133.7234  150.4366 H   0  0  0  0  0  0  0  0  0  0  0  0
  145.8587  132.3002  152.5994 H   0  0  0  0  0  0  0  0  0  0  0  0
  147.5171  131.9557  152.1613 H   0  0  0  0  0  0  0  0  0  0  0  0
  147.3742  133.4299  154.1817 H   0  0  0  0  0  0  0  0  0  0  0  0
  148.2352  134.2036  152.8725 H   0  0  0  0  0  0  0  0  0  0  0  0
  145.3076  134.6965  153.6380 H   0  0  0  0  0  0  0  0  0  0  0  0
  146.6538  135.7948  153.8745 H   0  0  0  0  0  0  0  0  0  0  0  0
  144.3624  136.6755  151.1857 H   0  0  0  0  0  0  0  0  0  0  0  0
  144.7534  136.9076  152.8718 H   0  0  0  0  0  0  0  0  0  0  0  0
  146.1843  138.1470  150.5021 H   0  0  0  0  0  0  0  0  0  0  0  0
  145.4484  138.9718  151.8551 H   0  0  0  0  0  0  0  0  0  0  0  0
  147.9305  137.3299  152.0164 H   0  0  0  0  0  0  0  0  0  0  0  0
  149.3902  137.9356  153.1591 H   0  0  0  0  0  0  0  0  0  0  0  0
  151.5163  138.1795  154.5742 H   0  0  0  0  0  0  0  0  0  0  0  0
  152.6820  139.5728  156.2164 H   0  0  0  0  0  0  0  0  0  0  0  0
  150.9538  143.6788  156.5356 H   0  0  0  0  0  0  0  0  0  0  0  0
  150.2256  143.1126  158.0237 H   0  0  0  0  0  0  0  0  0  0  0  0
  153.0502  144.2862  157.7054 H   0  0  0  0  0  0  0  0  0  0  0  0
  151.6838  145.0563  158.4879 H   0  0  0  0  0  0  0  0  0  0  0  0
  154.0594  142.3608  158.7642 H   0  0  0  0  0  0  0  0  0  0  0  0
  153.3942  141.7911  160.2827 H   0  0  0  0  0  0  0  0  0  0  0  0
  151.3264  141.0139  159.1784 H   0  0  0  0  0  0  0  0  0  0  0  0
  152.7190  140.3226  158.3556 H   0  0  0  0  0  0  0  0  0  0  0  0
  148.1968  140.9552  154.7889 H   0  0  0  0  0  0  0  0  0  0  0  0
  145.4117  134.9628  149.9212 H   0  0  0  0  0  0  0  0  0  0  0  0
  144.5618  134.1899  151.2407 H   0  0  0  0  0  0  0  0  0  0  0  0
  146.9494  135.8646  151.5229 H   0  0  0  0  0  0  0  0  0  0  0  0
  1  2  1  0  0  0  0
  1 26  1  0  0  0  0
  1 27  1  0  0  0  0
  1 28  1  0  0  0  0
  2 25  1  0  0  0  0
  2  3  1  0  0  0  0
  2 29  1  0  0  0  0
  3  4  1  0  0  0  0
  3 30  1  0  0  0  0
  3 31  1  0  0  0  0
  4  5  1  0  0  0  0
  4 32  1  0  0  0  0
  4 33  1  0  0  0  0
  5  6  1  0  0  0  0
  5 34  1  0  0  0  0
  5 35  1  0  0  0  0
  6  7  1  0  0  0  0
  6 25  1  0  0  0  0
  6 55  1  0  0  0  0
  7  8  1  0  0  0  0
  7 36  1  0  0  0  0
  7 37  1  0  0  0  0
  8  9  1  0  0  0  0
  8 38  1  0  0  0  0
  8 39  1  0  0  0  0
  9 10  1  0  0  0  0
  9 40  1  0  0  0  0
 10 11  2  0  0  0  0
 10 12  1  0  0  0  0
 12 13  1  0  0  0  0
 12 41  1  0  0  0  0
 13 24  1  0  0  0  0
 13 14  2  0  0  0  0
 14 15  1  0  0  0  0
 14 42  1  0  0  0  0
 15 16  2  0  0  0  0
 15 43  1  0  0  0  0
 16 17  1  0  0  0  0
 16 23  1  0  0  0  0
 17 22  1  0  0  0  0
 17 18  1  0  0  0  0
 18 19  1  0  0  0  0
 18 44  1  0  0  0  0
 18 45  1  0  0  0  0
 19 20  1  0  0  0  0
 19 46  1  0  0  0  0
 19 47  1  0  0  0  0
 20 21  1  0  0  0  0
 21 22  1  0  0  0  0
 21 48  1  0  0  0  0
 21 49  1  0  0  0  0
 22 50  1  0  0  0  0
 22 51  1  0  0  0  0
 23 24  2  0  0  0  0
 24 52  1  0  0  0  0
 25 53  1  0  0  0  0
 25 54  1  0  0  0  0
M  CHG  1   6   1
M  END
> <s_m_source_file>
AV-unprocessed.smi

> <i_m_source_file_index>
1788

> <i_lp_mmshare_version>
43012

> <i_f3d_flags>
0

> <s_epik_input>
W0NIM11bQ0BASF0xW0NIMl1bQ0gyXVtDSDJdTihbQ0gyXTEpW0NIMl1bQ0gyXVtOSF1DKD1PKVtOSF1jMltjSF1bY0hdYyhuW2NIXTIpTjNbQ0gyXVtDSDJdT1tDSDJdW0NIMl0z

> <s_epik_cmdline>
J2VwaWtfcHl0aG9uJywgJy1waCcsICc3LjAnLCAnLXRuJywgJzgnLCAnLW1hJywgJzIwMCcsICctbWV0YWxfYmluZGluZycsICctaW1hZScsICc8aW5maWxlLm1hZT4nLCAnLW9tYWUnLCAnPG91dGZpbGUubWFlPic=

> <r_lp_tautomer_probability>
1

> <r_epik_Ionization_Penalty>
0.00340126

> <r_epik_Ionization_Penalty_Charging>
0.00171832

> <r_epik_Ionization_Penalty_Neutral>
0.00168294

> <r_epik_State_Penalty>
-0

> <r_epik_Charging_Adjusted_Penalty>
0.00171832

> <i_epik_Tot_Q>
1

> <i_epik_Tot_abs_Q>
1

> <r_epik_Metal_State_Penalty>
-0

> <b_epik_Metal_Only>
0

> <s_lp_Force_Field>
OPLS_2005

> <r_lp_Energy>
34.1059

> <b_lp_Chiralities_Consistent>
1

> <s_lp_Variant>
AV-unprocessed.smi:1788-1

> <Gold.Version>
5.8.1

> <Gold.Id.Protein>
6NUR|6NUR_protein|mol2

> <Gold.PLP.Fitness>
54.9409

> <Gold.PLP.PLP>
-46.0176

> <Gold.PLP.part.hbond>
-4.3743

> <Gold.PLP.part.metal>
0.0000

> <Gold.PLP.part.buried>
2.5704

> <Gold.PLP.part.nonpolar>
-45.1741

> <Gold.PLP.part.repulsive>
0.4818

> <Gold.PLP.ligand.clash>
0.0000

> <Gold.PLP.ligand.torsion>
0.9993

> <Gold.PLP.Chemscore.Hbond>
3.5022

> <Gold.PLP.Chemscore.CHOScore>
0.0000

> <Gold.PLP.Chemscore.Metal>
0.0000

> <Gold.Chemscore.Hbonds>
donor molecule, donor type, donor heavy atom, donor atom, acceptor molecule, acceptor atom, score
      L1  H     6    55       P1  7948  2.00
      L1  H     9    40       P1  7948  0.89
      L1  H    12    41       P1  7948  0.58

> <Gold.PLP.Chemscore.Internal.Correction>
0.4154

> <Gold.Rescore>
     Score         DG    S(hbond)    S(metal)    S(lipo)     H(rot)  DE(clash)    DE(int)     intcor
     19.48     -22.90       2.29        0.00     118.38       1.60       1.01       2.40       ----

> <Gold.Chemscore.Fitness>
19.4791

> <Gold.Chemscore.DG>
-22.8968

> <Gold.Chemscore.ZeroCoef>
-5.4800

> <Gold.Chemscore.Hbond>
2.2922

> <Gold.Chemscore.Metal>
0.0000

> <Gold.Chemscore.Lipo>
118.3840

> <Gold.Chemscore.Internal_Hbond>
0.0000

> <Gold.Chemscore.DEClash>
1.0129

> <Gold.Chemscore.DEInternal>
2.4048

> <Gold.Chemscore.Rot>
1.5976

> <Gold.Chemscore.Internal.Correction>
   9.000000E+99

> <Gold.Chemscore.Hbonds>
donor molecule, donor type, donor heavy atom, donor atom, acceptor molecule, acceptor atom, score
      L1  H     6    55       P1  7948  0.90
      L1  H     9    40       P1  7948  0.86
      L1  H    12    41       P1  7948  0.54

> <Gold.Chemscore.Hbond.Weighted>
-7.6558

> <Gold.Chemscore.Metal.Weighted>
-0.0000

> <Gold.Chemscore.Lipo.Weighted>
-13.8509

> <Gold.Chemscore.Internal_Hbond.Weighted>
0.0000

> <Gold.Chemscore.DEClash.Weighted>
1.0129

> <Gold.Chemscore.DEInternal.Weighted>
2.4048

> <Gold.Chemscore.Rot.Weighted>
4.0899

> <Gold.Chemscore.Internal.Correction.Weighted>
   9.000000E+99

> <Gold.Protein.RotatedTorsions>
[ 6907 6896 6895 6894 ] final   98.00 input  -60.11 | X-H torsion
[ 7974 7965 7964 7962 ] final   36.74 input  175.53 | X-H torsion
[ 8008 7997 7996 7995 ] final   91.25 input   59.86 | X-H torsion
[ 10167 10162 10161 10158 ] final   10.66 input  -65.29 | X-H torsion
[ 10718 10713 10712 10709 ] final -178.54 input   66.30 | X-H torsion
[ 10763 10752 10751 10750 ] final  -47.04 input  -60.55 | X-H torsion
[ 11005 11000 10999 10996 ] final   14.57 input  -57.11 | X-H torsion

> <Gold.Protein.ActiveResidues>
 VAL166  LYS551  ARG553  GLY616  TRP617  ASP618  TYR619  PRO620  LYS621  CYS622 
 ASP623  PHE694  ASN695  SER759  ASP760  ASP761  ALA762  ILE779  LEU786  VAL792 
 PHE793  MET794  SER795  GLU796  ALA797  LYS798  CYS799  TRP800  GLU811  SER814 

> <Gold.Protein.RotatedAtoms>
  152.5415  134.0647  159.8167 H   0  0  0  0  0  0  0  0  0  0  0  0  # atno 6907 bound_to 6896
  151.0770  133.5413  159.2630 H   0  0  0  0  0  0  0  0  0  0  0  0  # atno 6908 bound_to 6896
  151.2254  135.0543  159.9020 H   0  0  0  0  0  0  0  0  0  0  0  0  # atno 6909 bound_to 6896
  146.1189  139.5980  142.9303 H   0  0  0  0  0  0  0  0  0  0  0  0  # atno 7974 bound_to 7965
  156.0215  140.3340  155.7044 H   0  0  0  0  0  0  0  0  0  0  0  0  # atno 8008 bound_to 7997
  155.6015  140.0656  157.2749 H   0  0  0  0  0  0  0  0  0  0  0  0  # atno 8009 bound_to 7997
  154.4318  140.1809  156.1166 H   0  0  0  0  0  0  0  0  0  0  0  0  # atno 8010 bound_to 7997
  140.6180  143.8265  150.7141 H   0  0  0  0  0  0  0  0  0  0  0  0  # atno 10167 bound_to 10162
  156.8459  130.9702  151.3096 H   0  0  0  0  0  0  0  0  0  0  0  0  # atno 10718 bound_to 10713
  154.0549  135.6626  153.4805 H   0  0  0  0  0  0  0  0  0  0  0  0  # atno 10763 bound_to 10752
  153.0449  135.5121  154.7715 H   0  0  0  0  0  0  0  0  0  0  0  0  # atno 10764 bound_to 10752
  154.6733  135.3033  154.9679 H   0  0  0  0  0  0  0  0  0  0  0  0  # atno 10765 bound_to 10752
  140.4680  134.1060  155.7727 H   0  0  0  0  0  0  0  0  0  0  0  0  # atno 11005 bound_to 11000
  145.5508  141.0413  143.2279 LP  0  0  0  0  0  0  0  0  0  0  0  0  # atno 17320 bound_to 7965
  144.7578  139.7030  143.7246 LP  0  0  0  0  0  0  0  0  0  0  0  0  # atno 17321 bound_to 7965
  140.1849  143.4084  152.1906 LP  0  0  0  0  0  0  0  0  0  0  0  0  # atno 17342 bound_to 10162
  139.5415  144.7260  151.4719 LP  0  0  0  0  0  0  0  0  0  0  0  0  # atno 17343 bound_to 10162
  157.6330  130.8744  149.9308 LP  0  0  0  0  0  0  0  0  0  0  0  0  # atno 17370 bound_to 10713
  156.0855  130.3668  150.0496 LP  0  0  0  0  0  0  0  0  0  0  0  0  # atno 17371 bound_to 10713
  141.1590  133.8828  157.1899 LP  0  0  0  0  0  0  0  0  0  0  0  0  # atno 17394 bound_to 11000
  139.9903  135.0067  156.9959 LP  0  0  0  0  0  0  0  0  0  0  0  0  # atno 17395 bound_to 11000

$$$$
