AV-unprocessed.smi:1793|AV-procd|sdf|7224|dock4
  -GOLD-   22720 8463D 1   1.00000     0.00000
 Structure written by MMmdl.
 46 48  0  0  0  0  0  0  0  0  1 V2000
  151.8135  137.5918  154.7055 C   0  0  0  0  0  0  0  0  0  0  0  0
  150.2853  137.6312  154.8895 C   0  0  2  0  0  0  0  0  0  0  0  0
  149.6869  136.4299  154.3131 N   0  0  0  0  0  0  0  0  0  0  0  0
  149.9724  135.1702  154.6707 C   0  0  0  0  0  0  0  0  0  0  0  0
  150.7991  134.8773  155.5345 O   0  0  0  0  0  0  0  0  0  0  0  0
  149.2559  134.2903  153.9523 N   0  0  0  0  0  0  0  0  0  0  0  0
  149.3468  132.8698  153.9606 C   0  0  0  0  0  0  0  0  0  0  0  0
  150.5335  132.2065  154.3574 C   0  0  0  0  0  0  0  0  0  0  0  0
  150.5534  130.8021  154.4126 C   0  0  0  0  0  0  0  0  0  0  0  0
  149.3773  130.1079  154.0849 C   0  0  0  0  0  0  0  0  0  0  0  0
  148.2356  130.7242  153.7197 N   0  0  0  0  0  0  0  0  0  0  0  0
  148.2046  132.0780  153.6468 C   0  0  0  0  0  0  0  0  0  0  0  0
  146.9842  132.6668  153.2425 N   0  0  0  0  0  0  0  0  0  0  0  0
  145.7414  131.9042  153.2919 C   0  0  0  0  0  0  0  0  0  0  0  0
  144.7535  132.7053  152.4489 C   0  0  0  0  0  0  0  0  0  0  0  0
  145.6468  133.2604  151.3436 C   0  0  0  0  0  0  0  0  0  0  0  0
  146.9852  133.5070  152.0483 C   0  0  0  0  0  0  0  0  0  0  0  0
  149.6519  138.8730  154.2324 C   0  0  2  0  0  0  0  0  0  0  0  0
  150.0720  140.2075  154.8492 C   0  0  0  0  0  0  0  0  0  0  0  0
  148.9333  141.1089  154.4303 C   0  0  0  0  0  0  0  0  0  0  0  0
  147.7300  140.1769  154.5443 C   0  0  0  0  0  0  0  0  0  0  0  0
  148.2342  138.8526  154.3854 O   0  0  0  0  0  0  0  0  0  0  0  0
  152.2915  138.4570  155.1643 H   0  0  0  0  0  0  0  0  0  0  0  0
  152.0853  137.5821  153.6495 H   0  0  0  0  0  0  0  0  0  0  0  0
  152.2465  136.7043  155.1680 H   0  0  0  0  0  0  0  0  0  0  0  0
  150.0613  137.6578  155.9577 H   0  0  0  0  0  0  0  0  0  0  0  0
  148.9912  136.5730  153.5958 H   0  0  0  0  0  0  0  0  0  0  0  0
  148.6756  134.6807  153.2243 H   0  0  0  0  0  0  0  0  0  0  0  0
  151.4206  132.7514  154.6421 H   0  0  0  0  0  0  0  0  0  0  0  0
  151.4450  130.2713  154.7120 H   0  0  0  0  0  0  0  0  0  0  0  0
  149.3496  129.0289  154.1224 H   0  0  0  0  0  0  0  0  0  0  0  0
  145.8764  130.9162  152.8500 H   0  0  0  0  0  0  0  0  0  0  0  0
  145.3922  131.7781  154.3171 H   0  0  0  0  0  0  0  0  0  0  0  0
  143.9284  132.1009  152.0713 H   0  0  0  0  0  0  0  0  0  0  0  0
  144.3360  133.5234  153.0377 H   0  0  0  0  0  0  0  0  0  0  0  0
  145.7754  132.5067  150.5653 H   0  0  0  0  0  0  0  0  0  0  0  0
  145.2419  134.1591  150.8776 H   0  0  0  0  0  0  0  0  0  0  0  0
  147.0555  134.5513  152.3530 H   0  0  0  0  0  0  0  0  0  0  0  0
  147.8283  133.2883  151.3911 H   0  0  0  0  0  0  0  0  0  0  0  0
  149.8713  138.8888  153.1631 H   0  0  0  0  0  0  0  0  0  0  0  0
  150.1107  140.1346  155.9373 H   0  0  0  0  0  0  0  0  0  0  0  0
  151.0416  140.5570  154.4932 H   0  0  0  0  0  0  0  0  0  0  0  0
  148.8415  142.0022  155.0488 H   0  0  0  0  0  0  0  0  0  0  0  0
  149.0686  141.4223  153.3942 H   0  0  0  0  0  0  0  0  0  0  0  0
  147.2740  140.2569  155.5317 H   0  0  0  0  0  0  0  0  0  0  0  0
  146.9657  140.4015  153.8000 H   0  0  0  0  0  0  0  0  0  0  0  0
  1  2  1  0  0  0  0
  1 23  1  0  0  0  0
  1 24  1  0  0  0  0
  1 25  1  0  0  0  0
  2  3  1  0  0  0  0
  2 18  1  0  0  0  0
  2 26  1  0  0  0  0
  3  4  1  0  0  0  0
  3 27  1  0  0  0  0
  4  5  2  0  0  0  0
  4  6  1  0  0  0  0
  6  7  1  0  0  0  0
  6 28  1  0  0  0  0
  7 12  1  0  0  0  0
  7  8  2  0  0  0  0
  8  9  1  0  0  0  0
  8 29  1  0  0  0  0
  9 10  2  0  0  0  0
  9 30  1  0  0  0  0
 10 11  1  0  0  0  0
 10 31  1  0  0  0  0
 11 12  2  0  0  0  0
 12 13  1  0  0  0  0
 13 17  1  0  0  0  0
 13 14  1  0  0  0  0
 14 15  1  0  0  0  0
 14 32  1  0  0  0  0
 14 33  1  0  0  0  0
 15 16  1  0  0  0  0
 15 34  1  0  0  0  0
 15 35  1  0  0  0  0
 16 17  1  0  0  0  0
 16 36  1  0  0  0  0
 16 37  1  0  0  0  0
 17 38  1  0  0  0  0
 17 39  1  0  0  0  0
 18 22  1  0  0  0  0
 18 19  1  0  0  0  0
 18 40  1  0  0  0  0
 19 20  1  0  0  0  0
 19 41  1  0  0  0  0
 19 42  1  0  0  0  0
 20 21  1  0  0  0  0
 20 43  1  0  0  0  0
 20 44  1  0  0  0  0
 21 22  1  0  0  0  0
 21 45  1  0  0  0  0
 21 46  1  0  0  0  0
M  END
> <s_m_source_file>
AV-unprocessed.smi

> <i_m_source_file_index>
1793

> <i_lp_mmshare_version>
43012

> <i_f3d_flags>
0

> <s_epik_input>
TzFbQ0gyXVtDSDJdW0NIMl1bQ0BIXTFbQ0BIXShbQ0gzXSlbTkhdQyg9TylbTkhdYzJbY0hdW2NIXVtjSF1uYzJOM1tDSDJdW0NIMl1bQ0gyXVtDSDJdMw==

> <s_epik_cmdline>
J2VwaWtfcHl0aG9uJywgJy1waCcsICc3LjAnLCAnLXRuJywgJzgnLCAnLW1hJywgJzIwMCcsICctbWV0YWxfYmluZGluZycsICctaW1hZScsICc8aW5maWxlLm1hZT4nLCAnLW9tYWUnLCAnPG91dGZpbGUubWFlPic=

> <r_lp_tautomer_probability>
1

> <r_epik_Ionization_Penalty>
0.0992086

> <r_epik_Ionization_Penalty_Charging>
0

> <r_epik_Ionization_Penalty_Neutral>
0.0992086

> <r_epik_State_Penalty>
0.0887141

> <r_epik_Charging_Adjusted_Penalty>
0.0887141

> <i_epik_Tot_Q>
0

> <i_epik_Tot_abs_Q>
0

> <r_epik_Metal_State_Penalty>
0.075945

> <b_epik_Metal_Only>
0

> <s_lp_Force_Field>
OPLS_2005

> <r_lp_Energy>
46.4352

> <b_lp_Chiralities_Consistent>
1

> <s_lp_Variant>
AV-unprocessed.smi:1793-1

> <Gold.Version>
5.8.1

> <Gold.Id.Protein>
6NUR|6NUR_protein|mol2

> <Gold.PLP.Fitness>
40.8082

> <Gold.PLP.PLP>
-36.1360

> <Gold.PLP.part.hbond>
-2.0000

> <Gold.PLP.part.metal>
0.0000

> <Gold.PLP.part.buried>
-3.2762

> <Gold.PLP.part.nonpolar>
-30.4987

> <Gold.PLP.part.repulsive>
0.4450

> <Gold.PLP.ligand.clash>
0.0000

> <Gold.PLP.ligand.torsion>
0.4078

> <Gold.PLP.Chemscore.Hbond>
1.7115

> <Gold.PLP.Chemscore.CHOScore>
0.0000

> <Gold.PLP.Chemscore.Metal>
0.0000

> <Gold.Chemscore.Hbonds>
donor molecule, donor type, donor heavy atom, donor atom, acceptor molecule, acceptor atom, score
      L1  H     3    27       P1  7948  0.64
      L1  H     6    28       P1  7948  0.64
      P1  H 10752 10765       L1     5  0.04

> <Gold.PLP.Chemscore.Internal.Correction>
0.3533

> <Gold.Rescore>
     Score         DG    S(hbond)    S(metal)    S(lipo)     H(rot)  DE(clash)    DE(int)     intcor
     14.38     -16.07       1.51        0.00      77.16       1.36       0.05       1.64       ----

> <Gold.Chemscore.Fitness>
14.3843

> <Gold.Chemscore.DG>
-16.0728

> <Gold.Chemscore.ZeroCoef>
-5.4800

> <Gold.Chemscore.Hbond>
1.5095

> <Gold.Chemscore.Metal>
0.0000

> <Gold.Chemscore.Lipo>
77.1625

> <Gold.Chemscore.Internal_Hbond>
0.0000

> <Gold.Chemscore.DEClash>
0.0505

> <Gold.Chemscore.DEInternal>
1.6380

> <Gold.Chemscore.Rot>
1.3582

> <Gold.Chemscore.Internal.Correction>
   9.000000E+99

> <Gold.Chemscore.Hbonds>
donor molecule, donor type, donor heavy atom, donor atom, acceptor molecule, acceptor atom, score
      L1  H     3    27       P1  7948  0.64
      L1  H     6    28       P1  7948  0.21
      P1  H 10752 10765       L1     5  0.07

> <Gold.Chemscore.Hbond.Weighted>
-5.0418

> <Gold.Chemscore.Metal.Weighted>
-0.0000

> <Gold.Chemscore.Lipo.Weighted>
-9.0280

> <Gold.Chemscore.Internal_Hbond.Weighted>
0.0000

> <Gold.Chemscore.DEClash.Weighted>
0.0505

> <Gold.Chemscore.DEInternal.Weighted>
1.6380

> <Gold.Chemscore.Rot.Weighted>
3.4771

> <Gold.Chemscore.Internal.Correction.Weighted>
   9.000000E+99

> <Gold.Protein.RotatedTorsions>
[ 6907 6896 6895 6894 ] final  155.70 input  -60.11 | X-H torsion
[ 7974 7965 7964 7962 ] final -113.70 input  175.53 | X-H torsion
[ 8008 7997 7996 7995 ] final  -26.53 input   59.86 | X-H torsion
[ 10167 10162 10161 10158 ] final  135.59 input  -65.29 | X-H torsion
[ 10718 10713 10712 10709 ] final -124.54 input   66.30 | X-H torsion
[ 10763 10752 10751 10750 ] final -157.44 input  -60.55 | X-H torsion
[ 11005 11000 10999 10996 ] final  -50.73 input  -57.11 | X-H torsion

> <Gold.Protein.ActiveResidues>
 VAL166  LYS551  ARG553  GLY616  TRP617  ASP618  TYR619  PRO620  LYS621  CYS622 
 ASP623  PHE694  ASN695  SER759  ASP760  ASP761  ALA762  ILE779  LEU786  VAL792 
 PHE793  MET794  SER795  GLU796  ALA797  LYS798  CYS799  TRP800  GLU811  SER814 

> <Gold.Protein.RotatedAtoms>
  152.0404  133.3975  159.4334 H   0  0  0  0  0  0  0  0  0  0  0  0  # atno 6907 bound_to 6896
  150.6876  134.3421  159.4881 H   0  0  0  0  0  0  0  0  0  0  0  0  # atno 6908 bound_to 6896
  152.1218  134.9199  160.0613 H   0  0  0  0  0  0  0  0  0  0  0  0  # atno 6909 bound_to 6896
  145.1290  140.8713  143.3769 H   0  0  0  0  0  0  0  0  0  0  0  0  # atno 7974 bound_to 7965
  154.4421  140.1897  156.0789 H   0  0  0  0  0  0  0  0  0  0  0  0  # atno 8008 bound_to 7997
  156.0453  140.3315  155.7263 H   0  0  0  0  0  0  0  0  0  0  0  0  # atno 8009 bound_to 7997
  155.5638  140.0606  157.2813 H   0  0  0  0  0  0  0  0  0  0  0  0  # atno 8010 bound_to 7997
  139.5211  144.6509  151.5305 H   0  0  0  0  0  0  0  0  0  0  0  0  # atno 10167 bound_to 10162
  156.1597  130.6593  151.0032 H   0  0  0  0  0  0  0  0  0  0  0  0  # atno 10718 bound_to 10713
  154.7635  135.3124  154.8331 H   0  0  0  0  0  0  0  0  0  0  0  0  # atno 10763 bound_to 10752
  153.9085  135.6808  153.4756 H   0  0  0  0  0  0  0  0  0  0  0  0  # atno 10764 bound_to 10752
  153.1239  135.4810  154.9172 H   0  0  0  0  0  0  0  0  0  0  0  0  # atno 10765 bound_to 10752
  141.0832  133.6648  156.3774 H   0  0  0  0  0  0  0  0  0  0  0  0  # atno 11005 bound_to 11000
  145.0657  139.3071  143.5858 LP  0  0  0  0  0  0  0  0  0  0  0  0  # atno 17320 bound_to 7965
  146.3515  140.0114  142.8667 LP  0  0  0  0  0  0  0  0  0  0  0  0  # atno 17321 bound_to 7965
  140.6313  143.9070  150.6608 LP  0  0  0  0  0  0  0  0  0  0  0  0  # atno 17342 bound_to 10162
  140.2375  143.3689  152.1514 LP  0  0  0  0  0  0  0  0  0  0  0  0  # atno 17343 bound_to 10162
  157.6723  131.0858  150.7583 LP  0  0  0  0  0  0  0  0  0  0  0  0  # atno 17370 bound_to 10713
  156.7646  130.4809  149.5430 LP  0  0  0  0  0  0  0  0  0  0  0  0  # atno 17371 bound_to 10713
  140.5422  134.6110  157.5383 LP  0  0  0  0  0  0  0  0  0  0  0  0  # atno 17394 bound_to 11000
  139.9648  134.7392  156.0162 LP  0  0  0  0  0  0  0  0  0  0  0  0  # atno 17395 bound_to 11000

$$$$
