#       Name:                AV-unprocessed.smi:437
#       Creating user name   scv26
#       Creation time:       Thu Mar 26 22:53:17 2020


#       File generated by GOLD software.
#

@<TRIPOS>MOLECULE
AV-unprocessed.smi:437
    56    57     1
SMALL
NO_CHARGES


@<TRIPOS>ATOM
      1 ****        -5.7897   2.4594   2.0461 C.3            1 S1                 0.0000
      2 ****        -5.1135   1.1172   1.9663 C.2            1 S1                 0.0000
      3 ****        -3.8229   1.1213   1.8971 N.2            1 S1                 0.0000
      4 ****        -3.1029  -0.0548   1.8136 N.am           1 S1                 0.0000
      5 ****        -1.6475   0.1396   1.7332 C.3            1 S1                 0.0000
      6 ****        -1.1082   0.1145   0.2945 C.2            1 S1                 0.0000
      7 ****        -1.8846   0.1629  -0.6635 O.2            1 S1                 0.0000
      8 ****         0.2349   0.0481   0.1963 N.am           1 S1                 0.0000
      9 ****         0.9762   0.0145  -0.9276 C.2            1 S1                 0.0000
     10 ****         0.5381   0.0275  -2.0801 O.2            1 S1                 0.0000
     11 ****         2.2846  -0.0331  -0.6369 N.am           1 S1                 0.0000
     12 ****         3.3693  -0.0902  -1.6151 C.3            1 S1                 0.0000
     13 ****         3.6692   1.3260  -2.1525 C.3            1 S1                 0.0000
     14 ****         4.8450   1.3208  -3.1398 C.3            1 S1                 0.0000
     15 ****         6.0969   0.7057  -2.5005 C.3            1 S1                 0.0000
     16 ****         5.8090  -0.7096  -1.9777 C.3            1 S1                 0.0000
     17 ****         4.6317  -0.7273  -0.9814 C.3            1 S1                 0.0000
     18 ****         4.3791  -2.1573  -0.4709 C.3            1 S1                 0.0000
     19 ****        -3.6530  -1.3030   1.8008 C.2            1 S1                 0.0000
     20 ****        -2.9713  -2.3265   1.7257 O.2            1 S1                 0.0000
     21 ****        -5.1154  -1.3004   1.8817 C.2            1 S1                 0.0000
     22 ****        -5.7329  -2.5871   1.8655 C.1            1 S1                 0.0000
     23 ****        -6.2520  -3.6218   1.8570 N.1            1 S1                 0.0000
     24 ****        -5.8333  -0.1523   1.9651 C.2            1 S1                 0.0000
     25 ****        -7.3524  -0.0960   2.0519 C.3            1 S1                 0.0000
     26 ****        -6.2893   2.5831   3.0071 H              1 S1                 0.0000
     27 ****        -6.5371   2.5650   1.2594 H              1 S1                 0.0000
     28 ****        -5.0793   3.2803   1.9352 H              1 S1                 0.0000
     29 ****        -1.3738   1.0967   2.1811 H              1 S1                 0.0000
     30 ****        -1.1311  -0.6172   2.3270 H              1 S1                 0.0000
     31 ****         0.7435   0.0230   1.0677 H              1 S1                 0.0000
     32 ****         2.5551  -0.0392   0.3356 H              1 S1                 0.0000
     33 ****         3.0561  -0.7200  -2.4504 H              1 S1                 0.0000
     34 ****         2.7875   1.7385  -2.6445 H              1 S1                 0.0000
     35 ****         3.8987   1.9955  -1.3221 H              1 S1                 0.0000
     36 ****         4.5721   0.7546  -4.0312 H              1 S1                 0.0000
     37 ****         5.0575   2.3377  -3.4712 H              1 S1                 0.0000
     38 ****         6.9088   0.6754  -3.2275 H              1 S1                 0.0000
     39 ****         6.4387   1.3379  -1.6801 H              1 S1                 0.0000
     40 ****         5.5892  -1.3683  -2.8189 H              1 S1                 0.0000
     41 ****         6.7058  -1.1081  -1.5020 H              1 S1                 0.0000
     42 ****         4.9207  -0.1202  -0.1217 H              1 S1                 0.0000
     43 ****         4.0530  -2.8131  -1.2788 H              1 S1                 0.0000
     44 ****         3.6141  -2.1801   0.3054 H              1 S1                 0.0000
     45 ****         5.2856  -2.5853  -0.0421 H              1 S1                 0.0000
     46 ****        -7.7957  -1.0859   2.1567 H              1 S1                 0.0000
     47 ****        -7.7677   0.3595   1.1524 H              1 S1                 0.0000
     48 ****        -7.6688   0.4930   2.9133 H              1 S1                 0.0000
     49 ****        -3.3351   1.9943   1.9042 LP             1 S1                 0.0000
     50 ****        -2.8705   0.2188  -0.5057 LP             1 S1                 0.0000
     51 ****        -1.5278   0.1462  -1.5975 LP             1 S1                 0.0000
     52 ****        -0.4483   0.0659  -2.2396 LP             1 S1                 0.0000
     53 ****         1.1693  -0.0004  -2.8552 LP             1 S1                 0.0000
     54 ****        -1.9749  -2.2608   1.6712 LP             1 S1                 0.0000
     55 ****        -3.4143  -3.2230   1.7193 LP             1 S1                 0.0000
     56 ****        -6.7004  -4.5156   1.8497 LP             1 S1                 0.0000
@<TRIPOS>BOND
    1    1    2 1     
    2    1   26 1     
    3    1   27 1     
    4    1   28 1     
    5    2   24 1     
    6    2    3 2     
    7    3    4 1     
    8    4    5 1     
    9    4   19 am    
   10    5    6 1     
   11    5   29 1     
   12    5   30 1     
   13    6    7 2     
   14    6    8 1     
   15    8    9 1     
   16    8   31 1     
   17    9   10 2     
   18    9   11 1     
   19   11   12 1     
   20   11   32 1     
   21   12   17 1     
   22   12   13 1     
   23   12   33 1     
   24   13   14 1     
   25   13   34 1     
   26   13   35 1     
   27   14   15 1     
   28   14   36 1     
   29   14   37 1     
   30   15   16 1     
   31   15   38 1     
   32   15   39 1     
   33   16   17 1     
   34   16   40 1     
   35   16   41 1     
   36   17   18 1     
   37   17   42 1     
   38   18   43 1     
   39   18   44 1     
   40   18   45 1     
   41   19   20 2     
   42   19   21 1     
   43   21   22 1     
   44   21   24 2     
   45   22   23 3     
   46   24   25 1     
   47   25   46 1     
   48   25   47 1     
   49   25   48 1     
   50    3   49 1     
   51    7   50 1     
   52    7   51 1     
   53   10   52 1     
   54   10   53 1     
   55   20   54 1     
   56   20   55 1     
   57   23   56 1     
@<TRIPOS>SUBSTRUCTURE
      1 S1             1
@<TRIPOS>SET
LONE_PAIRS      STATIC     ATOMS    <user>   **** ""
8 49 50 51 52 53 54 55 56
DONOR_HYDROGENS      STATIC     ATOMS    <user>   **** ""
2 31 32
ATOM$BLUE        STATIC     ATOMS    COLORGROUP SYSTEM
8 49 50 51 52 53 54 55 56
ATOM$RED        STATIC     ATOMS    COLORGROUP SYSTEM
2 31 32
