AV-unprocessed.smi:2061|AV-procd|sdf|8362|dock3
  -GOLD-   2272011 33D 1   1.00000     0.00000
 Structure written by MMmdl.
 45 46  0  0  0  0  0  0  0  0  1 V2000
  138.1046  137.1259  154.0673 C   0  0  0  0  0  0  0  0  0  0  0  0
  139.5940  137.1793  154.0944 C   0  0  0  0  0  0  0  0  0  0  0  0
  140.5038  138.0448  153.5550 C   0  0  0  0  0  0  0  0  0  0  0  0
  141.7487  137.4967  153.9640 C   0  0  0  0  0  0  0  0  0  0  0  0
  142.9724  138.1127  153.5967 N   0  0  0  0  0  0  0  0  0  0  0  0
  144.2152  137.7321  153.9382 C   0  0  0  0  0  0  0  0  0  0  0  0
  144.4898  136.7641  154.6480 O   0  0  0  0  0  0  0  0  0  0  0  0
  145.1368  138.5480  153.4067 N   0  0  0  0  0  0  0  0  0  0  0  0
  146.5831  138.4305  153.5844 C   0  0  0  0  0  0  0  0  0  0  0  0
  147.1986  139.6675  154.2909 C   0  0  2  0  0  0  0  0  0  0  0  0
  147.0891  140.8800  153.3387 C   0  0  0  0  0  0  0  0  0  0  0  0
  148.5662  139.4469  154.8112 N   0  0  0  0  0  0  0  0  0  0  0  0
  149.1635  140.6671  155.3578 C   0  0  0  0  0  0  0  0  0  0  0  0
  150.5737  140.4310  155.9278 C   0  0  2  0  0  0  0  0  0  0  0  0
  151.2203  141.7292  156.4222 C   0  0  0  0  0  0  0  0  0  0  0  0
  151.4099  139.8805  154.9148 O   0  0  0  0  0  0  0  0  0  0  0  0
  150.9109  138.6910  154.3061 C   0  0  1  0  0  0  0  0  0  0  0  0
  151.0448  137.4719  155.2348 C   0  0  0  0  0  0  0  0  0  0  0  0
  149.4744  138.9130  153.7920 C   0  0  0  0  0  0  0  0  0  0  0  0
  141.6109  136.3977  154.6899 N   0  0  0  0  0  0  0  0  0  0  0  0
  140.2296  136.1884  154.7766 O   0  0  0  0  0  0  0  0  0  0  0  0
  137.6831  138.1131  153.8771 H   0  0  0  0  0  0  0  0  0  0  0  0
  137.7099  136.7691  155.0188 H   0  0  0  0  0  0  0  0  0  0  0  0
  137.7581  136.4526  153.2831 H   0  0  0  0  0  0  0  0  0  0  0  0
  140.3071  138.9251  152.9614 H   0  0  0  0  0  0  0  0  0  0  0  0
  142.8931  138.9276  153.0068 H   0  0  0  0  0  0  0  0  0  0  0  0
  144.8158  139.3232  152.8455 H   0  0  0  0  0  0  0  0  0  0  0  0
  146.8315  137.5211  154.1340 H   0  0  0  0  0  0  0  0  0  0  0  0
  147.0333  138.2814  152.6036 H   0  0  0  0  0  0  0  0  0  0  0  0
  146.5492  139.8869  155.1399 H   0  0  0  0  0  0  0  0  0  0  0  0
  146.1027  140.9332  152.8772 H   0  0  0  0  0  0  0  0  0  0  0  0
  147.8252  140.8270  152.5359 H   0  0  0  0  0  0  0  0  0  0  0  0
  147.2291  141.8256  153.8614 H   0  0  0  0  0  0  0  0  0  0  0  0
  149.2036  141.4363  154.5849 H   0  0  0  0  0  0  0  0  0  0  0  0
  148.5504  141.0640  156.1649 H   0  0  0  0  0  0  0  0  0  0  0  0
  150.5154  139.7380  156.7674 H   0  0  0  0  0  0  0  0  0  0  0  0
  150.6277  142.1861  157.2149 H   0  0  0  0  0  0  0  0  0  0  0  0
  151.3165  142.4553  155.6146 H   0  0  0  0  0  0  0  0  0  0  0  0
  152.2176  141.5401  156.8202 H   0  0  0  0  0  0  0  0  0  0  0  0
  151.5483  138.5015  153.4420 H   0  0  0  0  0  0  0  0  0  0  0  0
  150.7709  136.5554  154.7119 H   0  0  0  0  0  0  0  0  0  0  0  0
  150.4012  137.5501  156.1107 H   0  0  0  0  0  0  0  0  0  0  0  0
  152.0718  137.3592  155.5822 H   0  0  0  0  0  0  0  0  0  0  0  0
  149.1090  137.9618  153.4084 H   0  0  0  0  0  0  0  0  0  0  0  0
  149.5058  139.5981  152.9434 H   0  0  0  0  0  0  0  0  0  0  0  0
  1  2  1  0  0  0  0
  1 22  1  0  0  0  0
  1 23  1  0  0  0  0
  1 24  1  0  0  0  0
  2 21  1  0  0  0  0
  2  3  2  0  0  0  0
  3  4  1  0  0  0  0
  3 25  1  0  0  0  0
  4  5  1  0  0  0  0
  4 20  2  0  0  0  0
  5  6  1  0  0  0  0
  5 26  1  0  0  0  0
  6  7  2  0  0  0  0
  6  8  1  0  0  0  0
  8  9  1  0  0  0  0
  8 27  1  0  0  0  0
  9 10  1  0  0  0  0
  9 28  1  0  0  0  0
  9 29  1  0  0  0  0
 10 11  1  0  0  0  0
 10 12  1  0  0  0  0
 10 30  1  0  0  0  0
 11 31  1  0  0  0  0
 11 32  1  0  0  0  0
 11 33  1  0  0  0  0
 12 19  1  0  0  0  0
 12 13  1  0  0  0  0
 13 14  1  0  0  0  0
 13 34  1  0  0  0  0
 13 35  1  0  0  0  0
 14 15  1  0  0  0  0
 14 16  1  0  0  0  0
 14 36  1  0  0  0  0
 15 37  1  0  0  0  0
 15 38  1  0  0  0  0
 15 39  1  0  0  0  0
 16 17  1  0  0  0  0
 17 18  1  0  0  0  0
 17 19  1  0  0  0  0
 17 40  1  0  0  0  0
 18 41  1  0  0  0  0
 18 42  1  0  0  0  0
 18 43  1  0  0  0  0
 19 44  1  0  0  0  0
 19 45  1  0  0  0  0
 20 21  1  0  0  0  0
M  END
> <s_m_source_file>
AV-unprocessed.smi

> <i_m_source_file_index>
2061

> <i_lp_mmshare_version>
43012

> <i_f3d_flags>
0

> <s_epik_input>
W0NIM11jMVtjSF1jKG5vMSlbTkhdQyg9TylbTkhdW0NIMl1bQ0BIXShbQ0gzXSlOMltDSDJdW0NAQEhdKFtDSDNdKU9bQ0BASF0oW0NIM10pW0NIMl0y

> <s_epik_cmdline>
J2VwaWtfcHl0aG9uJywgJy1waCcsICc3LjAnLCAnLXRuJywgJzgnLCAnLW1hJywgJzIwMCcsICctbWV0YWxfYmluZGluZycsICctaW1hZScsICc8aW5maWxlLm1hZT4nLCAnLW9tYWUnLCAnPG91dGZpbGUubWFlPic=

> <r_epik_Ionization_Penalty>
0.214073

> <r_epik_Ionization_Penalty_Charging>
0

> <r_epik_Ionization_Penalty_Neutral>
0.214073

> <r_epik_State_Penalty>
0.204211

> <r_epik_Charging_Adjusted_Penalty>
0.204211

> <i_epik_Tot_Q>
0

> <i_epik_Tot_abs_Q>
0

> <r_epik_Metal_State_Penalty>
0.217067

> <b_epik_Metal_Only>
0

> <s_lp_Force_Field>
OPLS_2005

> <r_lp_Energy>
31.3151

> <b_lp_Chiralities_Consistent>
1

> <s_lp_Variant>
AV-unprocessed.smi:2061-3

> <Gold.Version>
5.8.1

> <Gold.Id.Protein>
6NUR|6NUR_protein|mol2

> <Gold.PLP.Fitness>
43.6320

> <Gold.PLP.PLP>
-32.1211

> <Gold.PLP.part.hbond>
-4.1498

> <Gold.PLP.part.metal>
0.0000

> <Gold.PLP.part.buried>
-4.5886

> <Gold.PLP.part.nonpolar>
-23.9714

> <Gold.PLP.part.repulsive>
0.2476

> <Gold.PLP.ligand.clash>
0.0000

> <Gold.PLP.ligand.torsion>
0.1670

> <Gold.PLP.Chemscore.Hbond>
3.9360

> <Gold.PLP.Chemscore.CHOScore>
0.0000

> <Gold.PLP.Chemscore.Metal>
0.0000

> <Gold.Chemscore.Hbonds>
donor molecule, donor type, donor heavy atom, donor atom, acceptor molecule, acceptor atom, score
      L1  H     5    26       P1 10175  0.96
      L1  H     8    27       P1 10175  1.00
      P1  H  7989  7998       L1    16  1.00
      P1  H 11000 11005       L1    21  1.00

> <Gold.PLP.Chemscore.Internal.Correction>
0.0369

> <Gold.Rescore>
     Score         DG    S(hbond)    S(metal)    S(lipo)     H(rot)  DE(clash)    DE(int)     intcor
     18.76     -21.44       3.18        0.00      79.56       1.55       1.16       1.52       ----

> <Gold.Chemscore.Fitness>
18.7628

> <Gold.Chemscore.DG>
-21.4406

> <Gold.Chemscore.ZeroCoef>
-5.4800

> <Gold.Chemscore.Hbond>
3.1777

> <Gold.Chemscore.Metal>
0.0000

> <Gold.Chemscore.Lipo>
79.5589

> <Gold.Chemscore.Internal_Hbond>
0.0000

> <Gold.Chemscore.DEClash>
1.1618

> <Gold.Chemscore.DEInternal>
1.5160

> <Gold.Chemscore.Rot>
1.5474

> <Gold.Chemscore.Internal.Correction>
   9.000000E+99

> <Gold.Chemscore.Hbonds>
donor molecule, donor type, donor heavy atom, donor atom, acceptor molecule, acceptor atom, score
      L1  H     5    26       P1 10175  0.92
      L1  H     8    27       P1 10175  0.95
      P1  H  7989  7998       L1    16  0.24
      P1  H 11000 11005       L1    21  0.52

> <Gold.Chemscore.Hbond.Weighted>
-10.6134

> <Gold.Chemscore.Metal.Weighted>
-0.0000

> <Gold.Chemscore.Lipo.Weighted>
-9.3084

> <Gold.Chemscore.Internal_Hbond.Weighted>
0.0000

> <Gold.Chemscore.DEClash.Weighted>
1.1618

> <Gold.Chemscore.DEInternal.Weighted>
1.5160

> <Gold.Chemscore.Rot.Weighted>
3.9612

> <Gold.Chemscore.Internal.Correction.Weighted>
   9.000000E+99

> <Gold.Protein.RotatedTorsions>
[ 6907 6896 6895 6894 ] final  127.31 input  -60.11 | X-H torsion
[ 7974 7965 7964 7962 ] final  -68.68 input  175.53 | X-H torsion
[ 8008 7997 7996 7995 ] final  121.29 input   59.86 | X-H torsion
[ 10167 10162 10161 10158 ] final  -82.22 input  -65.29 | X-H torsion
[ 10718 10713 10712 10709 ] final  -54.70 input   66.30 | X-H torsion
[ 10763 10752 10751 10750 ] final   99.62 input  -60.55 | X-H torsion
[ 11005 11000 10999 10996 ] final   64.14 input  -57.11 | X-H torsion

> <Gold.Protein.ActiveResidues>
 VAL166  LYS551  ARG553  GLY616  TRP617  ASP618  TYR619  PRO620  LYS621  CYS622 
 ASP623  PHE694  ASN695  SER759  ASP760  ASP761  ALA762  ILE779  LEU786  VAL792 
 PHE793  MET794  SER795  GLU796  ALA797  LYS798  CYS799  TRP800  GLU811  SER814 

> <Gold.Protein.RotatedAtoms>
  152.3824  133.6564  159.6171 H   0  0  0  0  0  0  0  0  0  0  0  0  # atno 6907 bound_to 6896
  150.7752  133.9091  159.3373 H   0  0  0  0  0  0  0  0  0  0  0  0  # atno 6908 bound_to 6896
  151.6894  135.0950  160.0282 H   0  0  0  0  0  0  0  0  0  0  0  0  # atno 6909 bound_to 6896
  145.7134  140.9069  143.0668 H   0  0  0  0  0  0  0  0  0  0  0  0  # atno 7974 bound_to 7965
  156.2680  140.2811  156.1285 H   0  0  0  0  0  0  0  0  0  0  0  0  # atno 8008 bound_to 7997
  155.1079  140.0390  157.2733 H   0  0  0  0  0  0  0  0  0  0  0  0  # atno 8009 bound_to 7997
  154.6765  140.2599  155.6959 H   0  0  0  0  0  0  0  0  0  0  0  0  # atno 8010 bound_to 7997
  140.4340  143.2538  151.8720 H   0  0  0  0  0  0  0  0  0  0  0  0  # atno 10167 bound_to 10162
  156.1429  130.4154  150.0072 H   0  0  0  0  0  0  0  0  0  0  0  0  # atno 10718 bound_to 10713
  153.3037  135.4107  155.1275 H   0  0  0  0  0  0  0  0  0  0  0  0  # atno 10763 bound_to 10752
  154.8556  135.3547  154.5817 H   0  0  0  0  0  0  0  0  0  0  0  0  # atno 10764 bound_to 10752
  153.6243  135.7063  153.5357 H   0  0  0  0  0  0  0  0  0  0  0  0  # atno 10765 bound_to 10752
  139.9978  134.6489  155.9981 H   0  0  0  0  0  0  0  0  0  0  0  0  # atno 11005 bound_to 11000
  144.6935  139.9106  143.7463 LP  0  0  0  0  0  0  0  0  0  0  0  0  # atno 17320 bound_to 7965
  146.0691  139.3681  143.0534 LP  0  0  0  0  0  0  0  0  0  0  0  0  # atno 17321 bound_to 7965
  139.4786  144.5304  151.8675 LP  0  0  0  0  0  0  0  0  0  0  0  0  # atno 17342 bound_to 10162
  140.4395  144.2006  150.5891 LP  0  0  0  0  0  0  0  0  0  0  0  0  # atno 17343 bound_to 10162
  156.7952  130.9270  151.3646 LP  0  0  0  0  0  0  0  0  0  0  0  0  # atno 17370 bound_to 10713
  157.6592  130.8951  149.9793 LP  0  0  0  0  0  0  0  0  0  0  0  0  # atno 17371 bound_to 10713
  141.1618  133.6538  156.4345 LP  0  0  0  0  0  0  0  0  0  0  0  0  # atno 17394 bound_to 11000
  140.4785  134.6687  157.5160 LP  0  0  0  0  0  0  0  0  0  0  0  0  # atno 17395 bound_to 11000

$$$$
