AV-unprocessed.smi:2126|AV-procd|sdf|8678|dock8
  -GOLD-   2272011433D 1   1.00000     0.00000
 Structure written by MMmdl.
 41 43  0  0  0  0  0  0  0  0  2 V2000
  154.6867  132.4347  164.2377 C   0  0  0  0  0  0  0  0  0  0  0  0
  154.5142  133.7720  164.6829 O   0  0  0  0  0  0  0  0  0  0  0  0
  154.6079  134.7827  163.7506 C   0  0  0  0  0  0  0  0  0  0  0  0
  154.9222  134.5807  162.3843 C   0  0  0  0  0  0  0  0  0  0  0  0
  154.9934  135.6748  161.5007 C   0  0  0  0  0  0  0  0  0  0  0  0
  154.7581  136.9883  161.9524 C   0  0  0  0  0  0  0  0  0  0  0  0
  154.8482  137.9980  161.0183 O   0  0  0  0  0  0  0  0  0  0  0  0
  154.9062  139.3409  161.4812 C   0  0  0  0  0  0  0  0  0  0  0  0
  154.9941  140.2778  160.2679 C   0  0  1  0  0  0  0  0  0  0  0  0
  155.6198  139.5864  159.2047 O   0  0  0  0  0  0  0  0  0  0  0  0
  153.6091  140.7813  159.8144 C   0  0  0  0  0  0  0  0  0  0  0  0
  153.0961  141.8725  160.6520 N   0  0  0  0  0  0  0  0  0  0  0  0
  153.0236  141.9764  162.0066 C   0  0  0  0  0  0  0  0  0  0  0  0
  152.4687  143.1859  162.2966 N   0  3  0  0  0  0  0  0  0  0  0  0
  152.1814  143.8638  161.1098 C   0  0  0  0  0  0  0  0  0  0  0  0
  151.6153  145.1154  160.8878 C   0  0  0  0  0  0  0  0  0  0  0  0
  151.4578  145.5091  159.5425 C   0  0  0  0  0  0  0  0  0  0  0  0
  151.8570  144.6720  158.4799 C   0  0  0  0  0  0  0  0  0  0  0  0
  152.4314  143.4056  158.7165 C   0  0  0  0  0  0  0  0  0  0  0  0
  152.5824  143.0245  160.0490 C   0  0  0  0  0  0  0  0  0  0  0  0
  154.4459  137.1906  163.3190 C   0  0  0  0  0  0  0  0  0  0  0  0
  154.3721  136.0962  164.2020 C   0  0  0  0  0  0  0  0  0  0  0  0
  154.5789  131.7565  165.0840 H   0  0  0  0  0  0  0  0  0  0  0  0
  155.6809  132.2809  163.8159 H   0  0  0  0  0  0  0  0  0  0  0  0
  153.9335  132.1597  163.4982 H   0  0  0  0  0  0  0  0  0  0  0  0
  155.1122  133.5951  161.9877 H   0  0  0  0  0  0  0  0  0  0  0  0
  155.2329  135.5023  160.4616 H   0  0  0  0  0  0  0  0  0  0  0  0
  154.0049  139.5667  162.0542 H   0  0  0  0  0  0  0  0  0  0  0  0
  155.7694  139.4887  162.1327 H   0  0  0  0  0  0  0  0  0  0  0  0
  155.6294  141.1262  160.5235 H   0  0  0  0  0  0  0  0  0  0  0  0
  156.5366  139.4848  159.4111 H   0  0  0  0  0  0  0  0  0  0  0  0
  153.6574  141.1504  158.7890 H   0  0  0  0  0  0  0  0  0  0  0  0
  152.8760  139.9736  159.8179 H   0  0  0  0  0  0  0  0  0  0  0  0
  153.3457  141.2327  162.7212 H   0  0  0  0  0  0  0  0  0  0  0  0
  151.3086  145.7585  161.6996 H   0  0  0  0  0  0  0  0  0  0  0  0
  151.0221  146.4726  159.3211 H   0  0  0  0  0  0  0  0  0  0  0  0
  151.7200  145.0078  157.4622 H   0  0  0  0  0  0  0  0  0  0  0  0
  152.7339  142.7702  157.8971 H   0  0  0  0  0  0  0  0  0  0  0  0
  154.2559  138.1758  163.7163 H   0  0  0  0  0  0  0  0  0  0  0  0
  154.1309  136.2678  165.2408 H   0  0  0  0  0  0  0  0  0  0  0  0
  152.2989  143.5204  163.2365 H   0  0  0  0  0  0  0  0  0  0  0  0
  1  2  1  0  0  0  0
  1 23  1  0  0  0  0
  1 24  1  0  0  0  0
  1 25  1  0  0  0  0
  2  3  1  0  0  0  0
  3 22  1  0  0  0  0
  3  4  2  0  0  0  0
  4  5  1  0  0  0  0
  4 26  1  0  0  0  0
  5  6  2  0  0  0  0
  5 27  1  0  0  0  0
  6  7  1  0  0  0  0
  6 21  1  0  0  0  0
  7  8  1  0  0  0  0
  8  9  1  0  0  0  0
  8 28  1  0  0  0  0
  8 29  1  0  0  0  0
  9 10  1  0  0  0  0
  9 11  1  0  0  0  0
  9 30  1  0  0  0  0
 10 31  1  0  0  0  0
 11 12  1  0  0  0  0
 11 32  1  0  0  0  0
 11 33  1  0  0  0  0
 12 20  1  0  0  0  0
 12 13  1  0  0  0  0
 13 14  2  0  0  0  0
 13 34  1  0  0  0  0
 14 15  1  0  0  0  0
 14 41  1  0  0  0  0
 15 20  2  0  0  0  0
 15 16  1  0  0  0  0
 16 17  2  0  0  0  0
 16 35  1  0  0  0  0
 17 18  1  0  0  0  0
 17 36  1  0  0  0  0
 18 19  2  0  0  0  0
 18 37  1  0  0  0  0
 19 20  1  0  0  0  0
 19 38  1  0  0  0  0
 21 22  2  0  0  0  0
 21 39  1  0  0  0  0
 22 40  1  0  0  0  0
M  CHG  1  14   1
M  END
> <s_m_source_file>
AV-unprocessed.smi

> <i_m_source_file_index>
2126

> <i_lp_mmshare_version>
43012

> <i_f3d_flags>
0

> <s_epik_input>
W0NIM11PYzFbY0hdW2NIXWMoW2NIXVtjSF0xKU9bQ0gyXVtDQEhdKFtPSF0pW0NIMl1uKFtjSF1uMiljKGMyMylbY0hdW2NIXVtjSF1bY0hdMw==

> <s_epik_cmdline>
J2VwaWtfcHl0aG9uJywgJy1waCcsICc3LjAnLCAnLXRuJywgJzgnLCAnLW1hJywgJzIwMCcsICctbWV0YWxfYmluZGluZycsICctaW1hZScsICc8aW5maWxlLm1hZT4nLCAnLW9tYWUnLCAnPG91dGZpbGUubWFlPic=

> <r_lp_tautomer_probability>
1

> <r_epik_Ionization_Penalty>
1.37822

> <r_epik_Ionization_Penalty_Charging>
1.37822

> <r_epik_Ionization_Penalty_Neutral>
2.3993e-06

> <r_epik_State_Penalty>
1.45852

> <r_epik_Charging_Adjusted_Penalty>
2.83674

> <i_epik_Tot_Q>
1

> <i_epik_Tot_abs_Q>
1

> <r_epik_Metal_State_Penalty>
5.4985

> <b_epik_Metal_Only>
0

> <s_lp_Force_Field>
OPLS_2005

> <r_lp_Energy>
22.1455

> <b_lp_Chiralities_Consistent>
1

> <s_lp_Variant>
AV-unprocessed.smi:2126-4

> <Gold.Version>
5.8.1

> <Gold.Id.Protein>
6NUR|6NUR_protein|mol2

> <Gold.PLP.Fitness>
59.5650

> <Gold.PLP.PLP>
-58.2677

> <Gold.PLP.part.hbond>
-1.0481

> <Gold.PLP.part.metal>
0.0000

> <Gold.PLP.part.buried>
-5.1332

> <Gold.PLP.part.nonpolar>
-51.8247

> <Gold.PLP.part.repulsive>
0.1748

> <Gold.PLP.ligand.clash>
0.0000

> <Gold.PLP.ligand.torsion>
0.8971

> <Gold.PLP.Chemscore.Hbond>
1.0000

> <Gold.PLP.Chemscore.CHOScore>
0.0000

> <Gold.PLP.Chemscore.Metal>
0.0000

> <Gold.Chemscore.Hbonds>
donor molecule, donor type, donor heavy atom, donor atom, acceptor molecule, acceptor atom, score
      P1  H  7997  8010       L1    10  1.00

> <Gold.PLP.Chemscore.Internal.Correction>
0.0915

> <Gold.Rescore>
     Score         DG    S(hbond)    S(metal)    S(lipo)     H(rot)  DE(clash)    DE(int)     intcor
     19.03     -19.92       0.96        0.00     153.14       2.60       0.11       0.78       ----

> <Gold.Chemscore.Fitness>
19.0308

> <Gold.Chemscore.DG>
-19.9239

> <Gold.Chemscore.ZeroCoef>
-5.4800

> <Gold.Chemscore.Hbond>
0.9563

> <Gold.Chemscore.Metal>
0.0000

> <Gold.Chemscore.Lipo>
153.1351

> <Gold.Chemscore.Internal_Hbond>
0.0000

> <Gold.Chemscore.DEClash>
0.1082

> <Gold.Chemscore.DEInternal>
0.7848

> <Gold.Chemscore.Rot>
2.6043

> <Gold.Chemscore.Internal.Correction>
   9.000000E+99

> <Gold.Chemscore.Hbonds>
donor molecule, donor type, donor heavy atom, donor atom, acceptor molecule, acceptor atom, score
      P1  H  7997  8010       L1    10  0.81

> <Gold.Chemscore.Hbond.Weighted>
-3.1941

> <Gold.Chemscore.Metal.Weighted>
-0.0000

> <Gold.Chemscore.Lipo.Weighted>
-17.9168

> <Gold.Chemscore.Internal_Hbond.Weighted>
0.0000

> <Gold.Chemscore.DEClash.Weighted>
0.1082

> <Gold.Chemscore.DEInternal.Weighted>
0.7848

> <Gold.Chemscore.Rot.Weighted>
6.6670

> <Gold.Chemscore.Internal.Correction.Weighted>
   9.000000E+99

> <Gold.Protein.RotatedTorsions>
[ 6907 6896 6895 6894 ] final -119.11 input  -60.11 | X-H torsion
[ 7974 7965 7964 7962 ] final  -76.66 input  175.53 | X-H torsion
[ 8008 7997 7996 7995 ] final  -13.31 input   59.86 | X-H torsion
[ 10167 10162 10161 10158 ] final   97.97 input  -65.29 | X-H torsion
[ 10718 10713 10712 10709 ] final   22.55 input   66.30 | X-H torsion
[ 10763 10752 10751 10750 ] final   28.49 input  -60.55 | X-H torsion
[ 11005 11000 10999 10996 ] final   35.90 input  -57.11 | X-H torsion

> <Gold.Protein.ActiveResidues>
 VAL166  LYS551  ARG553  GLY616  TRP617  ASP618  TYR619  PRO620  LYS621  CYS622 
 ASP623  PHE694  ASN695  SER759  ASP760  ASP761  ALA762  ILE779  LEU786  VAL792 
 PHE793  MET794  SER795  GLU796  ALA797  LYS798  CYS799  TRP800  GLU811  SER814 

> <Gold.Protein.RotatedAtoms>
  150.8277  133.8144  159.3111 H   0  0  0  0  0  0  0  0  0  0  0  0  # atno 6907 bound_to 6896
  151.5884  135.1053  160.0043 H   0  0  0  0  0  0  0  0  0  0  0  0  # atno 6908 bound_to 6896
  152.4360  133.7320  159.6649 H   0  0  0  0  0  0  0  0  0  0  0  0  # atno 6909 bound_to 6896
  145.6100  140.9389  143.1195 H   0  0  0  0  0  0  0  0  0  0  0  0  # atno 7974 bound_to 7965
  154.5303  140.2253  155.8816 H   0  0  0  0  0  0  0  0  0  0  0  0  # atno 8008 bound_to 7997
  156.1757  140.3112  155.9018 H   0  0  0  0  0  0  0  0  0  0  0  0  # atno 8009 bound_to 7997
  155.3465  140.0453  157.3036 H   0  0  0  0  0  0  0  0  0  0  0  0  # atno 8010 bound_to 7997
  139.7752  144.6908  151.0099 H   0  0  0  0  0  0  0  0  0  0  0  0  # atno 10167 bound_to 10162
  157.1539  130.6687  149.6021 H   0  0  0  0  0  0  0  0  0  0  0  0  # atno 10718 bound_to 10713
  153.0489  135.6512  154.0746 H   0  0  0  0  0  0  0  0  0  0  0  0  # atno 10763 bound_to 10752
  154.0438  135.2901  155.3352 H   0  0  0  0  0  0  0  0  0  0  0  0  # atno 10764 bound_to 10752
  154.6764  135.5336  153.8272 H   0  0  0  0  0  0  0  0  0  0  0  0  # atno 10765 bound_to 10752
  140.2380  134.3449  155.7937 H   0  0  0  0  0  0  0  0  0  0  0  0  # atno 11005 bound_to 11000
  144.7274  139.7832  143.7360 LP  0  0  0  0  0  0  0  0  0  0  0  0  # atno 17320 bound_to 7965
  146.1512  139.4595  143.0048 LP  0  0  0  0  0  0  0  0  0  0  0  0  # atno 17321 bound_to 7965
  140.7816  143.4544  151.0367 LP  0  0  0  0  0  0  0  0  0  0  0  0  # atno 17342 bound_to 10162
  139.8226  143.7799  152.3177 LP  0  0  0  0  0  0  0  0  0  0  0  0  # atno 17343 bound_to 10162
  155.9765  130.4735  150.6536 LP  0  0  0  0  0  0  0  0  0  0  0  0  # atno 17370 bound_to 10713
  157.4195  131.0835  151.1144 LP  0  0  0  0  0  0  0  0  0  0  0  0  # atno 17371 bound_to 10713
  141.2213  133.7282  156.8839 LP  0  0  0  0  0  0  0  0  0  0  0  0  # atno 17394 bound_to 11000
  140.1682  134.9118  157.2801 LP  0  0  0  0  0  0  0  0  0  0  0  0  # atno 17395 bound_to 11000

$$$$
