AV-unprocessed.smi:1668|AV-procd|sdf|6681|dock9
  -GOLD-   22720 7403D 1   1.00000     0.00000
 Structure written by MMmdl.
 44 46  0  0  0  0  0  0  0  0  1 V2000
  145.3151  143.6090  154.8297 C   0  0  0  0  0  0  0  0  0  0  0  0
  145.9594  142.9692  153.7379 O   0  0  0  0  0  0  0  0  0  0  0  0
  146.9057  142.0068  154.0170 C   0  0  0  0  0  0  0  0  0  0  0  0
  147.2165  140.9238  153.1620 C   0  0  0  0  0  0  0  0  0  0  0  0
  148.2063  139.9916  153.5235 C   0  0  0  0  0  0  0  0  0  0  0  0
  148.9099  140.1161  154.7466 C   0  0  0  0  0  0  0  0  0  0  0  0
  149.9030  139.2413  155.1369 O   0  0  0  0  0  0  0  0  0  0  0  0
  150.3827  138.2982  154.1904 C   0  0  0  0  0  0  0  0  0  0  0  0
  148.5956  141.1951  155.6096 C   0  0  0  0  0  0  0  0  0  0  0  0
  149.3571  141.3968  156.9205 C   0  0  2  0  0  0  0  0  0  0  0  0
  148.7276  142.3281  157.7778 O   0  0  0  0  0  0  0  0  0  0  0  0
  150.8146  141.8588  156.6961 C   0  0  0  0  0  0  0  0  0  0  0  0
  151.5924  141.8680  157.9358 N   0  0  0  0  0  0  0  0  0  0  0  0
  152.4480  140.9025  158.3478 C   0  0  0  0  0  0  0  0  0  0  0  0
  152.6730  139.8415  157.7658 O   0  0  0  0  0  0  0  0  0  0  0  0
  153.0394  141.3247  159.4893 N   0  0  0  0  0  0  0  0  0  0  0  0
  154.0645  140.6236  160.2524 C   0  0  0  0  0  0  0  0  0  0  0  0
  152.5620  142.6019  159.8095 C   0  0  0  0  0  0  0  0  0  0  0  0
  152.8851  143.4687  160.8675 C   0  0  0  0  0  0  0  0  0  0  0  0
  152.2284  144.7212  160.8998 C   0  0  0  0  0  0  0  0  0  0  0  0
  151.2863  145.0739  159.8990 C   0  0  0  0  0  0  0  0  0  0  0  0
  150.9794  144.1813  158.8460 C   0  0  0  0  0  0  0  0  0  0  0  0
  151.6459  142.9432  158.8369 C   0  0  0  0  0  0  0  0  0  0  0  0
  147.6021  142.1267  155.2343 C   0  0  0  0  0  0  0  0  0  0  0  0
  144.5990  144.3369  154.4485 H   0  0  0  0  0  0  0  0  0  0  0  0
  146.0295  144.1458  155.4552 H   0  0  0  0  0  0  0  0  0  0  0  0
  144.7635  142.8941  155.4420 H   0  0  0  0  0  0  0  0  0  0  0  0
  146.7116  140.7861  152.2181 H   0  0  0  0  0  0  0  0  0  0  0  0
  148.4090  139.1839  152.8373 H   0  0  0  0  0  0  0  0  0  0  0  0
  151.2319  137.7650  154.6174 H   0  0  0  0  0  0  0  0  0  0  0  0
  150.7286  138.7893  153.2794 H   0  0  0  0  0  0  0  0  0  0  0  0
  149.6206  137.5596  153.9395 H   0  0  0  0  0  0  0  0  0  0  0  0
  149.3684  140.4586  157.4755 H   0  0  0  0  0  0  0  0  0  0  0  0
  147.7918  142.2301  157.6894 H   0  0  0  0  0  0  0  0  0  0  0  0
  151.3041  141.2184  155.9620 H   0  0  0  0  0  0  0  0  0  0  0  0
  150.8242  142.8625  156.2676 H   0  0  0  0  0  0  0  0  0  0  0  0
  153.8702  140.7069  161.3222 H   0  0  0  0  0  0  0  0  0  0  0  0
  155.0442  141.0553  160.0467 H   0  0  0  0  0  0  0  0  0  0  0  0
  154.1011  139.5623  160.0027 H   0  0  0  0  0  0  0  0  0  0  0  0
  153.6067  143.1951  161.6227 H   0  0  0  0  0  0  0  0  0  0  0  0
  152.4485  145.4182  161.6948 H   0  0  0  0  0  0  0  0  0  0  0  0
  150.7991  146.0370  159.9400 H   0  0  0  0  0  0  0  0  0  0  0  0
  150.2685  144.4496  158.0788 H   0  0  0  0  0  0  0  0  0  0  0  0
  147.3758  142.9607  155.8826 H   0  0  0  0  0  0  0  0  0  0  0  0
  1  2  1  0  0  0  0
  1 25  1  0  0  0  0
  1 26  1  0  0  0  0
  1 27  1  0  0  0  0
  2  3  1  0  0  0  0
  3 24  1  0  0  0  0
  3  4  2  0  0  0  0
  4  5  1  0  0  0  0
  4 28  1  0  0  0  0
  5  6  2  0  0  0  0
  5 29  1  0  0  0  0
  6  7  1  0  0  0  0
  6  9  1  0  0  0  0
  7  8  1  0  0  0  0
  8 30  1  0  0  0  0
  8 31  1  0  0  0  0
  8 32  1  0  0  0  0
  9 10  1  0  0  0  0
  9 24  2  0  0  0  0
 10 11  1  0  0  0  0
 10 12  1  0  0  0  0
 10 33  1  0  0  0  0
 11 34  1  0  0  0  0
 12 13  1  0  0  0  0
 12 35  1  0  0  0  0
 12 36  1  0  0  0  0
 13 23  1  0  0  0  0
 13 14  1  0  0  0  0
 14 15  2  0  0  0  0
 14 16  1  0  0  0  0
 16 17  1  0  0  0  0
 16 18  1  0  0  0  0
 17 37  1  0  0  0  0
 17 38  1  0  0  0  0
 17 39  1  0  0  0  0
 18 23  2  0  0  0  0
 18 19  1  0  0  0  0
 19 20  2  0  0  0  0
 19 40  1  0  0  0  0
 20 21  1  0  0  0  0
 20 41  1  0  0  0  0
 21 22  2  0  0  0  0
 21 42  1  0  0  0  0
 22 23  1  0  0  0  0
 22 43  1  0  0  0  0
 24 44  1  0  0  0  0
M  END
> <s_m_source_file>
AV-unprocessed.smi

> <i_m_source_file_index>
1668

> <i_lp_mmshare_version>
43012

> <i_f3d_flags>
0

> <s_epik_input>
W0NIM11PYzFbY0hdW2NIXWMoT1tDSDNdKWMoW2NIXTEpW0NASF0oW09IXSlbQ0gyXW4oYyg9TyluMltDSDNdKWMoYzIzKVtjSF1bY0hdW2NIXVtjSF0z

> <s_epik_cmdline>
J2VwaWtfcHl0aG9uJywgJy1waCcsICc3LjAnLCAnLXRuJywgJzgnLCAnLW1hJywgJzIwMCcsICctbWV0YWxfYmluZGluZycsICctaW1hZScsICc8aW5maWxlLm1hZT4nLCAnLW9tYWUnLCAnPG91dGZpbGUubWFlPic=

> <r_lp_tautomer_probability>
1

> <r_epik_Ionization_Penalty>
1.34538e-06

> <r_epik_Ionization_Penalty_Charging>
1.76928e-09

> <r_epik_Ionization_Penalty_Neutral>
1.34362e-06

> <r_epik_State_Penalty>
-0

> <r_epik_Charging_Adjusted_Penalty>
1.76928e-09

> <i_epik_Tot_Q>
0

> <i_epik_Tot_abs_Q>
0

> <r_epik_Metal_State_Penalty>
-0

> <b_epik_Metal_Only>
0

> <s_lp_Force_Field>
OPLS_2005

> <r_lp_Energy>
46.5536

> <b_lp_Chiralities_Consistent>
1

> <s_lp_Variant>
AV-unprocessed.smi:1668-1

> <Gold.Version>
5.8.1

> <Gold.Id.Protein>
6NUR|6NUR_protein|mol2

> <Gold.PLP.Fitness>
50.4045

> <Gold.PLP.PLP>
-49.5513

> <Gold.PLP.part.hbond>
-1.3143

> <Gold.PLP.part.metal>
0.0000

> <Gold.PLP.part.buried>
-3.2887

> <Gold.PLP.part.nonpolar>
-44.9789

> <Gold.PLP.part.repulsive>
0.2854

> <Gold.PLP.ligand.clash>
0.0000

> <Gold.PLP.ligand.torsion>
1.1100

> <Gold.PLP.Chemscore.Hbond>
1.0000

> <Gold.PLP.Chemscore.CHOScore>
0.0000

> <Gold.PLP.Chemscore.Metal>
0.0000

> <Gold.Chemscore.Hbonds>
donor molecule, donor type, donor heavy atom, donor atom, acceptor molecule, acceptor atom, score
      P1  H  7997  8010       L1    15  1.00

> <Gold.PLP.Chemscore.Internal.Correction>
0.0732

> <Gold.Rescore>
     Score         DG    S(hbond)    S(metal)    S(lipo)     H(rot)  DE(clash)    DE(int)     intcor
     16.55     -19.03       0.93        0.00     138.37       2.24       1.33       1.15       ----

> <Gold.Chemscore.Fitness>
16.5464

> <Gold.Chemscore.DG>
-19.0270

> <Gold.Chemscore.ZeroCoef>
-5.4800

> <Gold.Chemscore.Hbond>
0.9296

> <Gold.Chemscore.Metal>
0.0000

> <Gold.Chemscore.Lipo>
138.3656

> <Gold.Chemscore.Internal_Hbond>
0.0000

> <Gold.Chemscore.DEClash>
1.3283

> <Gold.Chemscore.DEInternal>
1.1522

> <Gold.Chemscore.Rot>
2.2448

> <Gold.Chemscore.Internal.Correction>
   9.000000E+99

> <Gold.Chemscore.Hbonds>
donor molecule, donor type, donor heavy atom, donor atom, acceptor molecule, acceptor atom, score
      P1  H  7997  8010       L1    15  0.56

> <Gold.Chemscore.Hbond.Weighted>
-3.1049

> <Gold.Chemscore.Metal.Weighted>
-0.0000

> <Gold.Chemscore.Lipo.Weighted>
-16.1888

> <Gold.Chemscore.Internal_Hbond.Weighted>
0.0000

> <Gold.Chemscore.DEClash.Weighted>
1.3283

> <Gold.Chemscore.DEInternal.Weighted>
1.1522

> <Gold.Chemscore.Rot.Weighted>
5.7467

> <Gold.Chemscore.Internal.Correction.Weighted>
   9.000000E+99

> <Gold.Protein.RotatedTorsions>
[ 6907 6896 6895 6894 ] final -138.05 input  -60.11 | X-H torsion
[ 7974 7965 7964 7962 ] final    3.55 input  175.53 | X-H torsion
[ 8008 7997 7996 7995 ] final   51.12 input   59.86 | X-H torsion
[ 10167 10162 10161 10158 ] final   38.09 input  -65.29 | X-H torsion
[ 10718 10713 10712 10709 ] final  -45.62 input   66.30 | X-H torsion
[ 10763 10752 10751 10750 ] final  147.76 input  -60.55 | X-H torsion
[ 11005 11000 10999 10996 ] final  131.40 input  -57.11 | X-H torsion

> <Gold.Protein.ActiveResidues>
 VAL166  LYS551  ARG553  GLY616  TRP617  ASP618  TYR619  PRO620  LYS621  CYS622 
 ASP623  PHE694  ASN695  SER759  ASP760  ASP761  ALA762  ILE779  LEU786  VAL792 
 PHE793  MET794  SER795  GLU796  ALA797  LYS798  CYS799  TRP800  GLU811  SER814 

> <Gold.Protein.RotatedAtoms>
  151.0302  133.5798  159.2661 H   0  0  0  0  0  0  0  0  0  0  0  0  # atno 6907 bound_to 6896
  151.2882  135.0733  159.9204 H   0  0  0  0  0  0  0  0  0  0  0  0  # atno 6908 bound_to 6896
  152.5343  134.0004  159.7946 H   0  0  0  0  0  0  0  0  0  0  0  0  # atno 6909 bound_to 6896
  146.2445  140.0668  142.8365 H   0  0  0  0  0  0  0  0  0  0  0  0  # atno 7974 bound_to 7965
  155.4300  140.3450  155.4279 H   0  0  0  0  0  0  0  0  0  0  0  0  # atno 8008 bound_to 7997
  156.1342  140.1523  156.9051 H   0  0  0  0  0  0  0  0  0  0  0  0  # atno 8009 bound_to 7997
  154.4918  140.0839  156.7591 H   0  0  0  0  0  0  0  0  0  0  0  0  # atno 8010 bound_to 7997
  140.3970  144.1776  150.6132 H   0  0  0  0  0  0  0  0  0  0  0  0  # atno 10167 bound_to 10162
  156.2265  130.4169  149.8928 H   0  0  0  0  0  0  0  0  0  0  0  0  # atno 10718 bound_to 10713
  154.0436  135.2887  155.3351 H   0  0  0  0  0  0  0  0  0  0  0  0  # atno 10763 bound_to 10752
  154.6913  135.5225  153.8400 H   0  0  0  0  0  0  0  0  0  0  0  0  # atno 10764 bound_to 10752
  153.0590  135.6606  154.0638 H   0  0  0  0  0  0  0  0  0  0  0  0  # atno 10765 bound_to 10752
  139.9728  134.9572  156.9433 H   0  0  0  0  0  0  0  0  0  0  0  0  # atno 11005 bound_to 11000
  145.0851  140.9247  143.4802 LP  0  0  0  0  0  0  0  0  0  0  0  0  # atno 17320 bound_to 7965
  145.0829  139.2946  143.5774 LP  0  0  0  0  0  0  0  0  0  0  0  0  # atno 17321 bound_to 7965
  140.4780  143.2389  151.8995 LP  0  0  0  0  0  0  0  0  0  0  0  0  # atno 17342 bound_to 10162
  139.4786  144.5299  151.8681 LP  0  0  0  0  0  0  0  0  0  0  0  0  # atno 17343 bound_to 10162
  156.6557  130.8761  151.3539 LP  0  0  0  0  0  0  0  0  0  0  0  0  # atno 17370 bound_to 10713
  157.7113  130.9443  150.1098 LP  0  0  0  0  0  0  0  0  0  0  0  0  # atno 17371 bound_to 10713
  140.5257  134.0863  155.7303 LP  0  0  0  0  0  0  0  0  0  0  0  0  # atno 17394 bound_to 11000
  141.1407  133.9143  157.2332 LP  0  0  0  0  0  0  0  0  0  0  0  0  # atno 17395 bound_to 11000

$$$$
