AV-unprocessed.smi:3112|AV-procd|sdf|11850|dock7
  -GOLD-   2272017233D 1   1.00000     0.00000
 Structure written by MMmdl.
 36 36  0  0  0  0  0  0  0  0  1 V2000
  146.4695  142.3095  155.1068 C   0  0  0  0  0  0  0  0  0  0  0  0
  147.4561  141.1728  154.8071 C   0  0  0  0  0  0  0  0  0  0  0  0
  148.8804  141.6715  154.4910 C   0  0  2  0  0  0  0  0  0  0  0  0
  149.4217  140.9861  153.3795 O   0  0  0  0  0  0  0  0  0  0  0  0
  149.8659  141.5718  155.6705 C   0  0  0  0  0  0  0  0  0  0  0  0
  149.4346  142.3636  156.8259 N   0  0  0  0  0  0  0  0  0  0  0  0
  150.1649  142.0957  158.0686 C   0  0  1  0  0  0  0  0  0  0  0  0
  150.1176  140.5795  158.3364 C   0  0  0  0  0  0  0  0  0  0  0  0
  151.6244  142.6394  158.0092 C   0  0  1  0  0  0  0  0  0  0  0  0
  151.7366  144.1289  157.6349 C   0  0  0  0  0  0  0  0  0  0  0  0
  152.3457  142.3951  159.2527 N   0  0  0  0  0  0  0  0  0  0  0  0
  152.3001  143.1244  160.4234 C   0  0  0  0  0  0  0  0  0  0  0  0
  153.1402  142.5206  161.3146 C   0  0  0  0  0  0  0  0  0  0  0  0
  153.6619  141.4134  160.5898 C   0  0  0  0  0  0  0  0  0  0  0  0
  153.1857  141.3400  159.3579 N   0  0  0  0  0  0  0  0  0  0  0  0
  145.4856  141.9117  155.3559 H   0  0  0  0  0  0  0  0  0  0  0  0
  146.3501  142.9695  154.2472 H   0  0  0  0  0  0  0  0  0  0  0  0
  146.8065  142.9131  155.9497 H   0  0  0  0  0  0  0  0  0  0  0  0
  147.4944  140.5116  155.6737 H   0  0  0  0  0  0  0  0  0  0  0  0
  147.0726  140.5723  153.9812 H   0  0  0  0  0  0  0  0  0  0  0  0
  148.8210  142.7230  154.2072 H   0  0  0  0  0  0  0  0  0  0  0  0
  148.7185  140.5470  152.9261 H   0  0  0  0  0  0  0  0  0  0  0  0
  150.0148  140.5265  155.9339 H   0  0  0  0  0  0  0  0  0  0  0  0
  150.8391  141.9348  155.3384 H   0  0  0  0  0  0  0  0  0  0  0  0
  149.5095  143.3490  156.5952 H   0  0  0  0  0  0  0  0  0  0  0  0
  149.6467  142.5744  158.9011 H   0  0  0  0  0  0  0  0  0  0  0  0
  150.5298  140.3259  159.3131 H   0  0  0  0  0  0  0  0  0  0  0  0
  150.6786  140.0252  157.5832 H   0  0  0  0  0  0  0  0  0  0  0  0
  149.0913  140.2112  158.3232 H   0  0  0  0  0  0  0  0  0  0  0  0
  152.1519  142.0775  157.2364 H   0  0  0  0  0  0  0  0  0  0  0  0
  151.4346  144.3034  156.6028 H   0  0  0  0  0  0  0  0  0  0  0  0
  152.7667  144.4768  157.7210 H   0  0  0  0  0  0  0  0  0  0  0  0
  151.1204  144.7531  158.2826 H   0  0  0  0  0  0  0  0  0  0  0  0
  151.6813  144.0038  160.5237 H   0  0  0  0  0  0  0  0  0  0  0  0
  153.3499  142.8238  162.3294 H   0  0  0  0  0  0  0  0  0  0  0  0
  154.3679  140.6658  160.9200 H   0  0  0  0  0  0  0  0  0  0  0  0
  1  2  1  0  0  0  0
  1 16  1  0  0  0  0
  1 17  1  0  0  0  0
  1 18  1  0  0  0  0
  2  3  1  0  0  0  0
  2 19  1  0  0  0  0
  2 20  1  0  0  0  0
  3  4  1  0  0  0  0
  3  5  1  0  0  0  0
  3 21  1  0  0  0  0
  4 22  1  0  0  0  0
  5  6  1  0  0  0  0
  5 23  1  0  0  0  0
  5 24  1  0  0  0  0
  6  7  1  0  0  0  0
  6 25  1  0  0  0  0
  7  8  1  0  0  0  0
  7  9  1  0  0  0  0
  7 26  1  0  0  0  0
  8 27  1  0  0  0  0
  8 28  1  0  0  0  0
  8 29  1  0  0  0  0
  9 10  1  0  0  0  0
  9 11  1  0  0  0  0
  9 30  1  0  0  0  0
 10 31  1  0  0  0  0
 10 32  1  0  0  0  0
 10 33  1  0  0  0  0
 11 15  1  0  0  0  0
 11 12  1  0  0  0  0
 12 13  2  0  0  0  0
 12 34  1  0  0  0  0
 13 14  1  0  0  0  0
 13 35  1  0  0  0  0
 14 15  2  0  0  0  0
 14 36  1  0  0  0  0
M  END
> <s_m_source_file>
AV-unprocessed.smi

> <i_m_source_file_index>
3112

> <i_lp_mmshare_version>
43012

> <i_f3d_flags>
0

> <s_epik_input>
W0NIM11bQ0gyXVtDQEhdKFtPSF0pW0NIMl1bTkhdW0NASF0oW0NIM10pW0NASF0oW0NIM10pbjFbY0hdW2NIXVtjSF1uMQ==

> <s_epik_cmdline>
J2VwaWtfcHl0aG9uJywgJy1waCcsICc3LjAnLCAnLXRuJywgJzgnLCAnLW1hJywgJzIwMCcsICctbWV0YWxfYmluZGluZycsICctaW1hZScsICc8aW5maWxlLm1hZT4nLCAnLW9tYWUnLCAnPG91dGZpbGUubWFlPic=

> <r_lp_tautomer_probability>
1

> <r_epik_Ionization_Penalty>
2.16876

> <r_epik_Ionization_Penalty_Charging>
0

> <r_epik_Ionization_Penalty_Neutral>
2.16876

> <r_epik_State_Penalty>
2.30854

> <r_epik_Charging_Adjusted_Penalty>
2.30854

> <i_epik_Tot_Q>
0

> <i_epik_Tot_abs_Q>
0

> <r_epik_Metal_State_Penalty>
2.3073

> <b_epik_Metal_Only>
0

> <s_lp_Force_Field>
OPLS_2005

> <r_lp_Energy>
23.3331

> <b_lp_Chiralities_Consistent>
1

> <s_lp_Variant>
AV-unprocessed.smi:3112-15

> <Gold.Version>
5.8.1

> <Gold.Id.Protein>
6NUR|6NUR_protein|mol2

> <Gold.PLP.Fitness>
42.9420

> <Gold.PLP.PLP>
-38.2043

> <Gold.PLP.part.hbond>
-3.5350

> <Gold.PLP.part.metal>
0.0000

> <Gold.PLP.part.buried>
-3.1781

> <Gold.PLP.part.nonpolar>
-31.3417

> <Gold.PLP.part.repulsive>
0.0000

> <Gold.PLP.ligand.clash>
0.0000

> <Gold.PLP.ligand.torsion>
1.1614

> <Gold.PLP.Chemscore.Hbond>
2.3045

> <Gold.PLP.Chemscore.CHOScore>
0.0000

> <Gold.PLP.Chemscore.Metal>
0.0000

> <Gold.Chemscore.Hbonds>
donor molecule, donor type, donor heavy atom, donor atom, acceptor molecule, acceptor atom, score
      L1  H     4    22       P1  7957  0.05
      L1  H     6    25       P1  8028  0.96
      P1  H  7989  7998       L1     4  0.14
      P1  H  8011  8017       L1     4  0.95

> <Gold.PLP.Chemscore.Internal.Correction>
0.1470

> <Gold.Rescore>
     Score         DG    S(hbond)    S(metal)    S(lipo)     H(rot)  DE(clash)    DE(int)     intcor
     15.73     -17.13       2.21        0.00      87.00       2.31       0.02       1.38       ----

> <Gold.Chemscore.Fitness>
15.7275

> <Gold.Chemscore.DG>
-17.1274

> <Gold.Chemscore.ZeroCoef>
-5.4800

> <Gold.Chemscore.Hbond>
2.2108

> <Gold.Chemscore.Metal>
0.0000

> <Gold.Chemscore.Lipo>
87.0003

> <Gold.Chemscore.Internal_Hbond>
0.0000

> <Gold.Chemscore.DEClash>
0.0180

> <Gold.Chemscore.DEInternal>
1.3819

> <Gold.Chemscore.Rot>
2.3108

> <Gold.Chemscore.Internal.Correction>
   9.000000E+99

> <Gold.Chemscore.Hbonds>
donor molecule, donor type, donor heavy atom, donor atom, acceptor molecule, acceptor atom, score
      L1  H     4    22       P1  7957  0.07
      L1  H     6    25       P1  8028  0.92
      P1  H  7989  7998       L1     4  0.12
      P1  H  8011  8017       L1     4  0.10

> <Gold.Chemscore.Hbond.Weighted>
-7.3840

> <Gold.Chemscore.Metal.Weighted>
-0.0000

> <Gold.Chemscore.Lipo.Weighted>
-10.1790

> <Gold.Chemscore.Internal_Hbond.Weighted>
0.0000

> <Gold.Chemscore.DEClash.Weighted>
0.0180

> <Gold.Chemscore.DEInternal.Weighted>
1.3819

> <Gold.Chemscore.Rot.Weighted>
5.9157

> <Gold.Chemscore.Internal.Correction.Weighted>
   9.000000E+99

> <Gold.Protein.RotatedTorsions>
[ 6907 6896 6895 6894 ] final  134.76 input  -60.11 | X-H torsion
[ 7974 7965 7964 7962 ] final  157.67 input  175.53 | X-H torsion
[ 8008 7997 7996 7995 ] final  -70.36 input   59.86 | X-H torsion
[ 10167 10162 10161 10158 ] final  -30.90 input  -65.29 | X-H torsion
[ 10718 10713 10712 10709 ] final  -66.62 input   66.30 | X-H torsion
[ 10763 10752 10751 10750 ] final   93.72 input  -60.55 | X-H torsion
[ 11005 11000 10999 10996 ] final   28.87 input  -57.11 | X-H torsion

> <Gold.Protein.ActiveResidues>
 VAL166  LYS551  ARG553  GLY616  TRP617  ASP618  TYR619  PRO620  LYS621  CYS622 
 ASP623  PHE694  ASN695  SER759  ASP760  ASP761  ALA762  ILE779  LEU786  VAL792 
 PHE793  MET794  SER795  GLU796  ALA797  LYS798  CYS799  TRP800  GLU811  SER814 

> <Gold.Protein.RotatedAtoms>
  152.3078  133.5721  159.5660 H   0  0  0  0  0  0  0  0  0  0  0  0  # atno 6907 bound_to 6896
  150.7308  134.0197  159.3706 H   0  0  0  0  0  0  0  0  0  0  0  0  # atno 6908 bound_to 6896
  151.8092  135.0686  160.0461 H   0  0  0  0  0  0  0  0  0  0  0  0  # atno 6909 bound_to 6896
  144.7890  139.7372  143.6229 H   0  0  0  0  0  0  0  0  0  0  0  0  # atno 7974 bound_to 7965
  154.5006  140.0836  156.7790 H   0  0  0  0  0  0  0  0  0  0  0  0  # atno 8008 bound_to 7997
  155.4011  140.3437  155.4239 H   0  0  0  0  0  0  0  0  0  0  0  0  # atno 8009 bound_to 7997
  156.1452  140.1541  156.8846 H   0  0  0  0  0  0  0  0  0  0  0  0  # atno 8010 bound_to 7997
  140.7243  143.3813  151.1596 H   0  0  0  0  0  0  0  0  0  0  0  0  # atno 10167 bound_to 10162
  156.0602  130.4265  150.1735 H   0  0  0  0  0  0  0  0  0  0  0  0  # atno 10718 bound_to 10713
  153.2335  135.4315  155.0621 H   0  0  0  0  0  0  0  0  0  0  0  0  # atno 10763 bound_to 10752
  154.8308  135.3385  154.6752 H   0  0  0  0  0  0  0  0  0  0  0  0  # atno 10764 bound_to 10752
  153.7178  135.7019  153.5077 H   0  0  0  0  0  0  0  0  0  0  0  0  # atno 10765 bound_to 10752
  140.3110  134.2650  155.7734 H   0  0  0  0  0  0  0  0  0  0  0  0  # atno 11005 bound_to 11000
  146.2134  139.5506  142.9666 LP  0  0  0  0  0  0  0  0  0  0  0  0  # atno 17320 bound_to 7965
  145.5845  141.0378  143.2104 LP  0  0  0  0  0  0  0  0  0  0  0  0  # atno 17321 bound_to 7965
  139.7402  143.8936  152.3047 LP  0  0  0  0  0  0  0  0  0  0  0  0  # atno 17342 bound_to 10162
  139.8755  144.7046  150.8938 LP  0  0  0  0  0  0  0  0  0  0  0  0  # atno 17343 bound_to 10162
  156.9805  130.9862  151.3438 LP  0  0  0  0  0  0  0  0  0  0  0  0  # atno 17370 bound_to 10713
  157.5605  130.8242  149.8260 LP  0  0  0  0  0  0  0  0  0  0  0  0  # atno 17371 bound_to 10713
  141.2108  133.7708  156.9907 LP  0  0  0  0  0  0  0  0  0  0  0  0  # atno 17394 bound_to 11000
  140.1025  134.9527  157.1944 LP  0  0  0  0  0  0  0  0  0  0  0  0  # atno 17395 bound_to 11000

$$$$
