AV-unprocessed.smi:290|AV-procd|sdf|2234|dock5
  -GOLD-   2262022103D 1   1.00000     0.00000
 Structure written by MMmdl.
 59 62  0  0  0  0  0  0  0  0  2 V2000
  151.3340  139.6074  158.1872 C   0  0  0  0  0  0  0  0  0  0  0  0
  150.7023  140.9917  158.4005 C   0  0  1  0  0  0  0  0  0  0  0  0
  151.4825  141.6854  159.3701 O   0  0  0  0  0  0  0  0  0  0  0  0
  151.3672  143.0763  159.1304 C   0  0  0  0  0  0  0  0  0  0  0  0
  151.4439  143.1496  157.6133 C   0  0  0  0  0  0  0  0  0  0  0  0
  150.6343  141.9343  157.1647 C   0  0  2  0  0  0  0  0  0  0  0  0
  149.2859  142.3448  157.0119 O   0  0  0  0  0  0  0  0  0  0  0  0
  151.1121  141.3372  155.8147 C   0  0  0  0  0  0  0  0  0  0  0  0
  150.1445  140.4371  155.2044 N   0  0  0  0  0  0  0  0  0  0  0  0
  150.1581  139.0627  155.2468 C   0  0  0  0  0  0  0  0  0  0  0  0
  149.1781  138.4795  154.6142 N   0  0  0  0  0  0  0  0  0  0  0  0
  148.4159  139.5271  154.1061 C   0  0  0  0  0  0  0  0  0  0  0  0
  147.2241  139.6200  153.3239 C   0  0  0  0  0  0  0  0  0  0  0  0
  146.4890  138.5697  152.8689 N   0  0  0  0  0  0  0  0  0  0  0  0
  146.0801  138.5195  151.4748 C   0  0  0  0  0  0  0  0  0  0  0  0
  146.1227  137.0427  151.1059 C   0  0  0  0  0  0  0  0  0  0  0  0
  145.8180  136.3129  152.4242 C   0  0  1  0  0  0  0  0  0  0  0  0
  146.3310  134.9084  152.4096 N   0  3  1  0  0  0  0  0  0  0  0  0
  146.2612  134.2083  153.7154 C   0  0  0  0  0  0  0  0  0  0  0  0
  145.7394  134.0820  151.3222 C   0  0  0  0  0  0  0  0  0  0  0  0
  146.3721  132.6821  151.2609 C   0  0  0  0  0  0  0  0  0  0  0  0
  146.6318  132.3329  149.9176 O   0  0  0  0  0  0  0  0  0  0  0  0
  146.4698  137.2437  153.4808 C   0  0  2  0  0  0  0  0  0  0  0  0
  145.6989  137.2885  154.8184 C   0  0  0  0  0  0  0  0  0  0  0  0
  146.7866  140.8674  153.0083 N   0  0  0  0  0  0  0  0  0  0  0  0
  147.4500  141.9489  153.4244 C   0  0  0  0  0  0  0  0  0  0  0  0
  148.5629  142.0121  154.1552 N   0  0  0  0  0  0  0  0  0  0  0  0
  149.0166  140.7670  154.4734 C   0  0  0  0  0  0  0  0  0  0  0  0
  144.7371  136.3005  152.5770 H   0  0  0  0  0  0  0  0  0  0  0  0
  147.4998  136.9257  153.6360 H   0  0  0  0  0  0  0  0  0  0  0  0
  150.7733  139.0223  157.4580 H   0  0  0  0  0  0  0  0  0  0  0  0
  151.3426  139.0425  159.1196 H   0  0  0  0  0  0  0  0  0  0  0  0
  152.3660  139.6849  157.8449 H   0  0  0  0  0  0  0  0  0  0  0  0
  149.7060  140.8512  158.8246 H   0  0  0  0  0  0  0  0  0  0  0  0
  150.4050  143.4385  159.4960 H   0  0  0  0  0  0  0  0  0  0  0  0
  152.1615  143.6381  159.6218 H   0  0  0  0  0  0  0  0  0  0  0  0
  151.0830  144.0968  157.2101 H   0  0  0  0  0  0  0  0  0  0  0  0
  152.4865  143.0373  157.3133 H   0  0  0  0  0  0  0  0  0  0  0  0
  149.2636  143.0991  156.4430 H   0  0  0  0  0  0  0  0  0  0  0  0
  151.3148  142.1327  155.0974 H   0  0  0  0  0  0  0  0  0  0  0  0
  152.0488  140.7942  155.9467 H   0  0  0  0  0  0  0  0  0  0  0  0
  150.9259  138.5014  155.7596 H   0  0  0  0  0  0  0  0  0  0  0  0
  145.0662  138.9122  151.3910 H   0  0  0  0  0  0  0  0  0  0  0  0
  146.7297  139.1039  150.8216 H   0  0  0  0  0  0  0  0  0  0  0  0
  145.4244  136.8102  150.3021 H   0  0  0  0  0  0  0  0  0  0  0  0
  147.1263  136.7880  150.7612 H   0  0  0  0  0  0  0  0  0  0  0  0
  145.2358  134.1742  154.0854 H   0  0  0  0  0  0  0  0  0  0  0  0
  146.8905  134.6917  154.4618 H   0  0  0  0  0  0  0  0  0  0  0  0
  146.6173  133.1819  153.6322 H   0  0  0  0  0  0  0  0  0  0  0  0
  144.6613  134.0028  151.4710 H   0  0  0  0  0  0  0  0  0  0  0  0
  145.8604  134.5511  150.3468 H   0  0  0  0  0  0  0  0  0  0  0  0
  147.2934  132.6230  151.8398 H   0  0  0  0  0  0  0  0  0  0  0  0
  145.6854  131.9458  151.6794 H   0  0  0  0  0  0  0  0  0  0  0  0
  147.5240  132.0267  149.8518 H   0  0  0  0  0  0  0  0  0  0  0  0
  145.6758  136.3242  155.3210 H   0  0  0  0  0  0  0  0  0  0  0  0
  144.6656  137.6002  154.6634 H   0  0  0  0  0  0  0  0  0  0  0  0
  146.1444  137.9954  155.5175 H   0  0  0  0  0  0  0  0  0  0  0  0
  147.0290  142.8990  153.1298 H   0  0  0  0  0  0  0  0  0  0  0  0
  147.3133  134.9883  152.1869 H   0  0  0  0  0  0  0  0  0  0  0  0
  1  2  1  0  0  0  0
  1 31  1  0  0  0  0
  1 32  1  0  0  0  0
  1 33  1  0  0  0  0
  2  6  1  0  0  0  0
  2  3  1  0  0  0  0
  2 34  1  0  0  0  0
  3  4  1  0  0  0  0
  4  5  1  0  0  0  0
  4 35  1  0  0  0  0
  4 36  1  0  0  0  0
  5  6  1  0  0  0  0
  5 37  1  0  0  0  0
  5 38  1  0  0  0  0
  6  7  1  0  0  0  0
  6  8  1  0  0  0  0
  7 39  1  0  0  0  0
  8  9  1  0  0  0  0
  8 40  1  0  0  0  0
  8 41  1  0  0  0  0
  9 28  1  0  0  0  0
  9 10  1  0  0  0  0
 10 11  2  0  0  0  0
 10 42  1  0  0  0  0
 11 12  1  0  0  0  0
 12 28  2  0  0  0  0
 12 13  1  0  0  0  0
 13 14  1  0  0  0  0
 13 25  2  0  0  0  0
 14 23  1  0  0  0  0
 14 15  1  0  0  0  0
 15 16  1  0  0  0  0
 15 43  1  0  0  0  0
 15 44  1  0  0  0  0
 16 17  1  0  0  0  0
 16 45  1  0  0  0  0
 16 46  1  0  0  0  0
 17 29  1  0  0  0  0
 17 18  1  0  0  0  0
 17 23  1  0  0  0  0
 18 19  1  0  0  0  0
 18 20  1  0  0  0  0
 18 59  1  0  0  0  0
 19 47  1  0  0  0  0
 19 48  1  0  0  0  0
 19 49  1  0  0  0  0
 20 21  1  0  0  0  0
 20 50  1  0  0  0  0
 20 51  1  0  0  0  0
 21 22  1  0  0  0  0
 21 52  1  0  0  0  0
 21 53  1  0  0  0  0
 22 54  1  0  0  0  0
 23 30  1  0  0  0  0
 23 24  1  0  0  0  0
 24 55  1  0  0  0  0
 24 56  1  0  0  0  0
 24 57  1  0  0  0  0
 25 26  1  0  0  0  0
 26 27  2  0  0  0  0
 26 58  1  0  0  0  0
 27 28  1  0  0  0  0
M  CHG  1  18   1
M  END
> <s_m_source_file>
AV-unprocessed.smi

> <i_m_source_file_index>
290

> <i_lp_mmshare_version>
43012

> <i_f3d_flags>
0

> <s_epik_input>
W0NIMl0xW0NIMl1PW0NAQEhdKFtDSDNdKVtDQEBdMShbT0hdKVtDSDJdbihbY0hdbjIpYyhjMjMpbltjSF1uYzNONFtDSDJdW0NIMl1bQ0BIXShbQ0BIXTRbQ0gzXSlOKFtDSDNdKVtDSDJdW0NIMl1bT0hd

> <s_epik_cmdline>
J2VwaWtfcHl0aG9uJywgJy1waCcsICc3LjAnLCAnLXRuJywgJzgnLCAnLW1hJywgJzIwMCcsICctbWV0YWxfYmluZGluZycsICctaW1hZScsICc8aW5maWxlLm1hZT4nLCAnLW9tYWUnLCAnPG91dGZpbGUubWFlPic=

> <r_lp_tautomer_probability>
1

> <r_epik_Ionization_Penalty>
0.0036983

> <r_epik_Ionization_Penalty_Charging>
0.0032725

> <r_epik_Ionization_Penalty_Neutral>
0.000425798

> <r_epik_State_Penalty>
-0

> <r_epik_Charging_Adjusted_Penalty>
0.0032725

> <i_epik_Tot_Q>
1

> <i_epik_Tot_abs_Q>
1

> <r_epik_Metal_State_Penalty>
-0

> <b_epik_Metal_Only>
0

> <s_lp_Force_Field>
OPLS_2005

> <r_lp_Energy>
60.3603

> <b_lp_Chiralities_Consistent>
1

> <s_lp_Variant>
AV-unprocessed.smi:290-20

> <Gold.Version>
5.8.1

> <Gold.Id.Protein>
6NUR|6NUR_protein|mol2

> <Gold.PLP.Fitness>
49.9829

> <Gold.PLP.PLP>
-40.2125

> <Gold.PLP.part.hbond>
-4.5708

> <Gold.PLP.part.metal>
0.0000

> <Gold.PLP.part.buried>
2.4841

> <Gold.PLP.part.nonpolar>
-37.7535

> <Gold.PLP.part.repulsive>
1.0512

> <Gold.PLP.ligand.clash>
0.0000

> <Gold.PLP.ligand.torsion>
1.3752

> <Gold.PLP.Chemscore.Hbond>
4.0327

> <Gold.PLP.Chemscore.CHOScore>
0.0000

> <Gold.PLP.Chemscore.Metal>
0.0000

> <Gold.Chemscore.Hbonds>
donor molecule, donor type, donor heavy atom, donor atom, acceptor molecule, acceptor atom, score
      L1  H     7    39       P1  8028  1.00
      L1  H    18    59       P1  7948  1.87
      L1  H    22    54       P1 10747  1.00
      P1  H  8011  8017       L1    27  0.11

> <Gold.PLP.Chemscore.Internal.Correction>
0.4225

> <Gold.Rescore>
     Score         DG    S(hbond)    S(metal)    S(lipo)     H(rot)  DE(clash)    DE(int)     intcor
     10.61     -16.67       2.84        0.00      88.04       3.35       3.95       2.11       ----

> <Gold.Chemscore.Fitness>
10.6126

> <Gold.Chemscore.DG>
-16.6730

> <Gold.Chemscore.ZeroCoef>
-5.4800

> <Gold.Chemscore.Hbond>
2.8362

> <Gold.Chemscore.Metal>
0.0000

> <Gold.Chemscore.Lipo>
88.0408

> <Gold.Chemscore.Internal_Hbond>
0.0000

> <Gold.Chemscore.DEClash>
3.9531

> <Gold.Chemscore.DEInternal>
2.1073

> <Gold.Chemscore.Rot>
3.3518

> <Gold.Chemscore.Internal.Correction>
   9.000000E+99

> <Gold.Chemscore.Hbonds>
donor molecule, donor type, donor heavy atom, donor atom, acceptor molecule, acceptor atom, score
      L1  H     7    39       P1  8028  1.00
      L1  H    18    59       P1  7948  0.83
      L1  H    22    54       P1 10747  0.98

> <Gold.Chemscore.Hbond.Weighted>
-9.4728

> <Gold.Chemscore.Metal.Weighted>
-0.0000

> <Gold.Chemscore.Lipo.Weighted>
-10.3008

> <Gold.Chemscore.Internal_Hbond.Weighted>
0.0000

> <Gold.Chemscore.DEClash.Weighted>
3.9531

> <Gold.Chemscore.DEInternal.Weighted>
2.1073

> <Gold.Chemscore.Rot.Weighted>
8.5806

> <Gold.Chemscore.Internal.Correction.Weighted>
   9.000000E+99

> <Gold.Protein.RotatedTorsions>
[ 6907 6896 6895 6894 ] final   72.61 input  -60.11 | X-H torsion
[ 7974 7965 7964 7962 ] final  107.55 input  175.53 | X-H torsion
[ 8008 7997 7996 7995 ] final -179.30 input   59.86 | X-H torsion
[ 10167 10162 10161 10158 ] final   39.92 input  -65.29 | X-H torsion
[ 10718 10713 10712 10709 ] final    5.21 input   66.30 | X-H torsion
[ 10763 10752 10751 10750 ] final   85.79 input  -60.55 | X-H torsion
[ 11005 11000 10999 10996 ] final   75.22 input  -57.11 | X-H torsion

> <Gold.Protein.ActiveResidues>
 VAL166  LYS551  ARG553  GLY616  TRP617  ASP618  TYR619  PRO620  LYS621  CYS622 
 ASP623  PHE694  ASN695  SER759  ASP760  ASP761  ALA762  ILE779  LEU786  VAL792 
 PHE793  MET794  SER795  GLU796  ALA797  LYS798  CYS799  TRP800  GLU811  SER814 

> <Gold.Protein.RotatedAtoms>
  152.4877  134.4546  159.9585 H   0  0  0  0  0  0  0  0  0  0  0  0  # atno 6907 bound_to 6896
  151.4539  133.3604  159.2807 H   0  0  0  0  0  0  0  0  0  0  0  0  # atno 6908 bound_to 6896
  150.9003  134.8439  159.7415 H   0  0  0  0  0  0  0  0  0  0  0  0  # atno 6909 bound_to 6896
  145.2921  139.2597  143.3859 H   0  0  0  0  0  0  0  0  0  0  0  0  # atno 7974 bound_to 7965
  156.0289  140.1277  157.0279 H   0  0  0  0  0  0  0  0  0  0  0  0  # atno 8008 bound_to 7997
  154.4342  140.1053  156.6141 H   0  0  0  0  0  0  0  0  0  0  0  0  # atno 8009 bound_to 7997
  155.5836  140.3468  155.4549 H   0  0  0  0  0  0  0  0  0  0  0  0  # atno 8010 bound_to 7997
  140.3792  144.2002  150.6131 H   0  0  0  0  0  0  0  0  0  0  0  0  # atno 10167 bound_to 10162
  156.9040  130.5732  149.5647 H   0  0  0  0  0  0  0  0  0  0  0  0  # atno 10718 bound_to 10713
  153.1509  135.4604  154.9634 H   0  0  0  0  0  0  0  0  0  0  0  0  # atno 10763 bound_to 10752
  154.7823  135.3192  154.7964 H   0  0  0  0  0  0  0  0  0  0  0  0  # atno 10764 bound_to 10752
  153.8470  135.6925  153.4851 H   0  0  0  0  0  0  0  0  0  0  0  0  # atno 10765 bound_to 10752
  139.9354  134.7499  156.1244 H   0  0  0  0  0  0  0  0  0  0  0  0  # atno 11005 bound_to 11000
  146.3181  140.3415  142.8648 LP  0  0  0  0  0  0  0  0  0  0  0  0  # atno 17320 bound_to 7965
  144.9164  140.7817  143.5775 LP  0  0  0  0  0  0  0  0  0  0  0  0  # atno 17321 bound_to 7965
  140.4954  143.2334  151.8757 LP  0  0  0  0  0  0  0  0  0  0  0  0  # atno 17342 bound_to 10162
  139.4797  144.5119  151.8921 LP  0  0  0  0  0  0  0  0  0  0  0  0  # atno 17343 bound_to 10162
  156.0568  130.5628  150.9108 LP  0  0  0  0  0  0  0  0  0  0  0  0  # atno 17370 bound_to 10713
  157.6008  131.0941  150.8963 LP  0  0  0  0  0  0  0  0  0  0  0  0  # atno 17371 bound_to 10713
  141.0965  133.6693  156.2657 LP  0  0  0  0  0  0  0  0  0  0  0  0  # atno 17394 bound_to 11000
  140.6090  134.5478  157.5530 LP  0  0  0  0  0  0  0  0  0  0  0  0  # atno 17395 bound_to 11000

$$$$
