AV-unprocessed.smi:1189|AV-procd|sdf|4979|dock8
  -GOLD-   22720 3573D 1   1.00000     0.00000
 Structure written by MMmdl.
 33 34  0  0  0  0  0  0  0  0  1 V2000
  148.7533  140.9878  158.2237 O   0  0  0  0  0  0  0  0  0  0  0  0
  149.1511  141.9970  157.6398 C   0  0  0  0  0  0  0  0  0  0  0  0
  149.3891  143.3060  158.4023 C   0  0  0  0  0  0  0  0  0  0  0  0
  150.5807  143.2598  159.2336 N   0  0  0  0  0  0  0  0  0  0  0  0
  151.2541  144.3074  159.8247 C   0  0  0  0  0  0  0  0  0  0  0  0
  152.3065  143.7757  160.5127 C   0  0  0  0  0  0  0  0  0  0  0  0
  152.1962  142.3728  160.2865 C   0  0  0  0  0  0  0  0  0  0  0  0
  153.0832  141.2709  160.8041 C   0  0  0  0  0  0  0  0  0  0  0  0
  152.5137  140.0833  160.5979 F   0  0  0  0  0  0  0  0  0  0  0  0
  154.2578  141.2979  160.1743 F   0  0  0  0  0  0  0  0  0  0  0  0
  153.2868  141.4273  162.1121 F   0  0  0  0  0  0  0  0  0  0  0  0
  151.1601  142.0726  159.5143 N   0  0  0  0  0  0  0  0  0  0  0  0
  149.3904  142.0358  156.3197 N   0  0  0  0  0  0  0  0  0  0  0  0
  149.2345  140.9164  155.3957 C   0  0  0  0  0  0  0  0  0  0  0  0
  150.2186  139.7713  155.7021 C   0  0  1  0  0  0  0  0  0  0  0  0
  150.4926  138.8697  154.5156 C   0  0  0  0  0  0  0  0  0  0  0  0
  151.7862  138.1733  154.9299 C   0  0  0  0  0  0  0  0  0  0  0  0
  152.4690  139.0850  155.7858 O   0  0  0  0  0  0  0  0  0  0  0  0
  151.6394  140.2083  156.0630 C   0  0  0  0  0  0  0  0  0  0  0  0
  149.4765  144.1389  157.7024 H   0  0  0  0  0  0  0  0  0  0  0  0
  148.5275  143.5104  159.0386 H   0  0  0  0  0  0  0  0  0  0  0  0
  150.9299  145.3311  159.7099 H   0  0  0  0  0  0  0  0  0  0  0  0
  153.0442  144.3084  161.0941 H   0  0  0  0  0  0  0  0  0  0  0  0
  149.7128  142.9075  155.9250 H   0  0  0  0  0  0  0  0  0  0  0  0
  148.2125  140.5500  155.4939 H   0  0  0  0  0  0  0  0  0  0  0  0
  149.3387  141.2487  154.3612 H   0  0  0  0  0  0  0  0  0  0  0  0
  149.8230  139.1597  156.5150 H   0  0  0  0  0  0  0  0  0  0  0  0
  149.6818  138.1698  154.3117 H   0  0  0  0  0  0  0  0  0  0  0  0
  150.6625  139.4654  153.6174 H   0  0  0  0  0  0  0  0  0  0  0  0
  151.5671  137.2665  155.4947 H   0  0  0  0  0  0  0  0  0  0  0  0
  152.4001  137.8976  154.0721 H   0  0  0  0  0  0  0  0  0  0  0  0
  151.9610  141.0370  155.4307 H   0  0  0  0  0  0  0  0  0  0  0  0
  151.7307  140.5206  157.1036 H   0  0  0  0  0  0  0  0  0  0  0  0
  1  2  2  0  0  0  0
  2  3  1  0  0  0  0
  2 13  1  0  0  0  0
  3  4  1  0  0  0  0
  3 20  1  0  0  0  0
  3 21  1  0  0  0  0
  4 12  1  0  0  0  0
  4  5  1  0  0  0  0
  5  6  2  0  0  0  0
  5 22  1  0  0  0  0
  6  7  1  0  0  0  0
  6 23  1  0  0  0  0
  7  8  1  0  0  0  0
  7 12  2  0  0  0  0
  8  9  1  0  0  0  0
  8 10  1  0  0  0  0
  8 11  1  0  0  0  0
 13 14  1  0  0  0  0
 13 24  1  0  0  0  0
 14 15  1  0  0  0  0
 14 25  1  0  0  0  0
 14 26  1  0  0  0  0
 15 19  1  0  0  0  0
 15 16  1  0  0  0  0
 15 27  1  0  0  0  0
 16 17  1  0  0  0  0
 16 28  1  0  0  0  0
 16 29  1  0  0  0  0
 17 18  1  0  0  0  0
 17 30  1  0  0  0  0
 17 31  1  0  0  0  0
 18 19  1  0  0  0  0
 19 32  1  0  0  0  0
 19 33  1  0  0  0  0
M  END
> <s_m_source_file>
AV-unprocessed.smi

> <i_m_source_file_index>
1189

> <i_lp_mmshare_version>
43012

> <i_f3d_flags>
0

> <s_epik_input>
W0NIMl0xT1tDSDJdW0NIMl1bQ0BIXTFbQ0gyXVtOSF1DKD1PKVtDSDJdbjJbY0hdW2NIXWMobjIpQyhGKShGKUY=

> <s_epik_cmdline>
J2VwaWtfcHl0aG9uJywgJy1waCcsICc3LjAnLCAnLXRuJywgJzgnLCAnLW1hJywgJzIwMCcsICctbWV0YWxfYmluZGluZycsICctaW1hZScsICc8aW5maWxlLm1hZT4nLCAnLW9tYWUnLCAnPG91dGZpbGUubWFlPic=

> <r_lp_tautomer_probability>
1

> <r_epik_Ionization_Penalty>
1.26564e-07

> <r_epik_Ionization_Penalty_Charging>
0

> <r_epik_Ionization_Penalty_Neutral>
1.26564e-07

> <r_epik_State_Penalty>
-0

> <r_epik_Charging_Adjusted_Penalty>
0

> <i_epik_Tot_Q>
0

> <i_epik_Tot_abs_Q>
0

> <r_epik_Metal_State_Penalty>
-0

> <b_epik_Metal_Only>
0

> <s_lp_Force_Field>
OPLS_2005

> <r_lp_Energy>
22.0534

> <b_lp_Chiralities_Consistent>
1

> <s_lp_Variant>
AV-unprocessed.smi:1189-2

> <Gold.Version>
5.8.1

> <Gold.Id.Protein>
6NUR|6NUR_protein|mol2

> <Gold.PLP.Fitness>
43.9964

> <Gold.PLP.PLP>
-40.2874

> <Gold.PLP.part.hbond>
-2.3231

> <Gold.PLP.part.metal>
0.0000

> <Gold.PLP.part.buried>
-4.9527

> <Gold.PLP.part.nonpolar>
-32.2873

> <Gold.PLP.part.repulsive>
0.0721

> <Gold.PLP.ligand.clash>
0.0000

> <Gold.PLP.ligand.torsion>
0.9464

> <Gold.PLP.Chemscore.Hbond>
1.8640

> <Gold.PLP.Chemscore.CHOScore>
0.0000

> <Gold.PLP.Chemscore.Metal>
0.0000

> <Gold.Chemscore.Hbonds>
donor molecule, donor type, donor heavy atom, donor atom, acceptor molecule, acceptor atom, score
      L1  H    13    24       P1  8028  0.69
      P1  H  7997  8010       L1    18  0.21

> <Gold.PLP.Chemscore.Internal.Correction>
0.0099

> <Gold.Rescore>
     Score         DG    S(hbond)    S(metal)    S(lipo)     H(rot)  DE(clash)    DE(int)     intcor
     13.04     -14.80       1.40        0.00      81.05       1.89       0.27       1.49       ----

> <Gold.Chemscore.Fitness>
13.0361

> <Gold.Chemscore.DG>
-14.7961

> <Gold.Chemscore.ZeroCoef>
-5.4800

> <Gold.Chemscore.Hbond>
1.4007

> <Gold.Chemscore.Metal>
0.0000

> <Gold.Chemscore.Lipo>
81.0519

> <Gold.Chemscore.Internal_Hbond>
0.0000

> <Gold.Chemscore.DEClash>
0.2655

> <Gold.Chemscore.DEInternal>
1.4945

> <Gold.Chemscore.Rot>
1.8928

> <Gold.Chemscore.Internal.Correction>
   9.000000E+99

> <Gold.Chemscore.Hbonds>
donor molecule, donor type, donor heavy atom, donor atom, acceptor molecule, acceptor atom, score
      L1  H    13    24       P1  8028  0.67
      P1  H  7997  8010       L1    18  0.04

> <Gold.Chemscore.Hbond.Weighted>
-4.6784

> <Gold.Chemscore.Metal.Weighted>
-0.0000

> <Gold.Chemscore.Lipo.Weighted>
-9.4831

> <Gold.Chemscore.Internal_Hbond.Weighted>
0.0000

> <Gold.Chemscore.DEClash.Weighted>
0.2655

> <Gold.Chemscore.DEInternal.Weighted>
1.4945

> <Gold.Chemscore.Rot.Weighted>
4.8455

> <Gold.Chemscore.Internal.Correction.Weighted>
   9.000000E+99

> <Gold.Protein.RotatedTorsions>
[ 6907 6896 6895 6894 ] final   90.02 input  -60.11 | X-H torsion
[ 7974 7965 7964 7962 ] final -165.59 input  175.53 | X-H torsion
[ 8008 7997 7996 7995 ] final  110.33 input   59.86 | X-H torsion
[ 10167 10162 10161 10158 ] final  143.23 input  -65.29 | X-H torsion
[ 10718 10713 10712 10709 ] final   47.74 input   66.30 | X-H torsion
[ 10763 10752 10751 10750 ] final  -45.79 input  -60.55 | X-H torsion
[ 11005 11000 10999 10996 ] final   45.47 input  -57.11 | X-H torsion

> <Gold.Protein.ActiveResidues>
 VAL166  LYS551  ARG553  GLY616  TRP617  ASP618  TYR619  PRO620  LYS621  CYS622 
 ASP623  PHE694  ASN695  SER759  ASP760  ASP761  ALA762  ILE779  LEU786  VAL792 
 PHE793  MET794  SER795  GLU796  ALA797  LYS798  CYS799  TRP800  GLU811  SER814 

> <Gold.Protein.RotatedAtoms>
  152.5441  134.1877  159.8660 H   0  0  0  0  0  0  0  0  0  0  0  0  # atno 6907 bound_to 6896
  151.1874  133.4681  159.2602 H   0  0  0  0  0  0  0  0  0  0  0  0  # atno 6908 bound_to 6896
  151.1117  135.0042  159.8552 H   0  0  0  0  0  0  0  0  0  0  0  0  # atno 6909 bound_to 6896
  144.7266  140.2791  143.6238 H   0  0  0  0  0  0  0  0  0  0  0  0  # atno 7974 bound_to 7965
  156.2045  140.3041  155.9596 H   0  0  0  0  0  0  0  0  0  0  0  0  # atno 8008 bound_to 7997
  155.2875  140.0440  157.3037 H   0  0  0  0  0  0  0  0  0  0  0  0  # atno 8009 bound_to 7997
  154.5614  140.2321  155.8338 H   0  0  0  0  0  0  0  0  0  0  0  0  # atno 8010 bound_to 7997
  139.4974  144.6054  151.6390 H   0  0  0  0  0  0  0  0  0  0  0  0  # atno 10167 bound_to 10162
  157.4615  130.8199  149.7892 H   0  0  0  0  0  0  0  0  0  0  0  0  # atno 10718 bound_to 10713
  154.0344  135.6652  153.4784 H   0  0  0  0  0  0  0  0  0  0  0  0  # atno 10763 bound_to 10752
  153.0527  135.5074  154.7902 H   0  0  0  0  0  0  0  0  0  0  0  0  # atno 10764 bound_to 10752
  154.6858  135.3053  154.9515 H   0  0  0  0  0  0  0  0  0  0  0  0  # atno 10765 bound_to 10752
  140.1457  134.4526  155.8417 H   0  0  0  0  0  0  0  0  0  0  0  0  # atno 11005 bound_to 11000
  145.7967  139.1948  143.2071 LP  0  0  0  0  0  0  0  0  0  0  0  0  # atno 17320 bound_to 7965
  146.0710  140.7868  142.9688 LP  0  0  0  0  0  0  0  0  0  0  0  0  # atno 17321 bound_to 7965
  140.5714  144.0102  150.6219 LP  0  0  0  0  0  0  0  0  0  0  0  0  # atno 17342 bound_to 10162
  140.3221  143.3131  152.0774 LP  0  0  0  0  0  0  0  0  0  0  0  0  # atno 17343 bound_to 10162
  156.0031  130.3869  150.2531 LP  0  0  0  0  0  0  0  0  0  0  0  0  # atno 17370 bound_to 10713
  157.0709  131.0116  151.3190 LP  0  0  0  0  0  0  0  0  0  0  0  0  # atno 17371 bound_to 10713
  141.2192  133.6851  156.7329 LP  0  0  0  0  0  0  0  0  0  0  0  0  # atno 17394 bound_to 11000
  140.2667  134.8424  157.3809 LP  0  0  0  0  0  0  0  0  0  0  0  0  # atno 17395 bound_to 11000

$$$$
