AV-unprocessed.smi:1891|AV-procd|sdf|7668|dock7
  -GOLD-   22720 9403D 1   1.00000     0.00000
 Structure written by MMmdl.
 37 39  0  0  0  0  0  0  0  0  2 V2000
  152.0341  136.8911  153.9224 O   0  0  0  0  0  0  0  0  0  0  0  0
  151.9567  138.0655  154.6986 C   0  0  0  0  0  0  0  0  0  0  0  0
  150.7307  138.8641  154.3990 C   0  0  0  0  0  0  0  0  0  0  0  0
  149.7555  138.5159  153.5127 N   0  3  0  0  0  0  0  0  0  0  0  0
  148.7593  139.4927  153.4965 C   0  0  0  0  0  0  0  0  0  0  0  0
  147.5801  139.5810  152.7630 C   0  0  0  0  0  0  0  0  0  0  0  0
  146.7790  140.7201  152.9876 C   0  0  0  0  0  0  0  0  0  0  0  0
  147.1600  141.7156  153.9108 C   0  0  0  0  0  0  0  0  0  0  0  0
  148.3575  141.6146  154.6492 C   0  0  0  0  0  0  0  0  0  0  0  0
  149.1436  140.4853  154.4206 C   0  0  0  0  0  0  0  0  0  0  0  0
  150.3631  140.0557  154.9554 N   0  0  0  0  0  0  0  0  0  0  0  0
  151.0277  140.8897  155.9695 C   0  0  0  0  0  0  0  0  0  0  0  0
  150.1785  141.0851  157.2414 C   0  0  1  0  0  0  0  0  0  0  0  0
  150.0859  139.8617  157.9465 O   0  0  0  0  0  0  0  0  0  0  0  0
  150.7314  142.2142  158.1003 C   0  0  0  0  0  0  0  0  0  0  0  0
  149.9886  143.4019  158.2870 C   0  0  0  0  0  0  0  0  0  0  0  0
  150.4972  144.4409  159.0899 C   0  0  0  0  0  0  0  0  0  0  0  0
  151.7505  144.2992  159.7149 C   0  0  0  0  0  0  0  0  0  0  0  0
  152.2397  145.2983  160.4869 F   0  0  0  0  0  0  0  0  0  0  0  0
  152.4929  143.1160  159.5394 C   0  0  0  0  0  0  0  0  0  0  0  0
  151.9854  142.0747  158.7378 C   0  0  0  0  0  0  0  0  0  0  0  0
  152.7077  140.9380  158.5888 F   0  0  0  0  0  0  0  0  0  0  0  0
  151.3575  136.9239  153.2622 H   0  0  0  0  0  0  0  0  0  0  0  0
  151.9817  137.8033  155.7561 H   0  0  0  0  0  0  0  0  0  0  0  0
  152.8398  138.6740  154.5022 H   0  0  0  0  0  0  0  0  0  0  0  0
  147.2860  138.8197  152.0552 H   0  0  0  0  0  0  0  0  0  0  0  0
  145.8538  140.8326  152.4410 H   0  0  0  0  0  0  0  0  0  0  0  0
  146.5208  142.5744  154.0563 H   0  0  0  0  0  0  0  0  0  0  0  0
  148.6397  142.3820  155.3549 H   0  0  0  0  0  0  0  0  0  0  0  0
  151.9816  140.4247  156.2186 H   0  0  0  0  0  0  0  0  0  0  0  0
  151.2697  141.8510  155.5141 H   0  0  0  0  0  0  0  0  0  0  0  0
  149.1591  141.3412  156.9526 H   0  0  0  0  0  0  0  0  0  0  0  0
  150.4418  139.1754  157.4027 H   0  0  0  0  0  0  0  0  0  0  0  0
  149.0229  143.5209  157.8180 H   0  0  0  0  0  0  0  0  0  0  0  0
  149.9243  145.3462  159.2272 H   0  0  0  0  0  0  0  0  0  0  0  0
  153.4524  143.0057  160.0227 H   0  0  0  0  0  0  0  0  0  0  0  0
  149.7730  137.6670  152.9622 H   0  0  0  0  0  0  0  0  0  0  0  0
  1  2  1  0  0  0  0
  1 23  1  0  0  0  0
  2  3  1  0  0  0  0
  2 24  1  0  0  0  0
  2 25  1  0  0  0  0
  3 11  1  0  0  0  0
  3  4  2  0  0  0  0
  4  5  1  0  0  0  0
  4 37  1  0  0  0  0
  5 10  2  0  0  0  0
  5  6  1  0  0  0  0
  6  7  2  0  0  0  0
  6 26  1  0  0  0  0
  7  8  1  0  0  0  0
  7 27  1  0  0  0  0
  8  9  2  0  0  0  0
  8 28  1  0  0  0  0
  9 10  1  0  0  0  0
  9 29  1  0  0  0  0
 10 11  1  0  0  0  0
 11 12  1  0  0  0  0
 12 13  1  0  0  0  0
 12 30  1  0  0  0  0
 12 31  1  0  0  0  0
 13 14  1  0  0  0  0
 13 15  1  0  0  0  0
 13 32  1  0  0  0  0
 14 33  1  0  0  0  0
 15 21  1  0  0  0  0
 15 16  2  0  0  0  0
 16 17  1  0  0  0  0
 16 34  1  0  0  0  0
 17 18  2  0  0  0  0
 17 35  1  0  0  0  0
 18 19  1  0  0  0  0
 18 20  1  0  0  0  0
 20 21  2  0  0  0  0
 20 36  1  0  0  0  0
 21 22  1  0  0  0  0
M  CHG  1   4   1
M  END
> <s_m_source_file>
AV-unprocessed.smi

> <i_m_source_file_index>
1891

> <i_lp_mmshare_version>
43012

> <i_f3d_flags>
0

> <s_epik_input>
W2NIXTFbY0hdW2NIXVtjSF1jKGMxMiluKGMobjIpW0NIMl1bT0hdKVtDSDJdW0NASF0oW09IXSljM1tjSF1bY0hdYyhGKVtjSF1jM0Y=

> <s_epik_cmdline>
J2VwaWtfcHl0aG9uJywgJy1waCcsICc3LjAnLCAnLXRuJywgJzgnLCAnLW1hJywgJzIwMCcsICctbWV0YWxfYmluZGluZycsICctaW1hZScsICc8aW5maWxlLm1hZT4nLCAnLW9tYWUnLCAnPG91dGZpbGUubWFlPic=

> <r_epik_Ionization_Penalty>
1.35643

> <r_epik_Ionization_Penalty_Charging>
1.35557

> <r_epik_Ionization_Penalty_Neutral>
0.00085758

> <r_epik_State_Penalty>
1.43401

> <r_epik_Charging_Adjusted_Penalty>
2.78958

> <i_epik_Tot_Q>
1

> <i_epik_Tot_abs_Q>
1

> <r_epik_Metal_State_Penalty>
5.47166

> <b_epik_Metal_Only>
0

> <s_lp_Force_Field>
OPLS_2005

> <r_lp_Energy>
14.1785

> <b_lp_Chiralities_Consistent>
1

> <s_lp_Variant>
AV-unprocessed.smi:1891-4

> <Gold.Version>
5.8.1

> <Gold.Id.Protein>
6NUR|6NUR_protein|mol2

> <Gold.PLP.Fitness>
58.2733

> <Gold.PLP.PLP>
-47.5939

> <Gold.PLP.part.hbond>
-3.9238

> <Gold.PLP.part.metal>
0.0000

> <Gold.PLP.part.buried>
3.4431

> <Gold.PLP.part.nonpolar>
-47.1764

> <Gold.PLP.part.repulsive>
0.0838

> <Gold.PLP.ligand.clash>
0.0000

> <Gold.PLP.ligand.torsion>
0.1321

> <Gold.PLP.Chemscore.Hbond>
3.6400

> <Gold.PLP.Chemscore.CHOScore>
0.0000

> <Gold.PLP.Chemscore.Metal>
0.0000

> <Gold.Chemscore.Hbonds>
donor molecule, donor type, donor heavy atom, donor atom, acceptor molecule, acceptor atom, score
      L1  H     1    23       P1  7949  0.62
      L1  H     4    37       P1  7948  2.00
      P1  H 10752 10763       L1     1  1.00

> <Gold.PLP.Chemscore.Internal.Correction>
0.0237

> <Gold.Rescore>
     Score         DG    S(hbond)    S(metal)    S(lipo)     H(rot)  DE(clash)    DE(int)     intcor
     12.76     -17.89       1.90        0.00     116.39       2.95       3.07       2.06       ----

> <Gold.Chemscore.Fitness>
12.7594

> <Gold.Chemscore.DG>
-17.8919

> <Gold.Chemscore.ZeroCoef>
-5.4800

> <Gold.Chemscore.Hbond>
1.8982

> <Gold.Chemscore.Metal>
0.0000

> <Gold.Chemscore.Lipo>
116.3904

> <Gold.Chemscore.Internal_Hbond>
0.0000

> <Gold.Chemscore.DEClash>
3.0679

> <Gold.Chemscore.DEInternal>
2.0646

> <Gold.Chemscore.Rot>
2.9475

> <Gold.Chemscore.Internal.Correction>
   9.000000E+99

> <Gold.Chemscore.Hbonds>
donor molecule, donor type, donor heavy atom, donor atom, acceptor molecule, acceptor atom, score
      L1  H     1    23       P1  7949  0.45
      L1  H     4    37       P1  7948  0.49
      P1  H 10752 10763       L1     1  0.91

> <Gold.Chemscore.Hbond.Weighted>
-6.3399

> <Gold.Chemscore.Metal.Weighted>
-0.0000

> <Gold.Chemscore.Lipo.Weighted>
-13.6177

> <Gold.Chemscore.Internal_Hbond.Weighted>
0.0000

> <Gold.Chemscore.DEClash.Weighted>
3.0679

> <Gold.Chemscore.DEInternal.Weighted>
2.0646

> <Gold.Chemscore.Rot.Weighted>
7.5457

> <Gold.Chemscore.Internal.Correction.Weighted>
   9.000000E+99

> <Gold.Protein.RotatedTorsions>
[ 6907 6896 6895 6894 ] final  164.01 input  -60.11 | X-H torsion
[ 7974 7965 7964 7962 ] final  -59.20 input  175.53 | X-H torsion
[ 8008 7997 7996 7995 ] final    3.46 input   59.86 | X-H torsion
[ 10167 10162 10161 10158 ] final -176.80 input  -65.29 | X-H torsion
[ 10718 10713 10712 10709 ] final -124.81 input   66.30 | X-H torsion
[ 10763 10752 10751 10750 ] final   16.85 input  -60.55 | X-H torsion
[ 11005 11000 10999 10996 ] final  -98.74 input  -57.11 | X-H torsion

> <Gold.Protein.ActiveResidues>
 VAL166  LYS551  ARG553  GLY616  TRP617  ASP618  TYR619  PRO620  LYS621  CYS622 
 ASP623  PHE694  ASN695  SER759  ASP760  ASP761  ALA762  ILE779  LEU786  VAL792 
 PHE793  MET794  SER795  GLU796  ALA797  LYS798  CYS799  TRP800  GLU811  SER814 

> <Gold.Protein.RotatedAtoms>
  151.9164  133.3574  159.3881 H   0  0  0  0  0  0  0  0  0  0  0  0  # atno 6907 bound_to 6896
  150.7046  134.4680  159.5421 H   0  0  0  0  0  0  0  0  0  0  0  0  # atno 6908 bound_to 6896
  152.2296  134.8335  160.0526 H   0  0  0  0  0  0  0  0  0  0  0  0  # atno 6909 bound_to 6896
  145.8303  140.8484  143.0087 H   0  0  0  0  0  0  0  0  0  0  0  0  # atno 7974 bound_to 7965
  154.7039  140.2679  155.6693 H   0  0  0  0  0  0  0  0  0  0  0  0  # atno 8008 bound_to 7997
  156.2774  140.2766  156.1583 H   0  0  0  0  0  0  0  0  0  0  0  0  # atno 8009 bound_to 7997
  155.0727  140.0372  157.2603 H   0  0  0  0  0  0  0  0  0  0  0  0  # atno 8010 bound_to 7997
  139.5511  144.2106  152.1079 H   0  0  0  0  0  0  0  0  0  0  0  0  # atno 10167 bound_to 10162
  156.1620  130.6608  151.0063 H   0  0  0  0  0  0  0  0  0  0  0  0  # atno 10718 bound_to 10713
  153.1392  135.6756  153.9054 H   0  0  0  0  0  0  0  0  0  0  0  0  # atno 10763 bound_to 10752
  153.8516  135.3092  155.3434 H   0  0  0  0  0  0  0  0  0  0  0  0  # atno 10764 bound_to 10752
  154.7773  135.4907  153.9855 H   0  0  0  0  0  0  0  0  0  0  0  0  # atno 10765 bound_to 10752
  141.1334  133.8268  157.0880 H   0  0  0  0  0  0  0  0  0  0  0  0  # atno 11005 bound_to 11000
  144.6740  140.0662  143.7474 LP  0  0  0  0  0  0  0  0  0  0  0  0  # atno 17320 bound_to 7965
  145.9578  139.2779  143.1173 LP  0  0  0  0  0  0  0  0  0  0  0  0  # atno 17321 bound_to 7965
  140.1602  144.5033  150.6637 LP  0  0  0  0  0  0  0  0  0  0  0  0  # atno 17342 bound_to 10162
  140.6774  143.2311  151.5472 LP  0  0  0  0  0  0  0  0  0  0  0  0  # atno 17343 bound_to 10162
  157.6739  131.0855  150.7542 LP  0  0  0  0  0  0  0  0  0  0  0  0  # atno 17370 bound_to 10713
  156.7605  130.4797  149.5438 LP  0  0  0  0  0  0  0  0  0  0  0  0  # atno 17371 bound_to 10713
  140.0410  134.9854  157.0961 LP  0  0  0  0  0  0  0  0  0  0  0  0  # atno 17394 bound_to 11000
  140.4135  134.1955  155.7163 LP  0  0  0  0  0  0  0  0  0  0  0  0  # atno 17395 bound_to 11000

$$$$
