#       Name:                AV-unprocessed.smi:1771
#       Creating user name   scv26
#       Creation time:       Fri Mar 27 08:39:53 2020


#       File generated by GOLD software.
#

@<TRIPOS>MOLECULE
AV-unprocessed.smi:1771
    34    35     1
SMALL
NO_CHARGES


@<TRIPOS>ATOM
      1 ****        -0.4164   1.6722   0.6948 O.2            1 S1                 0.0000
      2 ****        -0.8859   0.5920   1.0534 C.2            1 S1                 0.0000
      3 ****        -0.1442  -0.5016   1.2810 N.am           1 S1                 0.0000
      4 ****         1.3095  -0.5792   1.1696 C.3            1 S1                 0.0000
      5 ****         1.7603  -1.2003  -0.1670 C.3            1 S1                 0.0000
      6 ****         1.3817  -0.3655  -1.4094 C.3            1 S1                 0.0000
      7 ****         2.1282  -0.9232  -2.6264 C.3            1 S1                 0.0000
      8 ****         3.7229  -1.5567  -1.9868 S.o2           1 S1                 0.0000
      9 ****         3.8572  -2.9734  -2.3586 O.2            1 S1                 0.0000
     10 ****         4.7921  -0.5913  -2.2828 O.2            1 S1                 0.0000
     11 ****         3.2785  -1.4309  -0.2135 C.3            1 S1                 0.0000
     12 ****        -2.1900   0.3483   1.2628 N.am           1 S1                 0.0000
     13 ****        -3.2671   1.2626   1.1433 C.2            1 S1                 0.0000
     14 ****        -4.6320   0.9391   1.3731 C.2            1 S1                 0.0000
     15 ****        -5.4159   1.9921   1.1912 N.2            1 S1                 0.0000
     16 ****        -4.5644   2.9846   0.8468 N.pl3          1 S1                 0.0000
     17 ****        -3.2463   2.5868   0.8054 C.2            1 S1                 0.0000
     18 ****        -4.8943   3.9183   0.6467 H              1 S1                 0.0000
     19 ****        -0.6206  -1.3442   1.5678 H              1 S1                 0.0000
     20 ****         1.7660   0.4023   1.3095 H              1 S1                 0.0000
     21 ****         1.6653  -1.1974   1.9942 H              1 S1                 0.0000
     22 ****         1.2826  -2.1758  -0.2727 H              1 S1                 0.0000
     23 ****         0.3053  -0.3550  -1.5824 H              1 S1                 0.0000
     24 ****         1.6883   0.6694  -1.2511 H              1 S1                 0.0000
     25 ****         1.5847  -1.7606  -3.0645 H              1 S1                 0.0000
     26 ****         2.3011  -0.1750  -3.4001 H              1 S1                 0.0000
     27 ****         3.8171  -0.5788   0.2026 H              1 S1                 0.0000
     28 ****         3.5903  -2.3306   0.3169 H              1 S1                 0.0000
     29 ****        -2.4389  -0.5881   1.5464 H              1 S1                 0.0000
     30 ****        -5.0706  -0.0052   1.6607 H              1 S1                 0.0000
     31 ****        -2.4455   3.2645   0.5484 H              1 S1                 0.0000
     32 ****         0.5696   1.7681   0.5579 LP             1 S1                 0.0000
     33 ****        -1.0210   2.4537   0.5405 LP             1 S1                 0.0000
     34 ****        -6.4101   2.0415   1.2868 LP             1 S1                 0.0000
@<TRIPOS>BOND
    1    1    2 2     
    2    2    3 am    
    3    2   12 am    
    4    3    4 1     
    5    3   19 1     
    6    4    5 1     
    7    4   20 1     
    8    4   21 1     
    9    5   11 1     
   10    5    6 1     
   11    5   22 1     
   12    6    7 1     
   13    6   23 1     
   14    6   24 1     
   15    7    8 1     
   16    7   25 1     
   17    7   26 1     
   18    8    9 2     
   19    8   10 2     
   20    8   11 1     
   21   11   27 1     
   22   11   28 1     
   23   12   13 1     
   24   12   29 1     
   25   13   17 2     
   26   13   14 1     
   27   14   15 2     
   28   14   30 1     
   29   15   16 1     
   30   16   18 1     
   31   16   17 1     
   32   17   31 1     
   33    1   32 1     
   34    1   33 1     
   35   15   34 1     
@<TRIPOS>SUBSTRUCTURE
      1 S1             1
@<TRIPOS>SET
LONE_PAIRS      STATIC     ATOMS    <user>   **** ""
5 32 33 9 10 34
DONOR_HYDROGENS      STATIC     ATOMS    <user>   **** ""
3 19 29 18
ATOM$BLUE        STATIC     ATOMS    COLORGROUP SYSTEM
5 32 33 9 10 34
ATOM$RED        STATIC     ATOMS    COLORGROUP SYSTEM
3 19 29 18
