#       Name:                AV-unprocessed.smi:2787
#       Creating user name   scv26
#       Creation time:       Fri Mar 27 15:18:47 2020


#       File generated by GOLD software.
#

@<TRIPOS>MOLECULE
AV-unprocessed.smi:2787
    40    41     1
SMALL
NO_CHARGES


@<TRIPOS>ATOM
      1 ****        -4.2499   0.6494   0.2063 O.3            1 S1                 0.0000
      2 ****        -3.6243   1.9110   0.0979 C.3            1 S1                 0.0000
      3 ****        -2.0998   1.7659   0.2056 C.3            1 S1                 0.0000
      4 ****        -1.4750   1.0421  -0.9994 C.3            1 S1                 0.0000
      5 ****         0.0111   0.8792  -0.8697 C.2            1 S1                 0.0000
      6 ****         0.8359   1.9135  -1.0380 N.2            1 S1                 0.0000
      7 ****         2.0789   1.3531  -0.8231 C.ar           1 S1                 0.0000
      8 ****         3.3658   1.9361  -0.8544 C.ar           1 S1                 0.0000
      9 ****         4.5102   1.1537  -0.5962 C.ar           1 S1                 0.0000
     10 ****         4.3842  -0.2194  -0.3027 C.ar           1 S1                 0.0000
     11 ****         3.1109  -0.8199  -0.2672 C.ar           1 S1                 0.0000
     12 ****         1.9710  -0.0350  -0.5272 C.ar           1 S1                 0.0000
     13 ****         0.6057  -0.3062  -0.5723 N.pl3          1 S1                 0.0000
     14 ****        -0.0135  -1.6082  -0.3498 C.3            1 S1                 0.0000
     15 ****        -0.6104  -1.7597   1.0643 C.3            1 S1                 0.0000
     16 ****         0.3973  -1.5278   2.0308 O.3            1 S1                 0.0000
     17 ****        -1.2385  -3.1461   1.3036 C.3            1 S1                 0.0000
     18 ****        -1.7578  -3.2098   2.5299 F              1 S1                 0.0000
     19 ****        -2.2250  -3.3417   0.4286 F              1 S1                 0.0000
     20 ****        -0.3347  -4.1146   1.1500 F              1 S1                 0.0000
     21 ****        -5.1849   0.7711   0.1413 H              1 S1                 0.0000
     22 ****        -3.9050   2.3786  -0.8464 H              1 S1                 0.0000
     23 ****        -3.9967   2.5506   0.8984 H              1 S1                 0.0000
     24 ****        -1.6587   2.7599   0.2875 H              1 S1                 0.0000
     25 ****        -1.8470   1.2494   1.1316 H              1 S1                 0.0000
     26 ****        -1.9529   0.0752  -1.1443 H              1 S1                 0.0000
     27 ****        -1.6766   1.6096  -1.9088 H              1 S1                 0.0000
     28 ****         3.4724   2.9874  -1.0772 H              1 S1                 0.0000
     29 ****         5.4891   1.6098  -0.6226 H              1 S1                 0.0000
     30 ****         5.2657  -0.8115  -0.1044 H              1 S1                 0.0000
     31 ****         3.0135  -1.8711  -0.0402 H              1 S1                 0.0000
     32 ****        -0.7730  -1.7758  -1.1126 H              1 S1                 0.0000
     33 ****         0.7387  -2.3794  -0.5169 H              1 S1                 0.0000
     34 ****        -1.3829  -1.0058   1.2102 H              1 S1                 0.0000
     35 ****         0.7556  -0.6649   1.8887 H              1 S1                 0.0000
     36 ****        -4.0242   0.2359   1.0883 LP             1 S1                 0.0000
     37 ****        -3.9354   0.0526  -0.5319 LP             1 S1                 0.0000
     38 ****         0.6098   2.8610  -1.2641 LP             1 S1                 0.0000
     39 ****         1.1196  -2.2128   1.9362 LP             1 S1                 0.0000
     40 ****         0.0038  -1.5828   2.9484 LP             1 S1                 0.0000
@<TRIPOS>BOND
    1    1    2 1     
    2    1   21 1     
    3    2    3 1     
    4    2   22 1     
    5    2   23 1     
    6    3    4 1     
    7    3   24 1     
    8    3   25 1     
    9    4    5 1     
   10    4   26 1     
   11    4   27 1     
   12    5   13 1     
   13    5    6 2     
   14    6    7 1     
   15    7   12 ar    
   16    7    8 ar    
   17    8    9 ar    
   18    8   28 1     
   19    9   10 ar    
   20    9   29 1     
   21   10   11 ar    
   22   10   30 1     
   23   11   12 ar    
   24   11   31 1     
   25   12   13 1     
   26   13   14 1     
   27   14   15 1     
   28   14   32 1     
   29   14   33 1     
   30   15   16 1     
   31   15   17 1     
   32   15   34 1     
   33   16   35 1     
   34   17   18 1     
   35   17   19 1     
   36   17   20 1     
   37    1   36 1     
   38    1   37 1     
   39    6   38 1     
   40   16   39 1     
   41   16   40 1     
@<TRIPOS>SUBSTRUCTURE
      1 S1             1
@<TRIPOS>SET
LONE_PAIRS      STATIC     ATOMS    <user>   **** ""
5 36 37 38 39 40
DONOR_HYDROGENS      STATIC     ATOMS    <user>   **** ""
2 21 35
ATOM$BLUE        STATIC     ATOMS    COLORGROUP SYSTEM
5 36 37 38 39 40
ATOM$RED        STATIC     ATOMS    COLORGROUP SYSTEM
2 21 35
