AV-unprocessed.smi:228|AV-procd|sdf|1743|dock7
  -GOLD-   2262020253D 1   1.00000     0.00000
 Structure written by MMmdl.
 60 63  0  0  0  0  0  0  0  0  2 V2000
  151.8052  144.4140  158.4554 C   0  0  0  0  0  0  0  0  0  0  0  0
  151.7907  142.9918  158.7788 N   0  0  0  0  0  0  0  0  0  0  0  0
  151.8152  142.0444  157.6618 C   0  0  0  0  0  0  0  0  0  0  0  0
  150.4645  141.8730  156.9264 C   0  0  2  0  0  0  0  0  0  0  0  0
  149.5301  141.4389  157.8915 O   0  0  0  0  0  0  0  0  0  0  0  0
  150.4855  140.8190  155.7957 C   0  0  0  0  0  0  0  0  0  0  0  0
  149.1393  140.5212  155.2396 N   0  3  0  0  0  0  0  0  0  0  0  0
  148.5931  141.6561  154.4581 C   0  0  0  0  0  0  0  0  0  0  0  0
  147.1903  141.3250  153.9221 C   0  0  0  0  0  0  0  0  0  0  0  0
  147.2485  140.1437  153.1337 O   0  0  0  0  0  0  0  0  0  0  0  0
  147.6734  139.0210  153.8942 C   0  0  0  0  0  0  0  0  0  0  0  0
  149.0894  139.2679  154.4434 C   0  0  0  0  0  0  0  0  0  0  0  0
  152.4146  142.6847  159.9452 C   0  0  0  0  0  0  0  0  0  0  0  0
  152.1555  143.4033  161.0690 N   0  0  0  0  0  0  0  0  0  0  0  0
  152.7853  143.1187  162.2126 C   0  0  0  0  0  0  0  0  0  0  0  0
  153.7025  142.1787  162.4472 N   0  0  0  0  0  0  0  0  0  0  0  0
  153.9637  141.4498  161.3251 C   0  0  0  0  0  0  0  0  0  0  0  0
  153.3607  141.6267  160.0482 C   0  0  0  0  0  0  0  0  0  0  0  0
  153.8753  140.7001  159.1497 N   0  0  0  0  0  0  0  0  0  0  0  0
  154.7252  140.0074  159.8574 C   0  0  0  0  0  0  0  0  0  0  0  0
  154.8710  140.4174  161.1635 N   0  0  0  0  0  0  0  0  0  0  0  0
  155.7201  139.8331  162.1598 C   0  0  0  0  0  0  0  0  0  0  0  0
  155.6089  138.3460  162.5075 C   0  0  0  0  0  0  0  0  0  0  0  0
  155.8961  138.6577  163.9927 C   0  0  0  0  0  0  0  0  0  0  0  0
  154.9591  137.9692  164.9975 C   0  0  0  0  0  0  0  0  0  0  0  0
  155.1783  136.5737  165.0366 O   0  0  0  0  0  0  0  0  0  0  0  0
  157.3414  138.4339  164.4918 C   0  0  0  0  0  0  0  0  0  0  0  0
  157.6908  137.0690  164.6014 O   0  0  0  0  0  0  0  0  0  0  0  0
  155.5059  140.1134  163.6511 C   0  0  0  0  0  0  0  0  0  0  0  0
  150.9259  144.9051  158.8723 H   0  0  0  0  0  0  0  0  0  0  0  0
  151.7955  144.5757  157.3771 H   0  0  0  0  0  0  0  0  0  0  0  0
  152.6946  144.9055  158.8530 H   0  0  0  0  0  0  0  0  0  0  0  0
  152.5649  142.3793  156.9437 H   0  0  0  0  0  0  0  0  0  0  0  0
  152.1635  141.0787  158.0315 H   0  0  0  0  0  0  0  0  0  0  0  0
  150.0896  142.8267  156.5616 H   0  0  0  0  0  0  0  0  0  0  0  0
  148.7064  141.2687  157.4598 H   0  0  0  0  0  0  0  0  0  0  0  0
  151.1455  141.1737  155.0023 H   0  0  0  0  0  0  0  0  0  0  0  0
  150.9210  139.8841  156.1531 H   0  0  0  0  0  0  0  0  0  0  0  0
  148.5428  142.5462  155.0863 H   0  0  0  0  0  0  0  0  0  0  0  0
  149.2642  141.8849  153.6286 H   0  0  0  0  0  0  0  0  0  0  0  0
  146.4777  141.2001  154.7380 H   0  0  0  0  0  0  0  0  0  0  0  0
  146.8231  142.1436  153.3033 H   0  0  0  0  0  0  0  0  0  0  0  0
  146.9664  138.8276  154.7001 H   0  0  0  0  0  0  0  0  0  0  0  0
  147.6687  138.1386  153.2543 H   0  0  0  0  0  0  0  0  0  0  0  0
  149.7974  139.3325  153.6158 H   0  0  0  0  0  0  0  0  0  0  0  0
  149.3862  138.4144  155.0516 H   0  0  0  0  0  0  0  0  0  0  0  0
  152.5219  143.7362  163.0588 H   0  0  0  0  0  0  0  0  0  0  0  0
  155.2841  139.1843  159.4363 H   0  0  0  0  0  0  0  0  0  0  0  0
  156.7392  140.0830  161.8627 H   0  0  0  0  0  0  0  0  0  0  0  0
  154.6021  137.9570  162.3439 H   0  0  0  0  0  0  0  0  0  0  0  0
  156.3527  137.7147  162.0204 H   0  0  0  0  0  0  0  0  0  0  0  0
  155.0886  138.3766  166.0007 H   0  0  0  0  0  0  0  0  0  0  0  0
  153.9143  138.1324  164.7311 H   0  0  0  0  0  0  0  0  0  0  0  0
  155.2105  136.2992  165.9402 H   0  0  0  0  0  0  0  0  0  0  0  0
  158.0595  138.9051  163.8199 H   0  0  0  0  0  0  0  0  0  0  0  0
  157.4900  138.8860  165.4728 H   0  0  0  0  0  0  0  0  0  0  0  0
  158.3307  136.9772  165.2909 H   0  0  0  0  0  0  0  0  0  0  0  0
  156.1677  140.8755  164.0639 H   0  0  0  0  0  0  0  0  0  0  0  0
  154.4642  140.3376  163.8869 H   0  0  0  0  0  0  0  0  0  0  0  0
  148.5202  140.3989  156.0287 H   0  0  0  0  0  0  0  0  0  0  0  0
  1  2  1  0  0  0  0
  1 30  1  0  0  0  0
  1 31  1  0  0  0  0
  1 32  1  0  0  0  0
  2  3  1  0  0  0  0
  2 13  1  0  0  0  0
  3  4  1  0  0  0  0
  3 33  1  0  0  0  0
  3 34  1  0  0  0  0
  4  5  1  0  0  0  0
  4  6  1  0  0  0  0
  4 35  1  0  0  0  0
  5 36  1  0  0  0  0
  6  7  1  0  0  0  0
  6 37  1  0  0  0  0
  6 38  1  0  0  0  0
  7 12  1  0  0  0  0
  7  8  1  0  0  0  0
  7 60  1  0  0  0  0
  8  9  1  0  0  0  0
  8 39  1  0  0  0  0
  8 40  1  0  0  0  0
  9 10  1  0  0  0  0
  9 41  1  0  0  0  0
  9 42  1  0  0  0  0
 10 11  1  0  0  0  0
 11 12  1  0  0  0  0
 11 43  1  0  0  0  0
 11 44  1  0  0  0  0
 12 45  1  0  0  0  0
 12 46  1  0  0  0  0
 13 18  1  0  0  0  0
 13 14  2  0  0  0  0
 14 15  1  0  0  0  0
 15 16  2  0  0  0  0
 15 47  1  0  0  0  0
 16 17  1  0  0  0  0
 17 21  1  0  0  0  0
 17 18  2  0  0  0  0
 18 19  1  0  0  0  0
 19 20  2  0  0  0  0
 20 21  1  0  0  0  0
 20 48  1  0  0  0  0
 21 22  1  0  0  0  0
 22 29  1  0  0  0  0
 22 23  1  0  0  0  0
 22 49  1  0  0  0  0
 23 24  1  0  0  0  0
 23 50  1  0  0  0  0
 23 51  1  0  0  0  0
 24 25  1  0  0  0  0
 24 27  1  0  0  0  0
 24 29  1  0  0  0  0
 25 26  1  0  0  0  0
 25 52  1  0  0  0  0
 25 53  1  0  0  0  0
 26 54  1  0  0  0  0
 27 28  1  0  0  0  0
 27 55  1  0  0  0  0
 27 56  1  0  0  0  0
 28 57  1  0  0  0  0
 29 58  1  0  0  0  0
 29 59  1  0  0  0  0
M  CHG  1   7   1
M  END
> <s_m_source_file>
AV-unprocessed.smi

> <i_m_source_file_index>
228

> <i_lp_mmshare_version>
43012

> <i_f3d_flags>
0

> <s_epik_input>
W0NIMl0xW0NIMl1PW0NIMl1bQ0gyXU4xW0NIMl1bQ0BASF0oW09IXSlbQ0gyXU4oW0NIM10pYyhuW2NIXW4yKWMoYzIzKW5bY0hdbjNbQ0hdKFtDSDJdNClbQ0gyXUM0KFtDSDJdW09IXSlbQ0gyXVtPSF0=

> <s_epik_cmdline>
J2VwaWtfcHl0aG9uJywgJy1waCcsICc3LjAnLCAnLXRuJywgJzgnLCAnLW1hJywgJzIwMCcsICctbWV0YWxfYmluZGluZycsICctaW1hZScsICc8aW5maWxlLm1hZT4nLCAnLW9tYWUnLCAnPG91dGZpbGUubWFlPic=

> <r_lp_tautomer_probability>
1

> <r_epik_Ionization_Penalty>
0.403032

> <r_epik_Ionization_Penalty_Charging>
0.40072

> <r_epik_Ionization_Penalty_Neutral>
0.00231206

> <r_epik_State_Penalty>
0.387266

> <r_epik_Charging_Adjusted_Penalty>
0.787986

> <i_epik_Tot_Q>
1

> <i_epik_Tot_abs_Q>
1

> <r_epik_Metal_State_Penalty>
0.385845

> <b_epik_Metal_Only>
0

> <s_lp_Force_Field>
OPLS_2005

> <r_lp_Energy>
45.878

> <b_lp_Chiralities_Consistent>
1

> <s_lp_Variant>
AV-unprocessed.smi:228-1

> <Gold.Version>
5.8.1

> <Gold.Id.Protein>
6NUR|6NUR_protein|mol2

> <Gold.PLP.Fitness>
53.6175

> <Gold.PLP.PLP>
-54.2734

> <Gold.PLP.part.hbond>
-2.4224

> <Gold.PLP.part.metal>
0.0000

> <Gold.PLP.part.buried>
-6.5736

> <Gold.PLP.part.nonpolar>
-45.6989

> <Gold.PLP.part.repulsive>
1.6791

> <Gold.PLP.ligand.clash>
0.0000

> <Gold.PLP.ligand.torsion>
1.1320

> <Gold.PLP.Chemscore.Hbond>
0.1906

> <Gold.PLP.Chemscore.CHOScore>
0.0000

> <Gold.PLP.Chemscore.Metal>
0.0000

> <Gold.Chemscore.Hbonds>
donor molecule, donor type, donor heavy atom, donor atom, acceptor molecule, acceptor atom, score
      P1  H  7997  8008       L1    19  0.15

> <Gold.PLP.Chemscore.Internal.Correction>
1.0362

> <Gold.Rescore>
     Score         DG    S(hbond)    S(metal)    S(lipo)     H(rot)  DE(clash)    DE(int)     intcor
      1.24      -4.73       0.00        0.00      98.03       4.77       0.09       3.41       ----

> <Gold.Chemscore.Fitness>
1.2373

> <Gold.Chemscore.DG>
-4.7300

> <Gold.Chemscore.ZeroCoef>
-5.4800

> <Gold.Chemscore.Hbond>
0.0006

> <Gold.Chemscore.Metal>
0.0000

> <Gold.Chemscore.Lipo>
98.0250

> <Gold.Chemscore.Internal_Hbond>
0.0000

> <Gold.Chemscore.DEClash>
0.0875

> <Gold.Chemscore.DEInternal>
3.4053

> <Gold.Chemscore.Rot>
4.7738

> <Gold.Chemscore.Internal.Correction>
   9.000000E+99

> <Gold.Chemscore.Hbond.Weighted>
-0.0019

> <Gold.Chemscore.Metal.Weighted>
-0.0000

> <Gold.Chemscore.Lipo.Weighted>
-11.4689

> <Gold.Chemscore.Internal_Hbond.Weighted>
0.0000

> <Gold.Chemscore.DEClash.Weighted>
0.0875

> <Gold.Chemscore.DEInternal.Weighted>
3.4053

> <Gold.Chemscore.Rot.Weighted>
12.2208

> <Gold.Chemscore.Internal.Correction.Weighted>
   9.000000E+99

> <Gold.Protein.RotatedTorsions>
[ 6907 6896 6895 6894 ] final -171.37 input  -60.11 | X-H torsion
[ 7974 7965 7964 7962 ] final -154.83 input  175.53 | X-H torsion
[ 8008 7997 7996 7995 ] final -111.24 input   59.86 | X-H torsion
[ 10167 10162 10161 10158 ] final  -39.66 input  -65.29 | X-H torsion
[ 10718 10713 10712 10709 ] final -116.62 input   66.30 | X-H torsion
[ 10763 10752 10751 10750 ] final  -33.08 input  -60.55 | X-H torsion
[ 11005 11000 10999 10996 ] final   47.40 input  -57.11 | X-H torsion

> <Gold.Protein.ActiveResidues>
 VAL166  LYS551  ARG553  GLY616  TRP617  ASP618  TYR619  PRO620  LYS621  CYS622 
 ASP623  PHE694  ASN695  SER759  ASP760  ASP761  ALA762  ILE779  LEU786  VAL792 
 PHE793  MET794  SER795  GLU796  ALA797  LYS798  CYS799  TRP800  GLU811  SER814 

> <Gold.Protein.RotatedAtoms>
  151.5228  133.3463  159.2904 H   0  0  0  0  0  0  0  0  0  0  0  0  # atno 6907 bound_to 6896
  150.8642  134.8003  159.7117 H   0  0  0  0  0  0  0  0  0  0  0  0  # atno 6908 bound_to 6896
  152.4652  134.5102  159.9803 H   0  0  0  0  0  0  0  0  0  0  0  0  # atno 6909 bound_to 6896
  144.7670  140.4334  143.5935 H   0  0  0  0  0  0  0  0  0  0  0  0  # atno 7974 bound_to 7965
  154.9868  140.0395  157.2302 H   0  0  0  0  0  0  0  0  0  0  0  0  # atno 8008 bound_to 7997
  154.7664  140.2794  155.6150 H   0  0  0  0  0  0  0  0  0  0  0  0  # atno 8009 bound_to 7997
  156.2913  140.2618  156.2456 H   0  0  0  0  0  0  0  0  0  0  0  0  # atno 8010 bound_to 7997
  140.7057  143.3200  151.2814 H   0  0  0  0  0  0  0  0  0  0  0  0  # atno 10167 bound_to 10162
  156.0976  130.6145  150.9059 H   0  0  0  0  0  0  0  0  0  0  0  0  # atno 10718 bound_to 10713
  153.8243  135.6871  153.4823 H   0  0  0  0  0  0  0  0  0  0  0  0  # atno 10763 bound_to 10752
  153.1550  135.4603  154.9689 H   0  0  0  0  0  0  0  0  0  0  0  0  # atno 10764 bound_to 10752
  154.7914  135.3303  154.7712 H   0  0  0  0  0  0  0  0  0  0  0  0  # atno 10765 bound_to 10752
  140.1282  134.4740  155.8542 H   0  0  0  0  0  0  0  0  0  0  0  0  # atno 11005 bound_to 11000
  145.6439  139.1554  143.2900 LP  0  0  0  0  0  0  0  0  0  0  0  0  # atno 17320 bound_to 7965
  146.1786  140.6534  142.9200 LP  0  0  0  0  0  0  0  0  0  0  0  0  # atno 17321 bound_to 7965
  139.6651  144.0119  152.2718 LP  0  0  0  0  0  0  0  0  0  0  0  0  # atno 17342 bound_to 10162
  139.9699  144.6501  150.7999 LP  0  0  0  0  0  0  0  0  0  0  0  0  # atno 17343 bound_to 10162
  157.6140  131.0934  150.8743 LP  0  0  0  0  0  0  0  0  0  0  0  0  # atno 17370 bound_to 10713
  156.8878  130.5202  149.5287 LP  0  0  0  0  0  0  0  0  0  0  0  0  # atno 17371 bound_to 10713
  141.2165  133.6786  156.7020 LP  0  0  0  0  0  0  0  0  0  0  0  0  # atno 17394 bound_to 11000
  140.2876  134.8267  157.3988 LP  0  0  0  0  0  0  0  0  0  0  0  0  # atno 17395 bound_to 11000

$$$$
