AV-unprocessed.smi:34|AV-procd|sdf|242|dock10
  -GOLD-   2262015593D 1   1.00000     0.00000
 Structure written by MMmdl.
 54 58  0  0  0  0  0  0  0  0  2 V2000
  147.9731  130.3561  155.2789 O   0  0  0  0  0  0  0  0  0  0  0  0
  148.6440  130.2774  154.2476 C   0  0  0  0  0  0  0  0  0  0  0  0
  149.7700  130.9661  153.9318 N   0  5  0  0  0  0  0  0  0  0  0  0
  150.4544  131.6007  154.8958 C   0  0  0  0  0  0  0  0  0  0  0  0
  151.2784  130.9079  155.7232 N   0  0  0  0  0  0  0  0  0  0  0  0
  151.9669  131.5427  156.6796 C   0  0  0  0  0  0  0  0  0  0  0  0
  151.9774  132.8442  156.9848 N   0  0  0  0  0  0  0  0  0  0  0  0
  151.1412  133.5481  156.1679 C   0  0  0  0  0  0  0  0  0  0  0  0
  150.3533  133.0020  155.1141 C   0  0  0  0  0  0  0  0  0  0  0  0
  149.6241  133.9971  154.4806 N   0  0  0  0  0  0  0  0  0  0  0  0
  149.9999  135.0793  155.1593 C   0  0  0  0  0  0  0  0  0  0  0  0
  150.8765  134.9064  156.1717 N   0  0  0  0  0  0  0  0  0  0  0  0
  151.4930  135.9240  157.0832 C   0  0  1  0  0  0  0  0  0  0  0  0
  152.1513  136.8771  156.3026 O   0  0  0  0  0  0  0  0  0  0  0  0
  151.2674  137.9623  156.0571 C   0  0  2  0  0  0  0  0  0  0  0  0
  152.0571  139.1943  155.6026 C   0  0  0  0  0  0  0  0  0  0  0  0
  152.3091  140.0338  156.7172 O   0  0  0  0  0  0  0  0  0  0  0  0
  151.4948  141.0761  156.9732 C   0  0  0  0  0  0  0  0  0  0  0  0
  150.4588  141.3021  156.3446 O   0  0  0  0  0  0  0  0  0  0  0  0
  151.9761  141.9268  158.0995 C   0  0  0  0  0  0  0  0  0  0  0  0
  151.5078  143.2570  158.2122 C   0  0  0  0  0  0  0  0  0  0  0  0
  151.9419  144.0837  159.2665 C   0  0  0  0  0  0  0  0  0  0  0  0
  152.8515  143.5912  160.2203 C   0  0  0  0  0  0  0  0  0  0  0  0
  153.3268  142.2707  160.1179 C   0  0  0  0  0  0  0  0  0  0  0  0
  152.8930  141.4419  159.0646 C   0  0  0  0  0  0  0  0  0  0  0  0
  150.5764  138.1138  157.4093 C   0  0  1  0  0  0  0  0  0  0  0  0
  149.4066  138.7453  157.3025 F   0  0  0  0  0  0  0  0  0  0  0  0
  150.3955  136.6720  157.8673 C   0  0  2  0  0  0  0  0  0  0  0  0
  150.5706  136.5725  159.2657 O   0  0  0  0  0  0  0  0  0  0  0  0
  148.1709  129.3702  153.1440 C   0  0  0  0  0  0  0  0  0  0  0  0
  146.8050  129.3648  152.7797 C   0  0  0  0  0  0  0  0  0  0  0  0
  146.3366  128.5029  151.7691 C   0  0  0  0  0  0  0  0  0  0  0  0
  147.2279  127.6295  151.1185 C   0  0  0  0  0  0  0  0  0  0  0  0
  148.5876  127.6163  151.4816 C   0  0  0  0  0  0  0  0  0  0  0  0
  149.0573  128.4786  152.4916 C   0  0  0  0  0  0  0  0  0  0  0  0
  152.6027  130.9168  157.2879 H   0  0  0  0  0  0  0  0  0  0  0  0
  149.6130  136.0533  154.8986 H   0  0  0  0  0  0  0  0  0  0  0  0
  152.1910  135.3521  157.6965 H   0  0  0  0  0  0  0  0  0  0  0  0
  150.5460  137.6700  155.2920 H   0  0  0  0  0  0  0  0  0  0  0  0
  152.9956  138.8923  155.1354 H   0  0  0  0  0  0  0  0  0  0  0  0
  151.4831  139.7480  154.8583 H   0  0  0  0  0  0  0  0  0  0  0  0
  150.8087  143.6576  157.4919 H   0  0  0  0  0  0  0  0  0  0  0  0
  151.5757  145.0969  159.3431 H   0  0  0  0  0  0  0  0  0  0  0  0
  153.1842  144.2252  161.0288 H   0  0  0  0  0  0  0  0  0  0  0  0
  154.0255  141.8919  160.8492 H   0  0  0  0  0  0  0  0  0  0  0  0
  153.2785  140.4339  159.0150 H   0  0  0  0  0  0  0  0  0  0  0  0
  151.2065  138.6777  158.0991 H   0  0  0  0  0  0  0  0  0  0  0  0
  149.4090  136.2976  157.5887 H   0  0  0  0  0  0  0  0  0  0  0  0
  149.7229  136.4586  159.6673 H   0  0  0  0  0  0  0  0  0  0  0  0
  146.1076  130.0278  153.2712 H   0  0  0  0  0  0  0  0  0  0  0  0
  145.2920  128.5111  151.4954 H   0  0  0  0  0  0  0  0  0  0  0  0
  146.8683  126.9674  150.3448 H   0  0  0  0  0  0  0  0  0  0  0  0
  149.2716  126.9414  150.9885 H   0  0  0  0  0  0  0  0  0  0  0  0
  150.1025  128.4446  152.7635 H   0  0  0  0  0  0  0  0  0  0  0  0
  1  2  2  0  0  0  0
  2  3  1  0  0  0  0
  2 30  1  0  0  0  0
  3  4  1  0  0  0  0
  4  9  1  0  0  0  0
  4  5  2  0  0  0  0
  5  6  1  0  0  0  0
  6  7  2  0  0  0  0
  6 36  1  0  0  0  0
  7  8  1  0  0  0  0
  8 12  1  0  0  0  0
  8  9  2  0  0  0  0
  9 10  1  0  0  0  0
 10 11  2  0  0  0  0
 11 12  1  0  0  0  0
 11 37  1  0  0  0  0
 12 13  1  0  0  0  0
 13 28  1  0  0  0  0
 13 14  1  0  0  0  0
 13 38  1  0  0  0  0
 14 15  1  0  0  0  0
 15 16  1  0  0  0  0
 15 26  1  0  0  0  0
 15 39  1  0  0  0  0
 16 17  1  0  0  0  0
 16 40  1  0  0  0  0
 16 41  1  0  0  0  0
 17 18  1  0  0  0  0
 18 19  2  0  0  0  0
 18 20  1  0  0  0  0
 20 25  1  0  0  0  0
 20 21  2  0  0  0  0
 21 22  1  0  0  0  0
 21 42  1  0  0  0  0
 22 23  2  0  0  0  0
 22 43  1  0  0  0  0
 23 24  1  0  0  0  0
 23 44  1  0  0  0  0
 24 25  2  0  0  0  0
 24 45  1  0  0  0  0
 25 46  1  0  0  0  0
 26 27  1  0  0  0  0
 26 28  1  0  0  0  0
 26 47  1  0  0  0  0
 28 29  1  0  0  0  0
 28 48  1  0  0  0  0
 29 49  1  0  0  0  0
 30 35  1  0  0  0  0
 30 31  2  0  0  0  0
 31 32  1  0  0  0  0
 31 50  1  0  0  0  0
 32 33  2  0  0  0  0
 32 51  1  0  0  0  0
 33 34  1  0  0  0  0
 33 52  1  0  0  0  0
 34 35  2  0  0  0  0
 34 53  1  0  0  0  0
 35 54  1  0  0  0  0
M  CHG  1   3  -1
M  END
> <s_m_source_file>
AV-unprocessed.smi

> <i_m_source_file_index>
34

> <i_lp_mmshare_version>
43012

> <i_f3d_flags>
0

> <s_epik_input>
W2NIXTFbY0hdW2NIXVtjSF1bY0hdYzFDKD1PKVtOSF1jKG5bY0hdbjIpYyhjMjMpbltjSF1uM1tDQEBIXTRPW0NASF0oW0NAQEhdKEYpW0NASF00W09IXSlbQ0gyXU9DKD1PKWM1W2NIXVtjSF1bY0hdW2NIXVtjSF01

> <s_epik_cmdline>
J2VwaWtfcHl0aG9uJywgJy1waCcsICc3LjAnLCAnLXRuJywgJzgnLCAnLW1hJywgJzIwMCcsICctbWV0YWxfYmluZGluZycsICctaW1hZScsICc8aW5maWxlLm1hZT4nLCAnLW9tYWUnLCAnPG91dGZpbGUubWFlPic=

> <r_lp_tautomer_probability>
1

> <r_epik_Ionization_Penalty>
4.33227

> <r_epik_Ionization_Penalty_Charging>
3.41027

> <r_epik_Ionization_Penalty_Neutral>
0.922001

> <r_epik_State_Penalty>
3.41358

> <r_epik_Charging_Adjusted_Penalty>
6.82385

> <i_epik_Tot_Q>
-1

> <i_epik_Tot_abs_Q>
1

> <r_epik_Metal_State_Penalty>
0.496292

> <b_epik_Metal_Only>
1

> <s_epik_Chemistry_Notes>
This compound has an ester and may undergo hydrolysis at high or low pH. This compound contains an acetal/aminal-like group ( X-CH(R)-Y where X, Y are N, S, or O) that may be acid/base labile, releasing an aldehyde.

> <s_lp_Force_Field>
OPLS_2005

> <r_lp_Energy>
39.213

> <b_lp_Chiralities_Consistent>
1

> <s_lp_Variant>
AV-unprocessed.smi:34-28

> <Gold.Version>
5.8.1

> <Gold.Id.Protein>
6NUR|6NUR_protein|mol2

> <Gold.PLP.Fitness>
60.1768

> <Gold.PLP.PLP>
-59.4894

> <Gold.PLP.part.hbond>
-3.3258

> <Gold.PLP.part.metal>
0.0000

> <Gold.PLP.part.buried>
-10.4678

> <Gold.PLP.part.nonpolar>
-47.6971

> <Gold.PLP.part.repulsive>
0.3117

> <Gold.PLP.ligand.clash>
0.0000

> <Gold.PLP.ligand.torsion>
2.5764

> <Gold.PLP.Chemscore.Hbond>
1.7492

> <Gold.PLP.Chemscore.CHOScore>
0.0000

> <Gold.PLP.Chemscore.Metal>
0.0000

> <Gold.Chemscore.Hbonds>
donor molecule, donor type, donor heavy atom, donor atom, acceptor molecule, acceptor atom, score
      P1  H  6896  6907       L1    29  0.45
      P1  H  6896  6909       L1     7  0.11

> <Gold.PLP.Chemscore.Internal.Correction>
0.5928

> <Gold.Rescore>
     Score         DG    S(hbond)    S(metal)    S(lipo)     H(rot)  DE(clash)    DE(int)     intcor
     14.64     -19.11       1.34        0.00     137.17       2.69       0.03       4.45       ----

> <Gold.Chemscore.Fitness>
14.6357

> <Gold.Chemscore.DG>
-19.1129

> <Gold.Chemscore.ZeroCoef>
-5.4800

> <Gold.Chemscore.Hbond>
1.3420

> <Gold.Chemscore.Metal>
0.0000

> <Gold.Chemscore.Lipo>
137.1650

> <Gold.Chemscore.Internal_Hbond>
0.0000

> <Gold.Chemscore.DEClash>
0.0255

> <Gold.Chemscore.DEInternal>
4.4516

> <Gold.Chemscore.Rot>
2.6944

> <Gold.Chemscore.Internal.Correction>
   9.000000E+99

> <Gold.Chemscore.Hbonds>
donor molecule, donor type, donor heavy atom, donor atom, acceptor molecule, acceptor atom, score
      P1  H  6896  6907       L1    29  0.01
      P1  H  6896  6909       L1     7  0.06
      P1  H 10752 10765       L1    14  0.01

> <Gold.Chemscore.Hbond.Weighted>
-4.4821

> <Gold.Chemscore.Metal.Weighted>
-0.0000

> <Gold.Chemscore.Lipo.Weighted>
-16.0483

> <Gold.Chemscore.Internal_Hbond.Weighted>
0.0000

> <Gold.Chemscore.DEClash.Weighted>
0.0255

> <Gold.Chemscore.DEInternal.Weighted>
4.4516

> <Gold.Chemscore.Rot.Weighted>
6.8975

> <Gold.Chemscore.Internal.Correction.Weighted>
   9.000000E+99

> <Gold.Protein.RotatedTorsions>
[ 6907 6896 6895 6894 ] final  -38.40 input  -60.11 | X-H torsion
[ 7974 7965 7964 7962 ] final -168.23 input  175.53 | X-H torsion
[ 8008 7997 7996 7995 ] final   55.19 input   59.86 | X-H torsion
[ 10167 10162 10161 10158 ] final   -4.94 input  -65.29 | X-H torsion
[ 10718 10713 10712 10709 ] final  -31.56 input   66.30 | X-H torsion
[ 10763 10752 10751 10750 ] final  161.49 input  -60.55 | X-H torsion
[ 11005 11000 10999 10996 ] final   64.90 input  -57.11 | X-H torsion

> <Gold.Protein.ActiveResidues>
 VAL166  LYS551  ARG553  GLY616  TRP617  ASP618  TYR619  PRO620  LYS621  CYS622 
 ASP623  PHE694  ASN695  SER759  ASP760  ASP761  ALA762  ILE779  LEU786  VAL792 
 PHE793  MET794  SER795  GLU796  ALA797  LYS798  CYS799  TRP800  GLU811  SER814 

> <Gold.Protein.RotatedAtoms>
  151.0029  134.9336  159.7963 H   0  0  0  0  0  0  0  0  0  0  0  0  # atno 6907 bound_to 6896
  152.5282  134.3130  159.9130 H   0  0  0  0  0  0  0  0  0  0  0  0  # atno 6908 bound_to 6896
  151.3136  133.4028  159.2683 H   0  0  0  0  0  0  0  0  0  0  0  0  # atno 6909 bound_to 6896
  144.7207  140.2401  143.6292 H   0  0  0  0  0  0  0  0  0  0  0  0  # atno 7974 bound_to 7965
  155.4971  140.3473  155.4365 H   0  0  0  0  0  0  0  0  0  0  0  0  # atno 8008 bound_to 7997
  156.0938  140.1417  156.9585 H   0  0  0  0  0  0  0  0  0  0  0  0  # atno 8009 bound_to 7997
  154.4651  140.0920  156.6976 H   0  0  0  0  0  0  0  0  0  0  0  0  # atno 8010 bound_to 7997
  140.6946  143.6365  150.8474 H   0  0  0  0  0  0  0  0  0  0  0  0  # atno 10167 bound_to 10162
  156.3857  130.4364  149.7434 H   0  0  0  0  0  0  0  0  0  0  0  0  # atno 10718 bound_to 10713
  154.2637  135.2767  155.2767 H   0  0  0  0  0  0  0  0  0  0  0  0  # atno 10763 bound_to 10752
  154.5361  135.5716  153.6803 H   0  0  0  0  0  0  0  0  0  0  0  0  # atno 10764 bound_to 10752
  152.9957  135.6239  154.2789 H   0  0  0  0  0  0  0  0  0  0  0  0  # atno 10765 bound_to 10752
  139.9929  134.6564  156.0061 H   0  0  0  0  0  0  0  0  0  0  0  0  # atno 11005 bound_to 11000
  145.8327  139.2093  143.1873 LP  0  0  0  0  0  0  0  0  0  0  0  0  # atno 17320 bound_to 7965
  146.0416  140.8159  142.9826 LP  0  0  0  0  0  0  0  0  0  0  0  0  # atno 17321 bound_to 7965
  140.0082  143.5671  152.2849 LP  0  0  0  0  0  0  0  0  0  0  0  0  # atno 17342 bound_to 10162
  139.6385  144.7652  151.2387 LP  0  0  0  0  0  0  0  0  0  0  0  0  # atno 17343 bound_to 10162
  156.4507  130.7905  151.2926 LP  0  0  0  0  0  0  0  0  0  0  0  0  # atno 17370 bound_to 10713
  157.7495  131.0096  150.3275 LP  0  0  0  0  0  0  0  0  0  0  0  0  # atno 17371 bound_to 10713
  141.1580  133.6541  156.4225 LP  0  0  0  0  0  0  0  0  0  0  0  0  # atno 17394 bound_to 11000
  140.4874  134.6607  157.5197 LP  0  0  0  0  0  0  0  0  0  0  0  0  # atno 17395 bound_to 11000

$$$$
