AV-unprocessed.smi:3354|AV-procd|sdf|12962|dock5
  -GOLD-   2272019403D 1   1.00000     0.00000
 Structure written by MMmdl.
 38 40  0  0  0  0  0  0  0  0  1 V2000
  151.3318  141.6737  156.9124 C   0  0  0  0  0  0  0  0  0  0  0  0
  150.7336  140.9872  155.7036 C   0  0  1  0  0  0  0  0  0  0  0  0
  151.3591  139.7206  155.1650 C   0  0  0  0  0  0  0  0  0  0  0  0
  150.0037  139.6693  155.8416 C   0  0  2  0  0  0  0  0  0  0  0  0
  148.8169  139.4551  155.0701 N   0  0  0  0  0  0  0  0  0  0  0  0
  148.2842  138.1069  154.9678 C   0  0  0  0  0  0  0  0  0  0  0  0
  147.0374  138.2266  154.0752 C   0  0  2  0  0  0  0  0  0  0  0  0
  146.9739  137.1277  153.1157 N   0  0  0  0  0  0  0  0  0  0  0  0
  145.9545  136.2643  153.0084 C   0  0  0  0  0  0  0  0  0  0  0  0
  144.9461  136.3162  153.7123 O   0  0  0  0  0  0  0  0  0  0  0  0
  146.1766  135.3693  152.0307 N   0  0  0  0  0  0  0  0  0  0  0  0
  145.3621  134.2756  151.6306 C   0  0  0  0  0  0  0  0  0  0  0  0
  145.7531  133.2940  150.6880 C   0  0  0  0  0  0  0  0  0  0  0  0
  144.8452  132.2697  150.3573 C   0  0  0  0  0  0  0  0  0  0  0  0
  143.5793  132.2673  150.9743 C   0  0  0  0  0  0  0  0  0  0  0  0
  143.1885  133.2032  151.8648 N   0  0  0  0  0  0  0  0  0  0  0  0
  144.0640  134.1827  152.1763 C   0  0  0  0  0  0  0  0  0  0  0  0
  147.1594  139.5991  153.3946 C   0  0  0  0  0  0  0  0  0  0  0  0
  148.2971  140.2723  154.1435 C   0  0  0  0  0  0  0  0  0  0  0  0
  148.6726  141.4141  153.8817 O   0  0  0  0  0  0  0  0  0  0  0  0
  151.7048  140.9416  157.6296 H   0  0  0  0  0  0  0  0  0  0  0  0
  150.5767  142.2871  157.4040 H   0  0  0  0  0  0  0  0  0  0  0  0
  152.1582  142.3159  156.6078 H   0  0  0  0  0  0  0  0  0  0  0  0
  150.3460  141.6779  154.9567 H   0  0  0  0  0  0  0  0  0  0  0  0
  151.4140  139.6276  154.0821 H   0  0  0  0  0  0  0  0  0  0  0  0
  152.2029  139.2994  155.7078 H   0  0  0  0  0  0  0  0  0  0  0  0
  149.9943  139.2261  156.8358 H   0  0  0  0  0  0  0  0  0  0  0  0
  149.0433  137.4613  154.5229 H   0  0  0  0  0  0  0  0  0  0  0  0
  148.0365  137.7062  155.9517 H   0  0  0  0  0  0  0  0  0  0  0  0
  146.1477  138.2172  154.7082 H   0  0  0  0  0  0  0  0  0  0  0  0
  147.7621  137.0166  152.4948 H   0  0  0  0  0  0  0  0  0  0  0  0
  147.0096  135.5118  151.4786 H   0  0  0  0  0  0  0  0  0  0  0  0
  146.7166  133.3130  150.2034 H   0  0  0  0  0  0  0  0  0  0  0  0
  145.1121  131.5056  149.6422 H   0  0  0  0  0  0  0  0  0  0  0  0
  142.8594  131.4965  150.7412 H   0  0  0  0  0  0  0  0  0  0  0  0
  143.7159  134.9159  152.8893 H   0  0  0  0  0  0  0  0  0  0  0  0
  147.4261  139.5178  152.3397 H   0  0  0  0  0  0  0  0  0  0  0  0
  146.2382  140.1775  153.4752 H   0  0  0  0  0  0  0  0  0  0  0  0
  1  2  1  0  0  0  0
  1 21  1  0  0  0  0
  1 22  1  0  0  0  0
  1 23  1  0  0  0  0
  2  4  1  0  0  0  0
  2  3  1  0  0  0  0
  2 24  1  0  0  0  0
  3  4  1  0  0  0  0
  3 25  1  0  0  0  0
  3 26  1  0  0  0  0
  4  5  1  0  0  0  0
  4 27  1  0  0  0  0
  5 19  1  0  0  0  0
  5  6  1  0  0  0  0
  6  7  1  0  0  0  0
  6 28  1  0  0  0  0
  6 29  1  0  0  0  0
  7  8  1  0  0  0  0
  7 18  1  0  0  0  0
  7 30  1  0  0  0  0
  8  9  1  0  0  0  0
  8 31  1  0  0  0  0
  9 10  2  0  0  0  0
  9 11  1  0  0  0  0
 11 12  1  0  0  0  0
 11 32  1  0  0  0  0
 12 17  1  0  0  0  0
 12 13  2  0  0  0  0
 13 14  1  0  0  0  0
 13 33  1  0  0  0  0
 14 15  2  0  0  0  0
 14 34  1  0  0  0  0
 15 16  1  0  0  0  0
 15 35  1  0  0  0  0
 16 17  2  0  0  0  0
 17 36  1  0  0  0  0
 18 19  1  0  0  0  0
 18 37  1  0  0  0  0
 18 38  1  0  0  0  0
 19 20  2  0  0  0  0
M  END
> <s_m_source_file>
AV-unprocessed.smi

> <i_m_source_file_index>
3354

> <i_lp_mmshare_version>
43012

> <i_f3d_flags>
0

> <s_epik_input>
W0NIM11bQ0BASF0xW0NIMl1bQ0BIXTFOMltDSDJdW0NASF0oW0NIMl1DMj1PKVtOSF1DKD1PKVtOSF1jM1tjSF1bY0hdW2NIXW5bY0hdMw==

> <s_epik_cmdline>
J2VwaWtfcHl0aG9uJywgJy1waCcsICc3LjAnLCAnLXRuJywgJzgnLCAnLW1hJywgJzIwMCcsICctbWV0YWxfYmluZGluZycsICctaW1hZScsICc8aW5maWxlLm1hZT4nLCAnLW9tYWUnLCAnPG91dGZpbGUubWFlPic=

> <r_epik_Ionization_Penalty>
0.00456191

> <r_epik_Ionization_Penalty_Charging>
0

> <r_epik_Ionization_Penalty_Neutral>
0.00456191

> <r_epik_State_Penalty>
0.00327094

> <r_epik_Charging_Adjusted_Penalty>
0.00327094

> <i_epik_Tot_Q>
0

> <i_epik_Tot_abs_Q>
0

> <r_epik_Metal_State_Penalty>
-0

> <b_epik_Metal_Only>
0

> <s_lp_Force_Field>
OPLS_2005

> <r_lp_Energy>
40.9267

> <b_lp_Chiralities_Consistent>
1

> <s_lp_Variant>
AV-unprocessed.smi:3354-8

> <Gold.Version>
5.8.1

> <Gold.Id.Protein>
6NUR|6NUR_protein|mol2

> <Gold.PLP.Fitness>
42.7020

> <Gold.PLP.PLP>
-32.3463

> <Gold.PLP.part.hbond>
-2.8960

> <Gold.PLP.part.metal>
0.0000

> <Gold.PLP.part.buried>
-4.4073

> <Gold.PLP.part.nonpolar>
-25.3368

> <Gold.PLP.part.repulsive>
1.0863

> <Gold.PLP.ligand.clash>
0.0000

> <Gold.PLP.ligand.torsion>
0.2893

> <Gold.PLP.Chemscore.Hbond>
2.5257

> <Gold.PLP.Chemscore.CHOScore>
0.9926

> <Gold.PLP.Chemscore.Metal>
0.0000

> <Gold.Chemscore.Hbonds>
donor molecule, donor type, donor heavy atom, donor atom, acceptor molecule, acceptor atom, score
      L1  H     8    31       P1  7948  1.00
      L1  H    11    32       P1  7948  0.67
      P1  H  8011  8017       L1    20  0.49
      L1  C    15    35       P1 10952  0.79

> <Gold.PLP.Chemscore.Internal.Correction>
0.3794

> <Gold.Rescore>
     Score         DG    S(hbond)    S(metal)    S(lipo)     H(rot)  DE(clash)    DE(int)     intcor
     15.82     -19.05       2.64        0.00      67.78       1.24       0.08       3.15       ----

> <Gold.Chemscore.Fitness>
15.8207

> <Gold.Chemscore.DG>
-19.0523

> <Gold.Chemscore.ZeroCoef>
-5.4800

> <Gold.Chemscore.Hbond>
2.6367

> <Gold.Chemscore.Metal>
0.0000

> <Gold.Chemscore.Lipo>
67.7779

> <Gold.Chemscore.Internal_Hbond>
0.0000

> <Gold.Chemscore.DEClash>
0.0833

> <Gold.Chemscore.DEInternal>
3.1483

> <Gold.Chemscore.Rot>
1.2361

> <Gold.Chemscore.Internal.Correction>
   9.000000E+99

> <Gold.Chemscore.Hbonds>
donor molecule, donor type, donor heavy atom, donor atom, acceptor molecule, acceptor atom, score
      L1  H     8    31       P1  7948  0.93
      L1  H    11    32       P1  7948  0.64
      P1  H  8011  8017       L1    20  0.49

> <Gold.Chemscore.Hbond.Weighted>
-8.8066

> <Gold.Chemscore.Metal.Weighted>
-0.0000

> <Gold.Chemscore.Lipo.Weighted>
-7.9300

> <Gold.Chemscore.Internal_Hbond.Weighted>
0.0000

> <Gold.Chemscore.DEClash.Weighted>
0.0833

> <Gold.Chemscore.DEInternal.Weighted>
3.1483

> <Gold.Chemscore.Rot.Weighted>
3.1643

> <Gold.Chemscore.Internal.Correction.Weighted>
   9.000000E+99

> <Gold.Protein.RotatedTorsions>
[ 6907 6896 6895 6894 ] final -147.38 input  -60.11 | X-H torsion
[ 7974 7965 7964 7962 ] final   -9.81 input  175.53 | X-H torsion
[ 8008 7997 7996 7995 ] final   66.67 input   59.86 | X-H torsion
[ 10167 10162 10161 10158 ] final  -12.61 input  -65.29 | X-H torsion
[ 10718 10713 10712 10709 ] final -115.36 input   66.30 | X-H torsion
[ 10763 10752 10751 10750 ] final   89.67 input  -60.55 | X-H torsion
[ 11005 11000 10999 10996 ] final  110.22 input  -57.11 | X-H torsion

> <Gold.Protein.ActiveResidues>
 VAL166  LYS551  ARG553  GLY616  TRP617  ASP618  TYR619  PRO620  LYS621  CYS622 
 ASP623  PHE694  ASN695  SER759  ASP760  ASP761  ALA762  ILE779  LEU786  VAL792 
 PHE793  MET794  SER795  GLU796  ALA797  LYS798  CYS799  TRP800  GLU811  SER814 

> <Gold.Protein.RotatedAtoms>
  151.1549  133.4883  159.2594 H   0  0  0  0  0  0  0  0  0  0  0  0  # atno 6907 bound_to 6896
  151.1515  135.0229  159.8680 H   0  0  0  0  0  0  0  0  0  0  0  0  # atno 6908 bound_to 6896
  152.5463  134.1432  159.8541 H   0  0  0  0  0  0  0  0  0  0  0  0  # atno 6909 bound_to 6896
  146.2240  140.2672  142.8355 H   0  0  0  0  0  0  0  0  0  0  0  0  # atno 7974 bound_to 7965
  155.6810  140.3496  155.4855 H   0  0  0  0  0  0  0  0  0  0  0  0  # atno 8008 bound_to 7997
  155.9606  140.1136  157.0921 H   0  0  0  0  0  0  0  0  0  0  0  0  # atno 8009 bound_to 7997
  154.4142  140.1176  156.5160 H   0  0  0  0  0  0  0  0  0  0  0  0  # atno 8010 bound_to 7997
  140.7165  143.5514  150.9297 H   0  0  0  0  0  0  0  0  0  0  0  0  # atno 10167 bound_to 10162
  156.0891  130.6077  150.8896 H   0  0  0  0  0  0  0  0  0  0  0  0  # atno 10718 bound_to 10713
  153.1895  135.4462  155.0131 H   0  0  0  0  0  0  0  0  0  0  0  0  # atno 10763 bound_to 10752
  154.8081  135.3283  154.7380 H   0  0  0  0  0  0  0  0  0  0  0  0  # atno 10764 bound_to 10752
  153.7835  135.6975  153.4939 H   0  0  0  0  0  0  0  0  0  0  0  0  # atno 10765 bound_to 10752
  139.8877  134.9478  156.6246 H   0  0  0  0  0  0  0  0  0  0  0  0  # atno 11005 bound_to 11000
  144.9295  140.7959  143.5698 LP  0  0  0  0  0  0  0  0  0  0  0  0  # atno 17320 bound_to 7965
  145.2614  139.1991  143.4890 LP  0  0  0  0  0  0  0  0  0  0  0  0  # atno 17321 bound_to 7965
  139.9238  143.6574  152.3091 LP  0  0  0  0  0  0  0  0  0  0  0  0  # atno 17342 bound_to 10162
  139.7000  144.7636  151.1289 LP  0  0  0  0  0  0  0  0  0  0  0  0  # atno 17343 bound_to 10162
  157.6034  131.0940  150.8920 LP  0  0  0  0  0  0  0  0  0  0  0  0  # atno 17370 bound_to 10713
  156.9073  130.5268  149.5281 LP  0  0  0  0  0  0  0  0  0  0  0  0  # atno 17371 bound_to 10713
  140.7713  133.8736  155.8494 LP  0  0  0  0  0  0  0  0  0  0  0  0  # atno 17394 bound_to 11000
  140.9839  134.1368  157.4469 LP  0  0  0  0  0  0  0  0  0  0  0  0  # atno 17395 bound_to 11000

$$$$
