AV-unprocessed.smi:796|AV-procd|sdf|3766|dock3
  -GOLD-   22720 1203D 1   1.00000     0.00000
 Structure written by MMmdl.
 46 47  0  0  0  0  0  0  0  0  1 V2000
  150.8760  130.9492  153.9872 C   0  0  0  0  0  0  0  0  0  0  0  0
  150.9248  132.4826  154.1030 C   0  0  0  0  0  0  0  0  0  0  0  0
  149.5593  133.2153  153.9554 C   0  0  2  0  0  0  0  0  0  0  0  0
  148.6179  132.8219  155.1191 C   0  0  0  0  0  0  0  0  0  0  0  0
  148.8711  132.8614  152.6124 C   0  0  0  0  0  0  0  0  0  0  0  0
  147.7437  133.6725  152.3488 O   0  0  0  0  0  0  0  0  0  0  0  0
  149.7445  134.6744  153.9418 N   0  0  0  0  0  0  0  0  0  0  0  0
  150.2735  135.4632  154.8927 C   0  0  0  0  0  0  0  0  0  0  0  0
  150.7261  135.0490  155.9591 O   0  0  0  0  0  0  0  0  0  0  0  0
  150.2594  136.7513  154.5087 N   0  0  0  0  0  0  0  0  0  0  0  0
  150.6514  137.9006  155.2472 C   0  0  0  0  0  0  0  0  0  0  0  0
  150.7379  139.2049  154.7077 C   0  0  0  0  0  0  0  0  0  0  0  0
  151.1650  140.2595  155.5367 C   0  0  0  0  0  0  0  0  0  0  0  0
  151.5059  139.9904  156.8836 C   0  0  0  0  0  0  0  0  0  0  0  0
  151.9394  141.0335  157.7318 N   0  0  0  0  0  0  0  0  0  0  0  0
  152.5095  140.6211  159.0125 C   0  0  0  0  0  0  0  0  0  0  0  0
  153.2199  141.8056  159.6902 C   0  0  0  0  0  0  0  0  0  0  0  0
  152.3198  142.9013  159.8148 O   0  0  0  0  0  0  0  0  0  0  0  0
  151.8656  143.3589  158.5456 C   0  0  0  0  0  0  0  0  0  0  0  0
  151.1047  142.2299  157.8299 C   0  0  0  0  0  0  0  0  0  0  0  0
  151.4247  138.7373  157.3951 N   0  0  0  0  0  0  0  0  0  0  0  0
  151.0167  137.7288  156.5967 C   0  0  0  0  0  0  0  0  0  0  0  0
  151.8768  130.5288  154.0857 H   0  0  0  0  0  0  0  0  0  0  0  0
  150.4832  130.6276  153.0227 H   0  0  0  0  0  0  0  0  0  0  0  0
  150.2605  130.5045  154.7686 H   0  0  0  0  0  0  0  0  0  0  0  0
  151.3780  132.7433  155.0598 H   0  0  0  0  0  0  0  0  0  0  0  0
  151.6242  132.8561  153.3550 H   0  0  0  0  0  0  0  0  0  0  0  0
  148.4000  131.7537  155.1116 H   0  0  0  0  0  0  0  0  0  0  0  0
  147.6656  133.3498  155.0570 H   0  0  0  0  0  0  0  0  0  0  0  0
  149.0522  133.0430  156.0938 H   0  0  0  0  0  0  0  0  0  0  0  0
  149.5718  132.9774  151.7843 H   0  0  0  0  0  0  0  0  0  0  0  0
  148.5525  131.8190  152.5976 H   0  0  0  0  0  0  0  0  0  0  0  0
  148.0428  134.5132  152.0377 H   0  0  0  0  0  0  0  0  0  0  0  0
  149.4207  135.1384  153.1059 H   0  0  0  0  0  0  0  0  0  0  0  0
  149.9515  136.9299  153.5642 H   0  0  0  0  0  0  0  0  0  0  0  0
  150.4993  139.4185  153.6777 H   0  0  0  0  0  0  0  0  0  0  0  0
  151.2147  141.2586  155.1310 H   0  0  0  0  0  0  0  0  0  0  0  0
  151.7055  140.2536  159.6514 H   0  0  0  0  0  0  0  0  0  0  0  0
  153.2202  139.8042  158.8979 H   0  0  0  0  0  0  0  0  0  0  0  0
  153.5662  141.5170  160.6827 H   0  0  0  0  0  0  0  0  0  0  0  0
  154.1010  142.1074  159.1214 H   0  0  0  0  0  0  0  0  0  0  0  0
  151.2114  144.2184  158.6915 H   0  0  0  0  0  0  0  0  0  0  0  0
  152.7107  143.6998  157.9455 H   0  0  0  0  0  0  0  0  0  0  0  0
  150.8092  142.5692  156.8364 H   0  0  0  0  0  0  0  0  0  0  0  0
  150.1928  141.9884  158.3780 H   0  0  0  0  0  0  0  0  0  0  0  0
  150.9790  136.7514  157.0554 H   0  0  0  0  0  0  0  0  0  0  0  0
  1  2  1  0  0  0  0
  1 23  1  0  0  0  0
  1 24  1  0  0  0  0
  1 25  1  0  0  0  0
  2  3  1  0  0  0  0
  2 26  1  0  0  0  0
  2 27  1  0  0  0  0
  3  4  1  0  0  0  0
  3  5  1  0  0  0  0
  3  7  1  0  0  0  0
  4 28  1  0  0  0  0
  4 29  1  0  0  0  0
  4 30  1  0  0  0  0
  5  6  1  0  0  0  0
  5 31  1  0  0  0  0
  5 32  1  0  0  0  0
  6 33  1  0  0  0  0
  7  8  1  0  0  0  0
  7 34  1  0  0  0  0
  8  9  2  0  0  0  0
  8 10  1  0  0  0  0
 10 11  1  0  0  0  0
 10 35  1  0  0  0  0
 11 22  1  0  0  0  0
 11 12  2  0  0  0  0
 12 13  1  0  0  0  0
 12 36  1  0  0  0  0
 13 14  2  0  0  0  0
 13 37  1  0  0  0  0
 14 15  1  0  0  0  0
 14 21  1  0  0  0  0
 15 20  1  0  0  0  0
 15 16  1  0  0  0  0
 16 17  1  0  0  0  0
 16 38  1  0  0  0  0
 16 39  1  0  0  0  0
 17 18  1  0  0  0  0
 17 40  1  0  0  0  0
 17 41  1  0  0  0  0
 18 19  1  0  0  0  0
 19 20  1  0  0  0  0
 19 42  1  0  0  0  0
 19 43  1  0  0  0  0
 20 44  1  0  0  0  0
 20 45  1  0  0  0  0
 21 22  2  0  0  0  0
 22 46  1  0  0  0  0
M  END
> <s_m_source_file>
AV-unprocessed.smi

> <i_m_source_file_index>
796

> <i_lp_mmshare_version>
43012

> <i_f3d_flags>
0

> <s_epik_input>
W0NIM11bQ0gyXVtDQEBdKFtDSDNdKShbQ0gyXVtPSF0pW05IXUMoPU8pW05IXWMxW2NIXVtjSF1jKG5bY0hdMSlOMltDSDJdW0NIMl1PW0NIMl1bQ0gyXTI=

> <s_epik_cmdline>
J2VwaWtfcHl0aG9uJywgJy1waCcsICc3LjAnLCAnLXRuJywgJzgnLCAnLW1hJywgJzIwMCcsICctbWV0YWxfYmluZGluZycsICctaW1hZScsICc8aW5maWxlLm1hZT4nLCAnLW9tYWUnLCAnPG91dGZpbGUubWFlPic=

> <r_lp_tautomer_probability>
1

> <r_epik_Ionization_Penalty>
0.00214298

> <r_epik_Ionization_Penalty_Charging>
0

> <r_epik_Ionization_Penalty_Neutral>
0.00214298

> <r_epik_State_Penalty>
0.00144388

> <r_epik_Charging_Adjusted_Penalty>
0.00144388

> <i_epik_Tot_Q>
0

> <i_epik_Tot_abs_Q>
0

> <r_epik_Metal_State_Penalty>
-0

> <b_epik_Metal_Only>
0

> <s_lp_Force_Field>
OPLS_2005

> <r_lp_Energy>
24.369

> <b_lp_Chiralities_Consistent>
1

> <s_lp_Variant>
AV-unprocessed.smi:796-2

> <Gold.Version>
5.8.1

> <Gold.Id.Protein>
6NUR|6NUR_protein|mol2

> <Gold.PLP.Fitness>
45.2600

> <Gold.PLP.PLP>
-36.5026

> <Gold.PLP.part.hbond>
-3.0000

> <Gold.PLP.part.metal>
0.0000

> <Gold.PLP.part.buried>
-3.8259

> <Gold.PLP.part.nonpolar>
-29.6656

> <Gold.PLP.part.repulsive>
0.0771

> <Gold.PLP.ligand.clash>
0.0000

> <Gold.PLP.ligand.torsion>
0.2741

> <Gold.PLP.Chemscore.Hbond>
2.9675

> <Gold.PLP.Chemscore.CHOScore>
0.0000

> <Gold.PLP.Chemscore.Metal>
0.0000

> <Gold.Chemscore.Hbonds>
donor molecule, donor type, donor heavy atom, donor atom, acceptor molecule, acceptor atom, score
      L1  H     6    33       P1  7948  0.85
      L1  H     7    34       P1  7948  0.40
      L1  H    10    35       P1  7948  0.92

> <Gold.PLP.Chemscore.Internal.Correction>
0.4031

> <Gold.Rescore>
     Score         DG    S(hbond)    S(metal)    S(lipo)     H(rot)  DE(clash)    DE(int)     intcor
     15.85     -17.88       2.51        0.00      83.19       2.24       0.03       2.00       ----

> <Gold.Chemscore.Fitness>
15.8514

> <Gold.Chemscore.DG>
-17.8789

> <Gold.Chemscore.ZeroCoef>
-5.4800

> <Gold.Chemscore.Hbond>
2.5139

> <Gold.Chemscore.Metal>
0.0000

> <Gold.Chemscore.Lipo>
83.1913

> <Gold.Chemscore.Internal_Hbond>
0.0000

> <Gold.Chemscore.DEClash>
0.0308

> <Gold.Chemscore.DEInternal>
1.9967

> <Gold.Chemscore.Rot>
2.2387

> <Gold.Chemscore.Internal.Correction>
   9.000000E+99

> <Gold.Chemscore.Hbonds>
donor molecule, donor type, donor heavy atom, donor atom, acceptor molecule, acceptor atom, score
      L1  H     6    33       P1  7948  0.15
      L1  H     7    34       P1  7948  0.01
      L1  H    10    35       P1  7948  0.29

> <Gold.Chemscore.Hbond.Weighted>
-8.3965

> <Gold.Chemscore.Metal.Weighted>
-0.0000

> <Gold.Chemscore.Lipo.Weighted>
-9.7334

> <Gold.Chemscore.Internal_Hbond.Weighted>
0.0000

> <Gold.Chemscore.DEClash.Weighted>
0.0308

> <Gold.Chemscore.DEInternal.Weighted>
1.9967

> <Gold.Chemscore.Rot.Weighted>
5.7310

> <Gold.Chemscore.Internal.Correction.Weighted>
   9.000000E+99

> <Gold.Protein.RotatedTorsions>
[ 6907 6896 6895 6894 ] final  -27.57 input  -60.11 | X-H torsion
[ 7974 7965 7964 7962 ] final    0.72 input  175.53 | X-H torsion
[ 8008 7997 7996 7995 ] final  -40.80 input   59.86 | X-H torsion
[ 10167 10162 10161 10158 ] final  168.82 input  -65.29 | X-H torsion
[ 10718 10713 10712 10709 ] final -162.62 input   66.30 | X-H torsion
[ 10763 10752 10751 10750 ] final  135.08 input  -60.55 | X-H torsion
[ 11005 11000 10999 10996 ] final -144.65 input  -57.11 | X-H torsion

> <Gold.Protein.ActiveResidues>
 VAL166  LYS551  ARG553  GLY616  TRP617  ASP618  TYR619  PRO620  LYS621  CYS622 
 ASP623  PHE694  ASN695  SER759  ASP760  ASP761  ALA762  ILE779  LEU786  VAL792 
 PHE793  MET794  SER795  GLU796  ALA797  LYS798  CYS799  TRP800  GLU811  SER814 

> <Gold.Protein.RotatedAtoms>
  151.1450  135.0199  159.8642 H   0  0  0  0  0  0  0  0  0  0  0  0  # atno 6907 bound_to 6896
  152.5453  134.1455  159.8507 H   0  0  0  0  0  0  0  0  0  0  0  0  # atno 6908 bound_to 6896
  151.1534  133.4846  159.2628 H   0  0  0  0  0  0  0  0  0  0  0  0  # atno 6909 bound_to 6896
  146.2436  140.1095  142.8344 H   0  0  0  0  0  0  0  0  0  0  0  0  # atno 7974 bound_to 7965
  154.4009  140.1516  156.3086 H   0  0  0  0  0  0  0  0  0  0  0  0  # atno 8008 bound_to 7997
  155.8636  140.3452  155.5751 H   0  0  0  0  0  0  0  0  0  0  0  0  # atno 8009 bound_to 7997
  155.7853  140.0849  157.2028 H   0  0  0  0  0  0  0  0  0  0  0  0  # atno 8010 bound_to 7997
  139.4977  144.3773  151.9660 H   0  0  0  0  0  0  0  0  0  0  0  0  # atno 10167 bound_to 10162
  156.6131  130.8859  151.2941 H   0  0  0  0  0  0  0  0  0  0  0  0  # atno 10718 bound_to 10713
  153.8341  135.3100  155.3421 H   0  0  0  0  0  0  0  0  0  0  0  0  # atno 10763 bound_to 10752
  154.7961  135.4754  154.0167 H   0  0  0  0  0  0  0  0  0  0  0  0  # atno 10764 bound_to 10752
  153.1616  135.6862  153.8825 H   0  0  0  0  0  0  0  0  0  0  0  0  # atno 10765 bound_to 10752
  140.8002  134.2865  157.4981 H   0  0  0  0  0  0  0  0  0  0  0  0  # atno 11005 bound_to 11000
  145.0499  140.9009  143.5002 LP  0  0  0  0  0  0  0  0  0  0  0  0  # atno 17320 bound_to 7965
  145.1191  139.2705  143.5597 LP  0  0  0  0  0  0  0  0  0  0  0  0  # atno 17321 bound_to 7965
  140.3209  144.3428  150.6010 LP  0  0  0  0  0  0  0  0  0  0  0  0  # atno 17342 bound_to 10162
  140.5723  143.2179  151.7577 LP  0  0  0  0  0  0  0  0  0  0  0  0  # atno 17343 bound_to 10162
  157.7249  130.9608  150.1591 LP  0  0  0  0  0  0  0  0  0  0  0  0  # atno 17370 bound_to 10713
  156.2373  130.3687  149.8376 LP  0  0  0  0  0  0  0  0  0  0  0  0  # atno 17371 bound_to 10713
  139.8722  134.9425  156.3827 LP  0  0  0  0  0  0  0  0  0  0  0  0  # atno 17394 bound_to 11000
  140.9302  133.7585  156.0015 LP  0  0  0  0  0  0  0  0  0  0  0  0  # atno 17395 bound_to 11000

$$$$
