AV-unprocessed.smi:1965|AV-procd|sdf|7937|dock5
  -GOLD-   2272010103D 1   1.00000     0.00000
 Structure written by MMmdl.
 37 39  0  0  0  0  0  0  0  0  2 V2000
  146.0496  139.6339  154.0468 O   0  0  0  0  0  0  0  0  0  0  0  0
  146.8801  139.8249  153.1604 C   0  0  0  0  0  0  0  0  0  0  0  0
  146.9796  138.9863  152.1069 N   0  0  0  0  0  0  0  0  0  0  0  0
  146.2584  137.8049  151.7651 C   0  0  0  0  0  0  0  0  0  0  0  0
  146.3712  137.1351  150.6107 N   0  0  0  0  0  0  0  0  0  0  0  0
  145.5325  136.0186  150.5630 C   0  0  0  0  0  0  0  0  0  0  0  0
  144.7783  135.8513  151.6969 C   0  0  0  0  0  0  0  0  0  0  0  0
  145.0945  137.0957  152.8758 S   0  0  0  0  0  0  0  0  0  0  0  0
  147.7295  140.8650  153.1767 N   0  0  0  0  0  0  0  0  0  0  0  0
  147.7890  141.8984  154.2050 C   0  0  1  0  0  0  0  0  0  0  0  0
  146.3960  142.3472  154.6814 C   0  0  0  0  0  0  0  0  0  0  0  0
  146.5365  142.5741  156.1996 C   0  0  0  0  0  0  0  0  0  0  0  0
  147.9659  142.3613  156.4959 N   0  3  1  0  0  0  0  0  0  0  0  0
  148.3171  141.9755  157.8800 C   0  0  0  0  0  0  0  0  0  0  0  0
  149.8509  141.8845  158.0086 C   0  0  0  0  0  0  0  0  0  0  0  0
  150.4605  140.9584  156.9367 C   0  0  0  0  0  0  0  0  0  0  0  0
  149.9844  141.3514  155.5249 C   0  0  0  0  0  0  0  0  0  0  0  0
  148.4471  141.3988  155.4936 C   0  0  2  0  0  0  0  0  0  0  0  0
  147.7089  139.2282  151.4516 H   0  0  0  0  0  0  0  0  0  0  0  0
  145.5353  135.3959  149.6805 H   0  0  0  0  0  0  0  0  0  0  0  0
  144.0584  135.0748  151.9093 H   0  0  0  0  0  0  0  0  0  0  0  0
  148.3816  140.9456  152.4090 H   0  0  0  0  0  0  0  0  0  0  0  0
  148.3252  142.7762  153.8378 H   0  0  0  0  0  0  0  0  0  0  0  0
  146.0780  143.2526  154.1633 H   0  0  0  0  0  0  0  0  0  0  0  0
  145.6427  141.5808  154.4922 H   0  0  0  0  0  0  0  0  0  0  0  0
  146.2237  143.5737  156.5023 H   0  0  0  0  0  0  0  0  0  0  0  0
  145.9285  141.8493  156.7434 H   0  0  0  0  0  0  0  0  0  0  0  0
  147.9238  142.7154  158.5778 H   0  0  0  0  0  0  0  0  0  0  0  0
  147.8551  141.0186  158.1279 H   0  0  0  0  0  0  0  0  0  0  0  0
  150.2807  142.8820  157.9065 H   0  0  0  0  0  0  0  0  0  0  0  0
  150.1226  141.5336  159.0045 H   0  0  0  0  0  0  0  0  0  0  0  0
  151.5493  140.9893  156.9883 H   0  0  0  0  0  0  0  0  0  0  0  0
  150.1708  139.9272  157.1425 H   0  0  0  0  0  0  0  0  0  0  0  0
  150.3973  142.3227  155.2494 H   0  0  0  0  0  0  0  0  0  0  0  0
  150.3585  140.6330  154.7953 H   0  0  0  0  0  0  0  0  0  0  0  0
  148.0481  140.4116  155.7398 H   0  0  0  0  0  0  0  0  0  0  0  0
  148.4332  143.2346  156.2983 H   0  0  0  0  0  0  0  0  0  0  0  0
  1  2  2  0  0  0  0
  2  3  1  0  0  0  0
  2  9  1  0  0  0  0
  3  4  1  0  0  0  0
  3 19  1  0  0  0  0
  4  8  1  0  0  0  0
  4  5  2  0  0  0  0
  5  6  1  0  0  0  0
  6  7  2  0  0  0  0
  6 20  1  0  0  0  0
  7  8  1  0  0  0  0
  7 21  1  0  0  0  0
  9 10  1  0  0  0  0
  9 22  1  0  0  0  0
 10 18  1  0  0  0  0
 10 11  1  0  0  0  0
 10 23  1  0  0  0  0
 11 12  1  0  0  0  0
 11 24  1  0  0  0  0
 11 25  1  0  0  0  0
 12 13  1  0  0  0  0
 12 26  1  0  0  0  0
 12 27  1  0  0  0  0
 13 18  1  0  0  0  0
 13 14  1  0  0  0  0
 13 37  1  0  0  0  0
 14 15  1  0  0  0  0
 14 28  1  0  0  0  0
 14 29  1  0  0  0  0
 15 16  1  0  0  0  0
 15 30  1  0  0  0  0
 15 31  1  0  0  0  0
 16 17  1  0  0  0  0
 16 32  1  0  0  0  0
 16 33  1  0  0  0  0
 17 18  1  0  0  0  0
 17 34  1  0  0  0  0
 17 35  1  0  0  0  0
 18 36  1  0  0  0  0
M  CHG  1  13   1
M  END
> <s_m_source_file>
AV-unprocessed.smi

> <i_m_source_file_index>
1965

> <i_lp_mmshare_version>
43012

> <i_f3d_flags>
0

> <s_epik_input>
czFbY0hdW2NIXW5jMVtOSF1DKD1PKVtOSF1bQ0BIXShbQ0gyXVtDSDJdMilbQ0BASF0oTjIzKVtDSDJdW0NIMl1bQ0gyXVtDSDJdMw==

> <s_epik_cmdline>
J2VwaWtfcHl0aG9uJywgJy1waCcsICc3LjAnLCAnLXRuJywgJzgnLCAnLW1hJywgJzIwMCcsICctbWV0YWxfYmluZGluZycsICctaW1hZScsICc8aW5maWxlLm1hZT4nLCAnLW9tYWUnLCAnPG91dGZpbGUubWFlPic=

> <r_lp_tautomer_probability>
1

> <r_epik_Ionization_Penalty>
0.00125962

> <r_epik_Ionization_Penalty_Charging>
0.00107044

> <r_epik_Ionization_Penalty_Neutral>
0.000189176

> <r_epik_State_Penalty>
-0

> <r_epik_Charging_Adjusted_Penalty>
0.00107044

> <i_epik_Tot_Q>
1

> <i_epik_Tot_abs_Q>
1

> <r_epik_Metal_State_Penalty>
0.0179285

> <b_epik_Metal_Only>
0

> <s_lp_Force_Field>
OPLS_2005

> <r_lp_Energy>
35.2761

> <b_lp_Chiralities_Consistent>
1

> <s_lp_Variant>
AV-unprocessed.smi:1965-6

> <Gold.Version>
5.8.1

> <Gold.Id.Protein>
6NUR|6NUR_protein|mol2

> <Gold.PLP.Fitness>
44.7270

> <Gold.PLP.PLP>
-27.4188

> <Gold.PLP.part.hbond>
-4.0821

> <Gold.PLP.part.metal>
0.0000

> <Gold.PLP.part.buried>
-2.0274

> <Gold.PLP.part.nonpolar>
-25.3356

> <Gold.PLP.part.repulsive>
3.1736

> <Gold.PLP.ligand.clash>
0.0000

> <Gold.PLP.ligand.torsion>
0.2425

> <Gold.PLP.Chemscore.Hbond>
4.9280

> <Gold.PLP.Chemscore.CHOScore>
1.0000

> <Gold.PLP.Chemscore.Metal>
0.0000

> <Gold.Chemscore.Hbonds>
donor molecule, donor type, donor heavy atom, donor atom, acceptor molecule, acceptor atom, score
      L1  H     3    19       P1  7957  0.95
      L1  H     9    22       P1  7957  0.98
      L1  H    13    37       P1  8028  2.00
      P1  H  7954  7966       L1     5  0.87
      L1  C     6    20       P1  7921  1.00

> <Gold.PLP.Chemscore.Internal.Correction>
0.0093

> <Gold.Rescore>
     Score         DG    S(hbond)    S(metal)    S(lipo)     H(rot)  DE(clash)    DE(int)     intcor
     14.51     -19.94       3.14        0.00      55.69       1.00       2.57       2.85       ----

> <Gold.Chemscore.Fitness>
14.5136

> <Gold.Chemscore.DG>
-19.9374

> <Gold.Chemscore.ZeroCoef>
-5.4800

> <Gold.Chemscore.Hbond>
3.1441

> <Gold.Chemscore.Metal>
0.0000

> <Gold.Chemscore.Lipo>
55.6937

> <Gold.Chemscore.Internal_Hbond>
0.0000

> <Gold.Chemscore.DEClash>
2.5710

> <Gold.Chemscore.DEInternal>
2.8528

> <Gold.Chemscore.Rot>
1.0000

> <Gold.Chemscore.Internal.Correction>
   9.000000E+99

> <Gold.Chemscore.Hbonds>
donor molecule, donor type, donor heavy atom, donor atom, acceptor molecule, acceptor atom, score
      L1  H     3    19       P1  7957  0.79
      L1  H     9    22       P1  7957  0.92
      L1  H    13    37       P1  8028  0.74
      P1  H  7954  7966       L1     5  0.28

> <Gold.Chemscore.Hbond.Weighted>
-10.5013

> <Gold.Chemscore.Metal.Weighted>
-0.0000

> <Gold.Chemscore.Lipo.Weighted>
-6.5162

> <Gold.Chemscore.Internal_Hbond.Weighted>
0.0000

> <Gold.Chemscore.DEClash.Weighted>
2.5710

> <Gold.Chemscore.DEInternal.Weighted>
2.8528

> <Gold.Chemscore.Rot.Weighted>
2.5600

> <Gold.Chemscore.Internal.Correction.Weighted>
   9.000000E+99

> <Gold.Protein.RotatedTorsions>
[ 6907 6896 6895 6894 ] final  -28.14 input  -60.11 | X-H torsion
[ 7974 7965 7964 7962 ] final  -93.87 input  175.53 | X-H torsion
[ 8008 7997 7996 7995 ] final   16.97 input   59.86 | X-H torsion
[ 10167 10162 10161 10158 ] final  143.57 input  -65.29 | X-H torsion
[ 10718 10713 10712 10709 ] final   86.31 input   66.30 | X-H torsion
[ 10763 10752 10751 10750 ] final   -1.80 input  -60.55 | X-H torsion
[ 11005 11000 10999 10996 ] final -112.83 input  -57.11 | X-H torsion

> <Gold.Protein.ActiveResidues>
 VAL166  LYS551  ARG553  GLY616  TRP617  ASP618  TYR619  PRO620  LYS621  CYS622 
 ASP623  PHE694  ASN695  SER759  ASP760  ASP761  ALA762  ILE779  LEU786  VAL792 
 PHE793  MET794  SER795  GLU796  ALA797  LYS798  CYS799  TRP800  GLU811  SER814 

> <Gold.Protein.RotatedAtoms>
  151.1371  135.0160  159.8608 H   0  0  0  0  0  0  0  0  0  0  0  0  # atno 6907 bound_to 6896
  152.5452  134.1542  159.8541 H   0  0  0  0  0  0  0  0  0  0  0  0  # atno 6908 bound_to 6896
  151.1614  133.4797  159.2627 H   0  0  0  0  0  0  0  0  0  0  0  0  # atno 6909 bound_to 6896
  145.3808  140.9517  143.2395 H   0  0  0  0  0  0  0  0  0  0  0  0  # atno 7974 bound_to 7965
  154.8846  140.2978  155.5405 H   0  0  0  0  0  0  0  0  0  0  0  0  # atno 8008 bound_to 7997
  156.3021  140.2436  156.3787 H   0  0  0  0  0  0  0  0  0  0  0  0  # atno 8009 bound_to 7997
  154.8681  140.0402  157.1696 H   0  0  0  0  0  0  0  0  0  0  0  0  # atno 8010 bound_to 7997
  139.4966  144.6031  151.6437 H   0  0  0  0  0  0  0  0  0  0  0  0  # atno 10167 bound_to 10162
  157.6927  131.0210  150.2953 H   0  0  0  0  0  0  0  0  0  0  0  0  # atno 10718 bound_to 10713
  153.3496  135.6985  153.6799 H   0  0  0  0  0  0  0  0  0  0  0  0  # atno 10763 bound_to 10752
  153.5531  135.3549  155.2768 H   0  0  0  0  0  0  0  0  0  0  0  0  # atno 10764 bound_to 10752
  154.8651  135.4231  154.2728 H   0  0  0  0  0  0  0  0  0  0  0  0  # atno 10765 bound_to 10752
  141.0651  133.9471  157.2593 H   0  0  0  0  0  0  0  0  0  0  0  0  # atno 11005 bound_to 11000
  144.8509  139.5323  143.6857 LP  0  0  0  0  0  0  0  0  0  0  0  0  # atno 17320 bound_to 7965
  146.2843  139.6961  142.9207 LP  0  0  0  0  0  0  0  0  0  0  0  0  # atno 17321 bound_to 7965
  140.5686  144.0148  150.6205 LP  0  0  0  0  0  0  0  0  0  0  0  0  # atno 17342 bound_to 10162
  140.3257  143.3109  152.0738 LP  0  0  0  0  0  0  0  0  0  0  0  0  # atno 17343 bound_to 10162
  156.3478  130.3826  149.7354 LP  0  0  0  0  0  0  0  0  0  0  0  0  # atno 17370 bound_to 10713
  156.4842  130.8055  151.3068 LP  0  0  0  0  0  0  0  0  0  0  0  0  # atno 17371 bound_to 10713
  139.9469  135.0182  156.8879 LP  0  0  0  0  0  0  0  0  0  0  0  0  # atno 17394 bound_to 11000
  140.5789  134.0371  155.7457 LP  0  0  0  0  0  0  0  0  0  0  0  0  # atno 17395 bound_to 11000

$$$$
