AV-unprocessed.smi:1157|AV-procd|sdf|4910|dock5
  -GOLD-   22720 3483D 1   1.00000     0.00000
 Structure written by MMmdl.
 55 57  0  0  0  0  0  0  0  0  4 V2000
  144.2931  135.4488  152.5570 C   0  0  0  0  0  0  0  0  0  0  0  0
  145.6918  136.1094  152.3767 C   0  0  0  0  0  0  0  0  0  0  0  0
  145.8561  136.3256  150.8431 C   0  0  0  0  0  0  0  0  0  0  0  0
  145.7580  137.4891  153.1429 C   0  0  0  0  0  0  0  0  0  0  0  0
  146.6124  138.4625  152.4538 N   0  5  0  0  0  0  0  0  0  0  0  0
  147.1564  139.5695  153.0262 C   0  0  0  0  0  0  0  0  0  0  0  0
  146.8858  140.7517  152.7874 O   0  0  0  0  0  0  0  0  0  0  0  0
  148.0981  139.2559  153.9343 N   0  0  0  0  0  0  0  0  0  0  0  0
  148.9201  140.1195  154.7070 C   0  0  0  0  0  0  0  0  0  0  0  0
  150.0091  139.5474  155.3968 C   0  0  0  0  0  0  0  0  0  0  0  0
  150.8474  140.3639  156.1829 C   0  0  0  0  0  0  0  0  0  0  0  0
  150.5798  141.7493  156.2848 C   0  0  0  0  0  0  0  0  0  0  0  0
  151.3802  142.6272  157.0397 N   0  0  0  0  0  0  0  0  0  0  0  0
  151.2315  144.0706  156.9497 C   0  0  0  0  0  0  0  0  0  0  0  0
  152.1862  144.6205  158.0085 C   0  0  0  0  0  0  0  0  0  0  0  0
  152.1571  143.5443  159.0946 C   0  0  0  0  0  0  0  0  0  0  0  0
  151.9497  142.2363  158.3212 C   0  0  0  0  0  0  0  0  0  0  0  0
  149.5131  142.2530  155.6193 N   0  3  0  0  0  0  0  0  0  0  0  0
  148.6861  141.5070  154.8551 C   0  0  0  0  0  0  0  0  0  0  0  0
  146.7505  135.1214  152.8377 N   0  3  0  0  0  0  0  0  0  0  0  0
  146.9942  135.0040  154.3085 C   0  0  0  0  0  0  0  0  0  0  0  0
  148.2755  134.1991  154.5794 C   0  0  0  0  0  0  0  0  0  0  0  0
  148.1724  132.9147  153.9811 O   0  0  0  0  0  0  0  0  0  0  0  0
  148.0350  133.0019  152.5700 C   0  0  0  0  0  0  0  0  0  0  0  0
  146.7446  133.7602  152.2181 C   0  0  0  0  0  0  0  0  0  0  0  0
  143.5037  136.0046  152.0471 H   0  0  0  0  0  0  0  0  0  0  0  0
  143.9791  135.3613  153.5985 H   0  0  0  0  0  0  0  0  0  0  0  0
  144.2811  134.4445  152.1318 H   0  0  0  0  0  0  0  0  0  0  0  0
  144.9998  136.8407  150.4033 H   0  0  0  0  0  0  0  0  0  0  0  0
  145.9361  135.3702  150.3232 H   0  0  0  0  0  0  0  0  0  0  0  0
  146.7350  136.9141  150.5739 H   0  0  0  0  0  0  0  0  0  0  0  0
  144.7465  137.8822  153.2423 H   0  0  0  0  0  0  0  0  0  0  0  0
  146.0856  137.3032  154.1662 H   0  0  0  0  0  0  0  0  0  0  0  0
  148.3092  138.2715  154.0092 H   0  0  0  0  0  0  0  0  0  0  0  0
  150.2105  138.4890  155.3165 H   0  0  0  0  0  0  0  0  0  0  0  0
  151.6891  139.9175  156.6910 H   0  0  0  0  0  0  0  0  0  0  0  0
  151.4765  144.4417  155.9540 H   0  0  0  0  0  0  0  0  0  0  0  0
  150.2011  144.3455  157.1797 H   0  0  0  0  0  0  0  0  0  0  0  0
  153.1928  144.6976  157.5947 H   0  0  0  0  0  0  0  0  0  0  0  0
  151.8946  145.6059  158.3728 H   0  0  0  0  0  0  0  0  0  0  0  0
  153.0581  143.5351  159.7084 H   0  0  0  0  0  0  0  0  0  0  0  0
  151.3054  143.7178  159.7539 H   0  0  0  0  0  0  0  0  0  0  0  0
  151.2998  141.5554  158.8724 H   0  0  0  0  0  0  0  0  0  0  0  0
  152.9026  141.7360  158.1453 H   0  0  0  0  0  0  0  0  0  0  0  0
  147.8696  142.0500  154.4029 H   0  0  0  0  0  0  0  0  0  0  0  0
  147.1098  135.9781  154.7790 H   0  0  0  0  0  0  0  0  0  0  0  0
  146.1530  134.5107  154.7971 H   0  0  0  0  0  0  0  0  0  0  0  0
  149.1533  134.7239  154.1987 H   0  0  0  0  0  0  0  0  0  0  0  0
  148.4202  134.0754  155.6528 H   0  0  0  0  0  0  0  0  0  0  0  0
  148.9072  133.4926  152.1351 H   0  0  0  0  0  0  0  0  0  0  0  0
  148.0005  131.9933  152.1581 H   0  0  0  0  0  0  0  0  0  0  0  0
  145.8869  133.1847  152.5681 H   0  0  0  0  0  0  0  0  0  0  0  0
  146.6740  133.8095  151.1336 H   0  0  0  0  0  0  0  0  0  0  0  0
  147.6019  135.5372  152.4886 H   0  0  0  0  0  0  0  0  0  0  0  0
  149.3206  143.2513  155.6989 H   0  0  0  0  0  0  0  0  0  0  0  0
  1  2  1  0  0  0  0
  1 26  1  0  0  0  0
  1 27  1  0  0  0  0
  1 28  1  0  0  0  0
  2  3  1  0  0  0  0
  2  4  1  0  0  0  0
  2 20  1  0  0  0  0
  3 29  1  0  0  0  0
  3 30  1  0  0  0  0
  3 31  1  0  0  0  0
  4  5  1  0  0  0  0
  4 32  1  0  0  0  0
  4 33  1  0  0  0  0
  5  6  1  0  0  0  0
  6  7  2  0  0  0  0
  6  8  1  0  0  0  0
  8  9  1  0  0  0  0
  8 34  1  0  0  0  0
  9 19  1  0  0  0  0
  9 10  2  0  0  0  0
 10 11  1  0  0  0  0
 10 35  1  0  0  0  0
 11 12  2  0  0  0  0
 11 36  1  0  0  0  0
 12 13  1  0  0  0  0
 12 18  1  0  0  0  0
 13 17  1  0  0  0  0
 13 14  1  0  0  0  0
 14 15  1  0  0  0  0
 14 37  1  0  0  0  0
 14 38  1  0  0  0  0
 15 16  1  0  0  0  0
 15 39  1  0  0  0  0
 15 40  1  0  0  0  0
 16 17  1  0  0  0  0
 16 41  1  0  0  0  0
 16 42  1  0  0  0  0
 17 43  1  0  0  0  0
 17 44  1  0  0  0  0
 18 19  2  0  0  0  0
 18 55  1  0  0  0  0
 19 45  1  0  0  0  0
 20 25  1  0  0  0  0
 20 21  1  0  0  0  0
 20 54  1  0  0  0  0
 21 22  1  0  0  0  0
 21 46  1  0  0  0  0
 21 47  1  0  0  0  0
 22 23  1  0  0  0  0
 22 48  1  0  0  0  0
 22 49  1  0  0  0  0
 23 24  1  0  0  0  0
 24 25  1  0  0  0  0
 24 50  1  0  0  0  0
 24 51  1  0  0  0  0
 25 52  1  0  0  0  0
 25 53  1  0  0  0  0
M  CHG  1   5  -1
M  CHG  1  18   1
M  CHG  1  20   1
M  END
> <s_m_source_file>
AV-unprocessed.smi

> <i_m_source_file_index>
1157

> <i_lp_mmshare_version>
43012

> <i_f3d_flags>
0

> <s_epik_input>
W0NIMl0xW0NIMl1PW0NIMl1bQ0gyXU4xQyhbQ0gzXSkoW0NIM10pW0NIMl1bTkhdQyg9TylbTkhdYzJbY0hdW2NIXWMobltjSF0yKU4zW0NIMl1bQ0gyXVtDSDJdW0NIMl0z

> <s_epik_cmdline>
J2VwaWtfcHl0aG9uJywgJy1waCcsICc3LjAnLCAnLXRuJywgJzgnLCAnLW1hJywgJzIwMCcsICctbWV0YWxfYmluZGluZycsICctaW1hZScsICc8aW5maWxlLm1hZT4nLCAnLW9tYWUnLCAnPG91dGZpbGUubWFlPic=

> <r_lp_tautomer_probability>
0.999994

> <r_epik_Ionization_Penalty>
8.57565

> <r_epik_Ionization_Penalty_Charging>
8.57565

> <r_epik_Ionization_Penalty_Neutral>
3.57932e-06

> <r_epik_State_Penalty>
8.56988

> <r_epik_Charging_Adjusted_Penalty>
17.1455

> <i_epik_Tot_Q>
1

> <i_epik_Tot_abs_Q>
3

> <r_epik_Metal_State_Penalty>
4.56714

> <b_epik_Metal_Only>
1

> <s_lp_Force_Field>
OPLS_2005

> <r_lp_Energy>
57.9076

> <b_lp_Chiralities_Consistent>
1

> <s_lp_Variant>
AV-unprocessed.smi:1157-5

> <Gold.Version>
5.8.1

> <Gold.Id.Protein>
6NUR|6NUR_protein|mol2

> <Gold.PLP.Fitness>
50.0777

> <Gold.PLP.PLP>
-41.5878

> <Gold.PLP.part.hbond>
-2.0834

> <Gold.PLP.part.metal>
0.0000

> <Gold.PLP.part.buried>
-1.9334

> <Gold.PLP.part.nonpolar>
-38.3876

> <Gold.PLP.part.repulsive>
0.7763

> <Gold.PLP.ligand.clash>
0.0000

> <Gold.PLP.ligand.torsion>
1.9551

> <Gold.PLP.Chemscore.Hbond>
4.0000

> <Gold.PLP.Chemscore.CHOScore>
0.0000

> <Gold.PLP.Chemscore.Metal>
0.0000

> <Gold.Chemscore.Hbonds>
donor molecule, donor type, donor heavy atom, donor atom, acceptor molecule, acceptor atom, score
      L1  H    18    55       P1  8028  2.00
      L1  H    20    54       P1  7948  2.00

> <Gold.PLP.Chemscore.Internal.Correction>
0.4001

> <Gold.Rescore>
     Score         DG    S(hbond)    S(metal)    S(lipo)     H(rot)  DE(clash)    DE(int)     intcor
     17.29     -21.27       1.99        0.00     109.36       1.42       0.80       3.18       ----

> <Gold.Chemscore.Fitness>
17.2865

> <Gold.Chemscore.DG>
-21.2656

> <Gold.Chemscore.ZeroCoef>
-5.4800

> <Gold.Chemscore.Hbond>
1.9869

> <Gold.Chemscore.Metal>
0.0000

> <Gold.Chemscore.Lipo>
109.3642

> <Gold.Chemscore.Internal_Hbond>
0.0000

> <Gold.Chemscore.DEClash>
0.8000

> <Gold.Chemscore.DEInternal>
3.1791

> <Gold.Chemscore.Rot>
1.4243

> <Gold.Chemscore.Internal.Correction>
   9.000000E+99

> <Gold.Chemscore.Hbonds>
donor molecule, donor type, donor heavy atom, donor atom, acceptor molecule, acceptor atom, score
      L1  H    18    55       P1  8028  0.93
      L1  H    20    54       P1  7948  0.99

> <Gold.Chemscore.Hbond.Weighted>
-6.6362

> <Gold.Chemscore.Metal.Weighted>
-0.0000

> <Gold.Chemscore.Lipo.Weighted>
-12.7956

> <Gold.Chemscore.Internal_Hbond.Weighted>
0.0000

> <Gold.Chemscore.DEClash.Weighted>
0.8000

> <Gold.Chemscore.DEInternal.Weighted>
3.1791

> <Gold.Chemscore.Rot.Weighted>
3.6462

> <Gold.Chemscore.Internal.Correction.Weighted>
   9.000000E+99

> <Gold.Protein.RotatedTorsions>
[ 6907 6896 6895 6894 ] final  -95.51 input  -60.11 | X-H torsion
[ 7974 7965 7964 7962 ] final -100.71 input  175.53 | X-H torsion
[ 8008 7997 7996 7995 ] final -105.07 input   59.86 | X-H torsion
[ 10167 10162 10161 10158 ] final   39.07 input  -65.29 | X-H torsion
[ 10718 10713 10712 10709 ] final  -61.73 input   66.30 | X-H torsion
[ 10763 10752 10751 10750 ] final  169.32 input  -60.55 | X-H torsion
[ 11005 11000 10999 10996 ] final  178.43 input  -57.11 | X-H torsion

> <Gold.Protein.ActiveResidues>
 VAL166  LYS551  ARG553  GLY616  TRP617  ASP618  TYR619  PRO620  LYS621  CYS622 
 ASP623  PHE694  ASN695  SER759  ASP760  ASP761  ALA762  ILE779  LEU786  VAL792 
 PHE793  MET794  SER795  GLU796  ALA797  LYS798  CYS799  TRP800  GLU811  SER814 

> <Gold.Protein.RotatedAtoms>
  150.6965  134.1646  159.4189 H   0  0  0  0  0  0  0  0  0  0  0  0  # atno 6907 bound_to 6896
  151.9626  135.0114  160.0558 H   0  0  0  0  0  0  0  0  0  0  0  0  # atno 6908 bound_to 6896
  152.1913  133.4740  159.5046 H   0  0  0  0  0  0  0  0  0  0  0  0  # atno 6909 bound_to 6896
  145.2911  140.9353  143.2877 H   0  0  0  0  0  0  0  0  0  0  0  0  # atno 7974 bound_to 7965
  154.8945  140.0415  157.1858 H   0  0  0  0  0  0  0  0  0  0  0  0  # atno 8008 bound_to 7997
  154.8507  140.2929  155.5579 H   0  0  0  0  0  0  0  0  0  0  0  0  # atno 8009 bound_to 7997
  156.2996  140.2465  156.3465 H   0  0  0  0  0  0  0  0  0  0  0  0  # atno 8010 bound_to 7997
  140.3875  144.1897  150.6130 H   0  0  0  0  0  0  0  0  0  0  0  0  # atno 10167 bound_to 10162
  156.0902  130.4201  150.1035 H   0  0  0  0  0  0  0  0  0  0  0  0  # atno 10718 bound_to 10713
  154.3814  135.2753  155.2209 H   0  0  0  0  0  0  0  0  0  0  0  0  # atno 10763 bound_to 10752
  154.4314  135.5976  153.6074 H   0  0  0  0  0  0  0  0  0  0  0  0  # atno 10764 bound_to 10752
  152.9834  135.5996  154.4057 H   0  0  0  0  0  0  0  0  0  0  0  0  # atno 10765 bound_to 10752
  140.3951  134.6828  157.4530 H   0  0  0  0  0  0  0  0  0  0  0  0  # atno 11005 bound_to 11000
  144.9172  139.4455  143.6558 LP  0  0  0  0  0  0  0  0  0  0  0  0  # atno 17320 bound_to 7965
  146.3184  139.8013  142.8965 LP  0  0  0  0  0  0  0  0  0  0  0  0  # atno 17321 bound_to 7965
  140.4874  143.2358  151.8868 LP  0  0  0  0  0  0  0  0  0  0  0  0  # atno 17342 bound_to 10162
  139.4791  144.5203  151.8810 LP  0  0  0  0  0  0  0  0  0  0  0  0  # atno 17343 bound_to 10162
  156.9046  130.9632  151.3571 LP  0  0  0  0  0  0  0  0  0  0  0  0  # atno 17370 bound_to 10713
  157.6049  130.8540  149.8860 LP  0  0  0  0  0  0  0  0  0  0  0  0  # atno 17371 bound_to 10713
  140.0378  134.6312  155.9021 LP  0  0  0  0  0  0  0  0  0  0  0  0  # atno 17394 bound_to 11000
  141.1877  133.6560  156.5293 LP  0  0  0  0  0  0  0  0  0  0  0  0  # atno 17395 bound_to 11000

$$$$
