AV-unprocessed.smi:312|AV-procd|sdf|2308|dock2
  -GOLD-   2262022203D 1   1.00000     0.00000
 Structure written by MMmdl.
 35 36  0  0  0  0  0  0  0  0  1 V2000
  149.1197  140.7370  157.5621 C   0  0  0  0  0  0  0  0  0  0  0  0
  150.3683  140.9159  156.6881 C   0  0  1  0  0  0  0  0  0  0  0  0
  150.0576  141.7535  155.4294 C   0  0  0  0  0  0  0  0  0  0  0  0
  148.9420  141.2258  154.6650 N   0  0  0  0  0  0  0  0  0  0  0  0
  147.7880  141.9019  154.2896 C   0  0  0  0  0  0  0  0  0  0  0  0
  147.0242  141.0080  153.5740 C   0  0  0  0  0  0  0  0  0  0  0  0
  147.6809  139.7818  153.5030 N   0  0  0  0  0  0  0  0  0  0  0  0
  148.8081  139.9869  154.1721 C   0  0  0  0  0  0  0  0  0  0  0  0
  151.4196  141.5467  157.4851 N   0  0  0  0  0  0  0  0  0  0  0  0
  151.3289  142.7357  158.1025 C   0  0  0  0  0  0  0  0  0  0  0  0
  150.3314  143.4554  158.0412 O   0  0  0  0  0  0  0  0  0  0  0  0
  152.5505  143.1695  158.9281 C   0  0  0  0  0  0  0  0  0  0  0  0
  152.8058  142.2161  160.1192 C   0  0  0  0  0  0  0  0  0  0  0  0
  152.6830  143.0542  161.3985 C   0  0  0  0  0  0  0  0  0  0  0  0
  151.8996  144.2995  160.9936 C   0  0  0  0  0  0  0  0  0  0  0  0
  152.3488  144.5613  159.5569 C   0  0  0  0  0  0  0  0  0  0  0  0
  148.3220  140.2403  157.0092 H   0  0  0  0  0  0  0  0  0  0  0  0
  148.7356  141.6969  157.9093 H   0  0  0  0  0  0  0  0  0  0  0  0
  149.3385  140.1281  158.4400 H   0  0  0  0  0  0  0  0  0  0  0  0
  150.6859  139.9194  156.3751 H   0  0  0  0  0  0  0  0  0  0  0  0
  149.8129  142.7782  155.7123 H   0  0  0  0  0  0  0  0  0  0  0  0
  150.9323  141.8100  154.7797 H   0  0  0  0  0  0  0  0  0  0  0  0
  147.6143  142.9359  154.5489 H   0  0  0  0  0  0  0  0  0  0  0  0
  146.0601  141.1520  153.1093 H   0  0  0  0  0  0  0  0  0  0  0  0
  149.5572  139.2196  154.3019 H   0  0  0  0  0  0  0  0  0  0  0  0
  152.2788  141.0274  157.5927 H   0  0  0  0  0  0  0  0  0  0  0  0
  153.4262  143.1945  158.2772 H   0  0  0  0  0  0  0  0  0  0  0  0
  152.0855  141.3961  160.1461 H   0  0  0  0  0  0  0  0  0  0  0  0
  153.7932  141.7578  160.0533 H   0  0  0  0  0  0  0  0  0  0  0  0
  152.2055  142.5081  162.2126 H   0  0  0  0  0  0  0  0  0  0  0  0
  153.6775  143.3471  161.7376 H   0  0  0  0  0  0  0  0  0  0  0  0
  150.8294  144.0889  161.0165 H   0  0  0  0  0  0  0  0  0  0  0  0
  152.0873  145.1467  161.6536 H   0  0  0  0  0  0  0  0  0  0  0  0
  153.2987  145.0973  159.5632 H   0  0  0  0  0  0  0  0  0  0  0  0
  151.6352  145.1850  159.0159 H   0  0  0  0  0  0  0  0  0  0  0  0
  1  2  1  0  0  0  0
  1 17  1  0  0  0  0
  1 18  1  0  0  0  0
  1 19  1  0  0  0  0
  2  3  1  0  0  0  0
  2  9  1  0  0  0  0
  2 20  1  0  0  0  0
  3  4  1  0  0  0  0
  3 21  1  0  0  0  0
  3 22  1  0  0  0  0
  4  8  1  0  0  0  0
  4  5  1  0  0  0  0
  5  6  2  0  0  0  0
  5 23  1  0  0  0  0
  6  7  1  0  0  0  0
  6 24  1  0  0  0  0
  7  8  2  0  0  0  0
  8 25  1  0  0  0  0
  9 10  1  0  0  0  0
  9 26  1  0  0  0  0
 10 11  2  0  0  0  0
 10 12  1  0  0  0  0
 12 16  1  0  0  0  0
 12 13  1  0  0  0  0
 12 27  1  0  0  0  0
 13 14  1  0  0  0  0
 13 28  1  0  0  0  0
 13 29  1  0  0  0  0
 14 15  1  0  0  0  0
 14 30  1  0  0  0  0
 14 31  1  0  0  0  0
 15 16  1  0  0  0  0
 15 32  1  0  0  0  0
 15 33  1  0  0  0  0
 16 34  1  0  0  0  0
 16 35  1  0  0  0  0
M  END
> <s_m_source_file>
AV-unprocessed.smi

> <i_m_source_file_index>
312

> <i_lp_mmshare_version>
43012

> <i_f3d_flags>
0

> <s_epik_input>
W2NIXTFuW2NIXVtjSF1uMVtDSDJdW0NAQEhdKFtDSDNdKVtOSF1DKD1PKVtDSF0yW0NIMl1bQ0gyXVtDSDJdW0NIMl0y

> <s_epik_cmdline>
J2VwaWtfcHl0aG9uJywgJy1waCcsICc3LjAnLCAnLXRuJywgJzgnLCAnLW1hJywgJzIwMCcsICctbWV0YWxfYmluZGluZycsICctaW1hZScsICc8aW5maWxlLm1hZT4nLCAnLW9tYWUnLCAnPG91dGZpbGUubWFlPic=

> <r_lp_tautomer_probability>
1

> <r_epik_Ionization_Penalty>
0.642614

> <r_epik_Ionization_Penalty_Charging>
0.642614

> <r_epik_Ionization_Penalty_Neutral>
3.44135e-08

> <r_epik_State_Penalty>
0.660429

> <r_epik_Charging_Adjusted_Penalty>
1.30304

> <i_epik_Tot_Q>
0

> <i_epik_Tot_abs_Q>
0

> <r_epik_Metal_State_Penalty>
0.31224

> <b_epik_Metal_Only>
0

> <s_lp_Force_Field>
OPLS_2005

> <r_lp_Energy>
21.6538

> <b_lp_Chiralities_Consistent>
1

> <s_lp_Variant>
AV-unprocessed.smi:312-4

> <Gold.Version>
5.8.1

> <Gold.Id.Protein>
6NUR|6NUR_protein|mol2

> <Gold.PLP.Fitness>
43.5810

> <Gold.PLP.PLP>
-38.0170

> <Gold.PLP.part.hbond>
0.0000

> <Gold.PLP.part.metal>
0.0000

> <Gold.PLP.part.buried>
-4.4097

> <Gold.PLP.part.nonpolar>
-34.8687

> <Gold.PLP.part.repulsive>
1.7394

> <Gold.PLP.ligand.clash>
0.0000

> <Gold.PLP.ligand.torsion>
0.0716

> <Gold.PLP.Chemscore.Hbond>
0.0000

> <Gold.PLP.Chemscore.CHOScore>
1.8926

> <Gold.PLP.Chemscore.Metal>
0.0000

> <Gold.Chemscore.Hbonds>
donor molecule, donor type, donor heavy atom, donor atom, acceptor molecule, acceptor atom, score
      L1  C     5    23       P1  8028  1.00
      L1  C     6    24       P1 10175  0.98

> <Gold.PLP.Chemscore.Internal.Correction>
0.0296

> <Gold.Rescore>
     Score         DG    S(hbond)    S(metal)    S(lipo)     H(rot)  DE(clash)    DE(int)     intcor
     10.60     -11.58       0.00        0.00      90.60       1.76       0.06       0.93       ----

> <Gold.Chemscore.Fitness>
10.6016

> <Gold.Chemscore.DG>
-11.5837

> <Gold.Chemscore.ZeroCoef>
-5.4800

> <Gold.Chemscore.Hbond>
0.0000

> <Gold.Chemscore.Metal>
0.0000

> <Gold.Chemscore.Lipo>
90.5979

> <Gold.Chemscore.Internal_Hbond>
0.0000

> <Gold.Chemscore.DEClash>
0.0560

> <Gold.Chemscore.DEInternal>
0.9261

> <Gold.Chemscore.Rot>
1.7563

> <Gold.Chemscore.Internal.Correction>
   9.000000E+99

> <Gold.Chemscore.Hbond.Weighted>
-0.0000

> <Gold.Chemscore.Metal.Weighted>
-0.0000

> <Gold.Chemscore.Lipo.Weighted>
-10.5999

> <Gold.Chemscore.Internal_Hbond.Weighted>
0.0000

> <Gold.Chemscore.DEClash.Weighted>
0.0560

> <Gold.Chemscore.DEInternal.Weighted>
0.9261

> <Gold.Chemscore.Rot.Weighted>
4.4962

> <Gold.Chemscore.Internal.Correction.Weighted>
   9.000000E+99

> <Gold.Protein.RotatedTorsions>
[ 6907 6896 6895 6894 ] final    0.55 input  -60.11 | X-H torsion
[ 7974 7965 7964 7962 ] final  134.40 input  175.53 | X-H torsion
[ 8008 7997 7996 7995 ] final   80.37 input   59.86 | X-H torsion
[ 10167 10162 10161 10158 ] final  -70.49 input  -65.29 | X-H torsion
[ 10718 10713 10712 10709 ] final  -40.23 input   66.30 | X-H torsion
[ 10763 10752 10751 10750 ] final -132.62 input  -60.55 | X-H torsion
[ 11005 11000 10999 10996 ] final   -1.77 input  -57.11 | X-H torsion

> <Gold.Protein.ActiveResidues>
 VAL166  LYS551  ARG553  GLY616  TRP617  ASP618  TYR619  PRO620  LYS621  CYS622 
 ASP623  PHE694  ASN695  SER759  ASP760  ASP761  ALA762  ILE779  LEU786  VAL792 
 PHE793  MET794  SER795  GLU796  ALA797  LYS798  CYS799  TRP800  GLU811  SER814 

> <Gold.Protein.RotatedAtoms>
  151.5782  135.1059  160.0010 H   0  0  0  0  0  0  0  0  0  0  0  0  # atno 6907 bound_to 6896
  152.4367  133.7369  159.6630 H   0  0  0  0  0  0  0  0  0  0  0  0  # atno 6908 bound_to 6896
  150.8266  133.8092  159.3139 H   0  0  0  0  0  0  0  0  0  0  0  0  # atno 6909 bound_to 6896
  144.9767  139.4547  143.5406 H   0  0  0  0  0  0  0  0  0  0  0  0  # atno 7974 bound_to 7965
  155.8826  140.3443  155.5898 H   0  0  0  0  0  0  0  0  0  0  0  0  # atno 8008 bound_to 7997
  155.7703  140.0844  157.2130 H   0  0  0  0  0  0  0  0  0  0  0  0  # atno 8009 bound_to 7997
  154.4026  140.1519  156.2921 H   0  0  0  0  0  0  0  0  0  0  0  0  # atno 8010 bound_to 7997
  140.5348  143.2319  151.7196 H   0  0  0  0  0  0  0  0  0  0  0  0  # atno 10167 bound_to 10162
  156.2837  130.4220  149.8310 H   0  0  0  0  0  0  0  0  0  0  0  0  # atno 10718 bound_to 10713
  154.8741  135.3792  154.4440 H   0  0  0  0  0  0  0  0  0  0  0  0  # atno 10763 bound_to 10752
  153.5122  135.7029  153.5780 H   0  0  0  0  0  0  0  0  0  0  0  0  # atno 10764 bound_to 10752
  153.4064  135.3935  155.1988 H   0  0  0  0  0  0  0  0  0  0  0  0  # atno 10765 bound_to 10752
  140.6510  133.9404  155.8380 H   0  0  0  0  0  0  0  0  0  0  0  0  # atno 11005 bound_to 11000
  146.3397  139.9015  142.8794 LP  0  0  0  0  0  0  0  0  0  0  0  0  # atno 17320 bound_to 7965
  145.2479  141.0033  143.3898 LP  0  0  0  0  0  0  0  0  0  0  0  0  # atno 17321 bound_to 7965
  139.4967  144.4059  152.0132 LP  0  0  0  0  0  0  0  0  0  0  0  0  # atno 17342 bound_to 10162
  140.3164  144.3479  150.6020 LP  0  0  0  0  0  0  0  0  0  0  0  0  # atno 17343 bound_to 10162
  156.5749  130.8440  151.3367 LP  0  0  0  0  0  0  0  0  0  0  0  0  # atno 17370 bound_to 10713
  157.7322  130.9711  150.1916 LP  0  0  0  0  0  0  0  0  0  0  0  0  # atno 17371 bound_to 10713
  141.0536  134.0448  157.3751 LP  0  0  0  0  0  0  0  0  0  0  0  0  # atno 17394 bound_to 11000
  139.9046  135.0175  156.7425 LP  0  0  0  0  0  0  0  0  0  0  0  0  # atno 17395 bound_to 11000

$$$$
