#       Name:                AV-unprocessed.smi:3239
#       Creating user name   scv26
#       Creation time:       Fri Mar 27 18:24:16 2020


#       File generated by GOLD software.
#

@<TRIPOS>MOLECULE
AV-unprocessed.smi:3239
    40    40     1
SMALL
NO_CHARGES


@<TRIPOS>ATOM
      1 ****        -3.5749   5.7496   2.6093 C.1            1 S1                 0.0000
      2 ****        -3.8805   5.0874   1.6299 C.1            1 S1                 0.0000
      3 ****        -4.2308   4.2849   0.4459 C.3            1 S1                 0.0000
      4 ****        -3.3959   3.0973   0.3058 N.am           1 S1                 0.0000
      5 ****        -2.2283   3.0423  -0.3575 C.2            1 S1                 0.0000
      6 ****        -1.7176   4.0129  -0.9173 O.2            1 S1                 0.0000
      7 ****        -1.5227   1.7174  -0.3211 C.ar           1 S1                 0.0000
      8 ****        -2.2325   0.4966  -0.2683 C.ar           1 S1                 0.0000
      9 ****        -1.5131  -0.7141  -0.2592 C.ar           1 S1                 0.0000
     10 ****        -0.1046  -0.6707  -0.3110 C.ar           1 S1                 0.0000
     11 ****         0.6026  -1.8825  -0.3063 N.pl3          1 S1                 0.0000
     12 ****         2.0595  -1.9309  -0.2303 C.3            1 S1                 0.0000
     13 ****         2.5415  -1.6947   1.2121 C.3            1 S1                 0.0000
     14 ****         2.5680  -3.2725  -0.7811 C.3            1 S1                 0.0000
     15 ****         3.9818  -3.2351  -0.8852 O.3            1 S1                 0.0000
     16 ****         4.5220  -4.4425  -1.3926 C.3            1 S1                 0.0000
     17 ****         0.5808   0.4948  -0.3747 N.ar           1 S1                 0.0000
     18 ****        -0.1134   1.6528  -0.3829 C.ar           1 S1                 0.0000
     19 ****        -3.3045   6.3289   3.4634 H              1 S1                 0.0000
     20 ****        -5.2710   3.9751   0.5462 H              1 S1                 0.0000
     21 ****        -4.1694   4.9203  -0.4390 H              1 S1                 0.0000
     22 ****        -3.7240   2.2563   0.7577 H              1 S1                 0.0000
     23 ****        -3.3122   0.4759  -0.2381 H              1 S1                 0.0000
     24 ****        -2.0376  -1.6576  -0.2164 H              1 S1                 0.0000
     25 ****         0.0916  -2.7506  -0.2384 H              1 S1                 0.0000
     26 ****         2.4650  -1.1458  -0.8695 H              1 S1                 0.0000
     27 ****         3.6302  -1.7046   1.2692 H              1 S1                 0.0000
     28 ****         2.1674  -2.4654   1.8866 H              1 S1                 0.0000
     29 ****         2.2070  -0.7298   1.5936 H              1 S1                 0.0000
     30 ****         2.2547  -4.0952  -0.1357 H              1 S1                 0.0000
     31 ****         2.1427  -3.4527  -1.7701 H              1 S1                 0.0000
     32 ****         5.6071  -4.3605  -1.4550 H              1 S1                 0.0000
     33 ****         4.1426  -4.6550  -2.3929 H              1 S1                 0.0000
     34 ****         4.2850  -5.2847  -0.7413 H              1 S1                 0.0000
     35 ****         0.4819   2.5528  -0.4359 H              1 S1                 0.0000
     36 ****        -2.1747   4.9019  -0.8928 LP             1 S1                 0.0000
     37 ****        -0.8456   3.9121  -1.3964 LP             1 S1                 0.0000
     38 ****         4.3657  -3.0691   0.0231 LP             1 S1                 0.0000
     39 ****         4.2384  -2.4871  -1.4973 LP             1 S1                 0.0000
     40 ****         1.5800   0.4981  -0.4148 LP             1 S1                 0.0000
@<TRIPOS>BOND
    1    1    2 3     
    2    1   19 1     
    3    2    3 1     
    4    3    4 1     
    5    3   20 1     
    6    3   21 1     
    7    4    5 am    
    8    4   22 1     
    9    5    6 2     
   10    5    7 1     
   11    7   18 ar    
   12    7    8 ar    
   13    8    9 ar    
   14    8   23 1     
   15    9   10 ar    
   16    9   24 1     
   17   10   11 1     
   18   10   17 ar    
   19   11   12 1     
   20   11   25 1     
   21   12   13 1     
   22   12   14 1     
   23   12   26 1     
   24   13   27 1     
   25   13   28 1     
   26   13   29 1     
   27   14   15 1     
   28   14   30 1     
   29   14   31 1     
   30   15   16 1     
   31   16   32 1     
   32   16   33 1     
   33   16   34 1     
   34   17   18 ar    
   35   18   35 1     
   36    6   36 1     
   37    6   37 1     
   38   15   38 1     
   39   15   39 1     
   40   17   40 1     
@<TRIPOS>SUBSTRUCTURE
      1 S1             1
@<TRIPOS>SET
LONE_PAIRS      STATIC     ATOMS    <user>   **** ""
5 36 37 38 39 40
DONOR_HYDROGENS      STATIC     ATOMS    <user>   **** ""
2 22 25
ATOM$BLUE        STATIC     ATOMS    COLORGROUP SYSTEM
5 36 37 38 39 40
ATOM$RED        STATIC     ATOMS    COLORGROUP SYSTEM
2 22 25
