AV-unprocessed.smi:2555|AV-procd|sdf|10022|dock2
  -GOLD-   2272014 63D 1   1.00000     0.00000
 Structure written by MMmdl.
 40 41  0  0  0  0  0  0  0  0  1 V2000
  149.9461  142.0220  157.5204 C   0  0  0  0  0  0  0  0  0  0  0  0
  150.3183  141.0768  156.4143 C   0  0  0  0  0  0  0  0  0  0  0  0
  150.1764  141.4547  155.1549 N   0  0  0  0  0  0  0  0  0  0  0  0
  150.6006  140.3711  154.3798 O   0  0  0  0  0  0  0  0  0  0  0  0
  150.9843  139.3709  155.2133 C   0  0  0  0  0  0  0  0  0  0  0  0
  151.4719  138.1148  154.5741 C   0  0  0  0  0  0  0  0  0  0  0  0
  150.8320  139.7523  156.5180 C   0  0  0  0  0  0  0  0  0  0  0  0
  151.1306  138.9665  157.7681 C   0  0  0  0  0  0  0  0  0  0  0  0
  152.4376  139.4635  158.3856 C   0  0  0  0  0  0  0  0  0  0  0  0
  153.4100  138.7115  158.4515 O   0  0  0  0  0  0  0  0  0  0  0  0
  152.4456  140.7286  158.8343 N   0  0  0  0  0  0  0  0  0  0  0  0
  153.5721  141.3909  159.4857 C   0  0  0  0  0  0  0  0  0  0  0  0
  153.3147  142.8918  159.7387 C   0  0  0  0  0  0  0  0  0  0  0  0
  152.5135  143.1569  161.0342 C   0  0  0  0  0  0  0  0  0  0  0  0
  152.2362  144.6548  161.2428 C   0  0  0  0  0  0  0  0  0  0  0  0
  151.5227  145.2667  160.0287 C   0  0  0  0  0  0  0  0  0  0  0  0
  152.3229  145.0230  158.7411 C   0  0  0  0  0  0  0  0  0  0  0  0
  152.5923  143.5244  158.5309 C   0  0  0  0  0  0  0  0  0  0  0  0
  149.1770  141.5888  158.1598 H   0  0  0  0  0  0  0  0  0  0  0  0
  149.5607  142.9664  157.1342 H   0  0  0  0  0  0  0  0  0  0  0  0
  150.8100  142.2476  158.1458 H   0  0  0  0  0  0  0  0  0  0  0  0
  151.1472  137.2411  155.1395 H   0  0  0  0  0  0  0  0  0  0  0  0
  152.5609  138.1032  154.5296 H   0  0  0  0  0  0  0  0  0  0  0  0
  151.0893  138.0179  153.5579 H   0  0  0  0  0  0  0  0  0  0  0  0
  150.3341  139.0762  158.5048 H   0  0  0  0  0  0  0  0  0  0  0  0
  151.2027  137.8981  157.5604 H   0  0  0  0  0  0  0  0  0  0  0  0
  151.5994  141.2702  158.7323 H   0  0  0  0  0  0  0  0  0  0  0  0
  153.7349  140.8840  160.4372 H   0  0  0  0  0  0  0  0  0  0  0  0
  154.4910  141.2542  158.9128 H   0  0  0  0  0  0  0  0  0  0  0  0
  154.2838  143.3831  159.8388 H   0  0  0  0  0  0  0  0  0  0  0  0
  151.5685  142.6131  160.9993 H   0  0  0  0  0  0  0  0  0  0  0  0
  153.0541  142.7781  161.9014 H   0  0  0  0  0  0  0  0  0  0  0  0
  151.6323  144.7984  162.1391 H   0  0  0  0  0  0  0  0  0  0  0  0
  153.1767  145.1793  161.4165 H   0  0  0  0  0  0  0  0  0  0  0  0
  150.5279  144.8301  159.9302 H   0  0  0  0  0  0  0  0  0  0  0  0
  151.3782  146.3367  160.1813 H   0  0  0  0  0  0  0  0  0  0  0  0
  151.7804  145.4259  157.8854 H   0  0  0  0  0  0  0  0  0  0  0  0
  153.2697  145.5625  158.7895 H   0  0  0  0  0  0  0  0  0  0  0  0
  153.1875  143.3876  157.6274 H   0  0  0  0  0  0  0  0  0  0  0  0
  151.6471  143.0086  158.3564 H   0  0  0  0  0  0  0  0  0  0  0  0
  1  2  1  0  0  0  0
  1 19  1  0  0  0  0
  1 20  1  0  0  0  0
  1 21  1  0  0  0  0
  2  7  1  0  0  0  0
  2  3  2  0  0  0  0
  3  4  1  0  0  0  0
  4  5  1  0  0  0  0
  5  6  1  0  0  0  0
  5  7  2  0  0  0  0
  6 22  1  0  0  0  0
  6 23  1  0  0  0  0
  6 24  1  0  0  0  0
  7  8  1  0  0  0  0
  8  9  1  0  0  0  0
  8 25  1  0  0  0  0
  8 26  1  0  0  0  0
  9 10  2  0  0  0  0
  9 11  1  0  0  0  0
 11 12  1  0  0  0  0
 11 27  1  0  0  0  0
 12 13  1  0  0  0  0
 12 28  1  0  0  0  0
 12 29  1  0  0  0  0
 13 18  1  0  0  0  0
 13 14  1  0  0  0  0
 13 30  1  0  0  0  0
 14 15  1  0  0  0  0
 14 31  1  0  0  0  0
 14 32  1  0  0  0  0
 15 16  1  0  0  0  0
 15 33  1  0  0  0  0
 15 34  1  0  0  0  0
 16 17  1  0  0  0  0
 16 35  1  0  0  0  0
 16 36  1  0  0  0  0
 17 18  1  0  0  0  0
 17 37  1  0  0  0  0
 17 38  1  0  0  0  0
 18 39  1  0  0  0  0
 18 40  1  0  0  0  0
M  END
> <s_m_source_file>
AV-unprocessed.smi

> <i_m_source_file_index>
2555

> <i_lp_mmshare_version>
43012

> <i_f3d_flags>
0

> <s_epik_input>
W0NIM11jMW5vYyhbQ0gzXSljMVtDSDJdQyg9TylbTkhdW0NIMl1bQ0hdMltDSDJdW0NIMl1bQ0gyXVtDSDJdW0NIMl0y

> <s_epik_cmdline>
J2VwaWtfcHl0aG9uJywgJy1waCcsICc3LjAnLCAnLXRuJywgJzgnLCAnLW1hJywgJzIwMCcsICctbWV0YWxfYmluZGluZycsICctaW1hZScsICc8aW5maWxlLm1hZT4nLCAnLW9tYWUnLCAnPG91dGZpbGUubWFlPic=

> <r_lp_tautomer_probability>
1

> <r_epik_Ionization_Penalty>
1.94914e-08

> <r_epik_Ionization_Penalty_Charging>
0

> <r_epik_Ionization_Penalty_Neutral>
1.94914e-08

> <r_epik_State_Penalty>
-0

> <r_epik_Charging_Adjusted_Penalty>
0

> <i_epik_Tot_Q>
0

> <i_epik_Tot_abs_Q>
0

> <r_epik_Metal_State_Penalty>
-0

> <b_epik_Metal_Only>
0

> <s_lp_Force_Field>
OPLS_2005

> <r_lp_Energy>
4.99285

> <b_lp_Chiralities_Consistent>
1

> <s_lp_Variant>
AV-unprocessed.smi:2555-1

> <Gold.Version>
5.8.1

> <Gold.Id.Protein>
6NUR|6NUR_protein|mol2

> <Gold.PLP.Fitness>
47.4363

> <Gold.PLP.PLP>
-42.3497

> <Gold.PLP.part.hbond>
-2.4512

> <Gold.PLP.part.metal>
0.0000

> <Gold.PLP.part.buried>
-4.9204

> <Gold.PLP.part.nonpolar>
-35.4200

> <Gold.PLP.part.repulsive>
0.3059

> <Gold.PLP.ligand.clash>
0.0000

> <Gold.PLP.ligand.torsion>
0.4703

> <Gold.PLP.Chemscore.Hbond>
2.0000

> <Gold.PLP.Chemscore.CHOScore>
0.0000

> <Gold.PLP.Chemscore.Metal>
0.0000

> <Gold.Chemscore.Hbonds>
donor molecule, donor type, donor heavy atom, donor atom, acceptor molecule, acceptor atom, score
      P1  H  7989  7998       L1     4  0.78
      P1  H  7997  8010       L1    10  0.26

> <Gold.PLP.Chemscore.Internal.Correction>
0.0271

> <Gold.Rescore>
     Score         DG    S(hbond)    S(metal)    S(lipo)     H(rot)  DE(clash)    DE(int)     intcor
     20.18     -20.73       1.63        0.00     115.08       1.43       0.02       0.53       ----

> <Gold.Chemscore.Fitness>
20.1789

> <Gold.Chemscore.DG>
-20.7311

> <Gold.Chemscore.ZeroCoef>
-5.4800

> <Gold.Chemscore.Hbond>
1.6331

> <Gold.Chemscore.Metal>
0.0000

> <Gold.Chemscore.Lipo>
115.0845

> <Gold.Chemscore.Internal_Hbond>
0.0000

> <Gold.Chemscore.DEClash>
0.0234

> <Gold.Chemscore.DEInternal>
0.5287

> <Gold.Chemscore.Rot>
1.4329

> <Gold.Chemscore.Internal.Correction>
   9.000000E+99

> <Gold.Chemscore.Hbonds>
donor molecule, donor type, donor heavy atom, donor atom, acceptor molecule, acceptor atom, score
      P1  H  7989  7998       L1     4  0.38
      P1  H  7997  8010       L1    10  0.05

> <Gold.Chemscore.Hbond.Weighted>
-5.4545

> <Gold.Chemscore.Metal.Weighted>
-0.0000

> <Gold.Chemscore.Lipo.Weighted>
-13.4649

> <Gold.Chemscore.Internal_Hbond.Weighted>
0.0000

> <Gold.Chemscore.DEClash.Weighted>
0.0234

> <Gold.Chemscore.DEInternal.Weighted>
0.5287

> <Gold.Chemscore.Rot.Weighted>
3.6683

> <Gold.Chemscore.Internal.Correction.Weighted>
   9.000000E+99

> <Gold.Protein.RotatedTorsions>
[ 6907 6896 6895 6894 ] final  -52.10 input  -60.11 | X-H torsion
[ 7974 7965 7964 7962 ] final -105.72 input  175.53 | X-H torsion
[ 8008 7997 7996 7995 ] final   11.24 input   59.86 | X-H torsion
[ 10167 10162 10161 10158 ] final  -25.15 input  -65.29 | X-H torsion
[ 10718 10713 10712 10709 ] final  115.58 input   66.30 | X-H torsion
[ 10763 10752 10751 10750 ] final  141.73 input  -60.55 | X-H torsion
[ 11005 11000 10999 10996 ] final   51.08 input  -57.11 | X-H torsion

> <Gold.Protein.ActiveResidues>
 VAL166  LYS551  ARG553  GLY616  TRP617  ASP618  TYR619  PRO620  LYS621  CYS622 
 ASP623  PHE694  ASN695  SER759  ASP760  ASP761  ALA762  ILE779  LEU786  VAL792 
 PHE793  MET794  SER795  GLU796  ALA797  LYS798  CYS799  TRP800  GLU811  SER814 

> <Gold.Protein.RotatedAtoms>
  150.8549  134.7884  159.7037 H   0  0  0  0  0  0  0  0  0  0  0  0  # atno 6907 bound_to 6896
  152.4603  134.5195  159.9788 H   0  0  0  0  0  0  0  0  0  0  0  0  # atno 6908 bound_to 6896
  151.5310  133.3411  159.2954 H   0  0  0  0  0  0  0  0  0  0  0  0  # atno 6909 bound_to 6896
  145.2269  140.9156  143.3227 H   0  0  0  0  0  0  0  0  0  0  0  0  # atno 7974 bound_to 7965
  154.8043  140.2857  155.5899 H   0  0  0  0  0  0  0  0  0  0  0  0  # atno 8008 bound_to 7997
  156.2981  140.2580  156.2847 H   0  0  0  0  0  0  0  0  0  0  0  0  # atno 8009 bound_to 7997
  154.9522  140.0379  157.2139 H   0  0  0  0  0  0  0  0  0  0  0  0  # atno 8010 bound_to 7997
  140.7287  143.4290  151.0832 H   0  0  0  0  0  0  0  0  0  0  0  0  # atno 10167 bound_to 10162
  157.6213  131.1014  150.7351 H   0  0  0  0  0  0  0  0  0  0  0  0  # atno 10718 bound_to 10713
  153.9441  135.2977  155.3441 H   0  0  0  0  0  0  0  0  0  0  0  0  # atno 10763 bound_to 10752
  154.7461  135.5002  153.9210 H   0  0  0  0  0  0  0  0  0  0  0  0  # atno 10764 bound_to 10752
  153.1027  135.6738  153.9750 H   0  0  0  0  0  0  0  0  0  0  0  0  # atno 10765 bound_to 10752
  140.0963  134.5141  155.8804 H   0  0  0  0  0  0  0  0  0  0  0  0  # atno 11005 bound_to 11000
  144.9713  139.3877  143.6307 LP  0  0  0  0  0  0  0  0  0  0  0  0  # atno 17320 bound_to 7965
  146.3362  139.8812  142.8824 LP  0  0  0  0  0  0  0  0  0  0  0  0  # atno 17321 bound_to 7965
  139.7944  143.8172  152.3156 LP  0  0  0  0  0  0  0  0  0  0  0  0  # atno 17342 bound_to 10162
  139.8167  144.7313  150.9626 LP  0  0  0  0  0  0  0  0  0  0  0  0  # atno 17343 bound_to 10162
  156.7708  130.4828  149.5419 LP  0  0  0  0  0  0  0  0  0  0  0  0  # atno 17370 bound_to 10713
  156.1360  130.6211  151.0401 LP  0  0  0  0  0  0  0  0  0  0  0  0  # atno 17371 bound_to 10713
  141.2093  133.6682  156.6429 LP  0  0  0  0  0  0  0  0  0  0  0  0  # atno 17394 bound_to 11000
  140.3282  134.7951  157.4305 LP  0  0  0  0  0  0  0  0  0  0  0  0  # atno 17395 bound_to 11000

$$$$
