AV-unprocessed.smi:927|AV-procd|sdf|4189|dock1
  -GOLD-   22720 2 93D 1   1.00000     0.00000
 Structure written by MMmdl.
 20 20  0  0  0  0  0  0  0  0  1 V2000
  143.3443  133.9229  147.6276 N   0  0  0  0  0  0  0  0  0  0  0  0
  143.9815  132.6690  148.0604 C   0  0  0  0  0  0  0  0  0  0  0  0
  143.7631  132.3703  149.5542 C   0  0  2  0  0  0  0  0  0  0  0  0
  142.3719  132.3147  149.8003 O   0  0  0  0  0  0  0  0  0  0  0  0
  144.4318  133.4236  150.4241 C   0  0  0  0  0  0  0  0  0  0  0  0
  143.9413  134.7461  150.4519 C   0  0  0  0  0  0  0  0  0  0  0  0
  144.5878  135.6878  151.2772 C   0  0  0  0  0  0  0  0  0  0  0  0
  145.6562  135.3901  152.0473 N   0  0  0  0  0  0  0  0  0  0  0  0
  146.1207  134.1227  152.0187 C   0  0  0  0  0  0  0  0  0  0  0  0
  145.5474  133.1061  151.2291 C   0  0  0  0  0  0  0  0  0  0  0  0
  142.6100  134.1928  148.2803 H   0  0  0  0  0  0  0  0  0  0  0  0
  144.0241  134.6818  147.6116 H   0  0  0  0  0  0  0  0  0  0  0  0
  143.5556  131.8518  147.4772 H   0  0  0  0  0  0  0  0  0  0  0  0
  145.0470  132.6819  147.8276 H   0  0  0  0  0  0  0  0  0  0  0  0
  144.1871  131.3956  149.8000 H   0  0  0  0  0  0  0  0  0  0  0  0
  142.0811  131.4255  149.6688 H   0  0  0  0  0  0  0  0  0  0  0  0
  143.0881  135.0368  149.8568 H   0  0  0  0  0  0  0  0  0  0  0  0
  144.2355  136.7079  151.3205 H   0  0  0  0  0  0  0  0  0  0  0  0
  146.9744  133.9109  152.6453 H   0  0  0  0  0  0  0  0  0  0  0  0
  145.9557  132.1060  151.2446 H   0  0  0  0  0  0  0  0  0  0  0  0
  1  2  1  0  0  0  0
  1 11  1  0  0  0  0
  1 12  1  0  0  0  0
  2  3  1  0  0  0  0
  2 13  1  0  0  0  0
  2 14  1  0  0  0  0
  3  4  1  0  0  0  0
  3  5  1  0  0  0  0
  3 15  1  0  0  0  0
  4 16  1  0  0  0  0
  5 10  1  0  0  0  0
  5  6  2  0  0  0  0
  6  7  1  0  0  0  0
  6 17  1  0  0  0  0
  7  8  2  0  0  0  0
  7 18  1  0  0  0  0
  8  9  1  0  0  0  0
  9 10  2  0  0  0  0
  9 19  1  0  0  0  0
 10 20  1  0  0  0  0
M  END
> <s_m_source_file>
AV-unprocessed.smi

> <i_m_source_file_index>
927

> <i_lp_mmshare_version>
43012

> <i_f3d_flags>
0

> <s_epik_input>
W05IMl1bQ0gyXVtDQEhdKFtPSF0pYzFbY0hdW2NIXW5bY0hdW2NIXTE=

> <s_epik_cmdline>
J2VwaWtfcHl0aG9uJywgJy1waCcsICc3LjAnLCAnLXRuJywgJzgnLCAnLW1hJywgJzIwMCcsICctbWV0YWxfYmluZGluZycsICctaW1hZScsICc8aW5maWxlLm1hZT4nLCAnLW9tYWUnLCAnPG91dGZpbGUubWFlPic=

> <r_epik_Ionization_Penalty>
2.24668

> <r_epik_Ionization_Penalty_Charging>
0

> <r_epik_Ionization_Penalty_Neutral>
2.24668

> <r_epik_State_Penalty>
2.36938

> <r_epik_Charging_Adjusted_Penalty>
2.36938

> <i_epik_Tot_Q>
0

> <i_epik_Tot_abs_Q>
0

> <r_epik_Metal_State_Penalty>
2.3492

> <b_epik_Metal_Only>
0

> <s_lp_Force_Field>
OPLS_2005

> <r_lp_Energy>
12.0251

> <b_lp_Chiralities_Consistent>
1

> <s_lp_Variant>
AV-unprocessed.smi:927-3

> <Gold.Version>
5.8.1

> <Gold.Id.Protein>
6NUR|6NUR_protein|mol2

> <Gold.PLP.Fitness>
37.5447

> <Gold.PLP.PLP>
-26.0573

> <Gold.PLP.part.hbond>
-5.1580

> <Gold.PLP.part.metal>
0.0000

> <Gold.PLP.part.buried>
-4.2309

> <Gold.PLP.part.nonpolar>
-18.5120

> <Gold.PLP.part.repulsive>
2.1710

> <Gold.PLP.ligand.clash>
0.0000

> <Gold.PLP.ligand.torsion>
0.1253

> <Gold.PLP.Chemscore.Hbond>
2.9120

> <Gold.PLP.Chemscore.CHOScore>
0.9998

> <Gold.PLP.Chemscore.Metal>
0.0000

> <Gold.Chemscore.Hbonds>
donor molecule, donor type, donor heavy atom, donor atom, acceptor molecule, acceptor atom, score
      L1  H     1    11       P1 10186  0.99
      L1  H     1    12       P1  7921  0.63
      L1  H     4    16       P1 10952  0.96
      L1  C     7    18       P1 10171  1.00

> <Gold.PLP.Chemscore.Internal.Correction>
0.0025

> <Gold.Rescore>
     Score         DG    S(hbond)    S(metal)    S(lipo)     H(rot)  DE(clash)    DE(int)     intcor
     15.55     -15.90       2.55        0.00      56.79       1.85       0.02       0.34       ----

> <Gold.Chemscore.Fitness>
15.5480

> <Gold.Chemscore.DG>
-15.9044

> <Gold.Chemscore.ZeroCoef>
-5.4800

> <Gold.Chemscore.Hbond>
2.5461

> <Gold.Chemscore.Metal>
0.0000

> <Gold.Chemscore.Lipo>
56.7949

> <Gold.Chemscore.Internal_Hbond>
0.0000

> <Gold.Chemscore.DEClash>
0.0211

> <Gold.Chemscore.DEInternal>
0.3353

> <Gold.Chemscore.Rot>
1.8455

> <Gold.Chemscore.Internal.Correction>
   9.000000E+99

> <Gold.Chemscore.Hbonds>
donor molecule, donor type, donor heavy atom, donor atom, acceptor molecule, acceptor atom, score
      L1  H     1    11       P1 10186  0.93
      L1  H     1    12       P1  7921  0.62
      L1  H     4    16       P1 10952  0.92

> <Gold.Chemscore.Hbond.Weighted>
-8.5039

> <Gold.Chemscore.Metal.Weighted>
-0.0000

> <Gold.Chemscore.Lipo.Weighted>
-6.6450

> <Gold.Chemscore.Internal_Hbond.Weighted>
0.0000

> <Gold.Chemscore.DEClash.Weighted>
0.0211

> <Gold.Chemscore.DEInternal.Weighted>
0.3353

> <Gold.Chemscore.Rot.Weighted>
4.7245

> <Gold.Chemscore.Internal.Correction.Weighted>
   9.000000E+99

> <Gold.Protein.RotatedTorsions>
[ 6907 6896 6895 6894 ] final -175.17 input  -60.11 | X-H torsion
[ 7974 7965 7964 7962 ] final -173.84 input  175.53 | X-H torsion
[ 8008 7997 7996 7995 ] final  -46.54 input   59.86 | X-H torsion
[ 10167 10162 10161 10158 ] final -148.25 input  -65.29 | X-H torsion
[ 10718 10713 10712 10709 ] final   -0.86 input   66.30 | X-H torsion
[ 10763 10752 10751 10750 ] final    5.02 input  -60.55 | X-H torsion
[ 11005 11000 10999 10996 ] final   69.53 input  -57.11 | X-H torsion

> <Gold.Protein.ActiveResidues>
 VAL166  LYS551  ARG553  GLY616  TRP617  ASP618  TYR619  PRO620  LYS621  CYS622 
 ASP623  PHE694  ASN695  SER759  ASP760  ASP761  ALA762  ILE779  LEU786  VAL792 
 PHE793  MET794  SER795  GLU796  ALA797  LYS798  CYS799  TRP800  GLU811  SER814 

> <Gold.Protein.RotatedAtoms>
  151.5842  133.3374  159.3014 H   0  0  0  0  0  0  0  0  0  0  0  0  # atno 6907 bound_to 6896
  150.8296  134.7547  159.6854 H   0  0  0  0  0  0  0  0  0  0  0  0  # atno 6908 bound_to 6896
  152.4381  134.5651  159.9957 H   0  0  0  0  0  0  0  0  0  0  0  0  # atno 6909 bound_to 6896
  144.7135  140.1561  143.6380 H   0  0  0  0  0  0  0  0  0  0  0  0  # atno 7974 bound_to 7965
  154.4008  140.1369  156.4028 H   0  0  0  0  0  0  0  0  0  0  0  0  # atno 8008 bound_to 7997
  155.7808  140.3481  155.5276 H   0  0  0  0  0  0  0  0  0  0  0  0  # atno 8009 bound_to 7997
  155.8676  140.0966  157.1562 H   0  0  0  0  0  0  0  0  0  0  0  0  # atno 8010 bound_to 7997
  139.7549  143.8463  152.2595 H   0  0  0  0  0  0  0  0  0  0  0  0  # atno 10167 bound_to 10162
  156.8141  130.5434  149.5705 H   0  0  0  0  0  0  0  0  0  0  0  0  # atno 10718 bound_to 10713
  153.2643  135.6926  153.7546 H   0  0  0  0  0  0  0  0  0  0  0  0  # atno 10763 bound_to 10752
  153.6593  135.3363  155.3123 H   0  0  0  0  0  0  0  0  0  0  0  0  # atno 10764 bound_to 10752
  154.8441  135.4473  154.1644 H   0  0  0  0  0  0  0  0  0  0  0  0  # atno 10765 bound_to 10752
  139.9648  134.6999  156.0568 H   0  0  0  0  0  0  0  0  0  0  0  0  # atno 11005 bound_to 11000
  145.9072  139.2465  143.1458 LP  0  0  0  0  0  0  0  0  0  0  0  0  # atno 17320 bound_to 7965
  145.9752  140.8728  143.0142 LP  0  0  0  0  0  0  0  0  0  0  0  0  # atno 17321 bound_to 7965
  139.8452  144.7191  150.9281 LP  0  0  0  0  0  0  0  0  0  0  0  0  # atno 17342 bound_to 10162
  140.7801  143.3947  151.1249 LP  0  0  0  0  0  0  0  0  0  0  0  0  # atno 17343 bound_to 10162
  156.1027  130.5981  150.9920 LP  0  0  0  0  0  0  0  0  0  0  0  0  # atno 17370 bound_to 10713
  157.6490  131.0900  150.8091 LP  0  0  0  0  0  0  0  0  0  0  0  0  # atno 17371 bound_to 10713
  141.1328  133.6582  156.3510 LP  0  0  0  0  0  0  0  0  0  0  0  0  # atno 17394 bound_to 11000
  140.5420  134.6111  157.5382 LP  0  0  0  0  0  0  0  0  0  0  0  0  # atno 17395 bound_to 11000

$$$$
