#       Name:                AV-unprocessed.smi:1715
#       Creating user name   scv26
#       Creation time:       Fri Mar 27 08:11:38 2020


#       File generated by GOLD software.
#

@<TRIPOS>MOLECULE
AV-unprocessed.smi:1715
    46    47     1
SMALL
NO_CHARGES


@<TRIPOS>ATOM
      1 ****        -4.0901  -2.6442   0.0635 C.3            1 S1                 0.0000
      2 ****        -3.5573  -1.8182  -1.1210 C.3            1 S1                 0.0000
      3 ****        -2.0192  -1.7281  -1.1681 C.3            1 S1                 0.0000
      4 ****        -1.5012  -0.8163  -0.1202 N.4            1 S1                 1.0000
      5 ****        -0.0183  -0.7580  -0.1059 C.3            1 S1                 0.0000
      6 ****         0.5383  -0.2671   1.2447 C.3            1 S1                 0.0000
      7 ****         1.9966  -0.2645   1.2546 N.am           1 S1                 0.0000
      8 ****         2.7651   0.6613   0.6630 C.2            1 S1                 0.0000
      9 ****         2.3114   1.6169   0.0332 O.2            1 S1                 0.0000
     10 ****         4.0706   0.4053   0.8474 N.am           1 S1                 0.0000
     11 ****         5.1722   1.1553   0.3633 C.2            1 S1                 0.0000
     12 ****         6.5363   0.8370   0.6053 C.2            1 S1                 0.0000
     13 ****         7.3469   1.7127   0.0287 N.2            1 S1                 0.0000
     14 ****         6.5133   2.5874  -0.5784 N.pl3          1 S1                 0.0000
     15 ****         5.1805   2.2872  -0.4028 C.2            1 S1                 0.0000
     16 ****        -2.1453   0.5145  -0.2349 C.3            1 S1                 0.0000
     17 ****        -3.6766   0.3797  -0.1539 C.3            1 S1                 0.0000
     18 ****        -4.3840   1.7242  -0.3569 C.3            1 S1                 0.0000
     19 ****        -4.1292  -0.5112  -1.1700 O.3            1 S1                 0.0000
     20 ****         6.8654   3.3755  -1.1034 H              1 S1                 0.0000
     21 ****        -3.7435  -3.6762   0.0012 H              1 S1                 0.0000
     22 ****        -5.1801  -2.6640   0.0639 H              1 S1                 0.0000
     23 ****        -3.7622  -2.2505   1.0250 H              1 S1                 0.0000
     24 ****        -3.8865  -2.3245  -2.0289 H              1 S1                 0.0000
     25 ****        -1.5857  -2.7223  -1.0522 H              1 S1                 0.0000
     26 ****        -1.7045  -1.3593  -2.1458 H              1 S1                 0.0000
     27 ****         0.3805  -1.7565  -0.2914 H              1 S1                 0.0000
     28 ****         0.3292  -0.1304  -0.9282 H              1 S1                 0.0000
     29 ****         0.1803   0.7340   1.4861 H              1 S1                 0.0000
     30 ****         0.1952  -0.9208   2.0471 H              1 S1                 0.0000
     31 ****         2.4527  -1.0151   1.7529 H              1 S1                 0.0000
     32 ****         4.3032  -0.4125   1.3917 H              1 S1                 0.0000
     33 ****         6.9566   0.0171   1.1689 H              1 S1                 0.0000
     34 ****         4.3915   2.8903  -0.8272 H              1 S1                 0.0000
     35 ****        -1.8022   1.1738   0.5617 H              1 S1                 0.0000
     36 ****        -1.8558   0.9792  -1.1789 H              1 S1                 0.0000
     37 ****        -3.9588  -0.0046   0.8265 H              1 S1                 0.0000
     38 ****        -4.0831   2.4459   0.4029 H              1 S1                 0.0000
     39 ****        -5.4663   1.6082  -0.2935 H              1 S1                 0.0000
     40 ****        -4.1516   2.1497  -1.3336 H              1 S1                 0.0000
     41 ****        -1.7849  -1.2105   0.7654 H              1 S1                 0.0000
     42 ****         1.3222   1.7319  -0.0570 LP             1 S1                 0.0000
     43 ****         2.9321   2.2780  -0.3882 LP             1 S1                 0.0000
     44 ****         8.3468   1.7240   0.0400 LP             1 S1                 0.0000
     45 ****        -5.1212  -0.6027  -1.0838 LP             1 S1                 0.0000
     46 ****        -3.9076  -0.1081  -2.0580 LP             1 S1                 0.0000
@<TRIPOS>BOND
    1    1    2 1     
    2    1   21 1     
    3    1   22 1     
    4    1   23 1     
    5    2   19 1     
    6    2    3 1     
    7    2   24 1     
    8    3    4 1     
    9    3   25 1     
   10    3   26 1     
   11    4    5 1     
   12    4   16 1     
   13    4   41 1     
   14    5    6 1     
   15    5   27 1     
   16    5   28 1     
   17    6    7 1     
   18    6   29 1     
   19    6   30 1     
   20    7    8 am    
   21    7   31 1     
   22    8    9 2     
   23    8   10 am    
   24   10   11 1     
   25   10   32 1     
   26   11   15 2     
   27   11   12 1     
   28   12   13 2     
   29   12   33 1     
   30   13   14 1     
   31   14   20 1     
   32   14   15 1     
   33   15   34 1     
   34   16   17 1     
   35   16   35 1     
   36   16   36 1     
   37   17   18 1     
   38   17   19 1     
   39   17   37 1     
   40   18   38 1     
   41   18   39 1     
   42   18   40 1     
   43    9   42 1     
   44    9   43 1     
   45   13   44 1     
   46   19   45 1     
   47   19   46 1     
@<TRIPOS>SUBSTRUCTURE
      1 S1             1
@<TRIPOS>SET
LONE_PAIRS      STATIC     ATOMS    <user>   **** ""
5 42 43 44 45 46
DONOR_HYDROGENS      STATIC     ATOMS    <user>   **** ""
4 41 31 32 20
ATOM$BLUE        STATIC     ATOMS    COLORGROUP SYSTEM
5 42 43 44 45 46
ATOM$RED        STATIC     ATOMS    COLORGROUP SYSTEM
4 41 31 32 20
