#       Name:                AV-unprocessed.smi:281
#       Creating user name   scv26
#       Creation time:       Thu Mar 26 21:40:30 2020


#       File generated by GOLD software.
#

@<TRIPOS>MOLECULE
AV-unprocessed.smi:281
    67    71     1
SMALL
NO_CHARGES


@<TRIPOS>ATOM
      1 ****        -4.3355  -0.7285  -3.6332 C.3            1 S1                 0.0000
      2 ****        -3.5568  -0.3192  -2.3791 C.3            1 S1                 0.0000
      3 ****        -2.0486  -0.2142  -2.6456 C.3            1 S1                 0.0000
      4 ****        -1.3623   0.2598  -1.4483 N.3            1 S1                 0.0000
      5 ****        -0.0062   0.1754  -1.4247 C.ar           1 S1                 0.0000
      6 ****         0.6846   0.0214  -2.5869 N.ar           1 S1                 0.0000
      7 ****         2.0185  -0.0528  -2.5783 C.ar           1 S1                 0.0000
      8 ****         2.8497  -0.0000  -1.5369 N.ar           1 S1                 0.0000
      9 ****         2.1661   0.1434  -0.3659 C.ar           1 S1                 0.0000
     10 ****         0.7527   0.2419  -0.2209 C.ar           1 S1                 0.0000
     11 ****         0.4280   0.3758   1.1238 N.2            1 S1                 0.0000
     12 ****         1.5799   0.3672   1.7359 C.2            1 S1                 0.0000
     13 ****         2.6772   0.2202   0.9185 N.pl3          1 S1                 0.0000
     14 ****         4.0729   0.1711   1.3273 C.3            1 S1                 0.0000
     15 ****         4.5852  -1.2594   1.6184 C.3            1 S1                 0.0000
     16 ****         4.4405  -2.0521   0.4525 O.3            1 S1                 0.0000
     17 ****         6.0495  -1.2866   2.0379 C.3            1 S1                 0.0000
     18 ****         6.1221  -2.5219   2.9247 C.3            1 S1                 0.0000
     19 ****         4.9048  -2.4623   3.6484 O.3            1 S1                 0.0000
     20 ****         3.8785  -1.9763   2.7879 C.3            1 S1                 0.0000
     21 ****        -1.9024   1.5190  -0.9445 C.3            1 S1                 0.0000
     22 ****        -3.4410   1.4559  -0.7548 C.3            1 S1                 0.0000
     23 ****        -4.0076   2.8579  -0.5512 C.3            1 S1                 0.0000
     24 ****        -5.2353   2.6226   0.3118 C.3            1 S1                 0.0000
     25 ****        -4.7689   1.6418   1.2176 O.3            1 S1                 0.0000
     26 ****        -3.9966   0.6944   0.4878 C.3            1 S1                 0.0000
     27 ****        -2.9733   0.0688   1.4458 C.3            1 S1                 0.0000
     28 ****        -4.0454   0.9515  -1.9508 O.3            1 S1                 0.0000
     29 ****        -4.0056  -1.7003  -4.0008 H              1 S1                 0.0000
     30 ****        -4.2007  -0.0029  -4.4358 H              1 S1                 0.0000
     31 ****        -5.4030  -0.7982  -3.4227 H              1 S1                 0.0000
     32 ****        -3.7334  -1.0692  -1.6077 H              1 S1                 0.0000
     33 ****        -1.6600  -1.1910  -2.9375 H              1 S1                 0.0000
     34 ****        -1.8596   0.4742  -3.4710 H              1 S1                 0.0000
     35 ****         2.4869  -0.1724  -3.5441 H              1 S1                 0.0000
     36 ****         1.6578   0.4651   2.8088 H              1 S1                 0.0000
     37 ****         4.6753   0.6331   0.5438 H              1 S1                 0.0000
     38 ****         4.1897   0.7995   2.2112 H              1 S1                 0.0000
     39 ****         4.7524  -2.9240   0.6412 H              1 S1                 0.0000
     40 ****         6.7468  -1.3172   1.1995 H              1 S1                 0.0000
     41 ****         6.2881  -0.4056   2.6360 H              1 S1                 0.0000
     42 ****         6.1497  -3.4338   2.3261 H              1 S1                 0.0000
     43 ****         6.9867  -2.5172   3.5886 H              1 S1                 0.0000
     44 ****         3.2492  -1.3015   3.3671 H              1 S1                 0.0000
     45 ****         3.2487  -2.8004   2.4492 H              1 S1                 0.0000
     46 ****        -1.4208   1.8269  -0.0177 H              1 S1                 0.0000
     47 ****        -1.6635   2.2919  -1.6768 H              1 S1                 0.0000
     48 ****        -3.3006   3.4761   0.0042 H              1 S1                 0.0000
     49 ****        -4.2352   3.3726  -1.4853 H              1 S1                 0.0000
     50 ****        -5.5706   3.5227   0.8272 H              1 S1                 0.0000
     51 ****        -6.0637   2.2253  -0.2770 H              1 S1                 0.0000
     52 ****        -4.6920  -0.0815   0.1665 H              1 S1                 0.0000
     53 ****        -2.3679  -0.6870   0.9459 H              1 S1                 0.0000
     54 ****        -3.4774  -0.4199   2.2796 H              1 S1                 0.0000
     55 ****        -2.3075   0.8224   1.8657 H              1 S1                 0.0000
     56 ****        -1.5945  -0.4408  -0.7736 LP             1 S1                 0.0000
     57 ****         0.1900  -0.0367  -3.4541 LP             1 S1                 0.0000
     58 ****         3.8456  -0.0581  -1.6059 LP             1 S1                 0.0000
     59 ****        -0.4820   0.4596   1.5298 LP             1 S1                 0.0000
     60 ****         4.9767  -1.6563  -0.2930 LP             1 S1                 0.0000
     61 ****         3.4770  -2.0888   0.1872 LP             1 S1                 0.0000
     62 ****         5.0083  -1.8457   4.4288 LP             1 S1                 0.0000
     63 ****         4.6637  -3.3761   3.9753 LP             1 S1                 0.0000
     64 ****        -5.5455   1.1840   1.6505 LP             1 S1                 0.0000
     65 ****        -4.2017   2.0719   1.9199 LP             1 S1                 0.0000
     66 ****        -5.0291   0.8686  -1.7911 LP             1 S1                 0.0000
     67 ****        -3.8812   1.6111  -2.6843 LP             1 S1                 0.0000
@<TRIPOS>BOND
    1    1    2 1     
    2    1   29 1     
    3    1   30 1     
    4    1   31 1     
    5    2   28 1     
    6    2    3 1     
    7    2   32 1     
    8    3    4 1     
    9    3   33 1     
   10    3   34 1     
   11    4    5 1     
   12    4   21 1     
   13    5   10 ar    
   14    5    6 ar    
   15    6    7 ar    
   16    7    8 ar    
   17    7   35 1     
   18    8    9 ar    
   19    9   13 1     
   20    9   10 ar    
   21   10   11 1     
   22   11   12 2     
   23   12   13 1     
   24   12   36 1     
   25   13   14 1     
   26   14   15 1     
   27   14   37 1     
   28   14   38 1     
   29   15   20 1     
   30   15   16 1     
   31   15   17 1     
   32   16   39 1     
   33   17   18 1     
   34   17   40 1     
   35   17   41 1     
   36   18   19 1     
   37   18   42 1     
   38   18   43 1     
   39   19   20 1     
   40   20   44 1     
   41   20   45 1     
   42   21   22 1     
   43   21   46 1     
   44   21   47 1     
   45   22   26 1     
   46   22   23 1     
   47   22   28 1     
   48   23   24 1     
   49   23   48 1     
   50   23   49 1     
   51   24   25 1     
   52   24   50 1     
   53   24   51 1     
   54   25   26 1     
   55   26   27 1     
   56   26   52 1     
   57   27   53 1     
   58   27   54 1     
   59   27   55 1     
   60    4   56 1     
   61    6   57 1     
   62    8   58 1     
   63   11   59 1     
   64   16   60 1     
   65   16   61 1     
   66   19   62 1     
   67   19   63 1     
   68   25   64 1     
   69   25   65 1     
   70   28   66 1     
   71   28   67 1     
@<TRIPOS>SUBSTRUCTURE
      1 S1             1
@<TRIPOS>SET
LONE_PAIRS      STATIC     ATOMS    <user>   **** ""
12 56 57 58 59 60 61 62 63 64 65 66 67
DONOR_HYDROGENS      STATIC     ATOMS    <user>   **** ""
1 39
ATOM$BLUE        STATIC     ATOMS    COLORGROUP SYSTEM
12 56 57 58 59 60 61 62 63 64 65 66 67
ATOM$RED        STATIC     ATOMS    COLORGROUP SYSTEM
1 39
