#       Name:                AV-unprocessed.smi:174
#       Creating user name   scv26
#       Creation time:       Thu Mar 26 19:19:48 2020


#       File generated by GOLD software.
#

@<TRIPOS>MOLECULE
AV-unprocessed.smi:174
    62    65     1
SMALL
NO_CHARGES


@<TRIPOS>ATOM
      1 ****        -7.3005   1.8108  -0.7980 N.am           1 S1                 0.0000
      2 ****        -7.8204   0.6639  -0.3475 C.2            1 S1                 0.0000
      3 ****        -9.0151   0.4074  -0.4761 O.2            1 S1                 0.0000
      4 ****        -6.8983  -0.3558   0.3441 C.3            1 S1                 0.0000
      5 ****        -5.4934   0.0654   0.4881 N.am           1 S1                 0.0000
      6 ****        -4.5808  -0.3081  -0.5981 C.3            1 S1                 0.0000
      7 ****        -3.1559  -0.5583  -0.0947 C.3            1 S1                 0.0000
      8 ****        -2.6865   0.5842   0.6793 N.pl3          1 S1                 0.0000
      9 ****        -1.3506   0.7842   0.8594 C.ar           1 S1                 0.0000
     10 ****        -0.9490   2.0163   1.2722 N.ar           1 S1                 0.0000
     11 ****         0.3446   2.2879   1.4619 C.ar           1 S1                 0.0000
     12 ****         1.3963   1.4848   1.3022 N.ar           1 S1                 0.0000
     13 ****         1.0085   0.2428   0.8966 C.ar           1 S1                 0.0000
     14 ****        -0.3274  -0.1932   0.6536 C.ar           1 S1                 0.0000
     15 ****        -0.3098  -1.5314   0.2693 N.2            1 S1                 0.0000
     16 ****         0.9532  -1.8578   0.2697 C.2            1 S1                 0.0000
     17 ****         1.8140  -0.8501   0.6341 N.pl3          1 S1                 0.0000
     18 ****         3.2612  -0.9293   0.7215 C.3            1 S1                 0.0000
     19 ****         3.9565  -0.2892  -0.4953 C.3            1 S1                 0.0000
     20 ****         3.5506  -0.9256  -1.6926 O.3            1 S1                 0.0000
     21 ****         5.4937  -0.2863  -0.3715 C.3            1 S1                 0.0000
     22 ****         6.2736   0.2780  -1.5619 C.3            1 S1                 0.0000
     23 ****         7.6221  -0.3784  -1.3665 C.3            1 S1                 0.0000
     24 ****         7.2238  -1.7680  -0.8747 C.3            1 S1                 0.0000
     25 ****         6.0164  -1.5919  -0.1378 O.3            1 S1                 0.0000
     26 ****        -3.5952   1.2074   1.6554 C.3            1 S1                 0.0000
     27 ****        -5.0793   0.8107   1.5420 C.2            1 S1                 0.0000
     28 ****        -5.8452   1.1850   2.4302 O.2            1 S1                 0.0000
     29 ****        -7.8988   2.4893  -1.2466 H              1 S1                 0.0000
     30 ****        -6.3152   1.9981  -0.6824 H              1 S1                 0.0000
     31 ****        -7.3226  -0.5954   1.3208 H              1 S1                 0.0000
     32 ****        -6.9509  -1.2885  -0.2182 H              1 S1                 0.0000
     33 ****        -4.9349  -1.1973  -1.1204 H              1 S1                 0.0000
     34 ****        -4.5761   0.4989  -1.3321 H              1 S1                 0.0000
     35 ****        -3.1254  -1.4549   0.5264 H              1 S1                 0.0000
     36 ****        -2.5135  -0.7292  -0.9592 H              1 S1                 0.0000
     37 ****         0.5681   3.2929   1.7880 H              1 S1                 0.0000
     38 ****         1.2938  -2.8471   0.0005 H              1 S1                 0.0000
     39 ****         3.5750  -0.4328   1.6405 H              1 S1                 0.0000
     40 ****         3.5466  -1.9775   0.8196 H              1 S1                 0.0000
     41 ****         3.6299   0.7487  -0.5724 H              1 S1                 0.0000
     42 ****         3.9559  -0.4801  -2.4207 H              1 S1                 0.0000
     43 ****         5.7629   0.3015   0.5077 H              1 S1                 0.0000
     44 ****         5.8474  -0.0427  -2.5129 H              1 S1                 0.0000
     45 ****         6.3225   1.3672  -1.5596 H              1 S1                 0.0000
     46 ****         8.2247  -0.4041  -2.2748 H              1 S1                 0.0000
     47 ****         8.1871   0.1464  -0.5948 H              1 S1                 0.0000
     48 ****         7.0183  -2.4244  -1.7214 H              1 S1                 0.0000
     49 ****         7.9995  -2.2332  -0.2658 H              1 S1                 0.0000
     50 ****        -3.2545   0.9689   2.6644 H              1 S1                 0.0000
     51 ****        -3.5486   2.2922   1.5503 H              1 S1                 0.0000
     52 ****        -9.6216   1.0630  -0.9259 LP             1 S1                 0.0000
     53 ****        -9.3808  -0.4570  -0.1311 LP             1 S1                 0.0000
     54 ****        -1.6316   2.7284   1.4358 LP             1 S1                 0.0000
     55 ****         2.3454   1.7577   1.4593 LP             1 S1                 0.0000
     56 ****        -1.0913  -2.1129   0.0433 LP             1 S1                 0.0000
     57 ****         2.5556  -0.8780  -1.7795 LP             1 S1                 0.0000
     58 ****         3.8387  -1.8832  -1.6802 LP             1 S1                 0.0000
     59 ****         5.3468  -2.2748  -0.4299 LP             1 S1                 0.0000
     60 ****         6.2037  -1.7048   0.8380 LP             1 S1                 0.0000
     61 ****        -6.8140   0.9402   2.3910 LP             1 S1                 0.0000
     62 ****        -5.4985   1.7338   3.1908 LP             1 S1                 0.0000
@<TRIPOS>BOND
    1    1    2 am    
    2    1   29 1     
    3    1   30 1     
    4    2    3 2     
    5    2    4 1     
    6    4    5 1     
    7    4   31 1     
    8    4   32 1     
    9    5   27 am    
   10    5    6 1     
   11    6    7 1     
   12    6   33 1     
   13    6   34 1     
   14    7    8 1     
   15    7   35 1     
   16    7   36 1     
   17    8    9 1     
   18    8   26 1     
   19    9   14 ar    
   20    9   10 ar    
   21   10   11 ar    
   22   11   12 ar    
   23   11   37 1     
   24   12   13 ar    
   25   13   17 1     
   26   13   14 ar    
   27   14   15 1     
   28   15   16 2     
   29   16   17 1     
   30   16   38 1     
   31   17   18 1     
   32   18   19 1     
   33   18   39 1     
   34   18   40 1     
   35   19   20 1     
   36   19   21 1     
   37   19   41 1     
   38   20   42 1     
   39   21   25 1     
   40   21   22 1     
   41   21   43 1     
   42   22   23 1     
   43   22   44 1     
   44   22   45 1     
   45   23   24 1     
   46   23   46 1     
   47   23   47 1     
   48   24   25 1     
   49   24   48 1     
   50   24   49 1     
   51   26   27 1     
   52   26   50 1     
   53   26   51 1     
   54   27   28 2     
   55    3   52 1     
   56    3   53 1     
   57   10   54 1     
   58   12   55 1     
   59   15   56 1     
   60   20   57 1     
   61   20   58 1     
   62   25   59 1     
   63   25   60 1     
   64   28   61 1     
   65   28   62 1     
@<TRIPOS>SUBSTRUCTURE
      1 S1             1
@<TRIPOS>SET
LONE_PAIRS      STATIC     ATOMS    <user>   **** ""
11 52 53 54 55 56 57 58 59 60 61 62
DONOR_HYDROGENS      STATIC     ATOMS    <user>   **** ""
3 29 30 42
ATOM$BLUE        STATIC     ATOMS    COLORGROUP SYSTEM
11 52 53 54 55 56 57 58 59 60 61 62
ATOM$RED        STATIC     ATOMS    COLORGROUP SYSTEM
3 29 30 42
