AV-unprocessed.smi:499|AV-procd|sdf|2732|dock6
  -GOLD-   2262023183D 1   1.00000     0.00000
 Structure written by MMmdl.
 36 37  0  0  0  0  0  0  0  0  1 V2000
  151.9603  138.3547  158.6997 C   0  0  0  0  0  0  0  0  0  0  0  0
  150.8359  138.4757  157.6514 C   0  0  1  0  0  0  0  0  0  0  0  0
  151.1303  137.5700  156.5209 C   0  0  0  0  0  0  0  0  0  0  0  0
  151.3610  136.8601  155.6359 N   0  0  0  0  0  0  0  0  0  0  0  0
  149.5568  138.1257  158.2747 N   0  0  0  0  0  0  0  0  0  0  0  0
  149.2420  136.9822  158.9060 C   0  0  0  0  0  0  0  0  0  0  0  0
  150.0283  136.0442  159.0425 O   0  0  0  0  0  0  0  0  0  0  0  0
  147.8088  136.8950  159.4506 C   0  0  0  0  0  0  0  0  0  0  0  0
  147.6330  135.8516  160.4752 N   0  0  0  0  0  0  0  0  0  0  0  0
  147.6963  134.5120  160.0434 C   0  0  0  0  0  0  0  0  0  0  0  0
  147.5691  133.4650  160.8812 C   0  0  0  0  0  0  0  0  0  0  0  0
  147.5884  132.0292  160.3807 C   0  0  0  0  0  0  0  0  0  0  0  0
  146.3791  131.4756  160.4720 F   0  0  0  0  0  0  0  0  0  0  0  0
  147.9831  131.9654  159.1083 F   0  0  0  0  0  0  0  0  0  0  0  0
  148.4321  131.3050  161.1143 F   0  0  0  0  0  0  0  0  0  0  0  0
  147.3249  133.7800  162.2749 C   0  0  0  0  0  0  0  0  0  0  0  0
  147.2566  135.0555  162.7037 C   0  0  0  0  0  0  0  0  0  0  0  0
  147.4221  136.1836  161.7843 C   0  0  0  0  0  0  0  0  0  0  0  0
  147.3734  137.3533  162.1656 O   0  0  0  0  0  0  0  0  0  0  0  0
  150.7958  139.9185  157.1514 C   0  0  0  0  0  0  0  0  0  0  0  0
  150.2094  141.0524  157.9630 C   0  0  0  0  0  0  0  0  0  0  0  0
  149.5158  140.5873  156.7015 C   0  0  0  0  0  0  0  0  0  0  0  0
  152.9211  138.6525  158.2784 H   0  0  0  0  0  0  0  0  0  0  0  0
  152.0734  137.3321  159.0608 H   0  0  0  0  0  0  0  0  0  0  0  0
  151.7694  138.9915  159.5643 H   0  0  0  0  0  0  0  0  0  0  0  0
  148.8340  138.8280  158.2147 H   0  0  0  0  0  0  0  0  0  0  0  0
  147.5185  137.8683  159.8511 H   0  0  0  0  0  0  0  0  0  0  0  0
  147.1353  136.7218  158.6101 H   0  0  0  0  0  0  0  0  0  0  0  0
  147.8596  134.3897  158.9825 H   0  0  0  0  0  0  0  0  0  0  0  0
  147.2000  132.9790  162.9886 H   0  0  0  0  0  0  0  0  0  0  0  0
  147.0767  135.2529  163.7504 H   0  0  0  0  0  0  0  0  0  0  0  0
  151.6759  140.1818  156.5669 H   0  0  0  0  0  0  0  0  0  0  0  0
  149.7344  140.8184  158.9135 H   0  0  0  0  0  0  0  0  0  0  0  0
  150.7251  142.0098  157.9281 H   0  0  0  0  0  0  0  0  0  0  0  0
  149.5704  141.2365  155.8300 H   0  0  0  0  0  0  0  0  0  0  0  0
  148.5814  140.0412  156.8131 H   0  0  0  0  0  0  0  0  0  0  0  0
  1  2  1  0  0  0  0
  1 23  1  0  0  0  0
  1 24  1  0  0  0  0
  1 25  1  0  0  0  0
  2  3  1  0  0  0  0
  2  5  1  0  0  0  0
  2 20  1  0  0  0  0
  3  4  3  0  0  0  0
  5  6  1  0  0  0  0
  5 26  1  0  0  0  0
  6  7  2  0  0  0  0
  6  8  1  0  0  0  0
  8  9  1  0  0  0  0
  8 27  1  0  0  0  0
  8 28  1  0  0  0  0
  9 18  1  0  0  0  0
  9 10  1  0  0  0  0
 10 11  2  0  0  0  0
 10 29  1  0  0  0  0
 11 12  1  0  0  0  0
 11 16  1  0  0  0  0
 12 13  1  0  0  0  0
 12 14  1  0  0  0  0
 12 15  1  0  0  0  0
 16 17  2  0  0  0  0
 16 30  1  0  0  0  0
 17 18  1  0  0  0  0
 17 31  1  0  0  0  0
 18 19  2  0  0  0  0
 20 22  1  0  0  0  0
 20 21  1  0  0  0  0
 20 32  1  0  0  0  0
 21 22  1  0  0  0  0
 21 33  1  0  0  0  0
 21 34  1  0  0  0  0
 22 35  1  0  0  0  0
 22 36  1  0  0  0  0
M  END
> <s_m_source_file>
AV-unprocessed.smi

> <i_m_source_file_index>
499

> <i_lp_mmshare_version>
43012

> <i_f3d_flags>
0

> <s_epik_input>
W0NIMl0xW0NIMl1bQ0hdMVtDQF0oW0NIM10pKEMjTilbTkhdQyg9TylbQ0gyXW4yW2NIXWMoQyhGKShGKUYpW2NIXVtjSF1jMj1P

> <s_epik_cmdline>
J2VwaWtfcHl0aG9uJywgJy1waCcsICc3LjAnLCAnLXRuJywgJzgnLCAnLW1hJywgJzIwMCcsICctbWV0YWxfYmluZGluZycsICctaW1hZScsICc8aW5maWxlLm1hZT4nLCAnLW9tYWUnLCAnPG91dGZpbGUubWFlPic=

> <r_lp_tautomer_probability>
1

> <r_epik_Ionization_Penalty>
4.79953e-07

> <r_epik_Ionization_Penalty_Charging>
1.46911e-08

> <r_epik_Ionization_Penalty_Neutral>
4.65262e-07

> <r_epik_State_Penalty>
-0

> <r_epik_Charging_Adjusted_Penalty>
1.46911e-08

> <i_epik_Tot_Q>
0

> <i_epik_Tot_abs_Q>
0

> <r_epik_Metal_State_Penalty>
-0

> <b_epik_Metal_Only>
0

> <s_lp_Force_Field>
OPLS_2005

> <r_lp_Energy>
24.0499

> <b_lp_Chiralities_Consistent>
1

> <s_lp_Variant>
AV-unprocessed.smi:499-1

> <Gold.Version>
5.8.1

> <Gold.Id.Protein>
6NUR|6NUR_protein|mol2

> <Gold.PLP.Fitness>
42.8260

> <Gold.PLP.PLP>
-34.5644

> <Gold.PLP.part.hbond>
-3.8224

> <Gold.PLP.part.metal>
0.0000

> <Gold.PLP.part.buried>
-4.4605

> <Gold.PLP.part.nonpolar>
-26.2871

> <Gold.PLP.part.repulsive>
0.1577

> <Gold.PLP.ligand.clash>
0.7990

> <Gold.PLP.ligand.torsion>
1.3981

> <Gold.PLP.Chemscore.Hbond>
3.4080

> <Gold.PLP.Chemscore.CHOScore>
0.0000

> <Gold.PLP.Chemscore.Metal>
0.0000

> <Gold.Chemscore.Hbonds>
donor molecule, donor type, donor heavy atom, donor atom, acceptor molecule, acceptor atom, score
      P1  H  6896  6908       L1     7  1.00
      P1  H  6931  6943       L1    19  0.78
      P1  H  6934  6947       L1    19  0.57
      P1  H 10752 10764       L1     4  0.28

> <Gold.PLP.Chemscore.Internal.Correction>
1.6328

> <Gold.Rescore>
     Score         DG    S(hbond)    S(metal)    S(lipo)     H(rot)  DE(clash)    DE(int)     intcor
     16.70     -18.75       3.62        0.00      51.89       1.90       0.02       2.04       ----

> <Gold.Chemscore.Fitness>
16.6954

> <Gold.Chemscore.DG>
-18.7541

> <Gold.Chemscore.ZeroCoef>
-5.4800

> <Gold.Chemscore.Hbond>
3.6153

> <Gold.Chemscore.Metal>
0.0000

> <Gold.Chemscore.Lipo>
51.8865

> <Gold.Chemscore.Internal_Hbond>
0.0000

> <Gold.Chemscore.DEClash>
0.0202

> <Gold.Chemscore.DEInternal>
2.0384

> <Gold.Chemscore.Rot>
1.9030

> <Gold.Chemscore.Internal.Correction>
   9.000000E+99

> <Gold.Chemscore.Hbonds>
donor molecule, donor type, donor heavy atom, donor atom, acceptor molecule, acceptor atom, score
      P1  H  6896  6908       L1     7  0.97
      P1  H  6931  6943       L1    19  0.66
      P1  H  6934  6947       L1    19  0.54
      P1  H 10752 10764       L1     4  0.28

> <Gold.Chemscore.Hbond.Weighted>
-12.0752

> <Gold.Chemscore.Metal.Weighted>
-0.0000

> <Gold.Chemscore.Lipo.Weighted>
-6.0707

> <Gold.Chemscore.Internal_Hbond.Weighted>
0.0000

> <Gold.Chemscore.DEClash.Weighted>
0.0202

> <Gold.Chemscore.DEInternal.Weighted>
2.0384

> <Gold.Chemscore.Rot.Weighted>
4.8718

> <Gold.Chemscore.Internal.Correction.Weighted>
   9.000000E+99

> <Gold.Protein.RotatedTorsions>
[ 6907 6896 6895 6894 ] final  176.14 input  -60.11 | X-H torsion
[ 7974 7965 7964 7962 ] final  -85.92 input  175.53 | X-H torsion
[ 8008 7997 7996 7995 ] final    8.59 input   59.86 | X-H torsion
[ 10167 10162 10161 10158 ] final   32.12 input  -65.29 | X-H torsion
[ 10718 10713 10712 10709 ] final   84.64 input   66.30 | X-H torsion
[ 10763 10752 10751 10750 ] final  -30.21 input  -60.55 | X-H torsion
[ 11005 11000 10999 10996 ] final  -90.41 input  -57.11 | X-H torsion

> <Gold.Protein.ActiveResidues>
 VAL166  LYS551  ARG553  GLY616  TRP617  ASP618  TYR619  PRO620  LYS621  CYS622 
 ASP623  PHE694  ASN695  SER759  ASP760  ASP761  ALA762  ILE779  LEU786  VAL792 
 PHE793  MET794  SER795  GLU796  ALA797  LYS798  CYS799  TRP800  GLU811  SER814 

> <Gold.Protein.RotatedAtoms>
  151.7250  133.3315  159.3324 H   0  0  0  0  0  0  0  0  0  0  0  0  # atno 6907 bound_to 6896
  150.7637  134.6414  159.6248 H   0  0  0  0  0  0  0  0  0  0  0  0  # atno 6908 bound_to 6896
  152.3628  134.6850  160.0253 H   0  0  0  0  0  0  0  0  0  0  0  0  # atno 6909 bound_to 6896
  145.4868  140.9554  143.1834 H   0  0  0  0  0  0  0  0  0  0  0  0  # atno 7974 bound_to 7965
  154.7688  140.2798  155.6154 H   0  0  0  0  0  0  0  0  0  0  0  0  # atno 8008 bound_to 7997
  156.2930  140.2645  156.2413 H   0  0  0  0  0  0  0  0  0  0  0  0  # atno 8009 bound_to 7997
  154.9925  140.0373  157.2315 H   0  0  0  0  0  0  0  0  0  0  0  0  # atno 8010 bound_to 7997
  140.4528  144.1023  150.6195 H   0  0  0  0  0  0  0  0  0  0  0  0  # atno 10167 bound_to 10162
  157.6901  131.0142  150.2703 H   0  0  0  0  0  0  0  0  0  0  0  0  # atno 10718 bound_to 10713
  153.7772  135.6908  153.4895 H   0  0  0  0  0  0  0  0  0  0  0  0  # atno 10763 bound_to 10752
  153.1835  135.4497  155.0057 H   0  0  0  0  0  0  0  0  0  0  0  0  # atno 10764 bound_to 10752
  154.8095  135.3371  154.7278 H   0  0  0  0  0  0  0  0  0  0  0  0  # atno 10765 bound_to 10752
  141.1566  133.7690  156.9733 H   0  0  0  0  0  0  0  0  0  0  0  0  # atno 11005 bound_to 11000
  144.7857  139.6432  143.7135 LP  0  0  0  0  0  0  0  0  0  0  0  0  # atno 17320 bound_to 7965
  146.2308  139.5810  142.9556 LP  0  0  0  0  0  0  0  0  0  0  0  0  # atno 17321 bound_to 7965
  140.4187  143.2622  151.9742 LP  0  0  0  0  0  0  0  0  0  0  0  0  # atno 17342 bound_to 10162
  139.4798  144.5850  151.7868 LP  0  0  0  0  0  0  0  0  0  0  0  0  # atno 17343 bound_to 10162
  156.3267  130.3794  149.7527 LP  0  0  0  0  0  0  0  0  0  0  0  0  # atno 17370 bound_to 10713
  156.5080  130.8159  151.3158 LP  0  0  0  0  0  0  0  0  0  0  0  0  # atno 17371 bound_to 10713
  140.1115  134.9474  157.2072 LP  0  0  0  0  0  0  0  0  0  0  0  0  # atno 17394 bound_to 11000
  140.3188  134.2940  155.7250 LP  0  0  0  0  0  0  0  0  0  0  0  0  # atno 17395 bound_to 11000

$$$$
