AV-unprocessed.smi:2197|AV-procd|sdf|8909|dock8
  -GOLD-   2272012123D 1   1.00000     0.00000
 Structure written by MMmdl.
 28 28  0  0  0  0  0  0  0  0  1 V2000
  151.8043  145.3767  160.0727 C   0  0  0  0  0  0  0  0  0  0  0  0
  151.5299  144.7652  158.6948 C   0  0  0  0  0  0  0  0  0  0  0  0
  150.5039  143.6219  158.7519 C   0  0  0  0  0  0  0  0  0  0  0  0
  150.2989  143.0234  157.4381 N   0  0  0  0  0  0  0  0  0  0  0  0
  150.6256  141.7657  157.1037 C   0  0  0  0  0  0  0  0  0  0  0  0
  151.1177  140.9632  157.8984 O   0  0  0  0  0  0  0  0  0  0  0  0
  150.3331  141.3550  155.6531 C   0  0  0  0  0  0  0  0  0  0  0  0
  150.5184  139.9162  155.4137 N   0  0  0  0  0  0  0  0  0  0  0  0
  149.4708  139.1450  154.9305 C   0  0  0  0  0  0  0  0  0  0  0  0
  149.5703  137.8149  154.6965 C   0  0  0  0  0  0  0  0  0  0  0  0
  150.8230  137.1116  154.9507 C   0  0  0  0  0  0  0  0  0  0  0  0
  151.0122  135.9110  154.7688 O   0  0  0  0  0  0  0  0  0  0  0  0
  151.8522  137.9211  155.4387 N   0  0  0  0  0  0  0  0  0  0  0  0
  151.7563  139.2921  155.6828 C   0  0  0  0  0  0  0  0  0  0  0  0
  152.7264  139.9121  156.1170 O   0  0  0  0  0  0  0  0  0  0  0  0
  152.7381  137.4776  155.6330 H   0  0  0  0  0  0  0  0  0  0  0  0
  152.5281  146.1887  159.9999 H   0  0  0  0  0  0  0  0  0  0  0  0
  152.2074  144.6325  160.7598 H   0  0  0  0  0  0  0  0  0  0  0  0
  150.8926  145.7818  160.5122 H   0  0  0  0  0  0  0  0  0  0  0  0
  151.1722  145.5445  158.0209 H   0  0  0  0  0  0  0  0  0  0  0  0
  152.4683  144.4009  158.2741 H   0  0  0  0  0  0  0  0  0  0  0  0
  150.8168  142.8604  159.4686 H   0  0  0  0  0  0  0  0  0  0  0  0
  149.5442  144.0022  159.1028 H   0  0  0  0  0  0  0  0  0  0  0  0
  149.8926  143.6133  156.7263 H   0  0  0  0  0  0  0  0  0  0  0  0
  149.3097  141.6509  155.4181 H   0  0  0  0  0  0  0  0  0  0  0  0
  150.9634  141.9296  154.9708 H   0  0  0  0  0  0  0  0  0  0  0  0
  148.5218  139.6224  154.7315 H   0  0  0  0  0  0  0  0  0  0  0  0
  148.7177  137.2682  154.3202 H   0  0  0  0  0  0  0  0  0  0  0  0
  1  2  1  0  0  0  0
  1 17  1  0  0  0  0
  1 18  1  0  0  0  0
  1 19  1  0  0  0  0
  2  3  1  0  0  0  0
  2 20  1  0  0  0  0
  2 21  1  0  0  0  0
  3  4  1  0  0  0  0
  3 22  1  0  0  0  0
  3 23  1  0  0  0  0
  4  5  1  0  0  0  0
  4 24  1  0  0  0  0
  5  6  2  0  0  0  0
  5  7  1  0  0  0  0
  7  8  1  0  0  0  0
  7 25  1  0  0  0  0
  7 26  1  0  0  0  0
  8 14  1  0  0  0  0
  8  9  1  0  0  0  0
  9 10  2  0  0  0  0
  9 27  1  0  0  0  0
 10 11  1  0  0  0  0
 10 28  1  0  0  0  0
 11 12  2  0  0  0  0
 11 13  1  0  0  0  0
 13 16  1  0  0  0  0
 13 14  1  0  0  0  0
 14 15  2  0  0  0  0
M  END
> <s_m_source_file>
AV-unprocessed.smi

> <i_m_source_file_index>
2197

> <i_lp_mmshare_version>
43012

> <i_f3d_flags>
0

> <s_epik_input>
W0NIM11bQ0gyXVtDSDJdW05IXUMoPU8pW0NIMl1uMVtjSF1bY0hdYyg9TylbbkhdYzE9Tw==

> <s_epik_cmdline>
J2VwaWtfcHl0aG9uJywgJy1waCcsICc3LjAnLCAnLXRuJywgJzgnLCAnLW1hJywgJzIwMCcsICctbWV0YWxfYmluZGluZycsICctaW1hZScsICc8aW5maWxlLm1hZT4nLCAnLW9tYWUnLCAnPG91dGZpbGUubWFlPic=

> <r_lp_tautomer_probability>
0.999537

> <r_epik_Ionization_Penalty>
0.00328917

> <r_epik_Ionization_Penalty_Charging>
0.00328916

> <r_epik_Ionization_Penalty_Neutral>
1.81689e-08

> <r_epik_State_Penalty>
0.00232387

> <r_epik_Charging_Adjusted_Penalty>
0.00561303

> <i_epik_Tot_Q>
0

> <i_epik_Tot_abs_Q>
0

> <r_epik_Metal_State_Penalty>
0.365275

> <b_epik_Metal_Only>
0

> <s_lp_Force_Field>
OPLS_2005

> <r_lp_Energy>
1.80706

> <b_lp_Chiralities_Consistent>
1

> <s_lp_Variant>
AV-unprocessed.smi:2197-1

> <Gold.Version>
5.8.1

> <Gold.Id.Protein>
6NUR|6NUR_protein|mol2

> <Gold.PLP.Fitness>
38.9150

> <Gold.PLP.PLP>
-30.0950

> <Gold.PLP.part.hbond>
-3.0000

> <Gold.PLP.part.metal>
0.0000

> <Gold.PLP.part.buried>
-2.5620

> <Gold.PLP.part.nonpolar>
-24.3306

> <Gold.PLP.part.repulsive>
0.3287

> <Gold.PLP.ligand.clash>
0.0000

> <Gold.PLP.ligand.torsion>
0.0945

> <Gold.PLP.Chemscore.Hbond>
3.0000

> <Gold.PLP.Chemscore.CHOScore>
0.0000

> <Gold.PLP.Chemscore.Metal>
0.0000

> <Gold.Chemscore.Hbonds>
donor molecule, donor type, donor heavy atom, donor atom, acceptor molecule, acceptor atom, score
      L1  H     4    24       P1  8028  1.00
      P1  H  7997  8008       L1    15  1.00
      P1  H 10752 10765       L1    12  1.00

> <Gold.PLP.Chemscore.Internal.Correction>
0.0090

> <Gold.Rescore>
     Score         DG    S(hbond)    S(metal)    S(lipo)     H(rot)  DE(clash)    DE(int)     intcor
     11.63     -15.14       2.64        0.00      52.02       2.05       0.09       3.42       ----

> <Gold.Chemscore.Fitness>
11.6311

> <Gold.Chemscore.DG>
-15.1437

> <Gold.Chemscore.ZeroCoef>
-5.4800

> <Gold.Chemscore.Hbond>
2.6401

> <Gold.Chemscore.Metal>
0.0000

> <Gold.Chemscore.Lipo>
52.0210

> <Gold.Chemscore.Internal_Hbond>
0.0000

> <Gold.Chemscore.DEClash>
0.0904

> <Gold.Chemscore.DEInternal>
3.4222

> <Gold.Chemscore.Rot>
2.0471

> <Gold.Chemscore.Internal.Correction>
   9.000000E+99

> <Gold.Chemscore.Hbonds>
donor molecule, donor type, donor heavy atom, donor atom, acceptor molecule, acceptor atom, score
      L1  H     4    24       P1  8028  1.00
      P1  H  7997  8008       L1    15  0.99
      P1  H 10752 10765       L1    12  0.69

> <Gold.Chemscore.Hbond.Weighted>
-8.8178

> <Gold.Chemscore.Metal.Weighted>
-0.0000

> <Gold.Chemscore.Lipo.Weighted>
-6.0865

> <Gold.Chemscore.Internal_Hbond.Weighted>
0.0000

> <Gold.Chemscore.DEClash.Weighted>
0.0904

> <Gold.Chemscore.DEInternal.Weighted>
3.4222

> <Gold.Chemscore.Rot.Weighted>
5.2406

> <Gold.Chemscore.Internal.Correction.Weighted>
   9.000000E+99

> <Gold.Protein.RotatedTorsions>
[ 6907 6896 6895 6894 ] final -160.92 input  -60.11 | X-H torsion
[ 7974 7965 7964 7962 ] final   11.42 input  175.53 | X-H torsion
[ 8008 7997 7996 7995 ] final  -27.57 input   59.86 | X-H torsion
[ 10167 10162 10161 10158 ] final  166.12 input  -65.29 | X-H torsion
[ 10718 10713 10712 10709 ] final   26.45 input   66.30 | X-H torsion
[ 10763 10752 10751 10750 ] final -178.39 input  -60.55 | X-H torsion
[ 11005 11000 10999 10996 ] final  141.11 input  -57.11 | X-H torsion

> <Gold.Protein.ActiveResidues>
 VAL166  LYS551  ARG553  GLY616  TRP617  ASP618  TYR619  PRO620  LYS621  CYS622 
 ASP623  PHE694  ASN695  SER759  ASP760  ASP761  ALA762  ILE779  LEU786  VAL792 
 PHE793  MET794  SER795  GLU796  ALA797  LYS798  CYS799  TRP800  GLU811  SER814 

> <Gold.Protein.RotatedAtoms>
  151.3566  133.3905  159.2685 H   0  0  0  0  0  0  0  0  0  0  0  0  # atno 6907 bound_to 6896
  150.9758  134.9124  159.7826 H   0  0  0  0  0  0  0  0  0  0  0  0  # atno 6908 bound_to 6896
  152.5200  134.3529  159.9310 H   0  0  0  0  0  0  0  0  0  0  0  0  # atno 6909 bound_to 6896
  146.2371  139.9487  142.8473 H   0  0  0  0  0  0  0  0  0  0  0  0  # atno 7974 bound_to 7965
  154.4371  140.1868  156.0953 H   0  0  0  0  0  0  0  0  0  0  0  0  # atno 8008 bound_to 7997
  156.0334  140.3328  155.7138 H   0  0  0  0  0  0  0  0  0  0  0  0  # atno 8009 bound_to 7997
  155.5806  140.0621  157.2775 H   0  0  0  0  0  0  0  0  0  0  0  0  # atno 8010 bound_to 7997
  139.4918  144.4061  151.9354 H   0  0  0  0  0  0  0  0  0  0  0  0  # atno 10167 bound_to 10162
  157.2070  130.6916  149.6212 H   0  0  0  0  0  0  0  0  0  0  0  0  # atno 10718 bound_to 10713
  154.5483  135.2811  155.1032 H   0  0  0  0  0  0  0  0  0  0  0  0  # atno 10763 bound_to 10752
  154.2488  135.6343  153.5236 H   0  0  0  0  0  0  0  0  0  0  0  0  # atno 10764 bound_to 10752
  152.9996  135.5577  154.6042 H   0  0  0  0  0  0  0  0  0  0  0  0  # atno 10765 bound_to 10752
  140.0377  134.9320  157.0784 H   0  0  0  0  0  0  0  0  0  0  0  0  # atno 11005 bound_to 11000
  145.1882  140.9799  143.4226 LP  0  0  0  0  0  0  0  0  0  0  0  0  # atno 17320 bound_to 7965
  144.9881  139.3717  143.6229 LP  0  0  0  0  0  0  0  0  0  0  0  0  # atno 17321 bound_to 7965
  140.3501  144.3099  150.5951 LP  0  0  0  0  0  0  0  0  0  0  0  0  # atno 17342 bound_to 10162
  140.5492  143.2209  151.7955 LP  0  0  0  0  0  0  0  0  0  0  0  0  # atno 17343 bound_to 10162
  155.9694  130.4563  150.5922 LP  0  0  0  0  0  0  0  0  0  0  0  0  # atno 17370 bound_to 10713
  157.3710  131.0765  151.1558 LP  0  0  0  0  0  0  0  0  0  0  0  0  # atno 17371 bound_to 10713
  140.4120  134.1971  155.7163 LP  0  0  0  0  0  0  0  0  0  0  0  0  # atno 17394 bound_to 11000
  141.1866  133.8298  157.1061 LP  0  0  0  0  0  0  0  0  0  0  0  0  # atno 17395 bound_to 11000

$$$$
