AV-unprocessed.smi:2911|AV-procd|sdf|11180|dock1
  -GOLD-   2272016 73D 1   1.00000     0.00000
 Structure written by MMmdl.
 41 42  0  0  0  0  0  0  0  0  1 V2000
  153.7754  137.7201  156.6769 C   0  0  0  0  0  0  0  0  0  0  0  0
  152.9521  138.7597  155.9963 C   0  0  0  0  0  0  0  0  0  0  0  0
  153.4061  139.4112  154.9324 N   0  0  0  0  0  0  0  0  0  0  0  0
  152.3514  140.2771  154.6092 O   0  0  0  0  0  0  0  0  0  0  0  0
  151.3750  140.0234  155.5134 C   0  0  0  0  0  0  0  0  0  0  0  0
  150.1196  140.8276  155.4631 C   0  0  0  0  0  0  0  0  0  0  0  0
  149.7150  141.3695  156.8432 C   0  0  0  0  0  0  0  0  0  0  0  0
  150.8449  141.9855  157.5295 N   0  0  0  0  0  0  0  0  0  0  0  0
  150.7534  142.8058  158.5901 C   0  0  0  0  0  0  0  0  0  0  0  0
  149.6688  143.1632  159.0499 O   0  0  0  0  0  0  0  0  0  0  0  0
  151.9526  143.2798  159.0149 N   0  0  0  0  0  0  0  0  0  0  0  0
  153.1485  142.4182  159.0241 C   0  0  0  0  0  0  0  0  0  0  0  0
  153.2669  141.7401  160.4029 C   0  0  0  0  0  0  0  0  0  0  0  0
  153.3169  142.7815  161.5413 C   0  0  2  0  0  0  0  0  0  0  0  0
  153.3108  142.1129  162.9228 C   0  0  0  0  0  0  0  0  0  0  0  0
  152.1772  143.8147  161.4024 C   0  0  0  0  0  0  0  0  0  0  0  0
  152.1243  144.3938  159.9733 C   0  0  2  0  0  0  0  0  0  0  0  0
  151.1050  145.5453  159.8399 C   0  0  0  0  0  0  0  0  0  0  0  0
  151.7012  139.0984  156.4131 N   0  0  0  0  0  0  0  0  0  0  0  0
  154.8381  137.8945  156.5051 H   0  0  0  0  0  0  0  0  0  0  0  0
  153.5199  136.7311  156.2963 H   0  0  0  0  0  0  0  0  0  0  0  0
  153.5954  137.7346  157.7522 H   0  0  0  0  0  0  0  0  0  0  0  0
  150.2647  141.6476  154.7587 H   0  0  0  0  0  0  0  0  0  0  0  0
  149.3228  140.2037  155.0564 H   0  0  0  0  0  0  0  0  0  0  0  0
  148.9355  142.1236  156.7314 H   0  0  0  0  0  0  0  0  0  0  0  0
  149.2918  140.5734  157.4581 H   0  0  0  0  0  0  0  0  0  0  0  0
  151.7661  141.7717  157.1757 H   0  0  0  0  0  0  0  0  0  0  0  0
  153.1376  141.6554  158.2450 H   0  0  0  0  0  0  0  0  0  0  0  0
  154.0366  143.0193  158.8238 H   0  0  0  0  0  0  0  0  0  0  0  0
  152.4174  141.0715  160.5507 H   0  0  0  0  0  0  0  0  0  0  0  0
  154.1592  141.1137  160.4313 H   0  0  0  0  0  0  0  0  0  0  0  0
  154.2594  143.3224  161.4447 H   0  0  0  0  0  0  0  0  0  0  0  0
  152.3899  141.5529  163.0879 H   0  0  0  0  0  0  0  0  0  0  0  0
  153.3969  142.8541  163.7177 H   0  0  0  0  0  0  0  0  0  0  0  0
  154.1457  141.4193  163.0268 H   0  0  0  0  0  0  0  0  0  0  0  0
  151.2206  143.3495  161.6454 H   0  0  0  0  0  0  0  0  0  0  0  0
  152.3211  144.6185  162.1255 H   0  0  0  0  0  0  0  0  0  0  0  0
  153.0938  144.8481  159.7618 H   0  0  0  0  0  0  0  0  0  0  0  0
  151.4281  146.4080  160.4231 H   0  0  0  0  0  0  0  0  0  0  0  0
  150.1155  145.2740  160.2064 H   0  0  0  0  0  0  0  0  0  0  0  0
  151.0087  145.8713  158.8038 H   0  0  0  0  0  0  0  0  0  0  0  0
  1  2  1  0  0  0  0
  1 20  1  0  0  0  0
  1 21  1  0  0  0  0
  1 22  1  0  0  0  0
  2 19  1  0  0  0  0
  2  3  2  0  0  0  0
  3  4  1  0  0  0  0
  4  5  1  0  0  0  0
  5  6  1  0  0  0  0
  5 19  2  0  0  0  0
  6  7  1  0  0  0  0
  6 23  1  0  0  0  0
  6 24  1  0  0  0  0
  7  8  1  0  0  0  0
  7 25  1  0  0  0  0
  7 26  1  0  0  0  0
  8  9  1  0  0  0  0
  8 27  1  0  0  0  0
  9 10  2  0  0  0  0
  9 11  1  0  0  0  0
 11 17  1  0  0  0  0
 11 12  1  0  0  0  0
 12 13  1  0  0  0  0
 12 28  1  0  0  0  0
 12 29  1  0  0  0  0
 13 14  1  0  0  0  0
 13 30  1  0  0  0  0
 13 31  1  0  0  0  0
 14 15  1  0  0  0  0
 14 16  1  0  0  0  0
 14 32  1  0  0  0  0
 15 33  1  0  0  0  0
 15 34  1  0  0  0  0
 15 35  1  0  0  0  0
 16 17  1  0  0  0  0
 16 36  1  0  0  0  0
 16 37  1  0  0  0  0
 17 18  1  0  0  0  0
 17 38  1  0  0  0  0
 18 39  1  0  0  0  0
 18 40  1  0  0  0  0
 18 41  1  0  0  0  0
M  END
> <s_m_source_file>
AV-unprocessed.smi

> <i_m_source_file_index>
2911

> <i_lp_mmshare_version>
43012

> <i_f3d_flags>
0

> <s_epik_input>
W0NIM11jMW5vYyhuMSlbQ0gyXVtDSDJdW05IXUMoPU8pTjJbQ0gyXVtDSDJdW0NAQEhdKFtDSDNdKVtDSDJdW0NASF0yW0NIM10=

> <s_epik_cmdline>
J2VwaWtfcHl0aG9uJywgJy1waCcsICc3LjAnLCAnLXRuJywgJzgnLCAnLW1hJywgJzIwMCcsICctbWV0YWxfYmluZGluZycsICctaW1hZScsICc8aW5maWxlLm1hZT4nLCAnLW9tYWUnLCAnPG91dGZpbGUubWFlPic=

> <r_lp_tautomer_probability>
1

> <r_epik_Ionization_Penalty>
6.61671e-05

> <r_epik_Ionization_Penalty_Charging>
0

> <r_epik_Ionization_Penalty_Neutral>
6.61671e-05

> <r_epik_State_Penalty>
-0

> <r_epik_Charging_Adjusted_Penalty>
0

> <i_epik_Tot_Q>
0

> <i_epik_Tot_abs_Q>
0

> <r_epik_Metal_State_Penalty>
-0

> <b_epik_Metal_Only>
0

> <s_lp_Force_Field>
OPLS_2005

> <r_lp_Energy>
29.3819

> <b_lp_Chiralities_Consistent>
1

> <s_lp_Variant>
AV-unprocessed.smi:2911-4

> <Gold.Version>
5.8.1

> <Gold.Id.Protein>
6NUR|6NUR_protein|mol2

> <Gold.PLP.Fitness>
46.1747

> <Gold.PLP.PLP>
-41.6585

> <Gold.PLP.part.hbond>
-2.4842

> <Gold.PLP.part.metal>
0.0000

> <Gold.PLP.part.buried>
-6.0645

> <Gold.PLP.part.nonpolar>
-32.9038

> <Gold.PLP.part.repulsive>
0.2112

> <Gold.PLP.ligand.clash>
0.0000

> <Gold.PLP.ligand.torsion>
0.5895

> <Gold.PLP.Chemscore.Hbond>
1.7520

> <Gold.PLP.Chemscore.CHOScore>
0.0000

> <Gold.PLP.Chemscore.Metal>
0.0000

> <Gold.Chemscore.Hbonds>
donor molecule, donor type, donor heavy atom, donor atom, acceptor molecule, acceptor atom, score
      P1  H  7989  7998       L1     4  0.37
      P1  H  7997  8010       L1     3  0.40

> <Gold.PLP.Chemscore.Internal.Correction>
0.4392

> <Gold.Rescore>
     Score         DG    S(hbond)    S(metal)    S(lipo)     H(rot)  DE(clash)    DE(int)     intcor
     14.73     -16.48       1.25        0.00      93.52       1.61       0.05       1.70       ----

> <Gold.Chemscore.Fitness>
14.7332

> <Gold.Chemscore.DG>
-16.4828

> <Gold.Chemscore.ZeroCoef>
-5.4800

> <Gold.Chemscore.Hbond>
1.2513

> <Gold.Chemscore.Metal>
0.0000

> <Gold.Chemscore.Lipo>
93.5212

> <Gold.Chemscore.Internal_Hbond>
0.0000

> <Gold.Chemscore.DEClash>
0.0509

> <Gold.Chemscore.DEInternal>
1.6986

> <Gold.Chemscore.Rot>
1.6088

> <Gold.Chemscore.Internal.Correction>
   9.000000E+99

> <Gold.Chemscore.Hbonds>
donor molecule, donor type, donor heavy atom, donor atom, acceptor molecule, acceptor atom, score
      P1  H  7989  7998       L1     4  0.18
      P1  H  7997  8010       L1     3  0.01

> <Gold.Chemscore.Hbond.Weighted>
-4.1794

> <Gold.Chemscore.Metal.Weighted>
-0.0000

> <Gold.Chemscore.Lipo.Weighted>
-10.9420

> <Gold.Chemscore.Internal_Hbond.Weighted>
0.0000

> <Gold.Chemscore.DEClash.Weighted>
0.0509

> <Gold.Chemscore.DEInternal.Weighted>
1.6986

> <Gold.Chemscore.Rot.Weighted>
4.1186

> <Gold.Chemscore.Internal.Correction.Weighted>
   9.000000E+99

> <Gold.Protein.RotatedTorsions>
[ 6907 6896 6895 6894 ] final  101.89 input  -60.11 | X-H torsion
[ 7974 7965 7964 7962 ] final   59.90 input  175.53 | X-H torsion
[ 8008 7997 7996 7995 ] final  102.52 input   59.86 | X-H torsion
[ 10167 10162 10161 10158 ] final  -73.93 input  -65.29 | X-H torsion
[ 10718 10713 10712 10709 ] final   23.91 input   66.30 | X-H torsion
[ 10763 10752 10751 10750 ] final   77.72 input  -60.55 | X-H torsion
[ 11005 11000 10999 10996 ] final   42.97 input  -57.11 | X-H torsion

> <Gold.Protein.ActiveResidues>
 VAL166  LYS551  ARG553  GLY616  TRP617  ASP618  TYR619  PRO620  LYS621  CYS622 
 ASP623  PHE694  ASN695  SER759  ASP760  ASP761  ALA762  ILE779  LEU786  VAL792 
 PHE793  MET794  SER795  GLU796  ALA797  LYS798  CYS799  TRP800  GLU811  SER814 

> <Gold.Protein.RotatedAtoms>
  152.5338  134.0057  159.7915 H   0  0  0  0  0  0  0  0  0  0  0  0  # atno 6907 bound_to 6896
  151.0268  133.5818  159.2672 H   0  0  0  0  0  0  0  0  0  0  0  0  # atno 6908 bound_to 6896
  151.2838  135.0728  159.9232 H   0  0  0  0  0  0  0  0  0  0  0  0  # atno 6909 bound_to 6896
  145.9020  139.3589  143.0586 H   0  0  0  0  0  0  0  0  0  0  0  0  # atno 7974 bound_to 7965
  156.1400  140.3180  155.8481 H   0  0  0  0  0  0  0  0  0  0  0  0  # atno 8008 bound_to 7997
  155.4172  140.0510  157.3045 H   0  0  0  0  0  0  0  0  0  0  0  0  # atno 8009 bound_to 7997
  154.4968  140.2114  155.9441 H   0  0  0  0  0  0  0  0  0  0  0  0  # atno 8010 bound_to 7997
  140.5069  143.2351  151.7658 H   0  0  0  0  0  0  0  0  0  0  0  0  # atno 10167 bound_to 10162
  157.1726  130.6766  149.6083 H   0  0  0  0  0  0  0  0  0  0  0  0  # atno 10718 bound_to 10713
  153.0820  135.4904  154.8521 H   0  0  0  0  0  0  0  0  0  0  0  0  # atno 10763 bound_to 10752
  154.7162  135.3030  154.9122 H   0  0  0  0  0  0  0  0  0  0  0  0  # atno 10764 bound_to 10752
  153.9800  135.6791  153.4803 H   0  0  0  0  0  0  0  0  0  0  0  0  # atno 10765 bound_to 10752
  140.1689  134.4247  155.8269 H   0  0  0  0  0  0  0  0  0  0  0  0  # atno 11005 bound_to 11000
  145.8779  140.9381  143.0617 LP  0  0  0  0  0  0  0  0  0  0  0  0  # atno 17320 bound_to 7965
  144.6736  140.0740  143.7472 LP  0  0  0  0  0  0  0  0  0  0  0  0  # atno 17321 bound_to 7965
  139.4886  144.4444  151.9727 LP  0  0  0  0  0  0  0  0  0  0  0  0  # atno 17342 bound_to 10162
  140.3535  144.3060  150.5945 LP  0  0  0  0  0  0  0  0  0  0  0  0  # atno 17343 bound_to 10162
  155.9736  130.4674  150.6323 LP  0  0  0  0  0  0  0  0  0  0  0  0  # atno 17370 bound_to 10713
  157.4029  131.0812  151.1292 LP  0  0  0  0  0  0  0  0  0  0  0  0  # atno 17371 bound_to 10713
  141.2216  133.6947  156.7728 LP  0  0  0  0  0  0  0  0  0  0  0  0  # atno 17394 bound_to 11000
  140.2401  134.8620  157.3564 LP  0  0  0  0  0  0  0  0  0  0  0  0  # atno 17395 bound_to 11000

$$$$
