#       Name:                AV-unprocessed.smi:2432
#       Creating user name   scv26
#       Creation time:       Fri Mar 27 13:22:04 2020


#       File generated by GOLD software.
#

@<TRIPOS>MOLECULE
AV-unprocessed.smi:2432
    39    40     1
SMALL
NO_CHARGES


@<TRIPOS>ATOM
      1 ****        -4.3372  -3.1687  -1.1443 C.3            1 S1                 0.0000
      2 ****        -2.9547  -2.8584  -0.8147 N.am           1 S1                 0.0000
      3 ****        -2.5007  -1.6281  -0.5320 C.2            1 S1                 0.0000
      4 ****        -3.2296  -0.6353  -0.5190 O.2            1 S1                 0.0000
      5 ****        -1.0068  -1.5078  -0.1950 C.3            1 S1                 0.0000
      6 ****        -0.4676  -0.0728  -0.3947 C.3            1 S1                 0.0000
      7 ****         0.9810  -0.0161  -0.1784 N.pl3          1 S1                 0.0000
      8 ****         1.6122   1.1277   0.3295 C.ar           1 S1                 0.0000
      9 ****         2.9525   1.1550   0.3186 N.ar           1 S1                 0.0000
     10 ****         3.5662   2.2538   0.8078 C.ar           1 S1                 0.0000
     11 ****         2.8368   3.3448   1.3172 C.ar           1 S1                 0.0000
     12 ****         1.4342   3.2181   1.2858 C.ar           1 S1                 0.0000
     13 ****         0.5297   4.3186   1.7979 C.3            1 S1                 0.0000
     14 ****         0.8319   2.1143   0.7928 N.ar           1 S1                 0.0000
     15 ****         1.7116  -1.0297  -0.9420 C.3            1 S1                 0.0000
     16 ****         1.1088  -2.4234  -0.7098 C.3            1 S1                 0.0000
     17 ****        -0.2760  -2.4045  -1.0295 O.3            1 S1                 0.0000
     18 ****        -4.4430  -4.2364  -1.3368 H              1 S1                 0.0000
     19 ****        -4.6545  -2.6278  -2.0367 H              1 S1                 0.0000
     20 ****        -5.0013  -2.9027  -0.3208 H              1 S1                 0.0000
     21 ****        -2.2962  -3.6242  -0.8048 H              1 S1                 0.0000
     22 ****        -0.8824  -1.8062   0.8477 H              1 S1                 0.0000
     23 ****        -0.6788   0.2763  -1.4063 H              1 S1                 0.0000
     24 ****        -1.0003   0.5913   0.2858 H              1 S1                 0.0000
     25 ****         4.6460   2.2620   0.7919 H              1 S1                 0.0000
     26 ****         3.3271   4.2247   1.7070 H              1 S1                 0.0000
     27 ****         1.0461   4.9344   2.5348 H              1 S1                 0.0000
     28 ****        -0.3609   3.9017   2.2694 H              1 S1                 0.0000
     29 ****         0.2148   4.9593   0.9742 H              1 S1                 0.0000
     30 ****         1.6616  -0.7713  -2.0003 H              1 S1                 0.0000
     31 ****         2.7674  -1.0670  -0.6758 H              1 S1                 0.0000
     32 ****         1.6072  -3.1571  -1.3434 H              1 S1                 0.0000
     33 ****         1.2535  -2.7445   0.3232 H              1 S1                 0.0000
     34 ****        -4.2038  -0.7275  -0.7248 LP             1 S1                 0.0000
     35 ****        -2.8471   0.2630  -0.3026 LP             1 S1                 0.0000
     36 ****         3.4812   0.3858  -0.0405 LP             1 S1                 0.0000
     37 ****        -0.1648   2.0355   0.7740 LP             1 S1                 0.0000
     38 ****        -0.3832  -2.1187  -1.9818 LP             1 S1                 0.0000
     39 ****        -0.6461  -3.3263  -0.9144 LP             1 S1                 0.0000
@<TRIPOS>BOND
    1    1    2 1     
    2    1   18 1     
    3    1   19 1     
    4    1   20 1     
    5    2    3 am    
    6    2   21 1     
    7    3    4 2     
    8    3    5 1     
    9    5   17 1     
   10    5    6 1     
   11    5   22 1     
   12    6    7 1     
   13    6   23 1     
   14    6   24 1     
   15    7    8 1     
   16    7   15 1     
   17    8   14 ar    
   18    8    9 ar    
   19    9   10 ar    
   20   10   11 ar    
   21   10   25 1     
   22   11   12 ar    
   23   11   26 1     
   24   12   13 1     
   25   12   14 ar    
   26   13   27 1     
   27   13   28 1     
   28   13   29 1     
   29   15   16 1     
   30   15   30 1     
   31   15   31 1     
   32   16   17 1     
   33   16   32 1     
   34   16   33 1     
   35    4   34 1     
   36    4   35 1     
   37    9   36 1     
   38   14   37 1     
   39   17   38 1     
   40   17   39 1     
@<TRIPOS>SUBSTRUCTURE
      1 S1             1
@<TRIPOS>SET
LONE_PAIRS      STATIC     ATOMS    <user>   **** ""
6 34 35 36 37 38 39
DONOR_HYDROGENS      STATIC     ATOMS    <user>   **** ""
1 21
ATOM$BLUE        STATIC     ATOMS    COLORGROUP SYSTEM
6 34 35 36 37 38 39
ATOM$RED        STATIC     ATOMS    COLORGROUP SYSTEM
1 21
