AV-unprocessed.smi:2083|AV-procd|sdf|8492|dock9
  -GOLD-   2272011203D 1   1.00000     0.00000
 Structure written by MMmdl.
 45 46  0  0  0  0  0  0  0  0  2 V2000
  145.7326  134.3827  150.9046 C   0  0  0  0  0  0  0  0  0  0  0  0
  145.7109  135.4643  151.9299 C   0  0  0  0  0  0  0  0  0  0  0  0
  145.3294  136.7763  151.8919 C   0  0  0  0  0  0  0  0  0  0  0  0
  145.5773  137.2194  153.2184 C   0  0  0  0  0  0  0  0  0  0  0  0
  145.3101  138.5587  153.6011 N   0  0  0  0  0  0  0  0  0  0  0  0
  145.5978  139.1464  154.7749 C   0  0  0  0  0  0  0  0  0  0  0  0
  146.1533  138.5983  155.7276 O   0  0  0  0  0  0  0  0  0  0  0  0
  145.2031  140.4280  154.7911 N   0  0  0  0  0  0  0  0  0  0  0  0
  145.3954  141.3459  155.9105 C   0  0  0  0  0  0  0  0  0  0  0  0
  146.4312  142.4676  155.6135 C   0  0  2  0  0  0  0  0  0  0  0  0
  146.3383  142.9006  154.1326 C   0  0  0  0  0  0  0  0  0  0  0  0
  147.8476  142.1028  155.9493 N   0  3  2  0  0  0  0  0  0  0  0  0
  148.5606  141.2550  154.9492 C   0  0  0  0  0  0  0  0  0  0  0  0
  150.0409  141.0625  155.3192 C   0  0  0  0  0  0  0  0  0  0  0  0
  150.1979  140.4894  156.7320 C   0  0  0  0  0  0  0  0  0  0  0  0
  149.4302  141.3394  157.7573 C   0  0  1  0  0  0  0  0  0  0  0  0
  150.1129  142.6860  158.0559 C   0  0  0  0  0  0  0  0  0  0  0  0
  147.9637  141.5125  157.3154 C   0  0  0  0  0  0  0  0  0  0  0  0
  146.0628  136.2643  153.9965 N   0  0  0  0  0  0  0  0  0  0  0  0
  146.1513  135.1347  153.1744 O   0  0  0  0  0  0  0  0  0  0  0  0
  145.1956  134.6860  150.0058 H   0  0  0  0  0  0  0  0  0  0  0  0
  145.2639  133.4763  151.2878 H   0  0  0  0  0  0  0  0  0  0  0  0
  146.7570  134.1406  150.6214 H   0  0  0  0  0  0  0  0  0  0  0  0
  144.9396  137.3269  151.0487 H   0  0  0  0  0  0  0  0  0  0  0  0
  144.8586  139.1312  152.9034 H   0  0  0  0  0  0  0  0  0  0  0  0
  144.7516  140.7995  153.9675 H   0  0  0  0  0  0  0  0  0  0  0  0
  144.4175  141.7624  156.1563 H   0  0  0  0  0  0  0  0  0  0  0  0
  145.7148  140.7578  156.7717 H   0  0  0  0  0  0  0  0  0  0  0  0
  146.1627  143.3220  156.2370 H   0  0  0  0  0  0  0  0  0  0  0  0
  145.3350  143.2371  153.8719 H   0  0  0  0  0  0  0  0  0  0  0  0
  146.5913  142.0750  153.4667 H   0  0  0  0  0  0  0  0  0  0  0  0
  147.0033  143.7283  153.8929 H   0  0  0  0  0  0  0  0  0  0  0  0
  148.0605  140.2888  154.8638 H   0  0  0  0  0  0  0  0  0  0  0  0
  148.5467  141.7179  153.9635 H   0  0  0  0  0  0  0  0  0  0  0  0
  150.5183  140.3986  154.5979 H   0  0  0  0  0  0  0  0  0  0  0  0
  150.5642  142.0162  155.2446 H   0  0  0  0  0  0  0  0  0  0  0  0
  149.8110  139.4696  156.7477 H   0  0  0  0  0  0  0  0  0  0  0  0
  151.2527  140.4206  157.0004 H   0  0  0  0  0  0  0  0  0  0  0  0
  149.4245  140.7843  158.6964 H   0  0  0  0  0  0  0  0  0  0  0  0
  150.1444  143.3322  157.1787 H   0  0  0  0  0  0  0  0  0  0  0  0
  151.1381  142.5385  158.3964 H   0  0  0  0  0  0  0  0  0  0  0  0
  149.5831  143.2261  158.8413 H   0  0  0  0  0  0  0  0  0  0  0  0
  147.4472  142.1213  158.0552 H   0  0  0  0  0  0  0  0  0  0  0  0
  147.4643  140.5423  157.3218 H   0  0  0  0  0  0  0  0  0  0  0  0
  148.3557  142.9755  155.9679 H   0  0  0  0  0  0  0  0  0  0  0  0
  1  2  1  0  0  0  0
  1 21  1  0  0  0  0
  1 22  1  0  0  0  0
  1 23  1  0  0  0  0
  2 20  1  0  0  0  0
  2  3  2  0  0  0  0
  3  4  1  0  0  0  0
  3 24  1  0  0  0  0
  4  5  1  0  0  0  0
  4 19  2  0  0  0  0
  5  6  1  0  0  0  0
  5 25  1  0  0  0  0
  6  7  2  0  0  0  0
  6  8  1  0  0  0  0
  8  9  1  0  0  0  0
  8 26  1  0  0  0  0
  9 10  1  0  0  0  0
  9 27  1  0  0  0  0
  9 28  1  0  0  0  0
 10 11  1  0  0  0  0
 10 12  1  0  0  0  0
 10 29  1  0  0  0  0
 11 30  1  0  0  0  0
 11 31  1  0  0  0  0
 11 32  1  0  0  0  0
 12 18  1  0  0  0  0
 12 13  1  0  0  0  0
 12 45  1  0  0  0  0
 13 14  1  0  0  0  0
 13 33  1  0  0  0  0
 13 34  1  0  0  0  0
 14 15  1  0  0  0  0
 14 35  1  0  0  0  0
 14 36  1  0  0  0  0
 15 16  1  0  0  0  0
 15 37  1  0  0  0  0
 15 38  1  0  0  0  0
 16 17  1  0  0  0  0
 16 18  1  0  0  0  0
 16 39  1  0  0  0  0
 17 40  1  0  0  0  0
 17 41  1  0  0  0  0
 17 42  1  0  0  0  0
 18 43  1  0  0  0  0
 18 44  1  0  0  0  0
 19 20  1  0  0  0  0
M  CHG  1  12   1
M  END
> <s_m_source_file>
AV-unprocessed.smi

> <i_m_source_file_index>
2083

> <i_lp_mmshare_version>
43012

> <i_f3d_flags>
0

> <s_epik_input>
W0NIM11jMVtjSF1jKG5vMSlbTkhdQyg9TylbTkhdW0NIMl1bQ0BIXShbQ0gzXSlOMltDSDJdW0NIMl1bQ0gyXVtDQEBIXShbQ0gzXSlbQ0gyXTI=

> <s_epik_cmdline>
J2VwaWtfcHl0aG9uJywgJy1waCcsICc3LjAnLCAnLXRuJywgJzgnLCAnLW1hJywgJzIwMCcsICctbWV0YWxfYmluZGluZycsICctaW1hZScsICc8aW5maWxlLm1hZT4nLCAnLW9tYWUnLCAnPG91dGZpbGUubWFlPic=

> <r_epik_Ionization_Penalty>
0.00216453

> <r_epik_Ionization_Penalty_Charging>
0.00212879

> <r_epik_Ionization_Penalty_Neutral>
3.57418e-05

> <r_epik_State_Penalty>
0.00146033

> <r_epik_Charging_Adjusted_Penalty>
0.00358912

> <i_epik_Tot_Q>
1

> <i_epik_Tot_abs_Q>
1

> <r_epik_Metal_State_Penalty>
0.0215827

> <b_epik_Metal_Only>
0

> <s_lp_Force_Field>
OPLS_2005

> <r_lp_Energy>
21.6248

> <b_lp_Chiralities_Consistent>
1

> <s_lp_Variant>
AV-unprocessed.smi:2083-3

> <Gold.Version>
5.8.1

> <Gold.Id.Protein>
6NUR|6NUR_protein|mol2

> <Gold.PLP.Fitness>
37.2796

> <Gold.PLP.PLP>
-26.3635

> <Gold.PLP.part.hbond>
-3.0000

> <Gold.PLP.part.metal>
0.0000

> <Gold.PLP.part.buried>
-2.8055

> <Gold.PLP.part.nonpolar>
-20.8106

> <Gold.PLP.part.repulsive>
0.2424

> <Gold.PLP.ligand.clash>
0.0000

> <Gold.PLP.ligand.torsion>
0.5547

> <Gold.PLP.Chemscore.Hbond>
3.9920

> <Gold.PLP.Chemscore.CHOScore>
0.0000

> <Gold.PLP.Chemscore.Metal>
0.0000

> <Gold.Chemscore.Hbonds>
donor molecule, donor type, donor heavy atom, donor atom, acceptor molecule, acceptor atom, score
      L1  H     5    25       P1 10175  1.00
      L1  H     8    26       P1 10175  0.98
      L1  H    12    45       P1  8028  2.00

> <Gold.PLP.Chemscore.Internal.Correction>
0.0494

> <Gold.Rescore>
     Score         DG    S(hbond)    S(metal)    S(lipo)     H(rot)  DE(clash)    DE(int)     intcor
     16.56     -18.40       2.93        0.00      60.54       1.55       0.05       1.79       ----

> <Gold.Chemscore.Fitness>
16.5648

> <Gold.Chemscore.DG>
-18.3958

> <Gold.Chemscore.ZeroCoef>
-5.4800

> <Gold.Chemscore.Hbond>
2.9321

> <Gold.Chemscore.Metal>
0.0000

> <Gold.Chemscore.Lipo>
60.5444

> <Gold.Chemscore.Internal_Hbond>
0.0000

> <Gold.Chemscore.DEClash>
0.0456

> <Gold.Chemscore.DEInternal>
1.7854

> <Gold.Chemscore.Rot>
1.5474

> <Gold.Chemscore.Internal.Correction>
   9.000000E+99

> <Gold.Chemscore.Hbonds>
donor molecule, donor type, donor heavy atom, donor atom, acceptor molecule, acceptor atom, score
      L1  H     5    25       P1 10175  0.94
      L1  H     8    26       P1 10175  0.90
      L1  H    12    45       P1  8028  0.92

> <Gold.Chemscore.Hbond.Weighted>
-9.7933

> <Gold.Chemscore.Metal.Weighted>
-0.0000

> <Gold.Chemscore.Lipo.Weighted>
-7.0837

> <Gold.Chemscore.Internal_Hbond.Weighted>
0.0000

> <Gold.Chemscore.DEClash.Weighted>
0.0456

> <Gold.Chemscore.DEInternal.Weighted>
1.7854

> <Gold.Chemscore.Rot.Weighted>
3.9612

> <Gold.Chemscore.Internal.Correction.Weighted>
   9.000000E+99

> <Gold.Protein.RotatedTorsions>
[ 6907 6896 6895 6894 ] final -170.00 input  -60.11 | X-H torsion
[ 7974 7965 7964 7962 ] final -146.02 input  175.53 | X-H torsion
[ 8008 7997 7996 7995 ] final -152.72 input   59.86 | X-H torsion
[ 10167 10162 10161 10158 ] final -179.93 input  -65.29 | X-H torsion
[ 10718 10713 10712 10709 ] final  140.85 input   66.30 | X-H torsion
[ 10763 10752 10751 10750 ] final   11.46 input  -60.55 | X-H torsion
[ 11005 11000 10999 10996 ] final  146.02 input  -57.11 | X-H torsion

> <Gold.Protein.ActiveResidues>
 VAL166  LYS551  ARG553  GLY616  TRP617  ASP618  TYR619  PRO620  LYS621  CYS622 
 ASP623  PHE694  ASN695  SER759  ASP760  ASP761  ALA762  ILE779  LEU786  VAL792 
 PHE793  MET794  SER795  GLU796  ALA797  LYS798  CYS799  TRP800  GLU811  SER814 

> <Gold.Protein.RotatedAtoms>
  151.5007  133.3505  159.2868 H   0  0  0  0  0  0  0  0  0  0  0  0  # atno 6907 bound_to 6896
  150.8775  134.8162  159.7211 H   0  0  0  0  0  0  0  0  0  0  0  0  # atno 6908 bound_to 6896
  152.4740  134.4900  159.9744 H   0  0  0  0  0  0  0  0  0  0  0  0  # atno 6909 bound_to 6896
  144.8187  140.5509  143.5593 H   0  0  0  0  0  0  0  0  0  0  0  0  # atno 7974 bound_to 7965
  155.6596  140.0721  157.2558 H   0  0  0  0  0  0  0  0  0  0  0  0  # atno 8008 bound_to 7997
  154.4145  140.1718  156.1813 H   0  0  0  0  0  0  0  0  0  0  0  0  # atno 8009 bound_to 7997
  155.9708  140.3362  155.6577 H   0  0  0  0  0  0  0  0  0  0  0  0  # atno 8010 bound_to 7997
  139.5364  144.2485  152.0803 H   0  0  0  0  0  0  0  0  0  0  0  0  # atno 10167 bound_to 10162
  157.3987  131.1014  151.0574 H   0  0  0  0  0  0  0  0  0  0  0  0  # atno 10718 bound_to 10713
  153.1924  135.6844  153.8336 H   0  0  0  0  0  0  0  0  0  0  0  0  # atno 10763 bound_to 10752
  153.7630  135.3207  155.3341 H   0  0  0  0  0  0  0  0  0  0  0  0  # atno 10764 bound_to 10752
  154.8125  135.4708  154.0652 H   0  0  0  0  0  0  0  0  0  0  0  0  # atno 10765 bound_to 10752
  140.0759  134.9125  157.1422 H   0  0  0  0  0  0  0  0  0  0  0  0  # atno 11005 bound_to 11000
  145.5154  139.1478  143.3581 LP  0  0  0  0  0  0  0  0  0  0  0  0  # atno 17320 bound_to 7965
  146.2492  140.5295  142.8901 LP  0  0  0  0  0  0  0  0  0  0  0  0  # atno 17321 bound_to 7965
  140.1956  144.4708  150.6457 LP  0  0  0  0  0  0  0  0  0  0  0  0  # atno 17342 bound_to 10162
  140.6573  143.2241  151.5939 LP  0  0  0  0  0  0  0  0  0  0  0  0  # atno 17343 bound_to 10162
  157.1581  130.6213  149.5602 LP  0  0  0  0  0  0  0  0  0  0  0  0  # atno 17370 bound_to 10713
  155.9817  130.4826  150.6843 LP  0  0  0  0  0  0  0  0  0  0  0  0  # atno 17371 bound_to 10713
  140.3558  134.2548  155.7193 LP  0  0  0  0  0  0  0  0  0  0  0  0  # atno 17394 bound_to 11000
  141.2029  133.7925  157.0366 LP  0  0  0  0  0  0  0  0  0  0  0  0  # atno 17395 bound_to 11000

$$$$
