AV-unprocessed.smi:1049|AV-procd|sdf|4608|dock3
  -GOLD-   22720 3103D 1   1.00000     0.00000
 Structure written by MMmdl.
 40 41  0  0  0  0  0  0  0  0  1 V2000
  145.9586  138.3067  154.0169 C   0  0  0  0  0  0  0  0  0  0  0  0
  146.6710  139.5802  154.4923 C   0  0  2  0  0  0  0  0  0  0  0  0
  145.6860  140.7624  154.6317 C   0  0  0  0  0  0  0  0  0  0  0  0
  146.4055  142.0816  154.9717 C   0  0  0  0  0  0  0  0  0  0  0  0
  147.5732  142.3317  154.0016 C   0  0  0  0  0  0  0  0  0  0  0  0
  148.4869  141.1775  154.0611 N   0  0  0  0  0  0  0  0  0  0  0  0
  149.6689  141.1334  154.7263 C   0  0  0  0  0  0  0  0  0  0  0  0
  150.5013  140.2387  154.5709 O   0  0  0  0  0  0  0  0  0  0  0  0
  149.8748  142.1612  155.5649 N   0  0  0  0  0  0  0  0  0  0  0  0
  151.0080  142.3017  156.4725 C   0  0  0  0  0  0  0  0  0  0  0  0
  150.5841  142.2438  157.9536 C   0  0  0  0  0  0  0  0  0  0  0  0
  151.7306  142.0312  158.9008 C   0  0  0  0  0  0  0  0  0  0  0  0
  152.1299  140.8274  159.3012 N   0  0  0  0  0  0  0  0  0  0  0  0
  153.2118  141.0699  160.1387 C   0  0  0  0  0  0  0  0  0  0  0  0
  153.4218  142.4237  160.2290 C   0  0  0  0  0  0  0  0  0  0  0  0
  152.4481  143.0349  159.4467 N   0  0  0  0  0  0  0  0  0  0  0  0
  152.2747  144.4666  159.2591 C   0  0  0  0  0  0  0  0  0  0  0  0
  152.3909  144.7884  157.9705 F   0  0  0  0  0  0  0  0  0  0  0  0
  151.0794  144.8461  159.7057 F   0  0  0  0  0  0  0  0  0  0  0  0
  147.8373  139.9617  153.5549 C   0  0  0  0  0  0  0  0  0  0  0  0
  145.5326  138.4388  153.0220 H   0  0  0  0  0  0  0  0  0  0  0  0
  145.1483  138.0343  154.6936 H   0  0  0  0  0  0  0  0  0  0  0  0
  146.6493  137.4642  153.9743 H   0  0  0  0  0  0  0  0  0  0  0  0
  147.0874  139.3723  155.4787 H   0  0  0  0  0  0  0  0  0  0  0  0
  145.1434  140.8908  153.6941 H   0  0  0  0  0  0  0  0  0  0  0  0
  144.9364  140.5421  155.3924 H   0  0  0  0  0  0  0  0  0  0  0  0
  145.6997  142.9117  154.9330 H   0  0  0  0  0  0  0  0  0  0  0  0
  146.7816  142.0436  155.9949 H   0  0  0  0  0  0  0  0  0  0  0  0
  147.1947  142.4369  152.9838 H   0  0  0  0  0  0  0  0  0  0  0  0
  148.0462  143.2863  154.2313 H   0  0  0  0  0  0  0  0  0  0  0  0
  149.1578  142.8696  155.6237 H   0  0  0  0  0  0  0  0  0  0  0  0
  151.7736  141.5539  156.2602 H   0  0  0  0  0  0  0  0  0  0  0  0
  151.4619  143.2714  156.2667 H   0  0  0  0  0  0  0  0  0  0  0  0
  150.0621  143.1657  158.2057 H   0  0  0  0  0  0  0  0  0  0  0  0
  149.8613  141.4404  158.0982 H   0  0  0  0  0  0  0  0  0  0  0  0
  153.7516  140.2591  160.6055 H   0  0  0  0  0  0  0  0  0  0  0  0
  154.1605  142.9870  160.7800 H   0  0  0  0  0  0  0  0  0  0  0  0
  153.0422  145.0171  159.8031 H   0  0  0  0  0  0  0  0  0  0  0  0
  148.5362  139.1288  153.4622 H   0  0  0  0  0  0  0  0  0  0  0  0
  147.4661  140.1454  152.5454 H   0  0  0  0  0  0  0  0  0  0  0  0
  1  2  1  0  0  0  0
  1 21  1  0  0  0  0
  1 22  1  0  0  0  0
  1 23  1  0  0  0  0
  2 20  1  0  0  0  0
  2  3  1  0  0  0  0
  2 24  1  0  0  0  0
  3  4  1  0  0  0  0
  3 25  1  0  0  0  0
  3 26  1  0  0  0  0
  4  5  1  0  0  0  0
  4 27  1  0  0  0  0
  4 28  1  0  0  0  0
  5  6  1  0  0  0  0
  5 29  1  0  0  0  0
  5 30  1  0  0  0  0
  6  7  1  0  0  0  0
  6 20  1  0  0  0  0
  7  8  2  0  0  0  0
  7  9  1  0  0  0  0
  9 10  1  0  0  0  0
  9 31  1  0  0  0  0
 10 11  1  0  0  0  0
 10 32  1  0  0  0  0
 10 33  1  0  0  0  0
 11 12  1  0  0  0  0
 11 34  1  0  0  0  0
 11 35  1  0  0  0  0
 12 16  1  0  0  0  0
 12 13  2  0  0  0  0
 13 14  1  0  0  0  0
 14 15  2  0  0  0  0
 14 36  1  0  0  0  0
 15 16  1  0  0  0  0
 15 37  1  0  0  0  0
 16 17  1  0  0  0  0
 17 18  1  0  0  0  0
 17 19  1  0  0  0  0
 17 38  1  0  0  0  0
 20 39  1  0  0  0  0
 20 40  1  0  0  0  0
M  END
> <s_m_source_file>
AV-unprocessed.smi

> <i_m_source_file_index>
1049

> <i_lp_mmshare_version>
43012

> <i_f3d_flags>
0

> <s_epik_input>
W0NIM11bQ0BASF0xW0NIMl1bQ0gyXVtDSDJdTihbQ0gyXTEpQyg9TylbTkhdW0NIMl1bQ0gyXWMybltjSF1bY0hdbjJbQ0hdKEYpRg==

> <s_epik_cmdline>
J2VwaWtfcHl0aG9uJywgJy1waCcsICc3LjAnLCAnLXRuJywgJzgnLCAnLW1hJywgJzIwMCcsICctbWV0YWxfYmluZGluZycsICctaW1hZScsICc8aW5maWxlLm1hZT4nLCAnLW9tYWUnLCAnPG91dGZpbGUubWFlPic=

> <r_lp_tautomer_probability>
1

> <r_epik_Ionization_Penalty>
0.101141

> <r_epik_Ionization_Penalty_Charging>
0.101077

> <r_epik_Ionization_Penalty_Neutral>
6.38597e-05

> <r_epik_State_Penalty>
0.091079

> <r_epik_Charging_Adjusted_Penalty>
0.192156

> <i_epik_Tot_Q>
0

> <i_epik_Tot_abs_Q>
0

> <r_epik_Metal_State_Penalty>
0.0777008

> <b_epik_Metal_Only>
0

> <s_lp_Force_Field>
OPLS_2005

> <r_lp_Energy>
32.1831

> <b_lp_Chiralities_Consistent>
1

> <s_lp_Variant>
AV-unprocessed.smi:1049-1

> <Gold.Version>
5.8.1

> <Gold.Id.Protein>
6NUR|6NUR_protein|mol2

> <Gold.PLP.Fitness>
51.6947

> <Gold.PLP.PLP>
-47.1409

> <Gold.PLP.part.hbond>
-2.0000

> <Gold.PLP.part.metal>
0.0000

> <Gold.PLP.part.buried>
-4.6307

> <Gold.PLP.part.nonpolar>
-40.4130

> <Gold.PLP.part.repulsive>
0.2356

> <Gold.PLP.ligand.clash>
0.0000

> <Gold.PLP.ligand.torsion>
0.6238

> <Gold.PLP.Chemscore.Hbond>
1.8960

> <Gold.PLP.Chemscore.CHOScore>
0.0000

> <Gold.PLP.Chemscore.Metal>
0.0000

> <Gold.Chemscore.Hbonds>
donor molecule, donor type, donor heavy atom, donor atom, acceptor molecule, acceptor atom, score
      L1  H     9    31       P1  8028  0.86
      P1  H  7989  7998       L1     8  1.00

> <Gold.PLP.Chemscore.Internal.Correction>
0.1133

> <Gold.Rescore>
     Score         DG    S(hbond)    S(metal)    S(lipo)     H(rot)  DE(clash)    DE(int)     intcor
     14.53     -15.22       1.54        0.00      73.43       1.56       0.23       0.45       ----

> <Gold.Chemscore.Fitness>
14.5332

> <Gold.Chemscore.DG>
-15.2151

> <Gold.Chemscore.ZeroCoef>
-5.4800

> <Gold.Chemscore.Hbond>
1.5402

> <Gold.Chemscore.Metal>
0.0000

> <Gold.Chemscore.Lipo>
73.4291

> <Gold.Chemscore.Internal_Hbond>
0.0000

> <Gold.Chemscore.DEClash>
0.2332

> <Gold.Chemscore.DEInternal>
0.4487

> <Gold.Chemscore.Rot>
1.5626

> <Gold.Chemscore.Internal.Correction>
   9.000000E+99

> <Gold.Chemscore.Hbonds>
donor molecule, donor type, donor heavy atom, donor atom, acceptor molecule, acceptor atom, score
      L1  H     9    31       P1  8028  0.85
      P1  H  7989  7998       L1     8  0.50

> <Gold.Chemscore.Hbond.Weighted>
-5.1443

> <Gold.Chemscore.Metal.Weighted>
-0.0000

> <Gold.Chemscore.Lipo.Weighted>
-8.5912

> <Gold.Chemscore.Internal_Hbond.Weighted>
0.0000

> <Gold.Chemscore.DEClash.Weighted>
0.2332

> <Gold.Chemscore.DEInternal.Weighted>
0.4487

> <Gold.Chemscore.Rot.Weighted>
4.0004

> <Gold.Chemscore.Internal.Correction.Weighted>
   9.000000E+99

> <Gold.Protein.RotatedTorsions>
[ 6907 6896 6895 6894 ] final  -74.40 input  -60.11 | X-H torsion
[ 7974 7965 7964 7962 ] final  -77.17 input  175.53 | X-H torsion
[ 8008 7997 7996 7995 ] final   45.96 input   59.86 | X-H torsion
[ 10167 10162 10161 10158 ] final  -35.48 input  -65.29 | X-H torsion
[ 10718 10713 10712 10709 ] final  111.04 input   66.30 | X-H torsion
[ 10763 10752 10751 10750 ] final -131.32 input  -60.55 | X-H torsion
[ 11005 11000 10999 10996 ] final -127.39 input  -57.11 | X-H torsion

> <Gold.Protein.ActiveResidues>
 VAL166  LYS551  ARG553  GLY616  TRP617  ASP618  TYR619  PRO620  LYS621  CYS622 
 ASP623  PHE694  ASN695  SER759  ASP760  ASP761  ALA762  ILE779  LEU786  VAL792 
 PHE793  MET794  SER795  GLU796  ALA797  LYS798  CYS799  TRP800  GLU811  SER814 

> <Gold.Protein.RotatedAtoms>
  150.7095  134.4875  159.5499 H   0  0  0  0  0  0  0  0  0  0  0  0  # atno 6907 bound_to 6896
  152.2499  134.8140  160.0456 H   0  0  0  0  0  0  0  0  0  0  0  0  # atno 6908 bound_to 6896
  151.8891  133.3477  159.3829 H   0  0  0  0  0  0  0  0  0  0  0  0  # atno 6909 bound_to 6896
  145.6032  140.9404  143.1229 H   0  0  0  0  0  0  0  0  0  0  0  0  # atno 7974 bound_to 7965
  155.3446  140.3410  155.4239 H   0  0  0  0  0  0  0  0  0  0  0  0  # atno 8008 bound_to 7997
  156.1795  140.1659  156.8336 H   0  0  0  0  0  0  0  0  0  0  0  0  # atno 8009 bound_to 7997
  154.5318  140.0743  156.8342 H   0  0  0  0  0  0  0  0  0  0  0  0  # atno 8010 bound_to 7997
  140.7164  143.3475  151.2226 H   0  0  0  0  0  0  0  0  0  0  0  0  # atno 10167 bound_to 10162
  157.6464  131.0943  150.6691 H   0  0  0  0  0  0  0  0  0  0  0  0  # atno 10718 bound_to 10713
  154.8751  135.3834  154.4226 H   0  0  0  0  0  0  0  0  0  0  0  0  # atno 10763 bound_to 10752
  153.4929  135.7030  153.5879 H   0  0  0  0  0  0  0  0  0  0  0  0  # atno 10764 bound_to 10752
  153.4245  135.3893  155.2099 H   0  0  0  0  0  0  0  0  0  0  0  0  # atno 10765 bound_to 10752
  140.9604  134.0945  157.3974 H   0  0  0  0  0  0  0  0  0  0  0  0  # atno 11005 bound_to 11000
  144.7301  139.7752  143.7350 LP  0  0  0  0  0  0  0  0  0  0  0  0  # atno 17320 bound_to 7965
  146.1560  139.4659  143.0018 LP  0  0  0  0  0  0  0  0  0  0  0  0  # atno 17321 bound_to 7965
  139.6997  143.9553  152.2900 LP  0  0  0  0  0  0  0  0  0  0  0  0  # atno 17342 bound_to 10162
  139.9242  144.6781  150.8429 LP  0  0  0  0  0  0  0  0  0  0  0  0  # atno 17343 bound_to 10162
  156.7007  130.4622  149.5573 LP  0  0  0  0  0  0  0  0  0  0  0  0  # atno 17370 bound_to 10713
  156.1797  130.6491  151.0937 LP  0  0  0  0  0  0  0  0  0  0  0  0  # atno 17371 bound_to 10713
  139.8876  135.0091  156.6570 LP  0  0  0  0  0  0  0  0  0  0  0  0  # atno 17394 bound_to 11000
  140.7476  133.8924  155.8323 LP  0  0  0  0  0  0  0  0  0  0  0  0  # atno 17395 bound_to 11000

$$$$
