AV-unprocessed.smi:507|AV-procd|sdf|2754|dock1
  -GOLD-   2262023223D 1   1.00000     0.00000
 Structure written by MMmdl.
 35 36  0  0  0  0  0  0  0  0  3 V2000
  151.7534  144.4408  160.5779 C   0  0  0  0  0  0  0  0  0  0  0  0
  151.7775  143.3292  159.5427 C   0  0  0  0  0  0  0  0  0  0  0  0
  150.9600  143.4568  158.3968 C   0  0  0  0  0  0  0  0  0  0  0  0
  151.0064  142.4252  157.4667 C   0  0  0  0  0  0  0  0  0  0  0  0
  150.3333  142.2536  156.2551 N   0  3  0  0  0  0  0  0  0  0  0  0
  150.7101  141.0738  155.6885 C   0  0  0  0  0  0  0  0  0  0  0  0
  151.6160  140.4902  156.5203 N   0  0  0  0  0  0  0  0  0  0  0  0
  152.3408  139.2190  156.3886 C   0  0  0  0  0  0  0  0  0  0  0  0
  151.4195  138.0439  156.0033 C   0  0  2  0  0  0  0  0  0  0  0  0
  152.1222  136.8277  156.1755 O   0  0  0  0  0  0  0  0  0  0  0  0
  150.9352  138.1395  154.5465 C   0  0  0  0  0  0  0  0  0  0  0  0
  150.4686  136.8350  154.0443 N   0  3  0  0  0  0  0  0  0  0  0  0
  151.8283  141.2958  157.6444 C   0  0  0  0  0  0  0  0  0  0  0  0
  152.6383  141.1527  158.7683 C   0  0  0  0  0  0  0  0  0  0  0  0
  152.6048  142.1910  159.7268 C   0  0  0  0  0  0  0  0  0  0  0  0
  153.4762  142.0628  160.9647 C   0  0  0  0  0  0  0  0  0  0  0  0
  151.0645  145.2365  160.2927 H   0  0  0  0  0  0  0  0  0  0  0  0
  152.7440  144.8823  160.6884 H   0  0  0  0  0  0  0  0  0  0  0  0
  151.4348  144.0561  161.5469 H   0  0  0  0  0  0  0  0  0  0  0  0
  150.3272  144.3203  158.2511 H   0  0  0  0  0  0  0  0  0  0  0  0
  150.3571  140.6762  154.7477 H   0  0  0  0  0  0  0  0  0  0  0  0
  153.1363  139.3517  155.6541 H   0  0  0  0  0  0  0  0  0  0  0  0
  152.8324  139.0215  157.3425 H   0  0  0  0  0  0  0  0  0  0  0  0
  150.5554  138.0345  156.6691 H   0  0  0  0  0  0  0  0  0  0  0  0
  151.9536  136.4999  157.0460 H   0  0  0  0  0  0  0  0  0  0  0  0
  150.1016  138.8391  154.4759 H   0  0  0  0  0  0  0  0  0  0  0  0
  151.7246  138.5186  153.8961 H   0  0  0  0  0  0  0  0  0  0  0  0
  149.5091  136.9117  153.7385 H   0  0  0  0  0  0  0  0  0  0  0  0
  150.5336  136.1467  154.7805 H   0  0  0  0  0  0  0  0  0  0  0  0
  153.2682  140.2870  158.9085 H   0  0  0  0  0  0  0  0  0  0  0  0
  154.0532  141.1376  160.9533 H   0  0  0  0  0  0  0  0  0  0  0  0
  152.8629  142.0609  161.8662 H   0  0  0  0  0  0  0  0  0  0  0  0
  154.1803  142.8929  161.0262 H   0  0  0  0  0  0  0  0  0  0  0  0
  151.0481  136.5490  153.2677 H   0  0  0  0  0  0  0  0  0  0  0  0
  149.6657  142.8932  155.8431 H   0  0  0  0  0  0  0  0  0  0  0  0
  1  2  1  0  0  0  0
  1 17  1  0  0  0  0
  1 18  1  0  0  0  0
  1 19  1  0  0  0  0
  2 15  1  0  0  0  0
  2  3  2  0  0  0  0
  3  4  1  0  0  0  0
  3 20  1  0  0  0  0
  4 13  2  0  0  0  0
  4  5  1  0  0  0  0
  5  6  2  0  0  0  0
  5 35  1  0  0  0  0
  6  7  1  0  0  0  0
  6 21  1  0  0  0  0
  7  8  1  0  0  0  0
  7 13  1  0  0  0  0
  8  9  1  0  0  0  0
  8 22  1  0  0  0  0
  8 23  1  0  0  0  0
  9 10  1  0  0  0  0
  9 11  1  0  0  0  0
  9 24  1  0  0  0  0
 10 25  1  0  0  0  0
 11 12  1  0  0  0  0
 11 26  1  0  0  0  0
 11 27  1  0  0  0  0
 12 28  1  0  0  0  0
 12 29  1  0  0  0  0
 12 34  1  0  0  0  0
 13 14  1  0  0  0  0
 14 15  2  0  0  0  0
 14 30  1  0  0  0  0
 15 16  1  0  0  0  0
 16 31  1  0  0  0  0
 16 32  1  0  0  0  0
 16 33  1  0  0  0  0
M  CHG  1   5   1
M  CHG  1  12   1
M  END
> <s_m_source_file>
AV-unprocessed.smi

> <i_m_source_file_index>
507

> <i_lp_mmshare_version>
43012

> <i_f3d_flags>
0

> <s_epik_input>
W0NIM11jKFtjSF0xKWMoW0NIM10pW2NIXWMoYzEyKW4oW2NIXW4yKVtDSDJdW0NASF0oW09IXSlbQ0gyXVtOSDJd

> <s_epik_cmdline>
J2VwaWtfcHl0aG9uJywgJy1waCcsICc3LjAnLCAnLXRuJywgJzgnLCAnLW1hJywgJzIwMCcsICctbWV0YWxfYmluZGluZycsICctaW1hZScsICc8aW5maWxlLm1hZT4nLCAnLW9tYWUnLCAnPG91dGZpbGUubWFlPic=

> <r_epik_Ionization_Penalty>
1.17892

> <r_epik_Ionization_Penalty_Charging>
1.17892

> <r_epik_Ionization_Penalty_Neutral>
1.79057e-06

> <r_epik_State_Penalty>
1.21155

> <r_epik_Charging_Adjusted_Penalty>
2.39047

> <i_epik_Tot_Q>
2

> <i_epik_Tot_abs_Q>
2

> <r_epik_Metal_State_Penalty>
5.22091

> <b_epik_Metal_Only>
0

> <s_lp_Force_Field>
OPLS_2005

> <r_lp_Energy>
17.3712

> <b_lp_Chiralities_Consistent>
1

> <s_lp_Variant>
AV-unprocessed.smi:507-3

> <Gold.Version>
5.8.1

> <Gold.Id.Protein>
6NUR|6NUR_protein|mol2

> <Gold.PLP.Fitness>
52.0261

> <Gold.PLP.PLP>
-35.6611

> <Gold.PLP.part.hbond>
-4.0000

> <Gold.PLP.part.metal>
0.0000

> <Gold.PLP.part.buried>
-2.3117

> <Gold.PLP.part.nonpolar>
-29.4987

> <Gold.PLP.part.repulsive>
0.1585

> <Gold.PLP.ligand.clash>
0.0000

> <Gold.PLP.ligand.torsion>
0.3960

> <Gold.PLP.Chemscore.Hbond>
5.7136

> <Gold.PLP.Chemscore.CHOScore>
0.0000

> <Gold.PLP.Chemscore.Metal>
0.0000

> <Gold.Chemscore.Hbonds>
donor molecule, donor type, donor heavy atom, donor atom, acceptor molecule, acceptor atom, score
      L1  H     5    35       P1  8028  2.00
      L1  H    12    28       P1  7948  0.74
      L1  H    12    34       P1  7949  1.95
      P1  H 10752 10765       L1    10  1.00

> <Gold.PLP.Chemscore.Internal.Correction>
0.0163

> <Gold.Rescore>
     Score         DG    S(hbond)    S(metal)    S(lipo)     H(rot)  DE(clash)    DE(int)     intcor
     19.10     -19.68       2.65        0.00      96.54       2.32       0.12       0.47       ----

> <Gold.Chemscore.Fitness>
19.0991

> <Gold.Chemscore.DG>
-19.6842

> <Gold.Chemscore.ZeroCoef>
-5.4800

> <Gold.Chemscore.Hbond>
2.6476

> <Gold.Chemscore.Metal>
0.0000

> <Gold.Chemscore.Lipo>
96.5416

> <Gold.Chemscore.Internal_Hbond>
0.0000

> <Gold.Chemscore.DEClash>
0.1173

> <Gold.Chemscore.DEInternal>
0.4678

> <Gold.Chemscore.Rot>
2.3180

> <Gold.Chemscore.Internal.Correction>
   9.000000E+99

> <Gold.Chemscore.Hbonds>
donor molecule, donor type, donor heavy atom, donor atom, acceptor molecule, acceptor atom, score
      L1  H     5    35       P1  8028  0.92
      L1  H    12    28       P1  7948  0.31
      L1  H    12    34       P1  7949  0.28
      P1  H 10752 10765       L1    10  0.79

> <Gold.Chemscore.Hbond.Weighted>
-8.8429

> <Gold.Chemscore.Metal.Weighted>
-0.0000

> <Gold.Chemscore.Lipo.Weighted>
-11.2954

> <Gold.Chemscore.Internal_Hbond.Weighted>
0.0000

> <Gold.Chemscore.DEClash.Weighted>
0.1173

> <Gold.Chemscore.DEInternal.Weighted>
0.4678

> <Gold.Chemscore.Rot.Weighted>
5.9340

> <Gold.Chemscore.Internal.Correction.Weighted>
   9.000000E+99

> <Gold.Protein.RotatedTorsions>
[ 6907 6896 6895 6894 ] final  -30.95 input  -60.11 | X-H torsion
[ 7974 7965 7964 7962 ] final  134.85 input  175.53 | X-H torsion
[ 8008 7997 7996 7995 ] final  152.10 input   59.86 | X-H torsion
[ 10167 10162 10161 10158 ] final -130.66 input  -65.29 | X-H torsion
[ 10718 10713 10712 10709 ] final  -12.83 input   66.30 | X-H torsion
[ 10763 10752 10751 10750 ] final -153.80 input  -60.55 | X-H torsion
[ 11005 11000 10999 10996 ] final   77.05 input  -57.11 | X-H torsion

> <Gold.Protein.ActiveResidues>
 VAL166  LYS551  ARG553  GLY616  TRP617  ASP618  TYR619  PRO620  LYS621  CYS622 
 ASP623  PHE694  ASN695  SER759  ASP760  ASP761  ALA762  ILE779  LEU786  VAL792 
 PHE793  MET794  SER795  GLU796  ALA797  LYS798  CYS799  TRP800  GLU811  SER814 

> <Gold.Protein.RotatedAtoms>
  151.0986  134.9959  159.8437 H   0  0  0  0  0  0  0  0  0  0  0  0  # atno 6907 bound_to 6896
  152.5435  134.1978  159.8710 H   0  0  0  0  0  0  0  0  0  0  0  0  # atno 6908 bound_to 6896
  151.2019  133.4561  159.2630 H   0  0  0  0  0  0  0  0  0  0  0  0  # atno 6909 bound_to 6896
  144.9722  139.4593  143.5427 H   0  0  0  0  0  0  0  0  0  0  0  0  # atno 7974 bound_to 7965
  156.2644  140.2030  156.6280 H   0  0  0  0  0  0  0  0  0  0  0  0  # atno 8008 bound_to 7997
  154.6705  140.0550  157.0185 H   0  0  0  0  0  0  0  0  0  0  0  0  # atno 8009 bound_to 7997
  155.1144  140.3218  155.4516 H   0  0  0  0  0  0  0  0  0  0  0  0  # atno 8010 bound_to 7997
  139.9270  143.6316  152.2539 H   0  0  0  0  0  0  0  0  0  0  0  0  # atno 10167 bound_to 10162
  156.6389  130.4922  149.6102 H   0  0  0  0  0  0  0  0  0  0  0  0  # atno 10718 bound_to 10713
  154.7903  135.3204  154.7793 H   0  0  0  0  0  0  0  0  0  0  0  0  # atno 10763 bound_to 10752
  153.8483  135.6864  153.4799 H   0  0  0  0  0  0  0  0  0  0  0  0  # atno 10764 bound_to 10752
  153.1570  135.4676  154.9659 H   0  0  0  0  0  0  0  0  0  0  0  0  # atno 10765 bound_to 10752
  139.9271  134.7651  156.1473 H   0  0  0  0  0  0  0  0  0  0  0  0  # atno 11005 bound_to 11000
  146.3385  139.8941  142.8804 LP  0  0  0  0  0  0  0  0  0  0  0  0  # atno 17320 bound_to 7965
  145.2543  141.0055  143.3863 LP  0  0  0  0  0  0  0  0  0  0  0  0  # atno 17321 bound_to 7965
  139.6814  144.7655  151.1602 LP  0  0  0  0  0  0  0  0  0  0  0  0  # atno 17342 bound_to 10162
  140.7647  143.5720  150.8986 LP  0  0  0  0  0  0  0  0  0  0  0  0  # atno 17343 bound_to 10162
  156.2175  130.6716  151.1333 LP  0  0  0  0  0  0  0  0  0  0  0  0  # atno 17370 bound_to 10713
  157.7177  131.0700  150.6262 LP  0  0  0  0  0  0  0  0  0  0  0  0  # atno 17371 bound_to 10713
  141.0836  133.6743  156.2389 LP  0  0  0  0  0  0  0  0  0  0  0  0  # atno 17394 bound_to 11000
  140.6305  134.5269  157.5559 LP  0  0  0  0  0  0  0  0  0  0  0  0  # atno 17395 bound_to 11000

$$$$
