AV-unprocessed.smi:2001|AV-procd|sdf|8111|dock8
  -GOLD-   2272010343D 1   1.00000     0.00000
 Structure written by MMmdl.
 50 51  0  0  0  0  0  0  0  0  3 V2000
  152.9290  142.2125  159.7404 C   0  0  0  0  0  0  0  0  0  0  0  0
  151.6851  141.9187  159.1303 O   0  0  0  0  0  0  0  0  0  0  0  0
  151.6935  142.1613  157.7331 C   0  0  0  0  0  0  0  0  0  0  0  0
  150.4065  141.6084  157.0997 C   0  0  0  0  0  0  0  0  0  0  0  0
  150.6092  140.2668  156.5420 N   0  0  0  0  0  0  0  0  0  0  0  0
  151.0524  139.3388  157.4685 N   0  0  0  0  0  0  0  0  0  0  0  0
  151.2629  138.1109  157.1198 C   0  0  0  0  0  0  0  0  0  0  0  0
  151.7422  137.1090  158.1251 C   0  0  0  0  0  0  0  0  0  0  0  0
  152.9153  136.7381  157.9796 O   0  0  0  0  0  0  0  0  0  0  0  0
  150.8855  136.6827  159.1020 N   0  5  0  0  0  0  0  0  0  0  0  0
  149.4470  136.9381  159.1283 C   0  0  0  0  0  0  0  0  0  0  0  0
  148.6842  135.6044  159.2414 C   0  0  0  0  0  0  0  0  0  0  0  0
  147.9629  135.4876  160.5364 N   0  3  1  0  0  0  0  0  0  0  0  0
  147.5565  134.0985  160.8537 C   0  0  0  0  0  0  0  0  0  0  0  0
  146.6988  134.0700  162.1319 C   0  0  1  0  0  0  0  0  0  0  0  0
  146.3333  132.6409  162.5474 C   0  0  0  0  0  0  0  0  0  0  0  0
  147.4210  134.6671  163.2064 O   0  0  0  0  0  0  0  0  0  0  0  0
  147.8447  136.0105  162.9721 C   0  0  2  0  0  0  0  0  0  0  0  0
  146.6704  137.0054  162.9862 C   0  0  0  0  0  0  0  0  0  0  0  0
  148.6921  136.0809  161.6879 C   0  0  0  0  0  0  0  0  0  0  0  0
  151.0356  137.6859  155.7439 C   0  0  0  0  0  0  0  0  0  0  0  0
  150.5986  138.6017  154.8519 C   0  0  0  0  0  0  0  0  0  0  0  0
  150.3525  139.9944  155.2274 C   0  0  0  0  0  0  0  0  0  0  0  0
  149.9493  140.8430  154.4321 O   0  0  0  0  0  0  0  0  0  0  0  0
  152.8629  142.0269  160.8124 H   0  0  0  0  0  0  0  0  0  0  0  0
  153.2030  143.2584  159.5955 H   0  0  0  0  0  0  0  0  0  0  0  0
  153.7237  141.5827  159.3383 H   0  0  0  0  0  0  0  0  0  0  0  0
  151.7527  143.2358  157.5552 H   0  0  0  0  0  0  0  0  0  0  0  0
  152.5712  141.7083  157.2687 H   0  0  0  0  0  0  0  0  0  0  0  0
  149.5903  141.6271  157.8237 H   0  0  0  0  0  0  0  0  0  0  0  0
  150.0909  142.2776  156.2971 H   0  0  0  0  0  0  0  0  0  0  0  0
  149.1587  137.5774  159.9637 H   0  0  0  0  0  0  0  0  0  0  0  0
  149.1178  137.4591  158.2286 H   0  0  0  0  0  0  0  0  0  0  0  0
  147.9706  135.5534  158.4172 H   0  0  0  0  0  0  0  0  0  0  0  0
  149.3567  134.7550  159.1101 H   0  0  0  0  0  0  0  0  0  0  0  0
  146.9828  133.6840  160.0235 H   0  0  0  0  0  0  0  0  0  0  0  0
  148.4459  133.4774  160.9733 H   0  0  0  0  0  0  0  0  0  0  0  0
  145.7722  134.6189  161.9627 H   0  0  0  0  0  0  0  0  0  0  0  0
  145.7653  132.1372  161.7650 H   0  0  0  0  0  0  0  0  0  0  0  0
  145.7233  132.6423  163.4512 H   0  0  0  0  0  0  0  0  0  0  0  0
  147.2256  132.0476  162.7488 H   0  0  0  0  0  0  0  0  0  0  0  0
  148.4903  136.2735  163.8106 H   0  0  0  0  0  0  0  0  0  0  0  0
  147.0350  138.0320  162.9454 H   0  0  0  0  0  0  0  0  0  0  0  0
  146.0828  136.9006  163.8986 H   0  0  0  0  0  0  0  0  0  0  0  0
  146.0001  136.8679  162.1380 H   0  0  0  0  0  0  0  0  0  0  0  0
  149.6262  135.5365  161.8360 H   0  0  0  0  0  0  0  0  0  0  0  0
  148.9648  137.1164  161.4811 H   0  0  0  0  0  0  0  0  0  0  0  0
  151.2035  136.6671  155.4281 H   0  0  0  0  0  0  0  0  0  0  0  0
  150.4241  138.2981  153.8300 H   0  0  0  0  0  0  0  0  0  0  0  0
  147.1069  136.0121  160.4232 H   0  0  0  0  0  0  0  0  0  0  0  0
  1  2  1  0  0  0  0
  1 25  1  0  0  0  0
  1 26  1  0  0  0  0
  1 27  1  0  0  0  0
  2  3  1  0  0  0  0
  3  4  1  0  0  0  0
  3 28  1  0  0  0  0
  3 29  1  0  0  0  0
  4  5  1  0  0  0  0
  4 30  1  0  0  0  0
  4 31  1  0  0  0  0
  5 23  1  0  0  0  0
  5  6  1  0  0  0  0
  6  7  2  0  0  0  0
  7  8  1  0  0  0  0
  7 21  1  0  0  0  0
  8  9  2  0  0  0  0
  8 10  1  0  0  0  0
 10 11  1  0  0  0  0
 11 12  1  0  0  0  0
 11 32  1  0  0  0  0
 11 33  1  0  0  0  0
 12 13  1  0  0  0  0
 12 34  1  0  0  0  0
 12 35  1  0  0  0  0
 13 20  1  0  0  0  0
 13 14  1  0  0  0  0
 13 50  1  0  0  0  0
 14 15  1  0  0  0  0
 14 36  1  0  0  0  0
 14 37  1  0  0  0  0
 15 16  1  0  0  0  0
 15 17  1  0  0  0  0
 15 38  1  0  0  0  0
 16 39  1  0  0  0  0
 16 40  1  0  0  0  0
 16 41  1  0  0  0  0
 17 18  1  0  0  0  0
 18 19  1  0  0  0  0
 18 20  1  0  0  0  0
 18 42  1  0  0  0  0
 19 43  1  0  0  0  0
 19 44  1  0  0  0  0
 19 45  1  0  0  0  0
 20 46  1  0  0  0  0
 20 47  1  0  0  0  0
 21 22  2  0  0  0  0
 21 48  1  0  0  0  0
 22 23  1  0  0  0  0
 22 49  1  0  0  0  0
 23 24  2  0  0  0  0
M  CHG  1  10  -1
M  CHG  1  13   1
M  END
> <s_m_source_file>
AV-unprocessed.smi

> <i_m_source_file_index>
2001

> <i_lp_mmshare_version>
43012

> <i_f3d_flags>
0

> <s_epik_input>
W0NIM11PW0NIMl1bQ0gyXW4xbmMoW2NIXVtjSF1jMT1PKUMoPU8pW05IXVtDSDJdW0NIMl1OMltDSDJdW0NAQEhdKFtDSDNdKU9bQ0BASF0oW0NIM10pW0NIMl0y

> <s_epik_cmdline>
J2VwaWtfcHl0aG9uJywgJy1waCcsICc3LjAnLCAnLXRuJywgJzgnLCAnLW1hJywgJzIwMCcsICctbWV0YWxfYmluZGluZycsICctaW1hZScsICc8aW5maWxlLm1hZT4nLCAnLW9tYWUnLCAnPG91dGZpbGUubWFlPic=

> <r_lp_tautomer_probability>
1

> <r_epik_Ionization_Penalty>
6.90846

> <r_epik_Ionization_Penalty_Charging>
6.90846

> <r_epik_Ionization_Penalty_Neutral>
1.08445e-11

> <r_epik_State_Penalty>
7.54671

> <r_epik_Charging_Adjusted_Penalty>
14.4552

> <i_epik_Tot_Q>
0

> <i_epik_Tot_abs_Q>
2

> <r_epik_Metal_State_Penalty>
3.46181

> <b_epik_Metal_Only>
1

> <s_lp_Force_Field>
OPLS_2005

> <r_lp_Energy>
43.982

> <b_lp_Chiralities_Consistent>
1

> <s_lp_Variant>
AV-unprocessed.smi:2001-10

> <Gold.Version>
5.8.1

> <Gold.Id.Protein>
6NUR|6NUR_protein|mol2

> <Gold.PLP.Fitness>
42.9050

> <Gold.PLP.PLP>
-38.9850

> <Gold.PLP.part.hbond>
-2.3090

> <Gold.PLP.part.metal>
0.0000

> <Gold.PLP.part.buried>
-6.9734

> <Gold.PLP.part.nonpolar>
-29.8638

> <Gold.PLP.part.repulsive>
0.2269

> <Gold.PLP.ligand.clash>
0.0000

> <Gold.PLP.ligand.torsion>
2.2145

> <Gold.PLP.Chemscore.Hbond>
2.7200

> <Gold.PLP.Chemscore.CHOScore>
0.0000

> <Gold.PLP.Chemscore.Metal>
0.0000

> <Gold.Chemscore.Hbonds>
donor molecule, donor type, donor heavy atom, donor atom, acceptor molecule, acceptor atom, score
      P1  H  6896  6909       L1    10  2.00
      P1  H  7989  7998       L1    24  0.44

> <Gold.PLP.Chemscore.Internal.Correction>
0.1889

> <Gold.Rescore>
     Score         DG    S(hbond)    S(metal)    S(lipo)     H(rot)  DE(clash)    DE(int)     intcor
     11.68     -14.07       0.80        0.00      94.80       2.02       0.08       2.32       ----

> <Gold.Chemscore.Fitness>
11.6794

> <Gold.Chemscore.DG>
-14.0715

> <Gold.Chemscore.ZeroCoef>
-5.4800

> <Gold.Chemscore.Hbond>
0.7982

> <Gold.Chemscore.Metal>
0.0000

> <Gold.Chemscore.Lipo>
94.7978

> <Gold.Chemscore.Internal_Hbond>
0.0000

> <Gold.Chemscore.DEClash>
0.0757

> <Gold.Chemscore.DEInternal>
2.3164

> <Gold.Chemscore.Rot>
2.0179

> <Gold.Chemscore.Internal.Correction>
   9.000000E+99

> <Gold.Chemscore.Hbonds>
donor molecule, donor type, donor heavy atom, donor atom, acceptor molecule, acceptor atom, score
      P1  H  6896  6909       L1    10  0.70
      P1  H  7989  7998       L1    24  0.04

> <Gold.Chemscore.Hbond.Weighted>
-2.6660

> <Gold.Chemscore.Metal.Weighted>
-0.0000

> <Gold.Chemscore.Lipo.Weighted>
-11.0913

> <Gold.Chemscore.Internal_Hbond.Weighted>
0.0000

> <Gold.Chemscore.DEClash.Weighted>
0.0757

> <Gold.Chemscore.DEInternal.Weighted>
2.3164

> <Gold.Chemscore.Rot.Weighted>
5.1659

> <Gold.Chemscore.Internal.Correction.Weighted>
   9.000000E+99

> <Gold.Protein.RotatedTorsions>
[ 6907 6896 6895 6894 ] final   99.23 input  -60.11 | X-H torsion
[ 7974 7965 7964 7962 ] final   21.12 input  175.53 | X-H torsion
[ 8008 7997 7996 7995 ] final  102.78 input   59.86 | X-H torsion
[ 10167 10162 10161 10158 ] final  -20.84 input  -65.29 | X-H torsion
[ 10718 10713 10712 10709 ] final  -71.46 input   66.30 | X-H torsion
[ 10763 10752 10751 10750 ] final   -6.40 input  -60.55 | X-H torsion
[ 11005 11000 10999 10996 ] final   43.24 input  -57.11 | X-H torsion

> <Gold.Protein.ActiveResidues>
 VAL166  LYS551  ARG553  GLY616  TRP617  ASP618  TYR619  PRO620  LYS621  CYS622 
 ASP623  PHE694  ASN695  SER759  ASP760  ASP761  ALA762  ILE779  LEU786  VAL792 
 PHE793  MET794  SER795  GLU796  ALA797  LYS798  CYS799  TRP800  GLU811  SER814 

> <Gold.Protein.RotatedAtoms>
  152.5396  134.0460  159.8088 H   0  0  0  0  0  0  0  0  0  0  0  0  # atno 6907 bound_to 6896
  151.0609  133.5537  159.2641 H   0  0  0  0  0  0  0  0  0  0  0  0  # atno 6908 bound_to 6896
  151.2437  135.0606  159.9089 H   0  0  0  0  0  0  0  0  0  0  0  0  # atno 6909 bound_to 6896
  146.2084  139.8073  142.8708 H   0  0  0  0  0  0  0  0  0  0  0  0  # atno 7974 bound_to 7965
  156.1424  140.3175  155.8517 H   0  0  0  0  0  0  0  0  0  0  0  0  # atno 8008 bound_to 7997
  155.4128  140.0507  157.3048 H   0  0  0  0  0  0  0  0  0  0  0  0  # atno 8009 bound_to 7997
  154.4988  140.2121  155.9403 H   0  0  0  0  0  0  0  0  0  0  0  0  # atno 8010 bound_to 7997
  140.7278  143.4684  151.0281 H   0  0  0  0  0  0  0  0  0  0  0  0  # atno 10167 bound_to 10162
  156.0362  130.4352  150.2448 H   0  0  0  0  0  0  0  0  0  0  0  0  # atno 10718 bound_to 10713
  153.4119  135.7008  153.6353 H   0  0  0  0  0  0  0  0  0  0  0  0  # atno 10763 bound_to 10752
  153.4844  135.3686  155.2459 H   0  0  0  0  0  0  0  0  0  0  0  0  # atno 10764 bound_to 10752
  154.8717  135.4074  154.3472 H   0  0  0  0  0  0  0  0  0  0  0  0  # atno 10765 bound_to 10752
  140.1663  134.4278  155.8285 H   0  0  0  0  0  0  0  0  0  0  0  0  # atno 11005 bound_to 11000
  145.3233  141.0249  143.3488 LP  0  0  0  0  0  0  0  0  0  0  0  0  # atno 17320 bound_to 7965
  144.8851  139.4851  143.6704 LP  0  0  0  0  0  0  0  0  0  0  0  0  # atno 17321 bound_to 7965
  139.8374  143.7609  152.3180 LP  0  0  0  0  0  0  0  0  0  0  0  0  # atno 17342 bound_to 10162
  139.7746  144.7465  151.0175 LP  0  0  0  0  0  0  0  0  0  0  0  0  # atno 17343 bound_to 10162
  157.0547  131.0072  151.3242 LP  0  0  0  0  0  0  0  0  0  0  0  0  # atno 17370 bound_to 10713
  157.5115  130.7941  149.7710 LP  0  0  0  0  0  0  0  0  0  0  0  0  # atno 17371 bound_to 10713
  141.2214  133.6936  156.7684 LP  0  0  0  0  0  0  0  0  0  0  0  0  # atno 17394 bound_to 11000
  140.2430  134.8599  157.3592 LP  0  0  0  0  0  0  0  0  0  0  0  0  # atno 17395 bound_to 11000

$$$$
