AV-unprocessed.smi:283|AV-procd|sdf|2154|dock8
  -GOLD-   2262021503D 1   1.00000     0.00000
 Structure written by MMmdl.
 48 51  0  0  0  0  0  0  0  0  1 V2000
  151.8853  140.5313  155.9798 C   0  0  0  0  0  0  0  0  0  0  0  0
  150.7834  141.4405  156.5405 C   0  0  1  0  0  0  0  0  0  0  0  0
  149.6452  140.6290  156.9665 N   0  0  0  0  0  0  0  0  0  0  0  0
  148.5726  140.4492  156.1638 C   0  0  0  0  0  0  0  0  0  0  0  0
  147.7928  141.5409  155.9806 N   0  0  0  0  0  0  0  0  0  0  0  0
  146.7193  141.4730  155.1892 C   0  0  0  0  0  0  0  0  0  0  0  0
  146.2559  140.4284  154.5021 N   0  0  0  0  0  0  0  0  0  0  0  0
  147.0258  139.3179  154.6902 C   0  0  0  0  0  0  0  0  0  0  0  0
  148.1917  139.2417  155.5062 C   0  0  0  0  0  0  0  0  0  0  0  0
  148.6935  137.9462  155.4664 N   0  0  0  0  0  0  0  0  0  0  0  0
  147.8858  137.3080  154.6657 C   0  0  0  0  0  0  0  0  0  0  0  0
  146.8516  138.0564  154.1532 N   0  0  0  0  0  0  0  0  0  0  0  0
  145.7786  137.5904  153.2148 C   0  0  2  0  0  0  0  0  0  0  0  0
  145.8127  136.1959  153.1240 O   0  0  0  0  0  0  0  0  0  0  0  0
  146.0091  135.7873  151.7712 C   0  0  1  0  0  0  0  0  0  0  0  0
  145.2862  134.4508  151.5400 C   0  0  0  0  0  0  0  0  0  0  0  0
  144.8106  134.3629  150.2138 O   0  0  0  0  0  0  0  0  0  0  0  0
  145.4689  136.9679  150.9590 C   0  0  2  0  0  0  0  0  0  0  0  0
  145.9510  137.0158  149.6298 O   0  0  0  0  0  0  0  0  0  0  0  0
  145.9194  138.1608  151.7902 C   0  0  2  0  0  0  0  0  0  0  0  0
  147.2378  138.5822  151.4733 O   0  0  0  0  0  0  0  0  0  0  0  0
  151.3542  142.3622  157.6226 C   0  0  0  0  0  0  0  0  0  0  0  0
  151.2760  143.7661  157.4670 C   0  0  0  0  0  0  0  0  0  0  0  0
  151.7995  144.6284  158.4483 C   0  0  0  0  0  0  0  0  0  0  0  0
  152.4011  144.0961  159.6025 C   0  0  0  0  0  0  0  0  0  0  0  0
  152.4707  142.7016  159.7761 C   0  0  0  0  0  0  0  0  0  0  0  0
  151.9470  141.8333  158.7972 C   0  0  0  0  0  0  0  0  0  0  0  0
  152.0461  140.1290  159.0729 Cl  0  0  0  0  0  0  0  0  0  0  0  0
  144.8448  137.8858  153.6951 H   0  0  0  0  0  0  0  0  0  0  0  0
  147.0818  135.6734  151.6061 H   0  0  0  0  0  0  0  0  0  0  0  0
  144.3784  136.9331  150.9406 H   0  0  0  0  0  0  0  0  0  0  0  0
  145.2504  139.0135  151.6706 H   0  0  0  0  0  0  0  0  0  0  0  0
  152.7098  141.1187  155.5746 H   0  0  0  0  0  0  0  0  0  0  0  0
  151.5048  139.9025  155.1744 H   0  0  0  0  0  0  0  0  0  0  0  0
  152.2911  139.8762  156.7513 H   0  0  0  0  0  0  0  0  0  0  0  0
  150.4256  142.0466  155.7101 H   0  0  0  0  0  0  0  0  0  0  0  0
  149.5954  140.4666  157.9618 H   0  0  0  0  0  0  0  0  0  0  0  0
  146.1515  142.3864  155.0902 H   0  0  0  0  0  0  0  0  0  0  0  0
  148.0233  136.2633  154.4277 H   0  0  0  0  0  0  0  0  0  0  0  0
  145.9756  133.6225  151.7055 H   0  0  0  0  0  0  0  0  0  0  0  0
  144.4584  134.3248  152.2385 H   0  0  0  0  0  0  0  0  0  0  0  0
  145.5086  134.6103  149.6268 H   0  0  0  0  0  0  0  0  0  0  0  0
  145.8855  136.1479  149.2608 H   0  0  0  0  0  0  0  0  0  0  0  0
  147.8278  137.8606  151.6284 H   0  0  0  0  0  0  0  0  0  0  0  0
  150.8147  144.1928  156.5885 H   0  0  0  0  0  0  0  0  0  0  0  0
  151.7389  145.6985  158.3147 H   0  0  0  0  0  0  0  0  0  0  0  0
  152.8042  144.7560  160.3565 H   0  0  0  0  0  0  0  0  0  0  0  0
  152.9270  142.2964  160.6673 H   0  0  0  0  0  0  0  0  0  0  0  0
  1  2  1  0  0  0  0
  1 33  1  0  0  0  0
  1 34  1  0  0  0  0
  1 35  1  0  0  0  0
  2  3  1  0  0  0  0
  2 22  1  0  0  0  0
  2 36  1  0  0  0  0
  3  4  1  0  0  0  0
  3 37  1  0  0  0  0
  4  9  1  0  0  0  0
  4  5  2  0  0  0  0
  5  6  1  0  0  0  0
  6  7  2  0  0  0  0
  6 38  1  0  0  0  0
  7  8  1  0  0  0  0
  8 12  1  0  0  0  0
  8  9  2  0  0  0  0
  9 10  1  0  0  0  0
 10 11  2  0  0  0  0
 11 12  1  0  0  0  0
 11 39  1  0  0  0  0
 12 13  1  0  0  0  0
 13 29  1  0  0  0  0
 13 20  1  0  0  0  0
 13 14  1  0  0  0  0
 14 15  1  0  0  0  0
 15 30  1  0  0  0  0
 15 16  1  0  0  0  0
 15 18  1  0  0  0  0
 16 17  1  0  0  0  0
 16 40  1  0  0  0  0
 16 41  1  0  0  0  0
 17 42  1  0  0  0  0
 18 31  1  0  0  0  0
 18 19  1  0  0  0  0
 18 20  1  0  0  0  0
 19 43  1  0  0  0  0
 20 32  1  0  0  0  0
 20 21  1  0  0  0  0
 21 44  1  0  0  0  0
 22 27  1  0  0  0  0
 22 23  2  0  0  0  0
 23 24  1  0  0  0  0
 23 45  1  0  0  0  0
 24 25  2  0  0  0  0
 24 46  1  0  0  0  0
 25 26  1  0  0  0  0
 25 47  1  0  0  0  0
 26 27  2  0  0  0  0
 26 48  1  0  0  0  0
 27 28  1  0  0  0  0
M  END
> <s_m_source_file>
AV-unprocessed.smi

> <i_m_source_file_index>
283

> <i_lp_mmshare_version>
43012

> <i_f3d_flags>
0

> <s_epik_input>
Q2xjMVtjSF1bY0hdW2NIXVtjSF1jMVtDQEhdKFtDSDNdKVtOSF1jKG5bY0hdbjIpYyhjMjMpbltjSF1uM1tDQEBIXTRPW0NASF0oW0NIMl1bT0hdKVtDQEBIXShbT0hdKVtDQEhdNFtPSF0=

> <s_epik_cmdline>
J2VwaWtfcHl0aG9uJywgJy1waCcsICc3LjAnLCAnLXRuJywgJzgnLCAnLW1hJywgJzIwMCcsICctbWV0YWxfYmluZGluZycsICctaW1hZScsICc8aW5maWxlLm1hZT4nLCAnLW9tYWUnLCAnPG91dGZpbGUubWFlPic=

> <r_lp_tautomer_probability>
1

> <r_epik_Ionization_Penalty>
0.000266407

> <r_epik_Ionization_Penalty_Charging>
0

> <r_epik_Ionization_Penalty_Neutral>
0.000266407

> <r_epik_State_Penalty>
-0

> <r_epik_Charging_Adjusted_Penalty>
0

> <i_epik_Tot_Q>
0

> <i_epik_Tot_abs_Q>
0

> <r_epik_Metal_State_Penalty>
-0

> <b_epik_Metal_Only>
0

> <s_epik_Chemistry_Notes>
This compound contains an acetal/aminal-like group ( X-CH(R)-Y where X, Y are N, S, or O) that may be acid/base labile, releasing an aldehyde.

> <s_lp_Force_Field>
OPLS_2005

> <r_lp_Energy>
52.4072

> <b_lp_Chiralities_Consistent>
1

> <s_lp_Variant>
AV-unprocessed.smi:283-30

> <Gold.Version>
5.8.1

> <Gold.Id.Protein>
6NUR|6NUR_protein|mol2

> <Gold.PLP.Fitness>
48.2129

> <Gold.PLP.PLP>
-41.2208

> <Gold.PLP.part.hbond>
-7.0000

> <Gold.PLP.part.metal>
0.0000

> <Gold.PLP.part.buried>
5.9455

> <Gold.PLP.part.nonpolar>
-40.1659

> <Gold.PLP.part.repulsive>
0.4742

> <Gold.PLP.ligand.clash>
0.0000

> <Gold.PLP.ligand.torsion>
1.5835

> <Gold.PLP.Chemscore.Hbond>
3.0994

> <Gold.PLP.Chemscore.CHOScore>
0.2496

> <Gold.PLP.Chemscore.Metal>
0.0000

> <Gold.Chemscore.Hbonds>
donor molecule, donor type, donor heavy atom, donor atom, acceptor molecule, acceptor atom, score
      L1  H    17    42       P1  7921  0.78
      L1  H    19    43       P1  7921  0.82
      L1  H    21    44       P1  7948  1.00
      P1  H  7954  7966       L1    19  0.07
      L1  C    11    39       P1  7948  0.26

> <Gold.PLP.Chemscore.Internal.Correction>
0.1119

> <Gold.Rescore>
     Score         DG    S(hbond)    S(metal)    S(lipo)     H(rot)  DE(clash)    DE(int)     intcor
     12.78     -17.79       2.73        0.00     116.88       4.10       3.59       1.42       ----

> <Gold.Chemscore.Fitness>
12.7825

> <Gold.Chemscore.DG>
-17.7885

> <Gold.Chemscore.ZeroCoef>
-5.4800

> <Gold.Chemscore.Hbond>
2.7311

> <Gold.Chemscore.Metal>
0.0000

> <Gold.Chemscore.Lipo>
116.8764

> <Gold.Chemscore.Internal_Hbond>
0.0000

> <Gold.Chemscore.DEClash>
3.5896

> <Gold.Chemscore.DEInternal>
1.4164

> <Gold.Chemscore.Rot>
4.0968

> <Gold.Chemscore.Internal.Correction>
   9.000000E+99

> <Gold.Chemscore.Hbonds>
donor molecule, donor type, donor heavy atom, donor atom, acceptor molecule, acceptor atom, score
      L1  H    17    42       P1  7921  0.72
      L1  H    19    43       P1  7921  0.77
      L1  H    21    44       P1  7948  0.99
      P1  H  7954  7966       L1    19  0.03

> <Gold.Chemscore.Hbond.Weighted>
-9.1219

> <Gold.Chemscore.Metal.Weighted>
-0.0000

> <Gold.Chemscore.Lipo.Weighted>
-13.6745

> <Gold.Chemscore.Internal_Hbond.Weighted>
0.0000

> <Gold.Chemscore.DEClash.Weighted>
3.5896

> <Gold.Chemscore.DEInternal.Weighted>
1.4164

> <Gold.Chemscore.Rot.Weighted>
10.4879

> <Gold.Chemscore.Internal.Correction.Weighted>
   9.000000E+99

> <Gold.Protein.RotatedTorsions>
[ 6907 6896 6895 6894 ] final    6.66 input  -60.11 | X-H torsion
[ 7974 7965 7964 7962 ] final   63.63 input  175.53 | X-H torsion
[ 8008 7997 7996 7995 ] final -140.72 input   59.86 | X-H torsion
[ 10167 10162 10161 10158 ] final   82.21 input  -65.29 | X-H torsion
[ 10718 10713 10712 10709 ] final   63.56 input   66.30 | X-H torsion
[ 10763 10752 10751 10750 ] final   -4.54 input  -60.55 | X-H torsion
[ 11005 11000 10999 10996 ] final -109.39 input  -57.11 | X-H torsion

> <Gold.Protein.ActiveResidues>
 VAL166  LYS551  ARG553  GLY616  TRP617  ASP618  TYR619  PRO620  LYS621  CYS622 
 ASP623  PHE694  ASN695  SER759  ASP760  ASP761  ALA762  ILE779  LEU786  VAL792 
 PHE793  MET794  SER795  GLU796  ALA797  LYS798  CYS799  TRP800  GLU811  SER814 

> <Gold.Protein.RotatedAtoms>
  151.6772  135.0967  160.0209 H   0  0  0  0  0  0  0  0  0  0  0  0  # atno 6907 bound_to 6896
  152.3856  133.6603  159.6205 H   0  0  0  0  0  0  0  0  0  0  0  0  # atno 6908 bound_to 6896
  150.7783  133.8957  159.3367 H   0  0  0  0  0  0  0  0  0  0  0  0  # atno 6909 bound_to 6896
  145.8596  139.3306  143.0827 H   0  0  0  0  0  0  0  0  0  0  0  0  # atno 7974 bound_to 7965
  155.4660  140.0549  157.2985 H   0  0  0  0  0  0  0  0  0  0  0  0  # atno 8008 bound_to 7997
  154.4718  140.2043  155.9931 H   0  0  0  0  0  0  0  0  0  0  0  0  # atno 8009 bound_to 7997
  156.1067  140.3210  155.8021 H   0  0  0  0  0  0  0  0  0  0  0  0  # atno 8010 bound_to 7997
  139.9312  144.6150  150.8343 H   0  0  0  0  0  0  0  0  0  0  0  0  # atno 10167 bound_to 10162
  157.5979  130.9112  149.9731 H   0  0  0  0  0  0  0  0  0  0  0  0  # atno 10718 bound_to 10713
  153.3863  135.7000  153.6528 H   0  0  0  0  0  0  0  0  0  0  0  0  # atno 10763 bound_to 10752
  153.5118  135.3630  155.2591 H   0  0  0  0  0  0  0  0  0  0  0  0  # atno 10764 bound_to 10752
  154.8698  135.4137  154.3171 H   0  0  0  0  0  0  0  0  0  0  0  0  # atno 10765 bound_to 10752
  141.0850  133.9154  157.2205 H   0  0  0  0  0  0  0  0  0  0  0  0  # atno 11005 bound_to 11000
  145.9264  140.9080  143.0379 LP  0  0  0  0  0  0  0  0  0  0  0  0  # atno 17320 bound_to 7965
  144.6727  140.1358  143.7440 LP  0  0  0  0  0  0  0  0  0  0  0  0  # atno 17321 bound_to 7965
  140.7637  143.3229  151.2581 LP  0  0  0  0  0  0  0  0  0  0  0  0  # atno 17342 bound_to 10162
  139.6781  143.9903  152.2792 LP  0  0  0  0  0  0  0  0  0  0  0  0  # atno 17343 bound_to 10162
  156.1046  130.3653  150.0157 LP  0  0  0  0  0  0  0  0  0  0  0  0  # atno 17370 bound_to 10713
  156.8266  130.9377  151.3639 LP  0  0  0  0  0  0  0  0  0  0  0  0  # atno 17371 bound_to 10713
  139.9667  135.0140  156.9406 LP  0  0  0  0  0  0  0  0  0  0  0  0  # atno 17394 bound_to 11000
  140.5383  134.0745  155.7334 LP  0  0  0  0  0  0  0  0  0  0  0  0  # atno 17395 bound_to 11000

$$$$
