#       Name:                AV-unprocessed.smi:198
#       Creating user name   scv26
#       Creation time:       Thu Mar 26 19:42:27 2020


#       File generated by GOLD software.
#

@<TRIPOS>MOLECULE
AV-unprocessed.smi:198
    67    71     1
SMALL
NO_CHARGES


@<TRIPOS>ATOM
      1 ****        -4.0788  -2.2997   2.4011 C.3            1 S1                 0.0000
      2 ****        -4.0042  -0.8537   2.1010 N.4            1 S1                 1.0000
      3 ****        -2.6248  -0.3248   2.2208 C.3            1 S1                 0.0000
      4 ****        -2.6095   1.2003   2.0336 C.3            1 S1                 0.0000
      5 ****        -3.2196   1.6258   0.6759 C.3            1 S1                 0.0000
      6 ****        -4.6375   1.0131   0.5547 C.3            1 S1                 0.0000
      7 ****        -5.2832   1.3916  -0.7929 C.3            1 S1                 0.0000
      8 ****        -4.3678   1.0351  -1.9743 C.3            1 S1                 0.0000
      9 ****        -2.9690   1.6379  -1.7834 C.3            1 S1                 0.0000
     10 ****        -2.3995   1.2619  -0.4905 N.3            1 S1                 0.0000
     11 ****        -1.0909   1.5946  -0.4306 C.ar           1 S1                 0.0000
     12 ****        -0.7232   2.8840  -0.2105 N.ar           1 S1                 0.0000
     13 ****         0.5735   3.2029  -0.1502 C.ar           1 S1                 0.0000
     14 ****         1.6368   2.4054  -0.2804 N.ar           1 S1                 0.0000
     15 ****         1.2657   1.1115  -0.5051 C.ar           1 S1                 0.0000
     16 ****        -0.0680   0.6259  -0.5940 C.ar           1 S1                 0.0000
     17 ****        -0.0676  -0.7439  -0.8192 N.2            1 S1                 0.0000
     18 ****         1.1999  -1.0533  -0.8609 C.2            1 S1                 0.0000
     19 ****         2.0715   0.0004  -0.6898 N.pl3          1 S1                 0.0000
     20 ****         3.5055  -0.0637  -0.6742 C.3            1 S1                 0.0000
     21 ****         4.2805  -0.8957  -1.6988 C.3            1 S1                 0.0000
     22 ****         5.3525  -1.1995  -0.6264 C.3            1 S1                 0.0000
     23 ****         5.8656  -2.6487  -0.5944 C.3            1 S1                 0.0000
     24 ****         6.4875  -2.9439   0.6397 O.3            1 S1                 0.0000
     25 ****         6.5563  -0.2358  -0.6102 C.3            1 S1                 0.0000
     26 ****         7.3188  -0.3416  -1.7958 O.3            1 S1                 0.0000
     27 ****         4.2379  -0.8754   0.3940 C.3            1 S1                 0.0000
     28 ****        -4.6158  -0.5156   0.7926 C.3            1 S1                 0.0000
     29 ****        -3.5127  -2.8808   1.6719 H              1 S1                 0.0000
     30 ****        -5.1134  -2.6438   2.3847 H              1 S1                 0.0000
     31 ****        -3.6755  -2.5088   3.3925 H              1 S1                 0.0000
     32 ****        -2.2234  -0.5726   3.2042 H              1 S1                 0.0000
     33 ****        -1.9786  -0.8068   1.4856 H              1 S1                 0.0000
     34 ****        -3.1903   1.6563   2.8364 H              1 S1                 0.0000
     35 ****        -1.5969   1.5837   2.1589 H              1 S1                 0.0000
     36 ****        -3.3170   2.7128   0.6734 H              1 S1                 0.0000
     37 ****        -5.2567   1.4482   1.3407 H              1 S1                 0.0000
     38 ****        -6.2523   0.9041  -0.9045 H              1 S1                 0.0000
     39 ****        -5.4780   2.4648  -0.8071 H              1 S1                 0.0000
     40 ****        -4.2901  -0.0473  -2.0779 H              1 S1                 0.0000
     41 ****        -4.8030   1.3983  -2.9055 H              1 S1                 0.0000
     42 ****        -2.3156   1.3057  -2.5919 H              1 S1                 0.0000
     43 ****        -3.0258   2.7257  -1.8487 H              1 S1                 0.0000
     44 ****         0.7901   4.2460   0.0271 H              1 S1                 0.0000
     45 ****         1.5351  -2.0686  -1.0158 H              1 S1                 0.0000
     46 ****         3.8689   0.9652  -0.6822 H              1 S1                 0.0000
     47 ****         3.7408  -1.7869  -2.0226 H              1 S1                 0.0000
     48 ****         4.6365  -0.3274  -2.5585 H              1 S1                 0.0000
     49 ****         5.0441  -3.3531  -0.7284 H              1 S1                 0.0000
     50 ****         6.5700  -2.8446  -1.4030 H              1 S1                 0.0000
     51 ****         6.7858  -3.8403   0.6181 H              1 S1                 0.0000
     52 ****         6.2300   0.8001  -0.5173 H              1 S1                 0.0000
     53 ****         7.2075  -0.4238   0.2438 H              1 S1                 0.0000
     54 ****         8.0387   0.2686  -1.7453 H              1 S1                 0.0000
     55 ****         4.5622  -0.2943   1.2578 H              1 S1                 0.0000
     56 ****         3.6777  -1.7586   0.7067 H              1 S1                 0.0000
     57 ****        -4.0621  -1.0263   0.0038 H              1 S1                 0.0000
     58 ****        -5.6349  -0.9032   0.7635 H              1 S1                 0.0000
     59 ****        -4.5550  -0.3854   2.8064 H              1 S1                 0.0000
     60 ****        -2.4279   0.2643  -0.4275 LP             1 S1                 0.0000
     61 ****        -1.4200   3.5917  -0.0940 LP             1 S1                 0.0000
     62 ****         2.5852   2.7170  -0.2207 LP             1 S1                 0.0000
     63 ****        -0.8546  -1.3518  -0.9248 LP             1 S1                 0.0000
     64 ****         5.8317  -2.8245   1.3851 LP             1 S1                 0.0000
     65 ****         7.2663  -2.3325   0.7798 LP             1 S1                 0.0000
     66 ****         6.7460  -0.1228  -2.5857 LP             1 S1                 0.0000
     67 ****         7.6718  -1.2727  -1.8877 LP             1 S1                 0.0000
@<TRIPOS>BOND
    1    1    2 1     
    2    1   29 1     
    3    1   30 1     
    4    1   31 1     
    5    2   28 1     
    6    2    3 1     
    7    2   59 1     
    8    3    4 1     
    9    3   32 1     
   10    3   33 1     
   11    4    5 1     
   12    4   34 1     
   13    4   35 1     
   14    5   10 1     
   15    5    6 1     
   16    5   36 1     
   17    6    7 1     
   18    6   28 1     
   19    6   37 1     
   20    7    8 1     
   21    7   38 1     
   22    7   39 1     
   23    8    9 1     
   24    8   40 1     
   25    8   41 1     
   26    9   10 1     
   27    9   42 1     
   28    9   43 1     
   29   10   11 1     
   30   11   16 ar    
   31   11   12 ar    
   32   12   13 ar    
   33   13   14 ar    
   34   13   44 1     
   35   14   15 ar    
   36   15   19 1     
   37   15   16 ar    
   38   16   17 1     
   39   17   18 2     
   40   18   19 1     
   41   18   45 1     
   42   19   20 1     
   43   20   27 1     
   44   20   21 1     
   45   20   46 1     
   46   21   22 1     
   47   21   47 1     
   48   21   48 1     
   49   22   23 1     
   50   22   25 1     
   51   22   27 1     
   52   23   24 1     
   53   23   49 1     
   54   23   50 1     
   55   24   51 1     
   56   25   26 1     
   57   25   52 1     
   58   25   53 1     
   59   26   54 1     
   60   27   55 1     
   61   27   56 1     
   62   28   57 1     
   63   28   58 1     
   64   10   60 1     
   65   12   61 1     
   66   14   62 1     
   67   17   63 1     
   68   24   64 1     
   69   24   65 1     
   70   26   66 1     
   71   26   67 1     
@<TRIPOS>SUBSTRUCTURE
      1 S1             1
@<TRIPOS>SET
LONE_PAIRS      STATIC     ATOMS    <user>   **** ""
8 60 61 62 63 64 65 66 67
DONOR_HYDROGENS      STATIC     ATOMS    <user>   **** ""
3 59 51 54
ATOM$BLUE        STATIC     ATOMS    COLORGROUP SYSTEM
8 60 61 62 63 64 65 66 67
ATOM$RED        STATIC     ATOMS    COLORGROUP SYSTEM
3 59 51 54
