AV-unprocessed.smi:72|AV-procd|sdf|687|dock8
  -GOLD-   2262017 03D 1   1.00000     0.00000
 Structure written by MMmdl.
 29 30  0  0  0  0  0  0  0  0  1 V2000
  152.1670  137.0270  159.7660 N   0  0  0  0  0  0  0  0  0  0  0  0
  151.6954  137.5957  158.7151 C   0  0  0  0  0  0  0  0  0  0  0  0
  150.3341  137.8062  158.4476 N   0  0  0  0  0  0  0  0  0  0  0  0
  150.0044  138.4025  157.3434 C   0  0  0  0  0  0  0  0  0  0  0  0
  150.9970  138.8622  156.3837 N   0  0  0  0  0  0  0  0  0  0  0  0
  150.5744  139.5619  155.1088 C   0  0  2  0  0  0  0  0  0  0  0  0
  149.7028  140.5964  155.4462 O   0  0  0  0  0  0  0  0  0  0  0  0
  148.6778  140.6855  154.4692 C   0  0  2  0  0  0  0  0  0  0  0  0
  147.4524  141.3791  155.0857 C   0  0  0  0  0  0  0  0  0  0  0  0
  147.8533  142.4040  155.9696 O   0  0  0  0  0  0  0  0  0  0  0  0
  148.4525  139.2292  154.0448 C   0  0  1  0  0  0  0  0  0  0  0  0
  147.9435  139.1664  152.7273 O   0  0  0  0  0  0  0  0  0  0  0  0
  149.8543  138.6322  154.1042 C   0  0  2  0  0  0  0  0  0  0  0  0
  149.8065  137.2696  154.4888 O   0  0  0  0  0  0  0  0  0  0  0  0
  152.3738  138.6399  156.6296 C   0  0  0  0  0  0  0  0  0  0  0  0
  153.2524  138.9780  155.8368 O   0  0  0  0  0  0  0  0  0  0  0  0
  152.6625  138.0186  157.7936 N   0  0  0  0  0  0  0  0  0  0  0  0
  151.4715  140.0139  154.6833 H   0  0  0  0  0  0  0  0  0  0  0  0
  149.0751  141.2717  153.6376 H   0  0  0  0  0  0  0  0  0  0  0  0
  147.7829  138.7263  154.7446 H   0  0  0  0  0  0  0  0  0  0  0  0
  150.3652  138.7246  153.1445 H   0  0  0  0  0  0  0  0  0  0  0  0
  153.1755  136.9954  159.7200 H   0  0  0  0  0  0  0  0  0  0  0  0
  148.9683  138.5931  157.0597 H   0  0  0  0  0  0  0  0  0  0  0  0
  146.8029  141.7899  154.3121 H   0  0  0  0  0  0  0  0  0  0  0  0
  146.8617  140.6581  155.6514 H   0  0  0  0  0  0  0  0  0  0  0  0
  148.2002  143.1213  155.4615 H   0  0  0  0  0  0  0  0  0  0  0  0
  148.6407  139.3768  152.1255 H   0  0  0  0  0  0  0  0  0  0  0  0
  149.5910  136.7512  153.7285 H   0  0  0  0  0  0  0  0  0  0  0  0
  153.6347  137.8455  158.0043 H   0  0  0  0  0  0  0  0  0  0  0  0
  1  2  2  0  0  0  0
  1 22  1  0  0  0  0
  2 17  1  0  0  0  0
  2  3  1  0  0  0  0
  3  4  2  0  0  0  0
  4  5  1  0  0  0  0
  4 23  1  0  0  0  0
  5  6  1  0  0  0  0
  5 15  1  0  0  0  0
  6 18  1  0  0  0  0
  6 13  1  0  0  0  0
  6  7  1  0  0  0  0
  7  8  1  0  0  0  0
  8 19  1  0  0  0  0
  8  9  1  0  0  0  0
  8 11  1  0  0  0  0
  9 10  1  0  0  0  0
  9 24  1  0  0  0  0
  9 25  1  0  0  0  0
 10 26  1  0  0  0  0
 11 20  1  0  0  0  0
 11 12  1  0  0  0  0
 11 13  1  0  0  0  0
 12 27  1  0  0  0  0
 13 21  1  0  0  0  0
 13 14  1  0  0  0  0
 14 28  1  0  0  0  0
 15 16  2  0  0  0  0
 15 17  1  0  0  0  0
 17 29  1  0  0  0  0
M  END
> <s_m_source_file>
AV-unprocessed.smi

> <i_m_source_file_index>
72

> <i_lp_mmshare_version>
43012

> <i_f3d_flags>
0

> <s_epik_input>
W05IMl1jMW5bY0hdbihjKD1PKW4xKVtDQEBIXTJPW0NASF0oW0NIMl1bT0hdKVtDQEBIXShbT0hdKVtDQEhdMltPSF0=

> <s_epik_cmdline>
J2VwaWtfcHl0aG9uJywgJy1waCcsICc3LjAnLCAnLXRuJywgJzgnLCAnLW1hJywgJzIwMCcsICctbWV0YWxfYmluZGluZycsICctaW1hZScsICc8aW5maWxlLm1hZT4nLCAnLW9tYWUnLCAnPG91dGZpbGUubWFlPic=

> <r_lp_tautomer_probability>
7.17554e-07

> <r_epik_Ionization_Penalty>
0.0066451

> <r_epik_Ionization_Penalty_Charging>
0.00663793

> <r_epik_Ionization_Penalty_Neutral>
7.17052e-06

> <r_epik_State_Penalty>
0.419231

> <r_epik_Charging_Adjusted_Penalty>
0.425868

> <i_epik_Tot_Q>
0

> <i_epik_Tot_abs_Q>
0

> <r_epik_Metal_State_Penalty>
1.44144

> <b_epik_Metal_Only>
0

> <s_epik_Chemistry_Notes>
This compound contains an acetal/aminal-like group ( X-CH(R)-Y where X, Y are N, S, or O) that may be acid/base labile, releasing an aldehyde.

> <s_lp_Force_Field>
OPLS_2005

> <r_lp_Energy>
41.3964

> <b_lp_Chiralities_Consistent>
1

> <s_lp_Variant>
AV-unprocessed.smi:72-25

> <Gold.Version>
5.8.1

> <Gold.Id.Protein>
6NUR|6NUR_protein|mol2

> <Gold.PLP.Fitness>
36.4597

> <Gold.PLP.PLP>
-22.5339

> <Gold.PLP.part.hbond>
-5.2635

> <Gold.PLP.part.metal>
0.0000

> <Gold.PLP.part.buried>
-4.3826

> <Gold.PLP.part.nonpolar>
-13.8836

> <Gold.PLP.part.repulsive>
0.1859

> <Gold.PLP.ligand.clash>
0.0000

> <Gold.PLP.ligand.torsion>
0.4438

> <Gold.PLP.Chemscore.Hbond>
4.8960

> <Gold.PLP.Chemscore.CHOScore>
0.0000

> <Gold.PLP.Chemscore.Metal>
0.0000

> <Gold.Chemscore.Hbonds>
donor molecule, donor type, donor heavy atom, donor atom, acceptor molecule, acceptor atom, score
      L1  H    10    26       P1  8028  0.83
      L1  H    12    27       P1  7957  0.93
      L1  H    14    28       P1  7948  1.00
      P1  H  6896  6908       L1     1  0.95
      P1  H  7997  8008       L1    16  1.00

> <Gold.PLP.Chemscore.Internal.Correction>
0.1254

> <Gold.Rescore>
     Score         DG    S(hbond)    S(metal)    S(lipo)     H(rot)  DE(clash)    DE(int)     intcor
     12.49     -12.95       4.54        0.00      23.00       4.06       0.00       0.46       ----

> <Gold.Chemscore.Fitness>
12.4893

> <Gold.Chemscore.DG>
-12.9452

> <Gold.Chemscore.ZeroCoef>
-5.4800

> <Gold.Chemscore.Hbond>
4.5414

> <Gold.Chemscore.Metal>
0.0000

> <Gold.Chemscore.Lipo>
22.9960

> <Gold.Chemscore.Internal_Hbond>
0.0000

> <Gold.Chemscore.DEClash>
0.0000

> <Gold.Chemscore.DEInternal>
0.4558

> <Gold.Chemscore.Rot>
4.0600

> <Gold.Chemscore.Internal.Correction>
   9.000000E+99

> <Gold.Chemscore.Hbonds>
donor molecule, donor type, donor heavy atom, donor atom, acceptor molecule, acceptor atom, score
      L1  H    10    26       P1  8028  0.75
      L1  H    12    27       P1  7957  0.89
      L1  H    14    28       P1  7948  0.75
      P1  H  6896  6908       L1     1  0.20
      P1  H  7997  8008       L1    16  0.98

> <Gold.Chemscore.Hbond.Weighted>
-15.1682

> <Gold.Chemscore.Metal.Weighted>
-0.0000

> <Gold.Chemscore.Lipo.Weighted>
-2.6905

> <Gold.Chemscore.Internal_Hbond.Weighted>
0.0000

> <Gold.Chemscore.DEClash.Weighted>
0.0000

> <Gold.Chemscore.DEInternal.Weighted>
0.4558

> <Gold.Chemscore.Rot.Weighted>
10.3936

> <Gold.Chemscore.Internal.Correction.Weighted>
   9.000000E+99

> <Gold.Protein.RotatedTorsions>
[ 6907 6896 6895 6894 ] final -106.20 input  -60.11 | X-H torsion
[ 7974 7965 7964 7962 ] final -136.90 input  175.53 | X-H torsion
[ 8008 7997 7996 7995 ] final  -32.23 input   59.86 | X-H torsion
[ 10167 10162 10161 10158 ] final  162.97 input  -65.29 | X-H torsion
[ 10718 10713 10712 10709 ] final   98.52 input   66.30 | X-H torsion
[ 10763 10752 10751 10750 ] final  142.65 input  -60.55 | X-H torsion
[ 11005 11000 10999 10996 ] final -169.68 input  -57.11 | X-H torsion

> <Gold.Protein.ActiveResidues>
 VAL166  LYS551  ARG553  GLY616  TRP617  ASP618  TYR619  PRO620  LYS621  CYS622 
 ASP623  PHE694  ASN695  SER759  ASP760  ASP761  ALA762  ILE779  LEU786  VAL792 
 PHE793  MET794  SER795  GLU796  ALA797  LYS798  CYS799  TRP800  GLU811  SER814 

> <Gold.Protein.RotatedAtoms>
  150.7376  134.0012  159.3638 H   0  0  0  0  0  0  0  0  0  0  0  0  # atno 6907 bound_to 6896
  151.7966  135.0718  160.0404 H   0  0  0  0  0  0  0  0  0  0  0  0  # atno 6908 bound_to 6896
  152.3170  133.5777  159.5755 H   0  0  0  0  0  0  0  0  0  0  0  0  # atno 6909 bound_to 6896
  144.8887  140.6612  143.5159 H   0  0  0  0  0  0  0  0  0  0  0  0  # atno 7974 bound_to 7965
  154.4187  140.1743  156.1693 H   0  0  0  0  0  0  0  0  0  0  0  0  # atno 8008 bound_to 7997
  155.9773  140.3380  155.6606 H   0  0  0  0  0  0  0  0  0  0  0  0  # atno 8009 bound_to 7997
  155.6546  140.0694  157.2566 H   0  0  0  0  0  0  0  0  0  0  0  0  # atno 8010 bound_to 7997
  139.4867  144.4384  151.8983 H   0  0  0  0  0  0  0  0  0  0  0  0  # atno 10167 bound_to 10162
  157.6894  131.0642  150.4809 H   0  0  0  0  0  0  0  0  0  0  0  0  # atno 10718 bound_to 10713
  153.9594  135.2962  155.3434 H   0  0  0  0  0  0  0  0  0  0  0  0  # atno 10763 bound_to 10752
  154.7383  135.5036  153.9082 H   0  0  0  0  0  0  0  0  0  0  0  0  # atno 10764 bound_to 10752
  153.0954  135.6719  153.9883 H   0  0  0  0  0  0  0  0  0  0  0  0  # atno 10765 bound_to 10752
  140.5280  134.5644  157.5067 H   0  0  0  0  0  0  0  0  0  0  0  0  # atno 11005 bound_to 11000
  145.3822  139.1634  143.4274 LP  0  0  0  0  0  0  0  0  0  0  0  0  # atno 17320 bound_to 7965
  146.3040  140.3903  142.8693 LP  0  0  0  0  0  0  0  0  0  0  0  0  # atno 17321 bound_to 7965
  140.3834  144.2707  150.5906 LP  0  0  0  0  0  0  0  0  0  0  0  0  # atno 17342 bound_to 10162
  140.5212  143.2265  151.8386 LP  0  0  0  0  0  0  0  0  0  0  0  0  # atno 17343 bound_to 10162
  156.5141  130.4146  149.6285 LP  0  0  0  0  0  0  0  0  0  0  0  0  # atno 17370 bound_to 10713
  156.3214  130.7282  151.2195 LP  0  0  0  0  0  0  0  0  0  0  0  0  # atno 17371 bound_to 10713
  139.9569  134.7518  156.0321 LP  0  0  0  0  0  0  0  0  0  0  0  0  # atno 17394 bound_to 11000
  141.1297  133.6589  156.3432 LP  0  0  0  0  0  0  0  0  0  0  0  0  # atno 17395 bound_to 11000

$$$$
