AV-unprocessed.smi:1399|AV-procd|sdf|5681|dock7
  -GOLD-   22720 5303D 1   1.00000     0.00000
 Structure written by MMmdl.
 37 38  0  0  0  0  0  0  0  0  1 V2000
  152.2942  125.0334  151.7495 N   0  0  0  0  0  0  0  0  0  0  0  0
  151.6352  124.2471  152.6044 C   0  0  0  0  0  0  0  0  0  0  0  0
  151.8671  123.0445  152.7055 O   0  0  0  0  0  0  0  0  0  0  0  0
  150.5517  124.9064  153.4657 C   0  0  0  0  0  0  0  0  0  0  0  0
  149.9962  126.1622  152.9095 N   0  0  0  0  0  0  0  0  0  0  0  0
  149.2697  126.9495  153.9171 C   0  0  0  0  0  0  0  0  0  0  0  0
  148.7697  128.2742  153.3134 C   0  0  0  0  0  0  0  0  0  0  0  0
  147.8686  128.0264  152.0925 C   0  0  0  0  0  0  0  0  0  0  0  0
  147.5053  129.2839  151.4460 N   0  0  0  0  0  0  0  0  0  0  0  0
  146.2982  129.8638  151.5084 C   0  0  0  0  0  0  0  0  0  0  0  0
  145.3477  129.3934  152.1336 O   0  0  0  0  0  0  0  0  0  0  0  0
  146.2706  131.0093  150.8077 N   0  0  0  0  0  0  0  0  0  0  0  0
  145.1727  131.8905  150.6411 C   0  0  0  0  0  0  0  0  0  0  0  0
  144.3108  132.3167  151.6879 C   0  0  0  0  0  0  0  0  0  0  0  0
  143.3739  133.1394  151.2384 N   0  0  0  0  0  0  0  0  0  0  0  0
  143.6290  133.2419  149.9144 N   0  0  0  0  0  0  0  0  0  0  0  0
  144.7148  132.4992  149.5060 C   0  0  0  0  0  0  0  0  0  0  0  0
  148.6144  127.1243  151.0997 C   0  0  0  0  0  0  0  0  0  0  0  0
  149.1114  125.8394  151.7850 C   0  0  0  0  0  0  0  0  0  0  0  0
  143.0600  133.8166  149.3090 H   0  0  0  0  0  0  0  0  0  0  0  0
  153.0209  124.6439  151.1669 H   0  0  0  0  0  0  0  0  0  0  0  0
  152.0672  126.0157  151.6947 H   0  0  0  0  0  0  0  0  0  0  0  0
  149.7500  124.1767  153.5888 H   0  0  0  0  0  0  0  0  0  0  0  0
  150.9554  125.0924  154.4629 H   0  0  0  0  0  0  0  0  0  0  0  0
  148.4307  126.3737  154.3116 H   0  0  0  0  0  0  0  0  0  0  0  0
  149.9131  127.1879  154.7640 H   0  0  0  0  0  0  0  0  0  0  0  0
  148.2274  128.8393  154.0722 H   0  0  0  0  0  0  0  0  0  0  0  0
  149.6261  128.8865  153.0265 H   0  0  0  0  0  0  0  0  0  0  0  0
  146.9621  127.5096  152.4142 H   0  0  0  0  0  0  0  0  0  0  0  0
  148.2266  129.7438  150.9101 H   0  0  0  0  0  0  0  0  0  0  0  0
  147.1248  131.2790  150.3421 H   0  0  0  0  0  0  0  0  0  0  0  0
  144.3339  132.0622  152.7374 H   0  0  0  0  0  0  0  0  0  0  0  0
  145.0464  132.4766  148.4785 H   0  0  0  0  0  0  0  0  0  0  0  0
  147.9611  126.8673  150.2651 H   0  0  0  0  0  0  0  0  0  0  0  0
  149.4650  127.6589  150.6735 H   0  0  0  0  0  0  0  0  0  0  0  0
  149.6499  125.2373  151.0518 H   0  0  0  0  0  0  0  0  0  0  0  0
  148.2646  125.2409  152.1260 H   0  0  0  0  0  0  0  0  0  0  0  0
  1  2  1  0  0  0  0
  1 21  1  0  0  0  0
  1 22  1  0  0  0  0
  2  3  2  0  0  0  0
  2  4  1  0  0  0  0
  4  5  1  0  0  0  0
  4 23  1  0  0  0  0
  4 24  1  0  0  0  0
  5 19  1  0  0  0  0
  5  6  1  0  0  0  0
  6  7  1  0  0  0  0
  6 25  1  0  0  0  0
  6 26  1  0  0  0  0
  7  8  1  0  0  0  0
  7 27  1  0  0  0  0
  7 28  1  0  0  0  0
  8  9  1  0  0  0  0
  8 18  1  0  0  0  0
  8 29  1  0  0  0  0
  9 10  1  0  0  0  0
  9 30  1  0  0  0  0
 10 11  2  0  0  0  0
 10 12  1  0  0  0  0
 12 13  1  0  0  0  0
 12 31  1  0  0  0  0
 13 17  2  0  0  0  0
 13 14  1  0  0  0  0
 14 15  2  0  0  0  0
 14 32  1  0  0  0  0
 15 16  1  0  0  0  0
 16 20  1  0  0  0  0
 16 17  1  0  0  0  0
 17 33  1  0  0  0  0
 18 19  1  0  0  0  0
 18 34  1  0  0  0  0
 18 35  1  0  0  0  0
 19 36  1  0  0  0  0
 19 37  1  0  0  0  0
M  END
> <s_m_source_file>
AV-unprocessed.smi

> <i_m_source_file_index>
1399

> <i_lp_mmshare_version>
43012

> <i_f3d_flags>
0

> <s_epik_input>
W05IMl1DKD1PKVtDSDJdTjFbQ0gyXVtDSDJdW0NIXShbQ0gyXVtDSDJdMSlbTkhdQyg9TylbTkhdYzJbY0hdbltuSF1bY0hdMg==

> <s_epik_cmdline>
J2VwaWtfcHl0aG9uJywgJy1waCcsICc3LjAnLCAnLXRuJywgJzgnLCAnLW1hJywgJzIwMCcsICctbWV0YWxfYmluZGluZycsICctaW1hZScsICc8aW5maWxlLm1hZT4nLCAnLW9tYWUnLCAnPG91dGZpbGUubWFlPic=

> <r_lp_tautomer_probability>
0.5

> <r_epik_Ionization_Penalty>
0.164786

> <r_epik_Ionization_Penalty_Charging>
0

> <r_epik_Ionization_Penalty_Neutral>
0.164786

> <r_epik_State_Penalty>
0.154069

> <r_epik_Charging_Adjusted_Penalty>
0.154069

> <i_epik_Tot_Q>
0

> <i_epik_Tot_abs_Q>
0

> <r_epik_Metal_State_Penalty>
0.171367

> <b_epik_Metal_Only>
0

> <s_lp_Force_Field>
OPLS_2005

> <r_lp_Energy>
13.9175

> <b_lp_Chiralities_Consistent>
1

> <s_lp_Variant>
AV-unprocessed.smi:1399-1

> <Gold.Version>
5.8.1

> <Gold.Id.Protein>
6NUR|6NUR_protein|mol2

> <Gold.PLP.Fitness>
40.0570

> <Gold.PLP.PLP>
-29.3900

> <Gold.PLP.part.hbond>
-3.6701

> <Gold.PLP.part.metal>
0.0000

> <Gold.PLP.part.buried>
-5.8085

> <Gold.PLP.part.nonpolar>
-21.6062

> <Gold.PLP.part.repulsive>
1.8856

> <Gold.PLP.ligand.clash>
0.0000

> <Gold.PLP.ligand.torsion>
0.9725

> <Gold.PLP.Chemscore.Hbond>
3.2216

> <Gold.PLP.Chemscore.CHOScore>
0.9792

> <Gold.PLP.Chemscore.Metal>
0.0000

> <Gold.Chemscore.Hbonds>
donor molecule, donor type, donor heavy atom, donor atom, acceptor molecule, acceptor atom, score
      L1  H     1    22       P1 10737  1.00
      L1  H     9    30       P1 10747  0.78
      L1  H    12    31       P1 10747  0.83
      L1  H    16    20       P1 10186  0.41
      L1  C    14    32       P1 10957  0.16
      L1  C    17    33       P1  7921  0.31

> <Gold.PLP.Chemscore.Internal.Correction>
0.0097

> <Gold.Rescore>
     Score         DG    S(hbond)    S(metal)    S(lipo)     H(rot)  DE(clash)    DE(int)     intcor
     17.26     -18.65       3.47        0.00      58.72       2.06       0.33       1.06       ----

> <Gold.Chemscore.Fitness>
17.2587

> <Gold.Chemscore.DG>
-18.6502

> <Gold.Chemscore.ZeroCoef>
-5.4800

> <Gold.Chemscore.Hbond>
3.4668

> <Gold.Chemscore.Metal>
0.0000

> <Gold.Chemscore.Lipo>
58.7156

> <Gold.Chemscore.Internal_Hbond>
0.0000

> <Gold.Chemscore.DEClash>
0.3315

> <Gold.Chemscore.DEInternal>
1.0600

> <Gold.Chemscore.Rot>
2.0620

> <Gold.Chemscore.Internal.Correction>
   9.000000E+99

> <Gold.Chemscore.Hbonds>
donor molecule, donor type, donor heavy atom, donor atom, acceptor molecule, acceptor atom, score
      L1  H     1    22       P1 10737  0.99
      L1  H     9    30       P1 10747  0.50
      L1  H    12    31       P1 10747  0.83
      L1  H    16    20       P1 10186  0.42

> <Gold.Chemscore.Hbond.Weighted>
-11.5793

> <Gold.Chemscore.Metal.Weighted>
-0.0000

> <Gold.Chemscore.Lipo.Weighted>
-6.8697

> <Gold.Chemscore.Internal_Hbond.Weighted>
0.0000

> <Gold.Chemscore.DEClash.Weighted>
0.3315

> <Gold.Chemscore.DEInternal.Weighted>
1.0600

> <Gold.Chemscore.Rot.Weighted>
5.2788

> <Gold.Chemscore.Internal.Correction.Weighted>
   9.000000E+99

> <Gold.Protein.RotatedTorsions>
[ 6907 6896 6895 6894 ] final   22.14 input  -60.11 | X-H torsion
[ 7974 7965 7964 7962 ] final -152.94 input  175.53 | X-H torsion
[ 8008 7997 7996 7995 ] final   18.04 input   59.86 | X-H torsion
[ 10167 10162 10161 10158 ] final   97.84 input  -65.29 | X-H torsion
[ 10718 10713 10712 10709 ] final   81.57 input   66.30 | X-H torsion
[ 10763 10752 10751 10750 ] final  -79.80 input  -60.55 | X-H torsion
[ 11005 11000 10999 10996 ] final  177.26 input  -57.11 | X-H torsion

> <Gold.Protein.ActiveResidues>
 VAL166  LYS551  ARG553  GLY616  TRP617  ASP618  TYR619  PRO620  LYS621  CYS622 
 ASP623  PHE694  ASN695  SER759  ASP760  ASP761  ALA762  ILE779  LEU786  VAL792 
 PHE793  MET794  SER795  GLU796  ALA797  LYS798  CYS799  TRP800  GLU811  SER814 

> <Gold.Protein.RotatedAtoms>
  151.9226  135.0292  160.0522 H   0  0  0  0  0  0  0  0  0  0  0  0  # atno 6907 bound_to 6896
  152.2187  133.4962  159.5158 H   0  0  0  0  0  0  0  0  0  0  0  0  # atno 6908 bound_to 6896
  150.6994  134.1288  159.4105 H   0  0  0  0  0  0  0  0  0  0  0  0  # atno 6909 bound_to 6896
  144.7767  140.4593  143.5868 H   0  0  0  0  0  0  0  0  0  0  0  0  # atno 7974 bound_to 7965
  154.9002  140.2999  155.5322 H   0  0  0  0  0  0  0  0  0  0  0  0  # atno 8008 bound_to 7997
  156.3019  140.2408  156.3963 H   0  0  0  0  0  0  0  0  0  0  0  0  # atno 8009 bound_to 7997
  154.8529  140.0408  157.1605 H   0  0  0  0  0  0  0  0  0  0  0  0  # atno 8010 bound_to 7997
  139.7764  144.6904  151.0083 H   0  0  0  0  0  0  0  0  0  0  0  0  # atno 10167 bound_to 10162
  157.6836  131.0009  150.2246 H   0  0  0  0  0  0  0  0  0  0  0  0  # atno 10718 bound_to 10713
  154.5431  135.5683  153.6857 H   0  0  0  0  0  0  0  0  0  0  0  0  # atno 10763 bound_to 10752
  152.9969  135.6232  154.2475 H   0  0  0  0  0  0  0  0  0  0  0  0  # atno 10764 bound_to 10752
  154.2406  135.2862  155.2835 H   0  0  0  0  0  0  0  0  0  0  0  0  # atno 10765 bound_to 10752
  140.3822  134.6936  157.4457 H   0  0  0  0  0  0  0  0  0  0  0  0  # atno 11005 bound_to 11000
  145.6166  139.1519  143.3046 LP  0  0  0  0  0  0  0  0  0  0  0  0  # atno 17320 bound_to 7965
  146.1950  140.6279  142.9128 LP  0  0  0  0  0  0  0  0  0  0  0  0  # atno 17321 bound_to 7965
  140.7816  143.4531  151.0384 LP  0  0  0  0  0  0  0  0  0  0  0  0  # atno 17342 bound_to 10162
  139.8213  143.7816  152.3177 LP  0  0  0  0  0  0  0  0  0  0  0  0  # atno 17343 bound_to 10162
  156.2890  130.3743  149.7860 LP  0  0  0  0  0  0  0  0  0  0  0  0  # atno 17370 bound_to 10713
  156.5525  130.8348  151.3304 LP  0  0  0  0  0  0  0  0  0  0  0  0  # atno 17371 bound_to 10713
  140.0470  134.6185  155.8909 LP  0  0  0  0  0  0  0  0  0  0  0  0  # atno 17394 bound_to 11000
  141.1919  133.6573  156.5480 LP  0  0  0  0  0  0  0  0  0  0  0  0  # atno 17395 bound_to 11000

$$$$
