AV-unprocessed.smi:2944|AV-procd|sdf|11272|dock3
  -GOLD-   2272016163D 1   1.00000     0.00000
 Structure written by MMmdl.
 44 46  0  0  0  0  0  0  0  0  1 V2000
  148.0339  140.7567  153.8645 C   0  0  0  0  0  0  0  0  0  0  0  0
  149.3086  141.3151  154.1255 O   0  0  0  0  0  0  0  0  0  0  0  0
  149.7981  140.9774  155.4128 C   0  0  0  0  0  0  0  0  0  0  0  0
  150.7858  142.0514  155.8889 C   0  0  0  0  0  0  0  0  0  0  0  0
  151.6257  141.5740  156.9777 N   0  0  0  0  0  0  0  0  0  0  0  0
  152.3083  140.4052  157.0654 C   0  0  0  0  0  0  0  0  0  0  0  0
  152.2801  139.2125  155.7633 S   0  0  0  0  0  0  0  0  0  0  0  0
  151.3245  137.8947  156.5783 C   0  0  2  0  0  0  0  0  0  0  0  0
  151.7279  137.7713  158.0601 C   0  0  0  0  0  0  0  0  0  0  0  0
  151.4772  136.5631  155.8148 C   0  0  0  0  0  0  0  0  0  0  0  0
  152.6040  136.0649  155.7449 O   0  0  0  0  0  0  0  0  0  0  0  0
  150.3737  136.0065  155.2394 N   0  0  0  0  0  0  0  0  0  0  0  0
  149.0244  136.5715  155.3307 C   0  0  0  0  0  0  0  0  0  0  0  0
  148.1592  135.6322  154.4996 C   0  0  0  0  0  0  0  0  0  0  0  0
  149.1145  134.6390  154.0793 N   0  0  0  0  0  0  0  0  0  0  0  0
  150.3591  134.8674  154.5045 C   0  0  0  0  0  0  0  0  0  0  0  0
  151.3095  134.1308  154.2381 O   0  0  0  0  0  0  0  0  0  0  0  0
  153.0048  140.2299  158.1894 N   0  0  0  0  0  0  0  0  0  0  0  0
  152.7535  141.3913  158.8921 C   0  0  0  0  0  0  0  0  0  0  0  0
  153.2072  141.8147  160.1619 C   0  0  0  0  0  0  0  0  0  0  0  0
  152.8113  143.0653  160.6803 C   0  0  0  0  0  0  0  0  0  0  0  0
  151.9592  143.9085  159.9380 C   0  0  0  0  0  0  0  0  0  0  0  0
  151.4963  143.5057  158.6709 C   0  0  0  0  0  0  0  0  0  0  0  0
  151.8933  142.2558  158.1594 C   0  0  0  0  0  0  0  0  0  0  0  0
  147.7092  141.0399  152.8635 H   0  0  0  0  0  0  0  0  0  0  0  0
  147.2910  141.1213  154.5752 H   0  0  0  0  0  0  0  0  0  0  0  0
  148.0627  139.6675  153.9143 H   0  0  0  0  0  0  0  0  0  0  0  0
  148.9689  140.8964  156.1175 H   0  0  0  0  0  0  0  0  0  0  0  0
  150.2948  140.0068  155.3807 H   0  0  0  0  0  0  0  0  0  0  0  0
  151.4310  142.3548  155.0640 H   0  0  0  0  0  0  0  0  0  0  0  0
  150.2524  142.9489  156.2008 H   0  0  0  0  0  0  0  0  0  0  0  0
  150.2719  138.1730  156.5726 H   0  0  0  0  0  0  0  0  0  0  0  0
  151.1877  136.9619  158.5524 H   0  0  0  0  0  0  0  0  0  0  0  0
  151.5049  138.6870  158.6070 H   0  0  0  0  0  0  0  0  0  0  0  0
  152.7955  137.5778  158.1708 H   0  0  0  0  0  0  0  0  0  0  0  0
  148.6777  136.5893  156.3650 H   0  0  0  0  0  0  0  0  0  0  0  0
  148.9847  137.5853  154.9320 H   0  0  0  0  0  0  0  0  0  0  0  0
  147.3611  135.1775  155.0874 H   0  0  0  0  0  0  0  0  0  0  0  0
  147.7243  136.1338  153.6344 H   0  0  0  0  0  0  0  0  0  0  0  0
  148.8547  133.8475  153.5084 H   0  0  0  0  0  0  0  0  0  0  0  0
  153.8614  141.1769  160.7378 H   0  0  0  0  0  0  0  0  0  0  0  0
  153.1639  143.3799  161.6517 H   0  0  0  0  0  0  0  0  0  0  0  0
  151.6615  144.8652  160.3417 H   0  0  0  0  0  0  0  0  0  0  0  0
  150.8455  144.1502  158.0989 H   0  0  0  0  0  0  0  0  0  0  0  0
  1  2  1  0  0  0  0
  1 25  1  0  0  0  0
  1 26  1  0  0  0  0
  1 27  1  0  0  0  0
  2  3  1  0  0  0  0
  3  4  1  0  0  0  0
  3 28  1  0  0  0  0
  3 29  1  0  0  0  0
  4  5  1  0  0  0  0
  4 30  1  0  0  0  0
  4 31  1  0  0  0  0
  5 24  1  0  0  0  0
  5  6  1  0  0  0  0
  6  7  1  0  0  0  0
  6 18  2  0  0  0  0
  7  8  1  0  0  0  0
  8  9  1  0  0  0  0
  8 10  1  0  0  0  0
  8 32  1  0  0  0  0
  9 33  1  0  0  0  0
  9 34  1  0  0  0  0
  9 35  1  0  0  0  0
 10 11  2  0  0  0  0
 10 12  1  0  0  0  0
 12 16  1  0  0  0  0
 12 13  1  0  0  0  0
 13 14  1  0  0  0  0
 13 36  1  0  0  0  0
 13 37  1  0  0  0  0
 14 15  1  0  0  0  0
 14 38  1  0  0  0  0
 14 39  1  0  0  0  0
 15 16  1  0  0  0  0
 15 40  1  0  0  0  0
 16 17  2  0  0  0  0
 18 19  1  0  0  0  0
 19 24  2  0  0  0  0
 19 20  1  0  0  0  0
 20 21  2  0  0  0  0
 20 41  1  0  0  0  0
 21 22  1  0  0  0  0
 21 42  1  0  0  0  0
 22 23  2  0  0  0  0
 22 43  1  0  0  0  0
 23 24  1  0  0  0  0
 23 44  1  0  0  0  0
M  END
> <s_m_source_file>
AV-unprocessed.smi

> <i_m_source_file_index>
2944

> <i_lp_mmshare_version>
43012

> <i_f3d_flags>
0

> <s_epik_input>
W2NIXTFbY0hdW2NIXVtjSF1jKGMxMiluKFtDSDJdW0NIMl1PW0NIM10pYyhuMilTW0NASF0oW0NIM10pQyg9TylOM1tDSDJdW0NIMl1bTkhdQzM9Tw==

> <s_epik_cmdline>
J2VwaWtfcHl0aG9uJywgJy1waCcsICc3LjAnLCAnLXRuJywgJzgnLCAnLW1hJywgJzIwMCcsICctbWV0YWxfYmluZGluZycsICctaW1hZScsICc8aW5maWxlLm1hZT4nLCAnLW9tYWUnLCAnPG91dGZpbGUubWFlPic=

> <r_lp_tautomer_probability>
0.9999

> <r_epik_Ionization_Penalty>
0.0250226

> <r_epik_Ionization_Penalty_Charging>
0

> <r_epik_Ionization_Penalty_Neutral>
0.0250226

> <r_epik_State_Penalty>
0.0203222

> <r_epik_Charging_Adjusted_Penalty>
0.0203222

> <i_epik_Tot_Q>
0

> <i_epik_Tot_abs_Q>
0

> <r_epik_Metal_State_Penalty>
0.0194901

> <b_epik_Metal_Only>
0

> <s_lp_Force_Field>
OPLS_2005

> <r_lp_Energy>
42.2169

> <b_lp_Chiralities_Consistent>
1

> <s_lp_Variant>
AV-unprocessed.smi:2944-1

> <Gold.Version>
5.8.1

> <Gold.Id.Protein>
6NUR|6NUR_protein|mol2

> <Gold.PLP.Fitness>
44.1168

> <Gold.PLP.PLP>
-40.3582

> <Gold.PLP.part.hbond>
-4.0000

> <Gold.PLP.part.metal>
0.0000

> <Gold.PLP.part.buried>
-5.1225

> <Gold.PLP.part.nonpolar>
-31.1681

> <Gold.PLP.part.repulsive>
0.3263

> <Gold.PLP.ligand.clash>
0.0000

> <Gold.PLP.ligand.torsion>
0.6260

> <Gold.PLP.Chemscore.Hbond>
1.6446

> <Gold.PLP.Chemscore.CHOScore>
0.0000

> <Gold.PLP.Chemscore.Metal>
0.0000

> <Gold.Chemscore.Hbonds>
donor molecule, donor type, donor heavy atom, donor atom, acceptor molecule, acceptor atom, score
      P1  H  7997  8010       L1    18  0.28
      P1  H  8011  8017       L1     2  0.50

> <Gold.PLP.Chemscore.Internal.Correction>
0.0769

> <Gold.Rescore>
     Score         DG    S(hbond)    S(metal)    S(lipo)     H(rot)  DE(clash)    DE(int)     intcor
     11.86     -15.95       1.20        0.00     104.02       2.24       0.77       3.32       ----

> <Gold.Chemscore.Fitness>
11.8633

> <Gold.Chemscore.DG>
-15.9504

> <Gold.Chemscore.ZeroCoef>
-5.4800

> <Gold.Chemscore.Hbond>
1.2045

> <Gold.Chemscore.Metal>
0.0000

> <Gold.Chemscore.Lipo>
104.0244

> <Gold.Chemscore.Internal_Hbond>
0.0000

> <Gold.Chemscore.DEClash>
0.7701

> <Gold.Chemscore.DEInternal>
3.3171

> <Gold.Chemscore.Rot>
2.2357

> <Gold.Chemscore.Internal.Correction>
   9.000000E+99

> <Gold.Chemscore.Hbonds>
donor molecule, donor type, donor heavy atom, donor atom, acceptor molecule, acceptor atom, score
      P1  H  8011  8017       L1     2  0.25
      P1  H 10752 10764       L1    11  0.01

> <Gold.Chemscore.Hbond.Weighted>
-4.0230

> <Gold.Chemscore.Metal.Weighted>
-0.0000

> <Gold.Chemscore.Lipo.Weighted>
-12.1709

> <Gold.Chemscore.Internal_Hbond.Weighted>
0.0000

> <Gold.Chemscore.DEClash.Weighted>
0.7701

> <Gold.Chemscore.DEInternal.Weighted>
3.3171

> <Gold.Chemscore.Rot.Weighted>
5.7234

> <Gold.Chemscore.Internal.Correction.Weighted>
   9.000000E+99

> <Gold.Protein.RotatedTorsions>
[ 6907 6896 6895 6894 ] final   25.21 input  -60.11 | X-H torsion
[ 7974 7965 7964 7962 ] final  118.17 input  175.53 | X-H torsion
[ 8008 7997 7996 7995 ] final   34.48 input   59.86 | X-H torsion
[ 10167 10162 10161 10158 ] final -118.18 input  -65.29 | X-H torsion
[ 10718 10713 10712 10709 ] final   57.97 input   66.30 | X-H torsion
[ 10763 10752 10751 10750 ] final  -30.60 input  -60.55 | X-H torsion
[ 11005 11000 10999 10996 ] final -123.17 input  -57.11 | X-H torsion

> <Gold.Protein.ActiveResidues>
 VAL166  LYS551  ARG553  GLY616  TRP617  ASP618  TYR619  PRO620  LYS621  CYS622 
 ASP623  PHE694  ASN695  SER759  ASP760  ASP761  ALA762  ILE779  LEU786  VAL792 
 PHE793  MET794  SER795  GLU796  ALA797  LYS798  CYS799  TRP800  GLU811  SER814 

> <Gold.Protein.RotatedAtoms>
  151.9692  135.0085  160.0551 H   0  0  0  0  0  0  0  0  0  0  0  0  # atno 6907 bound_to 6896
  152.1799  133.4695  159.4961 H   0  0  0  0  0  0  0  0  0  0  0  0  # atno 6908 bound_to 6896
  150.6915  134.1764  159.4275 H   0  0  0  0  0  0  0  0  0  0  0  0  # atno 6909 bound_to 6896
  145.1584  139.3169  143.4530 H   0  0  0  0  0  0  0  0  0  0  0  0  # atno 7974 bound_to 7965
  155.1555  140.3278  155.4422 H   0  0  0  0  0  0  0  0  0  0  0  0  # atno 8008 bound_to 7997
  156.2560  140.1969  156.6616 H   0  0  0  0  0  0  0  0  0  0  0  0  # atno 8009 bound_to 7997
  154.6442  140.0566  156.9867 H   0  0  0  0  0  0  0  0  0  0  0  0  # atno 8010 bound_to 7997
  140.0603  143.4974  152.2035 H   0  0  0  0  0  0  0  0  0  0  0  0  # atno 10167 bound_to 10162
  157.5558  130.8799  149.9034 H   0  0  0  0  0  0  0  0  0  0  0  0  # atno 10718 bound_to 10713
  153.7837  135.6903  153.4884 H   0  0  0  0  0  0  0  0  0  0  0  0  # atno 10763 bound_to 10752
  153.1795  135.4512  155.0007 H   0  0  0  0  0  0  0  0  0  0  0  0  # atno 10764 bound_to 10752
  154.8072  135.3362  154.7338 H   0  0  0  0  0  0  0  0  0  0  0  0  # atno 10765 bound_to 10752
  140.9939  134.0499  157.3621 H   0  0  0  0  0  0  0  0  0  0  0  0  # atno 11005 bound_to 11000
  146.3485  140.1685  142.8590 LP  0  0  0  0  0  0  0  0  0  0  0  0  # atno 17320 bound_to 7965
  145.0356  140.8906  143.5083 LP  0  0  0  0  0  0  0  0  0  0  0  0  # atno 17321 bound_to 7965
  139.5898  144.7545  151.3430 LP  0  0  0  0  0  0  0  0  0  0  0  0  # atno 17342 bound_to 10162
  140.7175  143.7227  150.7683 LP  0  0  0  0  0  0  0  0  0  0  0  0  # atno 17343 bound_to 10162
  156.0617  130.3698  150.0966 LP  0  0  0  0  0  0  0  0  0  0  0  0  # atno 17370 bound_to 10713
  156.9135  130.9659  151.3559 LP  0  0  0  0  0  0  0  0  0  0  0  0  # atno 17371 bound_to 10713
  139.9005  135.0163  156.7246 LP  0  0  0  0  0  0  0  0  0  0  0  0  # atno 17394 bound_to 11000
  140.6996  133.9318  155.8016 LP  0  0  0  0  0  0  0  0  0  0  0  0  # atno 17395 bound_to 11000

$$$$
