#       Name:                AV-unprocessed.smi:1725
#       Creating user name   scv26
#       Creation time:       Fri Mar 27 08:16:57 2020


#       File generated by GOLD software.
#

@<TRIPOS>MOLECULE
AV-unprocessed.smi:1725
    42    43     1
SMALL
NO_CHARGES


@<TRIPOS>ATOM
      1 ****        -0.6455  -2.8477  -1.8095 C.3            1 S1                 0.0000
      2 ****        -0.1694  -2.0434  -0.5916 C.3            1 S1                 0.0000
      3 ****         1.2553  -2.0374  -0.6137 O.3            1 S1                 0.0000
      4 ****         1.8831  -1.5941   0.5855 C.3            1 S1                 0.0000
      5 ****         3.3949  -1.6523   0.4653 C.3            1 S1                 0.0000
      6 ****         4.0804  -1.3019  -0.8393 C.3            1 S1                 0.0000
      7 ****         4.0786  -2.7269  -0.3556 C.3            1 S1                 0.0000
      8 ****        -0.7078  -0.6043  -0.6304 C.2            1 S1                 0.0000
      9 ****        -0.4509   0.1114  -1.5987 O.2            1 S1                 0.0000
     10 ****        -1.4426  -0.2333   0.4362 N.am           1 S1                 0.0000
     11 ****        -2.0165   1.0150   0.7297 C.2            1 S1                 0.0000
     12 ****        -1.6158   2.1973   0.1854 C.2            1 S1                 0.0000
     13 ****        -2.2348   3.4680   0.5426 C.2            1 S1                 0.0000
     14 ****        -1.8261   4.8118  -0.0326 C.3            1 S1                 0.0000
     15 ****        -2.8540   5.3725  -0.6690 F              1 S1                 0.0000
     16 ****        -1.4474   5.6355   0.9444 F              1 S1                 0.0000
     17 ****        -0.8155   4.6871  -0.8931 F              1 S1                 0.0000
     18 ****        -3.2376   3.3189   1.4795 C.2            1 S1                 0.0000
     19 ****        -3.6879   2.1912   2.0722 N.pl3          1 S1                -1.0000
     20 ****        -3.1014   1.0085   1.7328 C.2            1 S1                 0.0000
     21 ****        -3.4551  -0.0560   2.2415 O.2            1 S1                 0.0000
     22 ****        -1.7344  -2.8880  -1.8546 H              1 S1                 0.0000
     23 ****        -0.2803  -3.8735  -1.7609 H              1 S1                 0.0000
     24 ****        -0.2865  -2.4142  -2.7437 H              1 S1                 0.0000
     25 ****        -0.5150  -2.5498   0.3120 H              1 S1                 0.0000
     26 ****         1.6010  -0.5682   0.8236 H              1 S1                 0.0000
     27 ****         1.5741  -2.2235   1.4208 H              1 S1                 0.0000
     28 ****         3.9144  -1.3440   1.3706 H              1 S1                 0.0000
     29 ****         3.4553  -1.0619  -1.6973 H              1 S1                 0.0000
     30 ****         5.0177  -0.7526  -0.7807 H              1 S1                 0.0000
     31 ****         5.0164  -3.1273   0.0239 H              1 S1                 0.0000
     32 ****         3.4549  -3.4385  -0.8931 H              1 S1                 0.0000
     33 ****        -1.6461  -0.9544   1.1132 H              1 S1                 0.0000
     34 ****        -0.8012   2.2287  -0.5195 H              1 S1                 0.0000
     35 ****        -3.7528   4.2488   1.8024 H              1 S1                 0.0000
     36 ****         1.5497  -1.4362  -1.3565 LP             1 S1                 0.0000
     37 ****         1.5649  -2.9704  -0.7973 LP             1 S1                 0.0000
     38 ****         0.1035  -0.2450  -2.3507 LP             1 S1                 0.0000
     39 ****        -0.7967   1.0490  -1.6331 LP             1 S1                 0.0000
     40 ****        -4.4306   2.2233   2.7411 LP             1 S1                 0.0000
     41 ****        -3.0086  -0.9102   1.9752 LP             1 S1                 0.0000
     42 ****        -4.1889  -0.0661   2.9209 LP             1 S1                 0.0000
@<TRIPOS>BOND
    1    1    2 1     
    2    1   22 1     
    3    1   23 1     
    4    1   24 1     
    5    2    3 1     
    6    2    8 1     
    7    2   25 1     
    8    3    4 1     
    9    4    5 1     
   10    4   26 1     
   11    4   27 1     
   12    5    7 1     
   13    5    6 1     
   14    5   28 1     
   15    6    7 1     
   16    6   29 1     
   17    6   30 1     
   18    7   31 1     
   19    7   32 1     
   20    8    9 2     
   21    8   10 am    
   22   10   11 1     
   23   10   33 1     
   24   11   20 1     
   25   11   12 2     
   26   12   13 1     
   27   12   34 1     
   28   13   14 1     
   29   13   18 2     
   30   14   15 1     
   31   14   16 1     
   32   14   17 1     
   33   18   19 1     
   34   18   35 1     
   35   19   20 1     
   36   20   21 2     
   37    3   36 1     
   38    3   37 1     
   39    9   38 1     
   40    9   39 1     
   41   19   40 1     
   42   21   41 1     
   43   21   42 1     
@<TRIPOS>SUBSTRUCTURE
      1 S1             1
@<TRIPOS>SET
LONE_PAIRS      STATIC     ATOMS    <user>   **** ""
7 36 37 38 39 40 41 42
DONOR_HYDROGENS      STATIC     ATOMS    <user>   **** ""
1 33
ATOM$BLUE        STATIC     ATOMS    COLORGROUP SYSTEM
7 36 37 38 39 40 41 42
ATOM$RED        STATIC     ATOMS    COLORGROUP SYSTEM
1 33
