AV-unprocessed.smi:3019|AV-procd|sdf|11485|dock3
  -GOLD-   2272016423D 1   1.00000     0.00000
 Structure written by MMmdl.
 31 32  0  0  0  0  0  0  0  0  2 V2000
  152.0221  144.4164  157.6007 C   0  0  0  0  0  0  0  0  0  0  0  0
  151.2835  143.1930  158.1630 C   0  0  0  0  0  0  0  0  0  0  0  0
  151.9099  142.6936  159.4732 C   0  0  0  0  0  0  0  0  0  0  0  0
  151.1750  142.0965  157.1477 C   0  0  0  0  0  0  0  0  0  0  0  0
  150.5137  142.2529  155.9986 N   0  0  0  0  0  0  0  0  0  0  0  0
  150.5740  141.1078  155.2867 N   0  0  0  0  0  0  0  0  0  0  0  0
  151.3074  140.3265  156.0783 C   0  0  0  0  0  0  0  0  0  0  0  0
  151.6018  138.9094  155.6963 C   0  0  2  0  0  0  0  0  0  0  0  0
  151.1869  138.5982  154.2457 C   0  0  0  0  0  0  0  0  0  0  0  0
  151.4078  137.1677  153.9575 N   0  3  0  0  0  0  0  0  0  0  0  0
  150.7161  136.3056  154.9366 C   0  0  0  0  0  0  0  0  0  0  0  0
  151.1276  136.6913  156.3688 C   0  0  0  0  0  0  0  0  0  0  0  0
  150.8686  138.0738  156.5895 O   0  0  0  0  0  0  0  0  0  0  0  0
  151.6992  140.8801  157.2668 N   0  0  0  0  0  0  0  0  0  0  0  0
  151.5271  144.7964  156.7067 H   0  0  0  0  0  0  0  0  0  0  0  0
  153.0506  144.1715  157.3333 H   0  0  0  0  0  0  0  0  0  0  0  0
  152.0527  145.2261  158.3301 H   0  0  0  0  0  0  0  0  0  0  0  0
  150.2685  143.5160  158.3993 H   0  0  0  0  0  0  0  0  0  0  0  0
  151.3389  141.8631  159.8894 H   0  0  0  0  0  0  0  0  0  0  0  0
  151.9350  143.4848  160.2230 H   0  0  0  0  0  0  0  0  0  0  0  0
  152.9333  142.3502  159.3188 H   0  0  0  0  0  0  0  0  0  0  0  0
  152.6701  138.7257  155.8290 H   0  0  0  0  0  0  0  0  0  0  0  0
  150.1332  138.8348  154.0906 H   0  0  0  0  0  0  0  0  0  0  0  0
  151.7602  139.2021  153.5418 H   0  0  0  0  0  0  0  0  0  0  0  0
  151.0748  136.9560  153.0276 H   0  0  0  0  0  0  0  0  0  0  0  0
  149.6379  136.4151  154.8123 H   0  0  0  0  0  0  0  0  0  0  0  0
  150.9595  135.2621  154.7352 H   0  0  0  0  0  0  0  0  0  0  0  0
  150.5616  136.1056  157.0934 H   0  0  0  0  0  0  0  0  0  0  0  0
  152.1834  136.4767  156.5418 H   0  0  0  0  0  0  0  0  0  0  0  0
  152.3989  136.9787  154.0035 H   0  0  0  0  0  0  0  0  0  0  0  0
  150.0253  143.0773  155.6785 H   0  0  0  0  0  0  0  0  0  0  0  0
  1  2  1  0  0  0  0
  1 15  1  0  0  0  0
  1 16  1  0  0  0  0
  1 17  1  0  0  0  0
  2  3  1  0  0  0  0
  2  4  1  0  0  0  0
  2 18  1  0  0  0  0
  3 19  1  0  0  0  0
  3 20  1  0  0  0  0
  3 21  1  0  0  0  0
  4 14  2  0  0  0  0
  4  5  1  0  0  0  0
  5  6  1  0  0  0  0
  5 31  1  0  0  0  0
  6  7  2  0  0  0  0
  7  8  1  0  0  0  0
  7 14  1  0  0  0  0
  8 13  1  0  0  0  0
  8  9  1  0  0  0  0
  8 22  1  0  0  0  0
  9 10  1  0  0  0  0
  9 23  1  0  0  0  0
  9 24  1  0  0  0  0
 10 11  1  0  0  0  0
 10 25  1  0  0  0  0
 10 30  1  0  0  0  0
 11 12  1  0  0  0  0
 11 26  1  0  0  0  0
 11 27  1  0  0  0  0
 12 13  1  0  0  0  0
 12 28  1  0  0  0  0
 12 29  1  0  0  0  0
M  CHG  1  10   1
M  END
> <s_m_source_file>
AV-unprocessed.smi

> <i_m_source_file_index>
3019

> <i_lp_mmshare_version>
43012

> <i_f3d_flags>
0

> <s_epik_input>
W0NIM11bQ0hdKFtDSDNdKWMxbltuSF1jKG4xKVtDQEBIXTJbQ0gyXVtOSF1bQ0gyXVtDSDJdTzI=

> <s_epik_cmdline>
J2VwaWtfcHl0aG9uJywgJy1waCcsICc3LjAnLCAnLXRuJywgJzgnLCAnLW1hJywgJzIwMCcsICctbWV0YWxfYmluZGluZycsICctaW1hZScsICc8aW5maWxlLm1hZT4nLCAnLW9tYWUnLCAnPG91dGZpbGUubWFlPic=

> <r_lp_tautomer_probability>
0.948284

> <r_epik_Ionization_Penalty>
0.108767

> <r_epik_Ionization_Penalty_Charging>
0.100865

> <r_epik_Ionization_Penalty_Neutral>
0.00790271

> <r_epik_State_Penalty>
0.197684

> <r_epik_Charging_Adjusted_Penalty>
0.298549

> <i_epik_Tot_Q>
1

> <i_epik_Tot_abs_Q>
1

> <r_epik_Metal_State_Penalty>
0.508163

> <b_epik_Metal_Only>
0

> <s_lp_Force_Field>
OPLS_2005

> <r_lp_Energy>
9.87406

> <b_lp_Chiralities_Consistent>
1

> <s_lp_Variant>
AV-unprocessed.smi:3019-1

> <Gold.Version>
5.8.1

> <Gold.Id.Protein>
6NUR|6NUR_protein|mol2

> <Gold.PLP.Fitness>
36.3188

> <Gold.PLP.PLP>
-25.9629

> <Gold.PLP.part.hbond>
-3.1764

> <Gold.PLP.part.metal>
0.0000

> <Gold.PLP.part.buried>
-3.4063

> <Gold.PLP.part.nonpolar>
-19.1393

> <Gold.PLP.part.repulsive>
0.3262

> <Gold.PLP.ligand.clash>
0.0000

> <Gold.PLP.ligand.torsion>
0.2012

> <Gold.PLP.Chemscore.Hbond>
3.5678

> <Gold.PLP.Chemscore.CHOScore>
0.0000

> <Gold.PLP.Chemscore.Metal>
0.0000

> <Gold.Chemscore.Hbonds>
donor molecule, donor type, donor heavy atom, donor atom, acceptor molecule, acceptor atom, score
      L1  H     5    31       P1  8028  1.00
      L1  H    10    25       P1  7949  2.00
      P1  H  7989  7998       L1     6  0.59

> <Gold.PLP.Chemscore.Internal.Correction>
0.0547

> <Gold.Rescore>
     Score         DG    S(hbond)    S(metal)    S(lipo)     H(rot)  DE(clash)    DE(int)     intcor
     14.92     -15.29       2.00        0.00      54.86       1.28       0.16       0.22       ----

> <Gold.Chemscore.Fitness>
14.9157

> <Gold.Chemscore.DG>
-15.2900

> <Gold.Chemscore.ZeroCoef>
-5.4800

> <Gold.Chemscore.Hbond>
1.9960

> <Gold.Chemscore.Metal>
0.0000

> <Gold.Chemscore.Lipo>
54.8601

> <Gold.Chemscore.Internal_Hbond>
0.0000

> <Gold.Chemscore.DEClash>
0.1558

> <Gold.Chemscore.DEInternal>
0.2185

> <Gold.Chemscore.Rot>
1.2795

> <Gold.Chemscore.Internal.Correction>
   9.000000E+99

> <Gold.Chemscore.Hbonds>
donor molecule, donor type, donor heavy atom, donor atom, acceptor molecule, acceptor atom, score
      L1  H     5    31       P1  8028  0.97
      L1  H    10    25       P1  7949  0.33
      P1  H  7989  7998       L1     6  0.14

> <Gold.Chemscore.Hbond.Weighted>
-6.6668

> <Gold.Chemscore.Metal.Weighted>
-0.0000

> <Gold.Chemscore.Lipo.Weighted>
-6.4186

> <Gold.Chemscore.Internal_Hbond.Weighted>
0.0000

> <Gold.Chemscore.DEClash.Weighted>
0.1558

> <Gold.Chemscore.DEInternal.Weighted>
0.2185

> <Gold.Chemscore.Rot.Weighted>
3.2754

> <Gold.Chemscore.Internal.Correction.Weighted>
   9.000000E+99

> <Gold.Protein.RotatedTorsions>
[ 6907 6896 6895 6894 ] final  -76.87 input  -60.11 | X-H torsion
[ 7974 7965 7964 7962 ] final   77.07 input  175.53 | X-H torsion
[ 8008 7997 7996 7995 ] final -154.18 input   59.86 | X-H torsion
[ 10167 10162 10161 10158 ] final  117.86 input  -65.29 | X-H torsion
[ 10718 10713 10712 10709 ] final -106.87 input   66.30 | X-H torsion
[ 10763 10752 10751 10750 ] final -107.33 input  -60.55 | X-H torsion
[ 11005 11000 10999 10996 ] final -116.95 input  -57.11 | X-H torsion

> <Gold.Protein.ActiveResidues>
 VAL166  LYS551  ARG553  GLY616  TRP617  ASP618  TYR619  PRO620  LYS621  CYS622 
 ASP623  PHE694  ASN695  SER759  ASP760  ASP761  ALA762  ILE779  LEU786  VAL792 
 PHE793  MET794  SER795  GLU796  ALA797  LYS798  CYS799  TRP800  GLU811  SER814 

> <Gold.Protein.RotatedAtoms>
  150.7015  134.4507  159.5334 H   0  0  0  0  0  0  0  0  0  0  0  0  # atno 6907 bound_to 6896
  152.2200  134.8419  160.0496 H   0  0  0  0  0  0  0  0  0  0  0  0  # atno 6908 bound_to 6896
  151.9273  133.3566  159.3955 H   0  0  0  0  0  0  0  0  0  0  0  0  # atno 6909 bound_to 6896
  145.6948  139.2563  143.1739 H   0  0  0  0  0  0  0  0  0  0  0  0  # atno 7974 bound_to 7965
  155.6823  140.0746  157.2480 H   0  0  0  0  0  0  0  0  0  0  0  0  # atno 8008 bound_to 7997
  154.4103  140.1679  156.2048 H   0  0  0  0  0  0  0  0  0  0  0  0  # atno 8009 bound_to 7997
  155.9524  140.3376  155.6422 H   0  0  0  0  0  0  0  0  0  0  0  0  # atno 8010 bound_to 7997
  139.6150  144.7090  151.2760 H   0  0  0  0  0  0  0  0  0  0  0  0  # atno 10167 bound_to 10162
  156.0410  130.5634  150.7741 H   0  0  0  0  0  0  0  0  0  0  0  0  # atno 10718 bound_to 10713
  154.8069  135.4679  154.0414 H   0  0  0  0  0  0  0  0  0  0  0  0  # atno 10763 bound_to 10752
  153.1876  135.6850  153.8401 H   0  0  0  0  0  0  0  0  0  0  0  0  # atno 10764 bound_to 10752
  153.7930  135.3240  155.3358 H   0  0  0  0  0  0  0  0  0  0  0  0  # atno 10765 bound_to 10752
  141.0387  133.9869  157.3029 H   0  0  0  0  0  0  0  0  0  0  0  0  # atno 11005 bound_to 11000
  146.0850  140.7721  142.9623 LP  0  0  0  0  0  0  0  0  0  0  0  0  # atno 17320 bound_to 7965
  144.6986  140.3548  143.7175 LP  0  0  0  0  0  0  0  0  0  0  0  0  # atno 17321 bound_to 7965
  140.7345  143.6765  150.8037 LP  0  0  0  0  0  0  0  0  0  0  0  0  # atno 17342 bound_to 10162
  140.0366  143.5389  152.2736 LP  0  0  0  0  0  0  0  0  0  0  0  0  # atno 17343 bound_to 10162
  157.5227  131.0932  151.0058 LP  0  0  0  0  0  0  0  0  0  0  0  0  # atno 17370 bound_to 10713
  157.0384  130.5739  149.5352 LP  0  0  0  0  0  0  0  0  0  0  0  0  # atno 17371 bound_to 10713
  139.9260  135.0201  156.8235 LP  0  0  0  0  0  0  0  0  0  0  0  0  # atno 17394 bound_to 11000
  140.6274  133.9937  155.7646 LP  0  0  0  0  0  0  0  0  0  0  0  0  # atno 17395 bound_to 11000

$$$$
