#       Name:                AV-unprocessed.smi:2220
#       Creating user name   scv26
#       Creation time:       Fri Mar 27 12:19:19 2020


#       File generated by GOLD software.
#

@<TRIPOS>MOLECULE
AV-unprocessed.smi:2220
    41    42     1
SMALL
NO_CHARGES


@<TRIPOS>ATOM
      1 ****        -2.2561   3.2745   2.8122 C.3            1 S1                 0.0000
      2 ****        -2.3367   3.7390   1.4248 N.pl3          1 S1                 0.0000
      3 ****        -2.7572   4.9720   1.1146 C.2            1 S1                 0.0000
      4 ****        -2.7129   5.0738  -0.2157 N.pl3          1 S1                 1.0000
      5 ****        -2.2628   3.9028  -0.7605 C.2            1 S1                 0.0000
      6 ****        -2.0176   3.0416   0.2806 C.2            1 S1                 0.0000
      7 ****        -1.5065   1.6362   0.2745 C.3            1 S1                 0.0000
      8 ****         0.0145   1.5855   0.4961 C.3            1 S1                 0.0000
      9 ****         0.5101   0.2145   0.4928 N.am           1 S1                 0.0000
     10 ****         0.7623  -0.5100  -0.6087 C.2            1 S1                 0.0000
     11 ****         0.5932  -0.0799  -1.7502 O.2            1 S1                 0.0000
     12 ****         1.2818  -1.9366  -0.3867 C.3            1 S1                 0.0000
     13 ****         2.7037  -2.1015  -0.9628 C.3            1 S1                 0.0000
     14 ****         3.2315  -3.5278  -0.7398 C.3            1 S1                 0.0000
     15 ****         2.2735  -4.5789  -1.3261 C.3            1 S1                 0.0000
     16 ****         2.2597  -4.4725  -2.6557 F              1 S1                 0.0000
     17 ****         2.7156  -5.7962  -1.0111 F              1 S1                 0.0000
     18 ****         0.8433  -4.4077  -0.7857 C.3            1 S1                 0.0000
     19 ****         0.3261  -2.9771  -1.0076 C.3            1 S1                 0.0000
     20 ****        -2.6532   4.0338   3.4872 H              1 S1                 0.0000
     21 ****        -1.2141   3.0779   3.0646 H              1 S1                 0.0000
     22 ****        -2.8395   2.3600   2.9201 H              1 S1                 0.0000
     23 ****        -3.0714   5.7374   1.8019 H              1 S1                 0.0000
     24 ****        -2.1487   3.7698  -1.8267 H              1 S1                 0.0000
     25 ****        -2.0228   1.0570   1.0406 H              1 S1                 0.0000
     26 ****        -1.7642   1.1806  -0.6824 H              1 S1                 0.0000
     27 ****         0.5322   2.1708  -0.2662 H              1 S1                 0.0000
     28 ****         0.2716   2.0326   1.4562 H              1 S1                 0.0000
     29 ****         0.6789  -0.2141   1.3916 H              1 S1                 0.0000
     30 ****         1.3279  -2.1198   0.6886 H              1 S1                 0.0000
     31 ****         2.7056  -1.8811  -2.0314 H              1 S1                 0.0000
     32 ****         3.3836  -1.3854  -0.4995 H              1 S1                 0.0000
     33 ****         4.2218  -3.6330  -1.1843 H              1 S1                 0.0000
     34 ****         3.3536  -3.7027   0.3300 H              1 S1                 0.0000
     35 ****         0.1737  -5.1246  -1.2621 H              1 S1                 0.0000
     36 ****         0.8280  -4.6337   0.2813 H              1 S1                 0.0000
     37 ****        -0.6705  -2.8793  -0.5750 H              1 S1                 0.0000
     38 ****         0.2162  -2.7975  -2.0781 H              1 S1                 0.0000
     39 ****        -2.9741   5.8985  -0.7414 H              1 S1                 0.0000
     40 ****         0.2527   0.8501  -1.8888 LP             1 S1                 0.0000
     41 ****         0.7964  -0.6606  -2.5385 LP             1 S1                 0.0000
@<TRIPOS>BOND
    1    1    2 1     
    2    1   20 1     
    3    1   21 1     
    4    1   22 1     
    5    2    6 1     
    6    2    3 1     
    7    3    4 2     
    8    3   23 1     
    9    4    5 1     
   10    4   39 1     
   11    5    6 2     
   12    5   24 1     
   13    6    7 1     
   14    7    8 1     
   15    7   25 1     
   16    7   26 1     
   17    8    9 1     
   18    8   27 1     
   19    8   28 1     
   20    9   10 am    
   21    9   29 1     
   22   10   11 2     
   23   10   12 1     
   24   12   19 1     
   25   12   13 1     
   26   12   30 1     
   27   13   14 1     
   28   13   31 1     
   29   13   32 1     
   30   14   15 1     
   31   14   33 1     
   32   14   34 1     
   33   15   16 1     
   34   15   17 1     
   35   15   18 1     
   36   18   19 1     
   37   18   35 1     
   38   18   36 1     
   39   19   37 1     
   40   19   38 1     
   41   11   40 1     
   42   11   41 1     
@<TRIPOS>SUBSTRUCTURE
      1 S1             1
@<TRIPOS>SET
LONE_PAIRS      STATIC     ATOMS    <user>   **** ""
2 40 41
DONOR_HYDROGENS      STATIC     ATOMS    <user>   **** ""
2 39 29
ATOM$BLUE        STATIC     ATOMS    COLORGROUP SYSTEM
2 40 41
ATOM$RED        STATIC     ATOMS    COLORGROUP SYSTEM
2 39 29
