AV-unprocessed.smi:1983|AV-procd|sdf|8034|dock9
  -GOLD-   2272010233D 1   1.00000     0.00000
 Structure written by MMmdl.
 50 51  0  0  0  0  0  0  0  0  2 V2000
  150.8214  134.6306  155.9011 C   0  0  0  0  0  0  0  0  0  0  0  0
  149.4900  134.5735  155.1322 C   0  0  2  0  0  0  0  0  0  0  0  0
  149.4596  133.4332  154.0995 C   0  0  0  0  0  0  0  0  0  0  0  0
  148.3993  133.6217  153.1868 O   0  0  0  0  0  0  0  0  0  0  0  0
  149.2423  135.8424  154.4529 N   0  0  0  0  0  0  0  0  0  0  0  0
  148.8924  136.9877  155.0552 C   0  0  0  0  0  0  0  0  0  0  0  0
  148.7583  137.1170  156.2722 O   0  0  0  0  0  0  0  0  0  0  0  0
  148.7046  137.9789  154.1726 N   0  0  0  0  0  0  0  0  0  0  0  0
  148.2971  139.3339  154.5258 C   0  0  0  0  0  0  0  0  0  0  0  0
  149.2991  140.0468  155.4178 C   0  0  0  0  0  0  0  0  0  0  0  0
  150.6591  140.1373  155.0497 C   0  0  0  0  0  0  0  0  0  0  0  0
  151.5642  140.8078  155.8980 C   0  0  0  0  0  0  0  0  0  0  0  0
  151.0925  141.3772  157.1042 C   0  0  0  0  0  0  0  0  0  0  0  0
  151.9118  142.0593  158.0139 N   0  0  0  0  0  0  0  0  0  0  0  0
  151.3927  143.3745  158.3619 C   0  0  0  0  0  0  0  0  0  0  0  0
  152.4064  144.1291  159.2441 C   0  0  1  0  0  0  0  0  0  0  0  0
  151.8552  145.4715  159.7362 C   0  0  0  0  0  0  0  0  0  0  0  0
  152.7218  143.3299  160.3826 O   0  0  0  0  0  0  0  0  0  0  0  0
  153.3074  142.0779  160.0317 C   0  0  1  0  0  0  0  0  0  0  0  0
  153.6854  141.3413  161.3210 C   0  0  0  0  0  0  0  0  0  0  0  0
  152.3004  141.2807  159.1825 C   0  0  0  0  0  0  0  0  0  0  0  0
  149.7843  141.2565  157.4225 N   0  3  0  0  0  0  0  0  0  0  0  0
  148.8854  140.6262  156.6357 C   0  0  0  0  0  0  0  0  0  0  0  0
  151.0095  133.6962  156.4308 H   0  0  0  0  0  0  0  0  0  0  0  0
  150.8157  135.4286  156.6442 H   0  0  0  0  0  0  0  0  0  0  0  0
  151.6619  134.8066  155.2292 H   0  0  0  0  0  0  0  0  0  0  0  0
  148.6804  134.4030  155.8450 H   0  0  0  0  0  0  0  0  0  0  0  0
  150.3882  133.4122  153.5275 H   0  0  0  0  0  0  0  0  0  0  0  0
  149.3589  132.4626  154.5864 H   0  0  0  0  0  0  0  0  0  0  0  0
  148.6223  134.3358  152.6095 H   0  0  0  0  0  0  0  0  0  0  0  0
  149.3299  135.8417  153.4471 H   0  0  0  0  0  0  0  0  0  0  0  0
  148.8330  137.7785  153.1913 H   0  0  0  0  0  0  0  0  0  0  0  0
  148.1823  139.9073  153.6056 H   0  0  0  0  0  0  0  0  0  0  0  0
  147.3142  139.3137  155.0002 H   0  0  0  0  0  0  0  0  0  0  0  0
  151.0063  139.6972  154.1261 H   0  0  0  0  0  0  0  0  0  0  0  0
  152.6064  140.8743  155.6225 H   0  0  0  0  0  0  0  0  0  0  0  0
  151.1895  143.9438  157.4538 H   0  0  0  0  0  0  0  0  0  0  0  0
  150.4453  143.2613  158.8912 H   0  0  0  0  0  0  0  0  0  0  0  0
  153.3198  144.3157  158.6763 H   0  0  0  0  0  0  0  0  0  0  0  0
  151.6099  146.1263  158.8998 H   0  0  0  0  0  0  0  0  0  0  0  0
  152.5860  145.9885  160.3587 H   0  0  0  0  0  0  0  0  0  0  0  0
  150.9514  145.3333  160.3301 H   0  0  0  0  0  0  0  0  0  0  0  0
  154.2168  142.2567  159.4551 H   0  0  0  0  0  0  0  0  0  0  0  0
  154.1473  140.3782  161.1016 H   0  0  0  0  0  0  0  0  0  0  0  0
  152.8089  141.1588  161.9434 H   0  0  0  0  0  0  0  0  0  0  0  0
  154.3957  141.9237  161.9083 H   0  0  0  0  0  0  0  0  0  0  0  0
  151.4214  141.0422  159.7825 H   0  0  0  0  0  0  0  0  0  0  0  0
  152.7424  140.3361  158.8626 H   0  0  0  0  0  0  0  0  0  0  0  0
  147.8706  140.6009  157.0055 H   0  0  0  0  0  0  0  0  0  0  0  0
  149.4581  141.6660  158.2983 H   0  0  0  0  0  0  0  0  0  0  0  0
  1  2  1  0  0  0  0
  1 24  1  0  0  0  0
  1 25  1  0  0  0  0
  1 26  1  0  0  0  0
  2  3  1  0  0  0  0
  2  5  1  0  0  0  0
  2 27  1  0  0  0  0
  3  4  1  0  0  0  0
  3 28  1  0  0  0  0
  3 29  1  0  0  0  0
  4 30  1  0  0  0  0
  5  6  1  0  0  0  0
  5 31  1  0  0  0  0
  6  7  2  0  0  0  0
  6  8  1  0  0  0  0
  8  9  1  0  0  0  0
  8 32  1  0  0  0  0
  9 10  1  0  0  0  0
  9 33  1  0  0  0  0
  9 34  1  0  0  0  0
 10 23  1  0  0  0  0
 10 11  2  0  0  0  0
 11 12  1  0  0  0  0
 11 35  1  0  0  0  0
 12 13  2  0  0  0  0
 12 36  1  0  0  0  0
 13 14  1  0  0  0  0
 13 22  1  0  0  0  0
 14 21  1  0  0  0  0
 14 15  1  0  0  0  0
 15 16  1  0  0  0  0
 15 37  1  0  0  0  0
 15 38  1  0  0  0  0
 16 17  1  0  0  0  0
 16 18  1  0  0  0  0
 16 39  1  0  0  0  0
 17 40  1  0  0  0  0
 17 41  1  0  0  0  0
 17 42  1  0  0  0  0
 18 19  1  0  0  0  0
 19 20  1  0  0  0  0
 19 21  1  0  0  0  0
 19 43  1  0  0  0  0
 20 44  1  0  0  0  0
 20 45  1  0  0  0  0
 20 46  1  0  0  0  0
 21 47  1  0  0  0  0
 21 48  1  0  0  0  0
 22 23  2  0  0  0  0
 22 50  1  0  0  0  0
 23 49  1  0  0  0  0
M  CHG  1  22   1
M  END
> <s_m_source_file>
AV-unprocessed.smi

> <i_m_source_file_index>
1983

> <i_lp_mmshare_version>
43012

> <i_f3d_flags>
0

> <s_epik_input>
W09IXVtDSDJdW0NAQEhdKFtDSDNdKVtOSF1DKD1PKVtOSF1bQ0gyXWMxW2NIXVtjSF1jKG5bY0hdMSlOMltDSDJdW0NAQEhdKFtDSDNdKU9bQ0BASF0oW0NIM10pW0NIMl0y

> <s_epik_cmdline>
J2VwaWtfcHl0aG9uJywgJy1waCcsICc3LjAnLCAnLXRuJywgJzgnLCAnLW1hJywgJzIwMCcsICctbWV0YWxfYmluZGluZycsICctaW1hZScsICc8aW5maWxlLm1hZT4nLCAnLW9tYWUnLCAnPG91dGZpbGUubWFlPic=

> <r_lp_tautomer_probability>
0.999994

> <r_epik_Ionization_Penalty>
2.55677

> <r_epik_Ionization_Penalty_Charging>
2.55673

> <r_epik_Ionization_Penalty_Neutral>
3.71772e-05

> <r_epik_State_Penalty>
2.72571

> <r_epik_Charging_Adjusted_Penalty>
5.28244

> <i_epik_Tot_Q>
1

> <i_epik_Tot_abs_Q>
1

> <r_epik_Metal_State_Penalty>
2.73364

> <b_epik_Metal_Only>
0

> <s_lp_Force_Field>
OPLS_2005

> <r_lp_Energy>
19.4893

> <b_lp_Chiralities_Consistent>
1

> <s_lp_Variant>
AV-unprocessed.smi:1983-7

> <Gold.Version>
5.8.1

> <Gold.Id.Protein>
6NUR|6NUR_protein|mol2

> <Gold.PLP.Fitness>
48.1130

> <Gold.PLP.PLP>
-41.6639

> <Gold.PLP.part.hbond>
-3.0000

> <Gold.PLP.part.metal>
0.0000

> <Gold.PLP.part.buried>
-3.5151

> <Gold.PLP.part.nonpolar>
-34.4213

> <Gold.PLP.part.repulsive>
0.1240

> <Gold.PLP.ligand.clash>
0.0000

> <Gold.PLP.ligand.torsion>
0.6632

> <Gold.PLP.Chemscore.Hbond>
2.5424

> <Gold.PLP.Chemscore.CHOScore>
0.0000

> <Gold.PLP.Chemscore.Metal>
0.0000

> <Gold.Chemscore.Hbonds>
donor molecule, donor type, donor heavy atom, donor atom, acceptor molecule, acceptor atom, score
      L1  H     4    30       P1  7948  0.55
      L1  H     5    31       P1  7948  1.00
      L1  H     8    32       P1  7948  0.86

> <Gold.PLP.Chemscore.Internal.Correction>
0.1483

> <Gold.Rescore>
     Score         DG    S(hbond)    S(metal)    S(lipo)     H(rot)  DE(clash)    DE(int)     intcor
     16.99     -17.97       2.09        0.00     105.42       2.66       0.22       0.75       ----

> <Gold.Chemscore.Fitness>
16.9868

> <Gold.Chemscore.DG>
-17.9654

> <Gold.Chemscore.ZeroCoef>
-5.4800

> <Gold.Chemscore.Hbond>
2.0871

> <Gold.Chemscore.Metal>
0.0000

> <Gold.Chemscore.Lipo>
105.4157

> <Gold.Chemscore.Internal_Hbond>
0.0000

> <Gold.Chemscore.DEClash>
0.2246

> <Gold.Chemscore.DEInternal>
0.7540

> <Gold.Chemscore.Rot>
2.6637

> <Gold.Chemscore.Internal.Correction>
   9.000000E+99

> <Gold.Chemscore.Hbonds>
donor molecule, donor type, donor heavy atom, donor atom, acceptor molecule, acceptor atom, score
      L1  H     4    30       P1  7948  0.03
      L1  H     5    31       P1  7948  0.50
      L1  H     8    32       P1  7948  0.79

> <Gold.Chemscore.Hbond.Weighted>
-6.9709

> <Gold.Chemscore.Metal.Weighted>
-0.0000

> <Gold.Chemscore.Lipo.Weighted>
-12.3336

> <Gold.Chemscore.Internal_Hbond.Weighted>
0.0000

> <Gold.Chemscore.DEClash.Weighted>
0.2246

> <Gold.Chemscore.DEInternal.Weighted>
0.7540

> <Gold.Chemscore.Rot.Weighted>
6.8191

> <Gold.Chemscore.Internal.Correction.Weighted>
   9.000000E+99

> <Gold.Protein.RotatedTorsions>
[ 6907 6896 6895 6894 ] final  -52.14 input  -60.11 | X-H torsion
[ 7974 7965 7964 7962 ] final -126.08 input  175.53 | X-H torsion
[ 8008 7997 7996 7995 ] final  164.69 input   59.86 | X-H torsion
[ 10167 10162 10161 10158 ] final  -69.34 input  -65.29 | X-H torsion
[ 10718 10713 10712 10709 ] final -101.37 input   66.30 | X-H torsion
[ 10763 10752 10751 10750 ] final -119.04 input  -60.55 | X-H torsion
[ 11005 11000 10999 10996 ] final -144.46 input  -57.11 | X-H torsion

> <Gold.Protein.ActiveResidues>
 VAL166  LYS551  ARG553  GLY616  TRP617  ASP618  TYR619  PRO620  LYS621  CYS622 
 ASP623  PHE694  ASN695  SER759  ASP760  ASP761  ALA762  ILE779  LEU786  VAL792 
 PHE793  MET794  SER795  GLU796  ALA797  LYS798  CYS799  TRP800  GLU811  SER814 

> <Gold.Protein.RotatedAtoms>
  150.8546  134.7881  159.7034 H   0  0  0  0  0  0  0  0  0  0  0  0  # atno 6907 bound_to 6896
  152.4601  134.5200  159.9789 H   0  0  0  0  0  0  0  0  0  0  0  0  # atno 6908 bound_to 6896
  151.5315  133.3410  159.2954 H   0  0  0  0  0  0  0  0  0  0  0  0  # atno 6909 bound_to 6896
  144.9910  140.7731  143.4554 H   0  0  0  0  0  0  0  0  0  0  0  0  # atno 7974 bound_to 7965
  156.1860  140.1690  156.8185 H   0  0  0  0  0  0  0  0  0  0  0  0  # atno 8008 bound_to 7997
  154.5414  140.0736  156.8549 H   0  0  0  0  0  0  0  0  0  0  0  0  # atno 8009 bound_to 7997
  155.3207  140.3373  155.4243 H   0  0  0  0  0  0  0  0  0  0  0  0  # atno 8010 bound_to 7997
  140.5438  143.2314  151.7040 H   0  0  0  0  0  0  0  0  0  0  0  0  # atno 10167 bound_to 10162
  156.0192  130.5370  150.6952 H   0  0  0  0  0  0  0  0  0  0  0  0  # atno 10718 bound_to 10713
  154.8606  135.4252  154.2236 H   0  0  0  0  0  0  0  0  0  0  0  0  # atno 10763 bound_to 10752
  153.3236  135.6983  153.7015 H   0  0  0  0  0  0  0  0  0  0  0  0  # atno 10764 bound_to 10752
  153.6060  135.3528  155.2935 H   0  0  0  0  0  0  0  0  0  0  0  0  # atno 10765 bound_to 10752
  140.8022  134.2843  157.4974 H   0  0  0  0  0  0  0  0  0  0  0  0  # atno 11005 bound_to 11000
  145.2286  139.2125  143.5055 LP  0  0  0  0  0  0  0  0  0  0  0  0  # atno 17320 bound_to 7965
  146.3431  140.2159  142.8590 LP  0  0  0  0  0  0  0  0  0  0  0  0  # atno 17321 bound_to 7965
  139.4999  144.3927  152.0263 LP  0  0  0  0  0  0  0  0  0  0  0  0  # atno 17342 bound_to 10162
  140.3038  144.3616  150.6052 LP  0  0  0  0  0  0  0  0  0  0  0  0  # atno 17343 bound_to 10162
  157.4625  131.0884  151.0730 LP  0  0  0  0  0  0  0  0  0  0  0  0  # atno 17370 bound_to 10713
  157.1214  130.6063  149.5506 LP  0  0  0  0  0  0  0  0  0  0  0  0  # atno 17371 bound_to 10713
  139.8720  134.9436  156.3858 LP  0  0  0  0  0  0  0  0  0  0  0  0  # atno 17394 bound_to 11000
  140.9283  133.7597  155.9992 LP  0  0  0  0  0  0  0  0  0  0  0  0  # atno 17395 bound_to 11000

$$$$
