AV-unprocessed.smi:1251|AV-procd|sdf|5258|dock3
  -GOLD-   22720 4373D 1   1.00000     0.00000
 Structure written by MMmdl.
 39 40  0  0  0  0  0  0  0  0  1 V2000
  151.5027  143.3875  157.6172 C   0  0  0  0  0  0  0  0  0  0  0  0
  150.4558  142.3501  157.1975 C   0  0  0  0  0  0  0  0  0  0  0  0
  150.9912  141.3649  156.1488 C   0  0  0  0  0  0  0  0  0  0  0  0
  149.9095  140.5473  155.5248 C   0  0  0  0  0  0  0  0  0  0  0  0
  148.6122  140.7307  155.8009 N   0  0  0  0  0  0  0  0  0  0  0  0
  147.7938  139.8728  155.0791 N   0  0  0  0  0  0  0  0  0  0  0  0
  148.4998  139.0754  154.2656 C   0  0  0  0  0  0  0  0  0  0  0  0
  147.9165  138.1032  153.4110 N   0  0  0  0  0  0  0  0  0  0  0  0
  146.6128  137.8691  153.1810 C   0  0  0  0  0  0  0  0  0  0  0  0
  145.6778  138.4824  153.6967 O   0  0  0  0  0  0  0  0  0  0  0  0
  146.4504  136.8695  152.3012 N   0  0  0  0  0  0  0  0  0  0  0  0
  145.1688  136.3697  151.8078 C   0  0  2  0  0  0  0  0  0  0  0  0
  144.3000  135.9813  153.0142 C   0  0  0  0  0  0  0  0  0  0  0  0
  145.4002  135.1851  150.8458 C   0  0  1  0  0  0  0  0  0  0  0  0
  146.1434  133.9993  151.4651 C   0  0  0  0  0  0  0  0  0  0  0  0
  145.6792  132.8541  150.5957 C   0  0  0  0  0  0  0  0  0  0  0  0
  144.2157  133.2153  150.3699 C   0  0  0  0  0  0  0  0  0  0  0  0
  144.1575  134.6383  150.4046 O   0  0  0  0  0  0  0  0  0  0  0  0
  150.2385  139.3104  154.3172 S   0  0  0  0  0  0  0  0  0  0  0  0
  151.0950  144.0719  158.3613 H   0  0  0  0  0  0  0  0  0  0  0  0
  151.8322  143.9817  156.7645 H   0  0  0  0  0  0  0  0  0  0  0  0
  152.3802  142.9079  158.0515 H   0  0  0  0  0  0  0  0  0  0  0  0
  150.1199  141.8009  158.0779 H   0  0  0  0  0  0  0  0  0  0  0  0
  149.5798  142.8652  156.8018 H   0  0  0  0  0  0  0  0  0  0  0  0
  151.5141  141.9065  155.3599 H   0  0  0  0  0  0  0  0  0  0  0  0
  151.7218  140.6938  156.6025 H   0  0  0  0  0  0  0  0  0  0  0  0
  148.5703  137.5193  152.9110 H   0  0  0  0  0  0  0  0  0  0  0  0
  147.2784  136.4275  151.9302 H   0  0  0  0  0  0  0  0  0  0  0  0
  144.6487  137.1633  151.2683 H   0  0  0  0  0  0  0  0  0  0  0  0
  143.3072  135.6575  152.7017 H   0  0  0  0  0  0  0  0  0  0  0  0
  144.1664  136.8274  153.6891 H   0  0  0  0  0  0  0  0  0  0  0  0
  144.7513  135.1683  153.5842 H   0  0  0  0  0  0  0  0  0  0  0  0
  145.9432  135.5195  149.9600 H   0  0  0  0  0  0  0  0  0  0  0  0
  147.2265  134.1249  151.4593 H   0  0  0  0  0  0  0  0  0  0  0  0
  145.8223  133.8377  152.4953 H   0  0  0  0  0  0  0  0  0  0  0  0
  146.2196  132.8603  149.6483 H   0  0  0  0  0  0  0  0  0  0  0  0
  145.8117  131.8772  151.0614 H   0  0  0  0  0  0  0  0  0  0  0  0
  143.8310  132.8226  149.4285 H   0  0  0  0  0  0  0  0  0  0  0  0
  143.5971  132.8249  151.1789 H   0  0  0  0  0  0  0  0  0  0  0  0
  1  2  1  0  0  0  0
  1 20  1  0  0  0  0
  1 21  1  0  0  0  0
  1 22  1  0  0  0  0
  2  3  1  0  0  0  0
  2 23  1  0  0  0  0
  2 24  1  0  0  0  0
  3  4  1  0  0  0  0
  3 25  1  0  0  0  0
  3 26  1  0  0  0  0
  4 19  1  0  0  0  0
  4  5  2  0  0  0  0
  5  6  1  0  0  0  0
  6  7  2  0  0  0  0
  7  8  1  0  0  0  0
  7 19  1  0  0  0  0
  8  9  1  0  0  0  0
  8 27  1  0  0  0  0
  9 10  2  0  0  0  0
  9 11  1  0  0  0  0
 11 12  1  0  0  0  0
 11 28  1  0  0  0  0
 12 13  1  0  0  0  0
 12 14  1  0  0  0  0
 12 29  1  0  0  0  0
 13 30  1  0  0  0  0
 13 31  1  0  0  0  0
 13 32  1  0  0  0  0
 14 18  1  0  0  0  0
 14 15  1  0  0  0  0
 14 33  1  0  0  0  0
 15 16  1  0  0  0  0
 15 34  1  0  0  0  0
 15 35  1  0  0  0  0
 16 17  1  0  0  0  0
 16 36  1  0  0  0  0
 16 37  1  0  0  0  0
 17 18  1  0  0  0  0
 17 38  1  0  0  0  0
 17 39  1  0  0  0  0
M  END
> <s_m_source_file>
AV-unprocessed.smi

> <i_m_source_file_index>
1251

> <i_lp_mmshare_version>
43012

> <i_f3d_flags>
0

> <s_epik_input>
W0NIM11bQ0gyXVtDSDJdYzFubmMoczEpW05IXUMoPU8pW05IXVtDQEhdKFtDSDNdKVtDQEBIXTJbQ0gyXVtDSDJdW0NIMl1PMg==

> <s_epik_cmdline>
J2VwaWtfcHl0aG9uJywgJy1waCcsICc3LjAnLCAnLXRuJywgJzgnLCAnLW1hJywgJzIwMCcsICctbWV0YWxfYmluZGluZycsICctaW1hZScsICc8aW5maWxlLm1hZT4nLCAnLW9tYWUnLCAnPG91dGZpbGUubWFlPic=

> <r_lp_tautomer_probability>
1

> <r_epik_Ionization_Penalty>
0.000503621

> <r_epik_Ionization_Penalty_Charging>
0

> <r_epik_Ionization_Penalty_Neutral>
0.000503621

> <r_epik_State_Penalty>
-0

> <r_epik_Charging_Adjusted_Penalty>
0

> <i_epik_Tot_Q>
0

> <i_epik_Tot_abs_Q>
0

> <r_epik_Metal_State_Penalty>
0.219912

> <b_epik_Metal_Only>
0

> <s_lp_Force_Field>
OPLS_2005

> <r_lp_Energy>
12.8744

> <b_lp_Chiralities_Consistent>
1

> <s_lp_Variant>
AV-unprocessed.smi:1251-3

> <Gold.Version>
5.8.1

> <Gold.Id.Protein>
6NUR|6NUR_protein|mol2

> <Gold.PLP.Fitness>
36.5259

> <Gold.PLP.PLP>
-30.6426

> <Gold.PLP.part.hbond>
-2.0000

> <Gold.PLP.part.metal>
0.0000

> <Gold.PLP.part.buried>
-4.0424

> <Gold.PLP.part.nonpolar>
-25.9477

> <Gold.PLP.part.repulsive>
0.7133

> <Gold.PLP.ligand.clash>
0.0000

> <Gold.PLP.ligand.torsion>
0.0764

> <Gold.PLP.Chemscore.Hbond>
2.0000

> <Gold.PLP.Chemscore.CHOScore>
0.0000

> <Gold.PLP.Chemscore.Metal>
0.0000

> <Gold.Chemscore.Hbonds>
donor molecule, donor type, donor heavy atom, donor atom, acceptor molecule, acceptor atom, score
      L1  H     8    27       P1  7948  1.00
      L1  H    11    28       P1  7948  1.00

> <Gold.PLP.Chemscore.Internal.Correction>
0.0360

> <Gold.Rescore>
     Score         DG    S(hbond)    S(metal)    S(lipo)     H(rot)  DE(clash)    DE(int)     intcor
     14.26     -16.96       1.96        0.00      76.93       1.58       0.22       2.48       ----

> <Gold.Chemscore.Fitness>
14.2589

> <Gold.Chemscore.DG>
-16.9582

> <Gold.Chemscore.ZeroCoef>
-5.4800

> <Gold.Chemscore.Hbond>
1.9561

> <Gold.Chemscore.Metal>
0.0000

> <Gold.Chemscore.Lipo>
76.9285

> <Gold.Chemscore.Internal_Hbond>
0.0000

> <Gold.Chemscore.DEClash>
0.2162

> <Gold.Chemscore.DEInternal>
2.4830

> <Gold.Chemscore.Rot>
1.5843

> <Gold.Chemscore.Internal.Correction>
   9.000000E+99

> <Gold.Chemscore.Hbonds>
donor molecule, donor type, donor heavy atom, donor atom, acceptor molecule, acceptor atom, score
      L1  H     8    27       P1  7948  0.98
      L1  H    11    28       P1  7948  0.97

> <Gold.Chemscore.Hbond.Weighted>
-6.5333

> <Gold.Chemscore.Metal.Weighted>
-0.0000

> <Gold.Chemscore.Lipo.Weighted>
-9.0006

> <Gold.Chemscore.Internal_Hbond.Weighted>
0.0000

> <Gold.Chemscore.DEClash.Weighted>
0.2162

> <Gold.Chemscore.DEInternal.Weighted>
2.4830

> <Gold.Chemscore.Rot.Weighted>
4.0558

> <Gold.Chemscore.Internal.Correction.Weighted>
   9.000000E+99

> <Gold.Protein.RotatedTorsions>
[ 6907 6896 6895 6894 ] final -126.70 input  -60.11 | X-H torsion
[ 7974 7965 7964 7962 ] final   -1.86 input  175.53 | X-H torsion
[ 8008 7997 7996 7995 ] final  166.41 input   59.86 | X-H torsion
[ 10167 10162 10161 10158 ] final   64.33 input  -65.29 | X-H torsion
[ 10718 10713 10712 10709 ] final  124.43 input   66.30 | X-H torsion
[ 10763 10752 10751 10750 ] final   40.44 input  -60.55 | X-H torsion
[ 11005 11000 10999 10996 ] final  -87.33 input  -57.11 | X-H torsion

> <Gold.Protein.ActiveResidues>
 VAL166  LYS551  ARG553  GLY616  TRP617  ASP618  TYR619  PRO620  LYS621  CYS622 
 ASP623  PHE694  ASN695  SER759  ASP760  ASP761  ALA762  ILE779  LEU786  VAL792 
 PHE793  MET794  SER795  GLU796  ALA797  LYS798  CYS799  TRP800  GLU811  SER814 

> <Gold.Protein.RotatedAtoms>
  150.8997  133.7135  159.2882 H   0  0  0  0  0  0  0  0  0  0  0  0  # atno 6907 bound_to 6896
  151.4658  135.1040  159.9747 H   0  0  0  0  0  0  0  0  0  0  0  0  # atno 6908 bound_to 6896
  152.4869  133.8349  159.7178 H   0  0  0  0  0  0  0  0  0  0  0  0  # atno 6909 bound_to 6896
  146.2412  140.1484  142.8334 H   0  0  0  0  0  0  0  0  0  0  0  0  # atno 7974 bound_to 7965
  156.1720  140.1644  156.8430 H   0  0  0  0  0  0  0  0  0  0  0  0  # atno 8008 bound_to 7997
  154.5267  140.0766  156.8305 H   0  0  0  0  0  0  0  0  0  0  0  0  # atno 8009 bound_to 7997
  155.3492  140.3389  155.4241 H   0  0  0  0  0  0  0  0  0  0  0  0  # atno 8010 bound_to 7997
  140.1234  144.4710  150.6907 H   0  0  0  0  0  0  0  0  0  0  0  0  # atno 10167 bound_to 10162
  157.5585  131.1091  150.8580 H   0  0  0  0  0  0  0  0  0  0  0  0  # atno 10718 bound_to 10713
  152.9936  135.6191  154.2626 H   0  0  0  0  0  0  0  0  0  0  0  0  # atno 10763 bound_to 10752
  154.2362  135.2790  155.2873 H   0  0  0  0  0  0  0  0  0  0  0  0  # atno 10764 bound_to 10752
  154.5408  135.5761  153.6895 H   0  0  0  0  0  0  0  0  0  0  0  0  # atno 10765 bound_to 10752
  141.1618  133.7505  156.9291 H   0  0  0  0  0  0  0  0  0  0  0  0  # atno 11005 bound_to 11000
  145.0188  140.8776  143.5179 LP  0  0  0  0  0  0  0  0  0  0  0  0  # atno 17320 bound_to 7965
  145.1530  139.2503  143.5431 LP  0  0  0  0  0  0  0  0  0  0  0  0  # atno 17321 bound_to 7965
  140.6859  143.2350  151.5262 LP  0  0  0  0  0  0  0  0  0  0  0  0  # atno 17342 bound_to 10162
  139.5557  144.2282  152.1607 LP  0  0  0  0  0  0  0  0  0  0  0  0  # atno 17343 bound_to 10162
  156.9084  130.5272  149.5281 LP  0  0  0  0  0  0  0  0  0  0  0  0  # atno 17370 bound_to 10713
  156.0641  130.5687  150.9252 LP  0  0  0  0  0  0  0  0  0  0  0  0  # atno 17371 bound_to 10713
  140.1399  134.9300  157.2452 LP  0  0  0  0  0  0  0  0  0  0  0  0  # atno 17394 bound_to 11000
  140.2850  134.3306  155.7332 LP  0  0  0  0  0  0  0  0  0  0  0  0  # atno 17395 bound_to 11000

$$$$
