AV-unprocessed.smi:2325|AV-procd|sdf|9295|dock7
  -GOLD-   2272012513D 1   1.00000     0.00000
 Structure written by MMmdl.
 40 41  0  0  0  0  0  0  0  0  1 V2000
  147.2626  133.1000  151.8797 C   0  0  0  0  0  0  0  0  0  0  0  0
  145.9843  133.5968  151.4084 N   0  0  0  0  0  0  0  0  0  0  0  0
  145.0559  132.7559  150.8950 N   0  0  0  0  0  0  0  0  0  0  0  0
  144.0520  133.5783  150.5892 C   0  0  0  0  0  0  0  0  0  0  0  0
  144.2552  134.9003  150.8658 N   0  0  0  0  0  0  0  0  0  0  0  0
  145.4815  134.8344  151.3749 C   0  0  0  0  0  0  0  0  0  0  0  0
  146.2468  135.9281  151.8605 N   0  0  0  0  0  0  0  0  0  0  0  0
  145.7964  137.0658  152.4155 C   0  0  0  0  0  0  0  0  0  0  0  0
  144.6112  137.3567  152.5768 O   0  0  0  0  0  0  0  0  0  0  0  0
  146.8118  137.8600  152.7824 N   0  0  0  0  0  0  0  0  0  0  0  0
  146.6707  139.1566  153.4418 C   0  0  2  0  0  0  0  0  0  0  0  0
  147.8672  140.0481  153.1749 C   0  0  0  0  0  0  0  0  0  0  0  0
  147.8433  141.0259  154.3555 C   0  0  0  0  0  0  0  0  0  0  0  0
  149.2558  141.4131  154.8191 C   0  0  0  0  0  0  0  0  0  0  0  0
  147.0014  142.2767  154.0505 C   0  0  0  0  0  0  0  0  0  0  0  0
  147.1953  140.3252  155.4160 O   0  0  0  0  0  0  0  0  0  0  0  0
  146.6526  139.0780  154.9845 C   0  0  0  0  0  0  0  0  0  0  0  0
  145.2271  138.9672  155.5484 C   0  0  0  0  0  0  0  0  0  0  0  0
  147.5597  137.9788  155.5760 C   0  0  0  0  0  0  0  0  0  0  0  0
  148.0708  133.6266  151.3714 H   0  0  0  0  0  0  0  0  0  0  0  0
  147.3571  132.0319  151.6795 H   0  0  0  0  0  0  0  0  0  0  0  0
  147.3470  133.2690  152.9535 H   0  0  0  0  0  0  0  0  0  0  0  0
  143.1366  133.2106  150.1495 H   0  0  0  0  0  0  0  0  0  0  0  0
  147.2480  135.8273  151.7850 H   0  0  0  0  0  0  0  0  0  0  0  0
  147.7533  137.5399  152.6098 H   0  0  0  0  0  0  0  0  0  0  0  0
  145.7781  139.6712  153.0802 H   0  0  0  0  0  0  0  0  0  0  0  0
  148.7841  139.4564  153.1927 H   0  0  0  0  0  0  0  0  0  0  0  0
  147.8185  140.5445  152.2051 H   0  0  0  0  0  0  0  0  0  0  0  0
  149.8023  141.9300  154.0297 H   0  0  0  0  0  0  0  0  0  0  0  0
  149.8334  140.5329  155.1035 H   0  0  0  0  0  0  0  0  0  0  0  0
  149.2184  142.0735  155.6859 H   0  0  0  0  0  0  0  0  0  0  0  0
  147.4342  142.8545  153.2331 H   0  0  0  0  0  0  0  0  0  0  0  0
  146.9396  142.9303  154.9213 H   0  0  0  0  0  0  0  0  0  0  0  0
  145.9818  142.0142  153.7672 H   0  0  0  0  0  0  0  0  0  0  0  0
  144.7576  138.0274  155.2583 H   0  0  0  0  0  0  0  0  0  0  0  0
  144.5952  139.7801  155.1897 H   0  0  0  0  0  0  0  0  0  0  0  0
  145.2305  139.0117  156.6378 H   0  0  0  0  0  0  0  0  0  0  0  0
  147.1923  136.9810  155.3345 H   0  0  0  0  0  0  0  0  0  0  0  0
  147.6027  138.0533  156.6628 H   0  0  0  0  0  0  0  0  0  0  0  0
  148.5818  138.0571  155.2049 H   0  0  0  0  0  0  0  0  0  0  0  0
  1  2  1  0  0  0  0
  1 20  1  0  0  0  0
  1 21  1  0  0  0  0
  1 22  1  0  0  0  0
  2  6  1  0  0  0  0
  2  3  1  0  0  0  0
  3  4  2  0  0  0  0
  4  5  1  0  0  0  0
  4 23  1  0  0  0  0
  5  6  2  0  0  0  0
  6  7  1  0  0  0  0
  7  8  1  0  0  0  0
  7 24  1  0  0  0  0
  8  9  2  0  0  0  0
  8 10  1  0  0  0  0
 10 11  1  0  0  0  0
 10 25  1  0  0  0  0
 11 17  1  0  0  0  0
 11 12  1  0  0  0  0
 11 26  1  0  0  0  0
 12 13  1  0  0  0  0
 12 27  1  0  0  0  0
 12 28  1  0  0  0  0
 13 14  1  0  0  0  0
 13 15  1  0  0  0  0
 13 16  1  0  0  0  0
 14 29  1  0  0  0  0
 14 30  1  0  0  0  0
 14 31  1  0  0  0  0
 15 32  1  0  0  0  0
 15 33  1  0  0  0  0
 15 34  1  0  0  0  0
 16 17  1  0  0  0  0
 17 18  1  0  0  0  0
 17 19  1  0  0  0  0
 18 35  1  0  0  0  0
 18 36  1  0  0  0  0
 18 37  1  0  0  0  0
 19 38  1  0  0  0  0
 19 39  1  0  0  0  0
 19 40  1  0  0  0  0
M  END
> <s_m_source_file>
AV-unprocessed.smi

> <i_m_source_file_index>
2325

> <i_lp_mmshare_version>
43012

> <i_f3d_flags>
0

> <s_epik_input>
W0NIM11uMW5bY0hdbmMxW05IXUMoPU8pW05IXVtDQEBIXShDKE8yKShbQ0gzXSlbQ0gzXSlbQ0gyXUMyKFtDSDNdKVtDSDNd

> <s_epik_cmdline>
J2VwaWtfcHl0aG9uJywgJy1waCcsICc3LjAnLCAnLXRuJywgJzgnLCAnLW1hJywgJzIwMCcsICctbWV0YWxfYmluZGluZycsICctaW1hZScsICc8aW5maWxlLm1hZT4nLCAnLW9tYWUnLCAnPG91dGZpbGUubWFlPic=

> <r_lp_tautomer_probability>
1

> <r_epik_Ionization_Penalty>
1.97832e-05

> <r_epik_Ionization_Penalty_Charging>
0

> <r_epik_Ionization_Penalty_Neutral>
1.97832e-05

> <r_epik_State_Penalty>
-0

> <r_epik_Charging_Adjusted_Penalty>
0

> <i_epik_Tot_Q>
0

> <i_epik_Tot_abs_Q>
0

> <r_epik_Metal_State_Penalty>
-0

> <b_epik_Metal_Only>
0

> <s_lp_Force_Field>
OPLS_2005

> <r_lp_Energy>
17.1508

> <b_lp_Chiralities_Consistent>
1

> <s_lp_Variant>
AV-unprocessed.smi:2325-1

> <Gold.Version>
5.8.1

> <Gold.Id.Protein>
6NUR|6NUR_protein|mol2

> <Gold.PLP.Fitness>
32.9698

> <Gold.PLP.PLP>
-25.0645

> <Gold.PLP.part.hbond>
-2.0000

> <Gold.PLP.part.metal>
0.0000

> <Gold.PLP.part.buried>
-2.7590

> <Gold.PLP.part.nonpolar>
-22.8627

> <Gold.PLP.part.repulsive>
0.8840

> <Gold.PLP.ligand.clash>
0.0000

> <Gold.PLP.ligand.torsion>
0.5505

> <Gold.PLP.Chemscore.Hbond>
2.0000

> <Gold.PLP.Chemscore.CHOScore>
0.9984

> <Gold.PLP.Chemscore.Metal>
0.0000

> <Gold.Chemscore.Hbonds>
donor molecule, donor type, donor heavy atom, donor atom, acceptor molecule, acceptor atom, score
      L1  H     7    24       P1  7948  1.00
      L1  H    10    25       P1  7948  0.99
      L1  C     4    23       P1 10186  1.00

> <Gold.PLP.Chemscore.Internal.Correction>
0.0111

> <Gold.Rescore>
     Score         DG    S(hbond)    S(metal)    S(lipo)     H(rot)  DE(clash)    DE(int)     intcor
     11.86     -14.84       1.95        0.00      46.28       1.00       1.45       1.53       ----

> <Gold.Chemscore.Fitness>
11.8633

> <Gold.Chemscore.DG>
-14.8438

> <Gold.Chemscore.ZeroCoef>
-5.4800

> <Gold.Chemscore.Hbond>
1.9488

> <Gold.Chemscore.Metal>
0.0000

> <Gold.Chemscore.Lipo>
46.2799

> <Gold.Chemscore.Internal_Hbond>
0.0000

> <Gold.Chemscore.DEClash>
1.4492

> <Gold.Chemscore.DEInternal>
1.5314

> <Gold.Chemscore.Rot>
1.0000

> <Gold.Chemscore.Internal.Correction>
   9.000000E+99

> <Gold.Chemscore.Hbonds>
donor molecule, donor type, donor heavy atom, donor atom, acceptor molecule, acceptor atom, score
      L1  H     7    24       P1  7948  1.00
      L1  H    10    25       P1  7948  0.94

> <Gold.Chemscore.Hbond.Weighted>
-6.5090

> <Gold.Chemscore.Metal.Weighted>
-0.0000

> <Gold.Chemscore.Lipo.Weighted>
-5.4148

> <Gold.Chemscore.Internal_Hbond.Weighted>
0.0000

> <Gold.Chemscore.DEClash.Weighted>
1.4492

> <Gold.Chemscore.DEInternal.Weighted>
1.5314

> <Gold.Chemscore.Rot.Weighted>
2.5600

> <Gold.Chemscore.Internal.Correction.Weighted>
   9.000000E+99

> <Gold.Protein.RotatedTorsions>
[ 6907 6896 6895 6894 ] final   27.91 input  -60.11 | X-H torsion
[ 7974 7965 7964 7962 ] final -149.00 input  175.53 | X-H torsion
[ 8008 7997 7996 7995 ] final  179.95 input   59.86 | X-H torsion
[ 10167 10162 10161 10158 ] final   59.26 input  -65.29 | X-H torsion
[ 10718 10713 10712 10709 ] final -153.07 input   66.30 | X-H torsion
[ 10763 10752 10751 10750 ] final  154.12 input  -60.55 | X-H torsion
[ 11005 11000 10999 10996 ] final  -94.08 input  -57.11 | X-H torsion

> <Gold.Protein.ActiveResidues>
 VAL166  LYS551  ARG553  GLY616  TRP617  ASP618  TYR619  PRO620  LYS621  CYS622 
 ASP623  PHE694  ASN695  SER759  ASP760  ASP761  ALA762  ILE779  LEU786  VAL792 
 PHE793  MET794  SER795  GLU796  ALA797  LYS798  CYS799  TRP800  GLU811  SER814 

> <Gold.Protein.RotatedAtoms>
  152.0093  134.9885  160.0567 H   0  0  0  0  0  0  0  0  0  0  0  0  # atno 6907 bound_to 6896
  152.1444  133.4479  159.4791 H   0  0  0  0  0  0  0  0  0  0  0  0  # atno 6908 bound_to 6896
  150.6868  134.2183  159.4430 H   0  0  0  0  0  0  0  0  0  0  0  0  # atno 6909 bound_to 6896
  144.7994  140.5123  143.5717 H   0  0  0  0  0  0  0  0  0  0  0  0  # atno 7974 bound_to 7965
  156.0376  140.1296  157.0191 H   0  0  0  0  0  0  0  0  0  0  0  0  # atno 8008 bound_to 7997
  154.4377  140.1037  156.6260 H   0  0  0  0  0  0  0  0  0  0  0  0  # atno 8009 bound_to 7997
  155.5715  140.3466  155.4518 H   0  0  0  0  0  0  0  0  0  0  0  0  # atno 8010 bound_to 7997
  140.1784  144.4207  150.6627 H   0  0  0  0  0  0  0  0  0  0  0  0  # atno 10167 bound_to 10162
  156.4809  130.8303  151.2529 H   0  0  0  0  0  0  0  0  0  0  0  0  # atno 10718 bound_to 10713
  154.1473  135.2817  155.3145 H   0  0  0  0  0  0  0  0  0  0  0  0  # atno 10763 bound_to 10752
  154.6243  135.5457  153.7613 H   0  0  0  0  0  0  0  0  0  0  0  0  # atno 10764 bound_to 10752
  153.0232  135.6447  154.1618 H   0  0  0  0  0  0  0  0  0  0  0  0  # atno 10765 bound_to 10752
  141.1480  133.7931  157.0248 H   0  0  0  0  0  0  0  0  0  0  0  0  # atno 11005 bound_to 11000
  145.5590  139.1479  143.3352 LP  0  0  0  0  0  0  0  0  0  0  0  0  # atno 17320 bound_to 7965
  146.2272  140.5726  142.8991 LP  0  0  0  0  0  0  0  0  0  0  0  0  # atno 17321 bound_to 7965
  140.6536  143.2231  151.6020 LP  0  0  0  0  0  0  0  0  0  0  0  0  # atno 17342 bound_to 10162
  139.5307  144.2925  152.1141 LP  0  0  0  0  0  0  0  0  0  0  0  0  # atno 17343 bound_to 10162
  157.7483  131.0045  150.3078 LP  0  0  0  0  0  0  0  0  0  0  0  0  # atno 17370 bound_to 10713
  156.3522  130.3833  149.7319 LP  0  0  0  0  0  0  0  0  0  0  0  0  # atno 17371 bound_to 10713
  140.0792  134.9658  157.1596 LP  0  0  0  0  0  0  0  0  0  0  0  0  # atno 17394 bound_to 11000
  140.3601  134.2504  155.7188 LP  0  0  0  0  0  0  0  0  0  0  0  0  # atno 17395 bound_to 11000

$$$$
