AV-unprocessed.smi:2750|AV-procd|sdf|10592|dock7
  -GOLD-   2272015 43D 1   1.00000     0.00000
 Structure written by MMmdl.
 24 25  0  0  0  0  0  0  0  0  3 V2000
  146.3881  137.3252  161.1884 O   0  0  0  0  0  0  0  0  0  0  0  0
  147.4010  136.6023  161.0623 C   0  0  0  0  0  0  0  0  0  0  0  0
  148.4482  136.6905  161.7401 O   0  5  0  0  0  0  0  0  0  0  0  0
  147.3533  135.5139  159.9897 C   0  0  0  0  0  0  0  0  0  0  0  0
  148.3150  135.7523  158.9292 N   0  0  0  0  0  0  0  0  0  0  0  0
  148.4620  136.8733  158.1385 C   0  0  0  0  0  0  0  0  0  0  0  0
  149.5086  136.5507  157.3228 C   0  0  0  0  0  0  0  0  0  0  0  0
  150.1437  137.3598  156.2322 C   0  0  0  0  0  0  0  0  0  0  0  0
  150.5033  138.7884  156.6862 C   0  0  1  0  0  0  0  0  0  0  0  0
  151.3892  138.7671  157.8310 N   0  0  0  0  0  0  0  0  0  0  0  0
  152.5303  139.4028  157.5744 C   0  0  0  0  0  0  0  0  0  0  0  0
  153.4133  139.5129  158.4219 O   0  0  0  0  0  0  0  0  0  0  0  0
  152.5319  139.8602  156.3073 N   0  5  0  0  0  0  0  0  0  0  0  0
  151.3762  139.5429  155.6842 C   0  0  0  0  0  0  0  0  0  0  0  0
  151.0017  139.7775  154.5365 O   0  0  0  0  0  0  0  0  0  0  0  0
  149.9494  135.2677  157.6455 N   0  0  0  0  0  0  0  0  0  0  0  0
  149.2257  134.7997  158.6137 N   0  0  0  0  0  0  0  0  0  0  0  0
  147.5429  134.5366  160.4365 H   0  0  0  0  0  0  0  0  0  0  0  0
  146.3543  135.4742  159.5536 H   0  0  0  0  0  0  0  0  0  0  0  0
  147.8417  137.7531  158.2239 H   0  0  0  0  0  0  0  0  0  0  0  0
  151.0342  136.8508  155.8595 H   0  0  0  0  0  0  0  0  0  0  0  0
  149.4604  137.4147  155.3838 H   0  0  0  0  0  0  0  0  0  0  0  0
  149.6101  139.3729  156.9117 H   0  0  0  0  0  0  0  0  0  0  0  0
  151.1501  138.3371  158.7123 H   0  0  0  0  0  0  0  0  0  0  0  0
  1  2  2  0  0  0  0
  2  3  1  0  0  0  0
  2  4  1  0  0  0  0
  4  5  1  0  0  0  0
  4 18  1  0  0  0  0
  4 19  1  0  0  0  0
  5 17  1  0  0  0  0
  5  6  1  0  0  0  0
  6  7  2  0  0  0  0
  6 20  1  0  0  0  0
  7  8  1  0  0  0  0
  7 16  1  0  0  0  0
  8  9  1  0  0  0  0
  8 21  1  0  0  0  0
  8 22  1  0  0  0  0
  9 14  1  0  0  0  0
  9 10  1  0  0  0  0
  9 23  1  0  0  0  0
 10 11  1  0  0  0  0
 10 24  1  0  0  0  0
 11 12  2  0  0  0  0
 11 13  1  0  0  0  0
 13 14  1  0  0  0  0
 14 15  2  0  0  0  0
 16 17  2  0  0  0  0
M  CHG  1   3  -1
M  CHG  1  13  -1
M  END
> <s_m_source_file>
AV-unprocessed.smi

> <i_m_source_file_index>
2750

> <i_lp_mmshare_version>
43012

> <i_f3d_flags>
0

> <s_epik_input>
Tz1DKFtPSF0pW0NIMl1uMVtjSF1jKG5uMSlbQ0gyXVtDQEBIXTJbTkhdQyg9TylbTkhdQzI9Tw==

> <s_epik_cmdline>
J2VwaWtfcHl0aG9uJywgJy1waCcsICc3LjAnLCAnLXRuJywgJzgnLCAnLW1hJywgJzIwMCcsICctbWV0YWxfYmluZGluZycsICctaW1hZScsICc8aW5maWxlLm1hZT4nLCAnLW9tYWUnLCAnPG91dGZpbGUubWFlPic=

> <r_lp_tautomer_probability>
1

> <r_epik_Ionization_Penalty>
2.03209

> <r_epik_Ionization_Penalty_Charging>
2.03208

> <r_epik_Ionization_Penalty_Neutral>
1.30912e-05

> <r_epik_State_Penalty>
2.16313

> <r_epik_Charging_Adjusted_Penalty>
4.19521

> <i_epik_Tot_Q>
-2

> <i_epik_Tot_abs_Q>
2

> <r_epik_Metal_State_Penalty>
0.529162

> <b_epik_Metal_Only>
0

> <s_lp_Force_Field>
OPLS_2005

> <r_lp_Energy>
6.41301

> <b_lp_Chiralities_Consistent>
1

> <s_lp_Variant>
AV-unprocessed.smi:2750-4

> <Gold.Version>
5.8.1

> <Gold.Id.Protein>
6NUR|6NUR_protein|mol2

> <Gold.PLP.Fitness>
40.6409

> <Gold.PLP.PLP>
-18.3134

> <Gold.PLP.part.hbond>
-7.0000

> <Gold.PLP.part.metal>
0.0000

> <Gold.PLP.part.buried>
-2.7053

> <Gold.PLP.part.nonpolar>
-8.1857

> <Gold.PLP.part.repulsive>
0.1406

> <Gold.PLP.ligand.clash>
0.0000

> <Gold.PLP.ligand.torsion>
0.1778

> <Gold.PLP.Chemscore.Hbond>
7.5552

> <Gold.PLP.Chemscore.CHOScore>
0.0000

> <Gold.PLP.Chemscore.Metal>
0.0000

> <Gold.Chemscore.Hbonds>
donor molecule, donor type, donor heavy atom, donor atom, acceptor molecule, acceptor atom, score
      P1  H  6896  6907       L1    17  0.50
      P1  H  6931  6943       L1     3  2.00
      P1  H  6934  6947       L1     1  2.00
      P1  H  7989  7998       L1    15  1.00
      P1  H  7997  8008       L1    12  0.01
      P1  H  7997  8009       L1    13  2.00

> <Gold.PLP.Chemscore.Internal.Correction>
0.0176

> <Gold.Rescore>
     Score         DG    S(hbond)    S(metal)    S(lipo)     H(rot)  DE(clash)    DE(int)     intcor
     10.52     -10.72       3.22        0.00      14.23       2.80       0.02       0.19       ----

> <Gold.Chemscore.Fitness>
10.5187

> <Gold.Chemscore.DG>
-10.7246

> <Gold.Chemscore.ZeroCoef>
-5.4800

> <Gold.Chemscore.Hbond>
3.2156

> <Gold.Chemscore.Metal>
0.0000

> <Gold.Chemscore.Lipo>
14.2347

> <Gold.Chemscore.Internal_Hbond>
0.0000

> <Gold.Chemscore.DEClash>
0.0199

> <Gold.Chemscore.DEInternal>
0.1859

> <Gold.Chemscore.Rot>
2.7973

> <Gold.Chemscore.Internal.Correction>
   9.000000E+99

> <Gold.Chemscore.Hbonds>
donor molecule, donor type, donor heavy atom, donor atom, acceptor molecule, acceptor atom, score
      P1  H  6896  6907       L1    17  0.02
      P1  H  6931  6943       L1     3  0.91
      P1  H  6934  6947       L1     1  0.26
      P1  H  7989  7998       L1    15  0.99
      P1  H  7997  8008       L1    12  0.01
      P1  H  7997  8009       L1    13  0.24

> <Gold.Chemscore.Hbond.Weighted>
-10.7403

> <Gold.Chemscore.Metal.Weighted>
-0.0000

> <Gold.Chemscore.Lipo.Weighted>
-1.6655

> <Gold.Chemscore.Internal_Hbond.Weighted>
0.0000

> <Gold.Chemscore.DEClash.Weighted>
0.0199

> <Gold.Chemscore.DEInternal.Weighted>
0.1859

> <Gold.Chemscore.Rot.Weighted>
7.1611

> <Gold.Chemscore.Internal.Correction.Weighted>
   9.000000E+99

> <Gold.Protein.RotatedTorsions>
[ 6907 6896 6895 6894 ] final  -93.83 input  -60.11 | X-H torsion
[ 7974 7965 7964 7962 ] final   54.94 input  175.53 | X-H torsion
[ 8008 7997 7996 7995 ] final -145.31 input   59.86 | X-H torsion
[ 10167 10162 10161 10158 ] final  -10.26 input  -65.29 | X-H torsion
[ 10718 10713 10712 10709 ] final -158.90 input   66.30 | X-H torsion
[ 10763 10752 10751 10750 ] final -138.18 input  -60.55 | X-H torsion
[ 11005 11000 10999 10996 ] final  118.08 input  -57.11 | X-H torsion

> <Gold.Protein.ActiveResidues>
 VAL166  LYS551  ARG553  GLY616  TRP617  ASP618  TYR619  PRO620  LYS621  CYS622 
 ASP623  PHE694  ASN695  SER759  ASP760  ASP761  ALA762  ILE779  LEU786  VAL792 
 PHE793  MET794  SER795  GLU796  ALA797  LYS798  CYS799  TRP800  GLU811  SER814 

> <Gold.Protein.RotatedAtoms>
  150.6930  134.1906  159.4283 H   0  0  0  0  0  0  0  0  0  0  0  0  # atno 6907 bound_to 6896
  151.9877  134.9993  160.0569 H   0  0  0  0  0  0  0  0  0  0  0  0  # atno 6908 bound_to 6896
  152.1696  133.4600  159.4939 H   0  0  0  0  0  0  0  0  0  0  0  0  # atno 6909 bound_to 6896
  145.9556  139.4012  143.0279 H   0  0  0  0  0  0  0  0  0  0  0  0  # atno 7974 bound_to 7965
  155.5411  140.0608  157.2869 H   0  0  0  0  0  0  0  0  0  0  0  0  # atno 8008 bound_to 7997
  154.4451  140.1919  156.0636 H   0  0  0  0  0  0  0  0  0  0  0  0  # atno 8009 bound_to 7997
  156.0584  140.3275  155.7436 H   0  0  0  0  0  0  0  0  0  0  0  0  # atno 8010 bound_to 7997
  140.7109  143.5768  150.9034 H   0  0  0  0  0  0  0  0  0  0  0  0  # atno 10167 bound_to 10162
  156.5606  130.8645  151.2808 H   0  0  0  0  0  0  0  0  0  0  0  0  # atno 10718 bound_to 10713
  154.8643  135.3620  154.5343 H   0  0  0  0  0  0  0  0  0  0  0  0  # atno 10763 bound_to 10752
  153.5968  135.7014  153.5405 H   0  0  0  0  0  0  0  0  0  0  0  0  # atno 10764 bound_to 10752
  153.3326  135.4120  155.1469 H   0  0  0  0  0  0  0  0  0  0  0  0  # atno 10765 bound_to 10752
  139.9097  134.9617  156.7448 H   0  0  0  0  0  0  0  0  0  0  0  0  # atno 11005 bound_to 11000
  145.8111  140.9725  143.0948 LP  0  0  0  0  0  0  0  0  0  0  0  0  # atno 17320 bound_to 7965
  144.6804  139.9922  143.7484 LP  0  0  0  0  0  0  0  0  0  0  0  0  # atno 17321 bound_to 7965
  139.9494  143.6290  152.3033 LP  0  0  0  0  0  0  0  0  0  0  0  0  # atno 17342 bound_to 10162
  139.6803  144.7656  151.1620 LP  0  0  0  0  0  0  0  0  0  0  0  0  # atno 17343 bound_to 10162
  157.7369  130.9787  150.2163 LP  0  0  0  0  0  0  0  0  0  0  0  0  # atno 17370 bound_to 10713
  156.2802  130.3732  149.7943 LP  0  0  0  0  0  0  0  0  0  0  0  0  # atno 17371 bound_to 10713
  140.6820  133.9466  155.7916 LP  0  0  0  0  0  0  0  0  0  0  0  0  # atno 17394 bound_to 11000
  141.0503  134.0494  157.3792 LP  0  0  0  0  0  0  0  0  0  0  0  0  # atno 17395 bound_to 11000

$$$$
