AV-unprocessed.smi:1796|AV-procd|sdf|7253|dock3
  -GOLD-   22720 8503D 1   1.00000     0.00000
 Structure written by MMmdl.
 42 43  0  0  0  0  0  0  0  0  1 V2000
  152.4547  136.7928  156.7988 C   0  0  0  0  0  0  0  0  0  0  0  0
  152.0321  137.9832  155.9346 C   0  0  0  0  0  0  0  0  0  0  0  0
  152.6163  139.0540  156.1001 O   0  0  0  0  0  0  0  0  0  0  0  0
  151.0358  137.8246  155.0303 N   0  0  0  0  0  0  0  0  0  0  0  0
  150.5063  138.9354  154.2300 C   0  0  0  0  0  0  0  0  0  0  0  0
  149.0930  139.2777  154.7350 C   0  0  0  0  0  0  0  0  0  0  0  0
  148.1769  138.0395  154.6989 C   0  0  0  0  0  0  0  0  0  0  0  0
  148.8304  136.8207  155.3929 C   0  0  1  0  0  0  0  0  0  0  0  0
  147.9665  135.5658  155.2209 C   0  0  0  0  0  0  0  0  0  0  0  0
  147.4815  135.0090  156.2062 O   0  0  0  0  0  0  0  0  0  0  0  0
  147.7964  135.1250  153.9638 N   0  0  0  0  0  0  0  0  0  0  0  0
  147.0606  133.9230  153.5730 C   0  0  1  0  0  0  0  0  0  0  0  0
  145.6422  133.9957  154.1543 C   0  0  0  0  0  0  0  0  0  0  0  0
  147.0316  133.7738  152.0365 C   0  0  0  0  0  0  0  0  0  0  0  0
  145.7961  133.1837  151.5520 N   0  0  0  0  0  0  0  0  0  0  0  0
  145.5780  131.8959  151.1088 C   0  0  0  0  0  0  0  0  0  0  0  0
  144.2574  131.7991  150.7765 C   0  0  0  0  0  0  0  0  0  0  0  0
  143.7445  133.0981  151.0497 C   0  0  0  0  0  0  0  0  0  0  0  0
  144.6687  133.9258  151.5102 N   0  0  0  0  0  0  0  0  0  0  0  0
  150.2541  136.5966  154.8354 C   0  0  0  0  0  0  0  0  0  0  0  0
  151.6097  136.4114  157.3727 H   0  0  0  0  0  0  0  0  0  0  0  0
  153.2306  137.0875  157.5061 H   0  0  0  0  0  0  0  0  0  0  0  0
  152.8561  135.9897  156.1799 H   0  0  0  0  0  0  0  0  0  0  0  0
  151.1393  139.8229  154.2661 H   0  0  0  0  0  0  0  0  0  0  0  0
  150.4687  138.6403  153.1804 H   0  0  0  0  0  0  0  0  0  0  0  0
  149.1542  139.6567  155.7561 H   0  0  0  0  0  0  0  0  0  0  0  0
  148.6628  140.0784  154.1329 H   0  0  0  0  0  0  0  0  0  0  0  0
  147.2205  138.2744  155.1678 H   0  0  0  0  0  0  0  0  0  0  0  0
  147.9559  137.7993  153.6575 H   0  0  0  0  0  0  0  0  0  0  0  0
  148.9144  137.0393  156.4593 H   0  0  0  0  0  0  0  0  0  0  0  0
  148.2303  135.6511  153.2191 H   0  0  0  0  0  0  0  0  0  0  0  0
  147.5376  133.0398  154.0022 H   0  0  0  0  0  0  0  0  0  0  0  0
  145.0741  133.0965  153.9139 H   0  0  0  0  0  0  0  0  0  0  0  0
  145.0932  134.8512  153.7592 H   0  0  0  0  0  0  0  0  0  0  0  0
  145.6669  134.0873  155.2407 H   0  0  0  0  0  0  0  0  0  0  0  0
  147.1480  134.7493  151.5621 H   0  0  0  0  0  0  0  0  0  0  0  0
  147.8677  133.1619  151.6954 H   0  0  0  0  0  0  0  0  0  0  0  0
  146.3698  131.1622  151.0765 H   0  0  0  0  0  0  0  0  0  0  0  0
  143.7365  130.9322  150.3981 H   0  0  0  0  0  0  0  0  0  0  0  0
  142.7350  133.4621  150.9281 H   0  0  0  0  0  0  0  0  0  0  0  0
  150.2148  136.3732  153.7676 H   0  0  0  0  0  0  0  0  0  0  0  0
  150.7077  135.7186  155.2941 H   0  0  0  0  0  0  0  0  0  0  0  0
  1  2  1  0  0  0  0
  1 21  1  0  0  0  0
  1 22  1  0  0  0  0
  1 23  1  0  0  0  0
  2  3  2  0  0  0  0
  2  4  1  0  0  0  0
  4 20  1  0  0  0  0
  4  5  1  0  0  0  0
  5  6  1  0  0  0  0
  5 24  1  0  0  0  0
  5 25  1  0  0  0  0
  6  7  1  0  0  0  0
  6 26  1  0  0  0  0
  6 27  1  0  0  0  0
  7  8  1  0  0  0  0
  7 28  1  0  0  0  0
  7 29  1  0  0  0  0
  8  9  1  0  0  0  0
  8 20  1  0  0  0  0
  8 30  1  0  0  0  0
  9 10  2  0  0  0  0
  9 11  1  0  0  0  0
 11 12  1  0  0  0  0
 11 31  1  0  0  0  0
 12 13  1  0  0  0  0
 12 14  1  0  0  0  0
 12 32  1  0  0  0  0
 13 33  1  0  0  0  0
 13 34  1  0  0  0  0
 13 35  1  0  0  0  0
 14 15  1  0  0  0  0
 14 36  1  0  0  0  0
 14 37  1  0  0  0  0
 15 19  1  0  0  0  0
 15 16  1  0  0  0  0
 16 17  2  0  0  0  0
 16 38  1  0  0  0  0
 17 18  1  0  0  0  0
 17 39  1  0  0  0  0
 18 19  2  0  0  0  0
 18 40  1  0  0  0  0
 20 41  1  0  0  0  0
 20 42  1  0  0  0  0
M  END
> <s_m_source_file>
AV-unprocessed.smi

> <i_m_source_file_index>
1796

> <i_lp_mmshare_version>
43012

> <i_f3d_flags>
0

> <s_epik_input>
W0NIM11DKD1PKU4xW0NIMl1bQ0gyXVtDSDJdW0NASF0oW0NIMl0xKUMoPU8pW05IXVtDQEhdKFtDSDNdKVtDSDJdbjJbY0hdW2NIXVtjSF1uMg==

> <s_epik_cmdline>
J2VwaWtfcHl0aG9uJywgJy1waCcsICc3LjAnLCAnLXRuJywgJzgnLCAnLW1hJywgJzIwMCcsICctbWV0YWxfYmluZGluZycsICctaW1hZScsICc8aW5maWxlLm1hZT4nLCAnLW9tYWUnLCAnPG91dGZpbGUubWFlPic=

> <r_lp_tautomer_probability>
1

> <r_epik_Ionization_Penalty>
0.000315051

> <r_epik_Ionization_Penalty_Charging>
0

> <r_epik_Ionization_Penalty_Neutral>
0.000315051

> <r_epik_State_Penalty>
-0

> <r_epik_Charging_Adjusted_Penalty>
0

> <i_epik_Tot_Q>
0

> <i_epik_Tot_abs_Q>
0

> <r_epik_Metal_State_Penalty>
-0

> <b_epik_Metal_Only>
0

> <s_lp_Force_Field>
OPLS_2005

> <r_lp_Energy>
22.8088

> <b_lp_Chiralities_Consistent>
1

> <s_lp_Variant>
AV-unprocessed.smi:1796-3

> <Gold.Version>
5.8.1

> <Gold.Id.Protein>
6NUR|6NUR_protein|mol2

> <Gold.PLP.Fitness>
38.4490

> <Gold.PLP.PLP>
-27.8474

> <Gold.PLP.part.hbond>
-2.0000

> <Gold.PLP.part.metal>
0.0000

> <Gold.PLP.part.buried>
-3.1625

> <Gold.PLP.part.nonpolar>
-22.7634

> <Gold.PLP.part.repulsive>
0.1333

> <Gold.PLP.ligand.clash>
0.0000

> <Gold.PLP.ligand.torsion>
0.7059

> <Gold.PLP.Chemscore.Hbond>
2.0000

> <Gold.PLP.Chemscore.CHOScore>
1.9954

> <Gold.PLP.Chemscore.Metal>
0.0000

> <Gold.Chemscore.Hbonds>
donor molecule, donor type, donor heavy atom, donor atom, acceptor molecule, acceptor atom, score
      L1  H    11    31       P1  7948  1.00
      P1  H  7997  8010       L1     3  0.98
      L1  C    16    38       P1 10747  0.47
      L1  C    18    40       P1 10186  1.00

> <Gold.PLP.Chemscore.Internal.Correction>
0.0272

> <Gold.Rescore>
     Score         DG    S(hbond)    S(metal)    S(lipo)     H(rot)  DE(clash)    DE(int)     intcor
     12.19     -15.70       1.97        0.00      66.88       1.63       0.08       3.43       ----

> <Gold.Chemscore.Fitness>
12.1896

> <Gold.Chemscore.DG>
-15.7008

> <Gold.Chemscore.ZeroCoef>
-5.4800

> <Gold.Chemscore.Hbond>
1.9694

> <Gold.Chemscore.Metal>
0.0000

> <Gold.Chemscore.Lipo>
66.8825

> <Gold.Chemscore.Internal_Hbond>
0.0000

> <Gold.Chemscore.DEClash>
0.0825

> <Gold.Chemscore.DEInternal>
3.4287

> <Gold.Chemscore.Rot>
1.6336

> <Gold.Chemscore.Internal.Correction>
   9.000000E+99

> <Gold.Chemscore.Hbonds>
donor molecule, donor type, donor heavy atom, donor atom, acceptor molecule, acceptor atom, score
      L1  H    11    31       P1  7948  0.99
      P1  H  7997  8010       L1     3  0.92

> <Gold.Chemscore.Hbond.Weighted>
-6.5777

> <Gold.Chemscore.Metal.Weighted>
-0.0000

> <Gold.Chemscore.Lipo.Weighted>
-7.8252

> <Gold.Chemscore.Internal_Hbond.Weighted>
0.0000

> <Gold.Chemscore.DEClash.Weighted>
0.0825

> <Gold.Chemscore.DEInternal.Weighted>
3.4287

> <Gold.Chemscore.Rot.Weighted>
4.1821

> <Gold.Chemscore.Internal.Correction.Weighted>
   9.000000E+99

> <Gold.Protein.RotatedTorsions>
[ 6907 6896 6895 6894 ] final   71.89 input  -60.11 | X-H torsion
[ 7974 7965 7964 7962 ] final  165.20 input  175.53 | X-H torsion
[ 8008 7997 7996 7995 ] final   73.78 input   59.86 | X-H torsion
[ 10167 10162 10161 10158 ] final  -42.09 input  -65.29 | X-H torsion
[ 10718 10713 10712 10709 ] final  153.20 input   66.30 | X-H torsion
[ 10763 10752 10751 10750 ] final  171.56 input  -60.55 | X-H torsion
[ 11005 11000 10999 10996 ] final   20.57 input  -57.11 | X-H torsion

> <Gold.Protein.ActiveResidues>
 VAL166  LYS551  ARG553  GLY616  TRP617  ASP618  TYR619  PRO620  LYS621  CYS622 
 ASP623  PHE694  ASN695  SER759  ASP760  ASP761  ALA762  ILE779  LEU786  VAL792 
 PHE793  MET794  SER795  GLU796  ALA797  LYS798  CYS799  TRP800  GLU811  SER814 

> <Gold.Protein.RotatedAtoms>
  152.4836  134.4653  159.9618 H   0  0  0  0  0  0  0  0  0  0  0  0  # atno 6907 bound_to 6896
  151.4654  133.3576  159.2823 H   0  0  0  0  0  0  0  0  0  0  0  0  # atno 6908 bound_to 6896
  150.8928  134.8359  159.7366 H   0  0  0  0  0  0  0  0  0  0  0  0  # atno 6909 bound_to 6896
  144.7513  139.8436  143.6365 H   0  0  0  0  0  0  0  0  0  0  0  0  # atno 7974 bound_to 7965
  155.7887  140.3480  155.5337 H   0  0  0  0  0  0  0  0  0  0  0  0  # atno 8008 bound_to 7997
  155.8655  140.0978  157.1605 H   0  0  0  0  0  0  0  0  0  0  0  0  # atno 8009 bound_to 7997
  154.4014  140.1350  156.4001 H   0  0  0  0  0  0  0  0  0  0  0  0  # atno 8010 bound_to 7997
  140.6981  143.3057  151.3160 H   0  0  0  0  0  0  0  0  0  0  0  0  # atno 10167 bound_to 10162
  157.2478  131.0772  151.1750 H   0  0  0  0  0  0  0  0  0  0  0  0  # atno 10718 bound_to 10713
  154.4137  135.2756  155.2020 H   0  0  0  0  0  0  0  0  0  0  0  0  # atno 10763 bound_to 10752
  154.3995  135.6047  153.5893 H   0  0  0  0  0  0  0  0  0  0  0  0  # atno 10764 bound_to 10752
  152.9831  135.5923  154.4422 H   0  0  0  0  0  0  0  0  0  0  0  0  # atno 10765 bound_to 10752
  140.4011  134.1717  155.7664 H   0  0  0  0  0  0  0  0  0  0  0  0  # atno 11005 bound_to 11000
  146.1466  139.4536  143.0075 LP  0  0  0  0  0  0  0  0  0  0  0  0  # atno 17320 bound_to 7965
  145.6936  141.0157  143.1542 LP  0  0  0  0  0  0  0  0  0  0  0  0  # atno 17321 bound_to 7965
  139.6462  144.0447  152.2592 LP  0  0  0  0  0  0  0  0  0  0  0  0  # atno 17342 bound_to 10162
  139.9969  144.6322  150.7765 LP  0  0  0  0  0  0  0  0  0  0  0  0  # atno 17343 bound_to 10162
  157.3310  130.6985  149.6324 LP  0  0  0  0  0  0  0  0  0  0  0  0  # atno 17370 bound_to 10713
  155.9667  130.4307  150.4889 LP  0  0  0  0  0  0  0  0  0  0  0  0  # atno 17371 bound_to 10713
  141.1856  133.8319  157.1098 LP  0  0  0  0  0  0  0  0  0  0  0  0  # atno 17394 bound_to 11000
  140.0336  134.9889  157.0827 LP  0  0  0  0  0  0  0  0  0  0  0  0  # atno 17395 bound_to 11000

$$$$
