AV-unprocessed.smi:101|AV-procd|sdf|930|dock5
  -GOLD-   2262017443D 1   1.00000     0.00000
 Structure written by MMmdl.
 43 45  0  0  0  0  0  0  0  0  2 V2000
  149.1708  133.1956  156.5324 C   0  0  0  0  0  0  0  0  0  0  0  0
  149.8074  134.5099  156.1157 C   0  0  0  0  0  0  0  0  0  0  0  0
  149.2083  135.7018  156.3317 C   0  0  0  0  0  0  0  0  0  0  0  0
  149.7933  136.8973  155.9536 N   0  0  0  0  0  0  0  0  0  0  0  0
  149.0886  138.2109  156.2220 C   0  0  1  0  0  0  0  0  0  0  0  0
  150.0335  139.1385  156.6663 O   0  0  0  0  0  0  0  0  0  0  0  0
  149.7984  140.3953  156.0430 C   0  0  1  0  0  0  0  0  0  0  0  0
  151.0654  141.2624  156.0538 C   0  0  0  0  0  0  0  0  0  0  0  0
  151.4671  141.4824  157.3957 O   0  0  0  0  0  0  0  0  0  0  0  0
  152.4463  140.7332  157.9375 C   0  0  0  0  0  0  0  0  0  0  0  0
  152.9472  139.7563  157.3766 O   0  0  0  0  0  0  0  0  0  0  0  0
  152.8627  141.2112  159.2877 C   0  0  0  0  0  0  0  0  0  0  0  0
  152.2388  142.3535  159.8413 C   0  0  0  0  0  0  0  0  0  0  0  0
  152.6119  142.8288  161.1137 C   0  0  0  0  0  0  0  0  0  0  0  0
  153.6140  142.1680  161.8478 C   0  0  0  0  0  0  0  0  0  0  0  0
  154.2428  141.0309  161.3080 C   0  0  0  0  0  0  0  0  0  0  0  0
  153.8709  140.5540  160.0358 C   0  0  0  0  0  0  0  0  0  0  0  0
  149.2600  140.0224  154.6565 C   0  0  1  0  0  0  0  0  0  0  0  0
  150.3227  139.7360  153.7610 O   0  0  0  0  0  0  0  0  0  0  0  0
  148.4055  138.7974  154.9670 C   0  0  1  0  0  0  0  0  0  0  0  0
  148.2708  137.9182  153.8635 O   0  0  0  0  0  0  0  0  0  0  0  0
  151.0684  136.8890  155.3296 C   0  0  0  0  0  0  0  0  0  0  0  0
  151.5768  137.9689  155.0276 O   0  0  0  0  0  0  0  0  0  0  0  0
  151.6774  135.6904  155.1015 N   0  5  0  0  0  0  0  0  0  0  0  0
  151.1201  134.4976  155.4592 C   0  0  0  0  0  0  0  0  0  0  0  0
  151.6828  133.4236  155.2485 O   0  0  0  0  0  0  0  0  0  0  0  0
  148.1858  133.3544  156.9723 H   0  0  0  0  0  0  0  0  0  0  0  0
  149.7939  132.6893  157.2702 H   0  0  0  0  0  0  0  0  0  0  0  0
  149.0533  132.5381  155.6705 H   0  0  0  0  0  0  0  0  0  0  0  0
  148.2440  135.7182  156.8172 H   0  0  0  0  0  0  0  0  0  0  0  0
  148.3884  138.0334  157.0389 H   0  0  0  0  0  0  0  0  0  0  0  0
  149.0029  140.9009  156.5939 H   0  0  0  0  0  0  0  0  0  0  0  0
  151.8654  140.7823  155.4881 H   0  0  0  0  0  0  0  0  0  0  0  0
  150.8593  142.2257  155.5855 H   0  0  0  0  0  0  0  0  0  0  0  0
  151.4668  142.8776  159.2962 H   0  0  0  0  0  0  0  0  0  0  0  0
  152.1279  143.7017  161.5263 H   0  0  0  0  0  0  0  0  0  0  0  0
  153.8997  142.5325  162.8234 H   0  0  0  0  0  0  0  0  0  0  0  0
  155.0126  140.5230  161.8702 H   0  0  0  0  0  0  0  0  0  0  0  0
  154.3748  139.6798  159.6503 H   0  0  0  0  0  0  0  0  0  0  0  0
  148.6640  140.8279  154.2261 H   0  0  0  0  0  0  0  0  0  0  0  0
  149.9610  139.5914  152.9003 H   0  0  0  0  0  0  0  0  0  0  0  0
  147.4102  139.1257  155.2690 H   0  0  0  0  0  0  0  0  0  0  0  0
  148.3662  138.4243  153.0709 H   0  0  0  0  0  0  0  0  0  0  0  0
  1  2  1  0  0  0  0
  1 27  1  0  0  0  0
  1 28  1  0  0  0  0
  1 29  1  0  0  0  0
  2 25  1  0  0  0  0
  2  3  2  0  0  0  0
  3  4  1  0  0  0  0
  3 30  1  0  0  0  0
  4  5  1  0  0  0  0
  4 22  1  0  0  0  0
  5 20  1  0  0  0  0
  5  6  1  0  0  0  0
  5 31  1  0  0  0  0
  6  7  1  0  0  0  0
  7  8  1  0  0  0  0
  7 18  1  0  0  0  0
  7 32  1  0  0  0  0
  8  9  1  0  0  0  0
  8 33  1  0  0  0  0
  8 34  1  0  0  0  0
  9 10  1  0  0  0  0
 10 11  2  0  0  0  0
 10 12  1  0  0  0  0
 12 17  1  0  0  0  0
 12 13  2  0  0  0  0
 13 14  1  0  0  0  0
 13 35  1  0  0  0  0
 14 15  2  0  0  0  0
 14 36  1  0  0  0  0
 15 16  1  0  0  0  0
 15 37  1  0  0  0  0
 16 17  2  0  0  0  0
 16 38  1  0  0  0  0
 17 39  1  0  0  0  0
 18 19  1  0  0  0  0
 18 20  1  0  0  0  0
 18 40  1  0  0  0  0
 19 41  1  0  0  0  0
 20 21  1  0  0  0  0
 20 42  1  0  0  0  0
 21 43  1  0  0  0  0
 22 23  2  0  0  0  0
 22 24  1  0  0  0  0
 24 25  1  0  0  0  0
 25 26  2  0  0  0  0
M  CHG  1  24  -1
M  END
> <s_m_source_file>
AV-unprocessed.smi

> <i_m_source_file_index>
101

> <i_lp_mmshare_version>
43012

> <i_f3d_flags>
0

> <s_epik_input>
Tz1jMVtuSF1jKD1PKW4oW2NIXWMxW0NIM10pW0NAQEhdMk9bQ0BIXShbQ0BASF0oW09IXSlbQ0BIXTJbT0hdKVtDSDJdT0MoPU8pYzNbY0hdW2NIXVtjSF1bY0hdW2NIXTM=

> <s_epik_cmdline>
J2VwaWtfcHl0aG9uJywgJy1waCcsICc3LjAnLCAnLXRuJywgJzgnLCAnLW1hJywgJzIwMCcsICctbWV0YWxfYmluZGluZycsICctaW1hZScsICc8aW5maWxlLm1hZT4nLCAnLW9tYWUnLCAnPG91dGZpbGUubWFlPic=

> <r_lp_tautomer_probability>
0.999537

> <r_epik_Ionization_Penalty>
3.21006

> <r_epik_Ionization_Penalty_Charging>
5.75142e-08

> <r_epik_Ionization_Penalty_Neutral>
3.21006

> <r_epik_State_Penalty>
3.20925

> <r_epik_Charging_Adjusted_Penalty>
3.20925

> <i_epik_Tot_Q>
-1

> <i_epik_Tot_abs_Q>
1

> <r_epik_Metal_State_Penalty>
0.119957

> <b_epik_Metal_Only>
1

> <s_epik_Chemistry_Notes>
This compound has an ester and may undergo hydrolysis at high or low pH. This compound contains an acetal/aminal-like group ( X-CH(R)-Y where X, Y are N, S, or O) that may be acid/base labile, releasing an aldehyde.

> <s_lp_Force_Field>
OPLS_2005

> <r_lp_Energy>
50.5402

> <b_lp_Chiralities_Consistent>
1

> <s_lp_Variant>
AV-unprocessed.smi:101-18

> <Gold.Version>
5.8.1

> <Gold.Id.Protein>
6NUR|6NUR_protein|mol2

> <Gold.PLP.Fitness>
52.1750

> <Gold.PLP.PLP>
-38.8368

> <Gold.PLP.part.hbond>
-5.0000

> <Gold.PLP.part.metal>
0.0000

> <Gold.PLP.part.buried>
-5.3174

> <Gold.PLP.part.nonpolar>
-27.0788

> <Gold.PLP.part.repulsive>
0.1461

> <Gold.PLP.ligand.clash>
0.0000

> <Gold.PLP.ligand.torsion>
0.8431

> <Gold.PLP.Chemscore.Hbond>
5.0000

> <Gold.PLP.Chemscore.CHOScore>
0.0000

> <Gold.PLP.Chemscore.Metal>
0.0000

> <Gold.Chemscore.Hbonds>
donor molecule, donor type, donor heavy atom, donor atom, acceptor molecule, acceptor atom, score
      L1  H    19    41       P1  7957  1.00
      P1  H  7989  7998       L1    19  0.94
      P1  H  7997  8008       L1    11  1.00
      P1  H 10752 10763       L1    24  1.20

> <Gold.PLP.Chemscore.Internal.Correction>
0.0243

> <Gold.Rescore>
     Score         DG    S(hbond)    S(metal)    S(lipo)     H(rot)  DE(clash)    DE(int)     intcor
     13.95     -18.29       3.19        0.00      89.98       3.27       0.05       4.29       ----

> <Gold.Chemscore.Fitness>
13.9530

> <Gold.Chemscore.DG>
-18.2942

> <Gold.Chemscore.ZeroCoef>
-5.4800

> <Gold.Chemscore.Hbond>
3.1877

> <Gold.Chemscore.Metal>
0.0000

> <Gold.Chemscore.Lipo>
89.9762

> <Gold.Chemscore.Internal_Hbond>
0.0000

> <Gold.Chemscore.DEClash>
0.0484

> <Gold.Chemscore.DEInternal>
4.2928

> <Gold.Chemscore.Rot>
3.2656

> <Gold.Chemscore.Internal.Correction>
   9.000000E+99

> <Gold.Chemscore.Hbonds>
donor molecule, donor type, donor heavy atom, donor atom, acceptor molecule, acceptor atom, score
      L1  H    19    41       P1  7957  0.97
      P1  H  7989  7998       L1    19  0.36
      P1  H  7997  8008       L1    11  0.85
      P1  H 10752 10763       L1    24  0.42

> <Gold.Chemscore.Hbond.Weighted>
-10.6468

> <Gold.Chemscore.Metal.Weighted>
-0.0000

> <Gold.Chemscore.Lipo.Weighted>
-10.5272

> <Gold.Chemscore.Internal_Hbond.Weighted>
0.0000

> <Gold.Chemscore.DEClash.Weighted>
0.0484

> <Gold.Chemscore.DEInternal.Weighted>
4.2928

> <Gold.Chemscore.Rot.Weighted>
8.3598

> <Gold.Chemscore.Internal.Correction.Weighted>
   9.000000E+99

> <Gold.Protein.RotatedTorsions>
[ 6907 6896 6895 6894 ] final -122.19 input  -60.11 | X-H torsion
[ 7974 7965 7964 7962 ] final  121.34 input  175.53 | X-H torsion
[ 8008 7997 7996 7995 ] final  -65.54 input   59.86 | X-H torsion
[ 10167 10162 10161 10158 ] final -154.94 input  -65.29 | X-H torsion
[ 10718 10713 10712 10709 ] final  -55.45 input   66.30 | X-H torsion
[ 10763 10752 10751 10750 ] final   77.29 input  -60.55 | X-H torsion
[ 11005 11000 10999 10996 ] final -165.38 input  -57.11 | X-H torsion

> <Gold.Protein.ActiveResidues>
 VAL166  LYS551  ARG553  GLY616  TRP617  ASP618  TYR619  PRO620  LYS621  CYS622 
 ASP623  PHE694  ASN695  SER759  ASP760  ASP761  ALA762  ILE779  LEU786  VAL792 
 PHE793  MET794  SER795  GLU796  ALA797  LYS798  CYS799  TRP800  GLU811  SER814 

> <Gold.Protein.RotatedAtoms>
  150.8553  133.7725  159.3010 H   0  0  0  0  0  0  0  0  0  0  0  0  # atno 6907 bound_to 6896
  151.5385  135.1067  159.9930 H   0  0  0  0  0  0  0  0  0  0  0  0  # atno 6908 bound_to 6896
  152.4584  133.7728  159.6864 H   0  0  0  0  0  0  0  0  0  0  0  0  # atno 6909 bound_to 6896
  145.1204  139.3392  143.4717 H   0  0  0  0  0  0  0  0  0  0  0  0  # atno 7974 bound_to 7965
  154.4678  140.0931  156.7065 H   0  0  0  0  0  0  0  0  0  0  0  0  # atno 8008 bound_to 7997
  155.4809  140.3467  155.4321 H   0  0  0  0  0  0  0  0  0  0  0  0  # atno 8009 bound_to 7997
  156.0986  140.1416  156.9486 H   0  0  0  0  0  0  0  0  0  0  0  0  # atno 8010 bound_to 7997
  139.6972  143.9323  152.2412 H   0  0  0  0  0  0  0  0  0  0  0  0  # atno 10167 bound_to 10162
  156.1367  130.4156  150.0173 H   0  0  0  0  0  0  0  0  0  0  0  0  # atno 10718 bound_to 10713
  153.0787  135.4920  154.8458 H   0  0  0  0  0  0  0  0  0  0  0  0  # atno 10763 bound_to 10752
  154.7122  135.3022  154.9181 H   0  0  0  0  0  0  0  0  0  0  0  0  # atno 10764 bound_to 10752
  153.9871  135.6782  153.4805 H   0  0  0  0  0  0  0  0  0  0  0  0  # atno 10765 bound_to 10752
  140.5764  134.5186  157.5171 H   0  0  0  0  0  0  0  0  0  0  0  0  # atno 11005 bound_to 11000
  146.3521  140.1162  142.8602 LP  0  0  0  0  0  0  0  0  0  0  0  0  # atno 17320 bound_to 7965
  145.0746  140.9179  143.4861 LP  0  0  0  0  0  0  0  0  0  0  0  0  # atno 17321 bound_to 7965
  139.9155  144.6831  150.8516 LP  0  0  0  0  0  0  0  0  0  0  0  0  # atno 17342 bound_to 10162
  140.7699  143.3412  151.2204 LP  0  0  0  0  0  0  0  0  0  0  0  0  # atno 17343 bound_to 10162
  156.8070  130.9311  151.3645 LP  0  0  0  0  0  0  0  0  0  0  0  0  # atno 17370 bound_to 10713
  157.6539  130.8908  149.9689 LP  0  0  0  0  0  0  0  0  0  0  0  0  # atno 17371 bound_to 10713
  139.9338  134.7914  156.0859 LP  0  0  0  0  0  0  0  0  0  0  0  0  # atno 17394 bound_to 11000
  141.1024  133.6672  156.2785 LP  0  0  0  0  0  0  0  0  0  0  0  0  # atno 17395 bound_to 11000

$$$$
