AV-unprocessed.smi:3158|AV-procd|sdf|12048|dock10
  -GOLD-   2272017473D 1   1.00000     0.00000
 Structure written by MMmdl.
 39 39  0  0  0  0  0  0  0  0  1 V2000
  150.5504  141.2832  155.8999 C   0  0  0  0  0  0  0  0  0  0  0  0
  151.1604  140.0340  155.2479 C   0  0  0  0  0  0  0  0  0  0  0  0
  150.6609  138.7059  155.8498 C   0  0  1  0  0  0  0  0  0  0  0  0
  151.2024  137.4944  155.0786 C   0  0  0  0  0  0  0  0  0  0  0  0
  151.0549  138.5902  157.2526 N   0  0  0  0  0  0  0  0  0  0  0  0
  152.3096  138.6473  157.7281 C   0  0  0  0  0  0  0  0  0  0  0  0
  153.3007  138.7976  157.0130 O   0  0  0  0  0  0  0  0  0  0  0  0
  152.4662  138.5475  159.2548 C   0  0  1  0  0  0  0  0  0  0  0  0
  153.2338  137.2733  159.6441 C   0  0  0  0  0  0  0  0  0  0  0  0
  153.1215  139.7260  159.8505 N   0  0  0  0  0  0  0  0  0  0  0  0
  152.4246  140.9853  159.6121 C   0  0  0  0  0  0  0  0  0  0  0  0
  153.1579  142.1204  160.3396 C   0  0  0  0  0  0  0  0  0  0  0  0
  152.7054  143.4209  159.8857 N   0  0  0  0  0  0  0  0  0  0  0  0
  152.1296  144.4336  160.6235 C   0  0  0  0  0  0  0  0  0  0  0  0
  151.8796  145.4676  159.7674 C   0  0  0  0  0  0  0  0  0  0  0  0
  152.3440  144.9864  158.5113 C   0  0  0  0  0  0  0  0  0  0  0  0
  152.8388  143.7615  158.5856 N   0  0  0  0  0  0  0  0  0  0  0  0
  150.8891  142.1876  155.3942 H   0  0  0  0  0  0  0  0  0  0  0  0
  150.8350  141.3684  156.9488 H   0  0  0  0  0  0  0  0  0  0  0  0
  149.4615  141.2613  155.8485 H   0  0  0  0  0  0  0  0  0  0  0  0
  150.9247  140.0521  154.1832 H   0  0  0  0  0  0  0  0  0  0  0  0
  152.2477  140.0862  155.3172 H   0  0  0  0  0  0  0  0  0  0  0  0
  149.5732  138.6816  155.7629 H   0  0  0  0  0  0  0  0  0  0  0  0
  150.9024  137.5302  154.0310 H   0  0  0  0  0  0  0  0  0  0  0  0
  150.8228  136.5613  155.4970 H   0  0  0  0  0  0  0  0  0  0  0  0
  152.2918  137.4557  155.1117 H   0  0  0  0  0  0  0  0  0  0  0  0
  150.3082  138.4716  157.9218 H   0  0  0  0  0  0  0  0  0  0  0  0
  151.4685  138.4667  159.6907 H   0  0  0  0  0  0  0  0  0  0  0  0
  152.7566  136.3827  159.2333 H   0  0  0  0  0  0  0  0  0  0  0  0
  153.2661  137.1537  160.7275 H   0  0  0  0  0  0  0  0  0  0  0  0
  154.2636  137.2953  159.2848 H   0  0  0  0  0  0  0  0  0  0  0  0
  154.0847  139.8043  159.5568 H   0  0  0  0  0  0  0  0  0  0  0  0
  152.3833  141.2077  158.5452 H   0  0  0  0  0  0  0  0  0  0  0  0
  151.3978  140.9107  159.9735 H   0  0  0  0  0  0  0  0  0  0  0  0
  153.0011  142.0527  161.4175 H   0  0  0  0  0  0  0  0  0  0  0  0
  154.2333  142.0508  160.1699 H   0  0  0  0  0  0  0  0  0  0  0  0
  151.9496  144.3356  161.6841 H   0  0  0  0  0  0  0  0  0  0  0  0
  151.4335  146.4224  160.0026 H   0  0  0  0  0  0  0  0  0  0  0  0
  152.3366  145.4874  157.5545 H   0  0  0  0  0  0  0  0  0  0  0  0
  1  2  1  0  0  0  0
  1 18  1  0  0  0  0
  1 19  1  0  0  0  0
  1 20  1  0  0  0  0
  2  3  1  0  0  0  0
  2 21  1  0  0  0  0
  2 22  1  0  0  0  0
  3  4  1  0  0  0  0
  3  5  1  0  0  0  0
  3 23  1  0  0  0  0
  4 24  1  0  0  0  0
  4 25  1  0  0  0  0
  4 26  1  0  0  0  0
  5  6  1  0  0  0  0
  5 27  1  0  0  0  0
  6  7  2  0  0  0  0
  6  8  1  0  0  0  0
  8  9  1  0  0  0  0
  8 10  1  0  0  0  0
  8 28  1  0  0  0  0
  9 29  1  0  0  0  0
  9 30  1  0  0  0  0
  9 31  1  0  0  0  0
 10 11  1  0  0  0  0
 10 32  1  0  0  0  0
 11 12  1  0  0  0  0
 11 33  1  0  0  0  0
 11 34  1  0  0  0  0
 12 13  1  0  0  0  0
 12 35  1  0  0  0  0
 12 36  1  0  0  0  0
 13 17  1  0  0  0  0
 13 14  1  0  0  0  0
 14 15  2  0  0  0  0
 14 37  1  0  0  0  0
 15 16  1  0  0  0  0
 15 38  1  0  0  0  0
 16 17  2  0  0  0  0
 16 39  1  0  0  0  0
M  END
> <s_m_source_file>
AV-unprocessed.smi

> <i_m_source_file_index>
3158

> <i_lp_mmshare_version>
43012

> <i_f3d_flags>
0

> <s_epik_input>
W0NIM11bQ0gyXVtDQEhdKFtDSDNdKVtOSF1DKD1PKVtDQEhdKFtDSDNdKVtOSF1bQ0gyXVtDSDJdbjFbY0hdW2NIXVtjSF1uMQ==

> <s_epik_cmdline>
J2VwaWtfcHl0aG9uJywgJy1waCcsICc3LjAnLCAnLXRuJywgJzgnLCAnLW1hJywgJzIwMCcsICctbWV0YWxfYmluZGluZycsICctaW1hZScsICc8aW5maWxlLm1hZT4nLCAnLW9tYWUnLCAnPG91dGZpbGUubWFlPic=

> <r_lp_tautomer_probability>
1

> <r_epik_Ionization_Penalty>
0.724013

> <r_epik_Ionization_Penalty_Charging>
0

> <r_epik_Ionization_Penalty_Neutral>
0.724013

> <r_epik_State_Penalty>
0.74758

> <r_epik_Charging_Adjusted_Penalty>
0.74758

> <i_epik_Tot_Q>
0

> <i_epik_Tot_abs_Q>
0

> <r_epik_Metal_State_Penalty>
0.746846

> <b_epik_Metal_Only>
0

> <s_lp_Force_Field>
OPLS_2005

> <r_lp_Energy>
5.19136

> <b_lp_Chiralities_Consistent>
1

> <s_lp_Variant>
AV-unprocessed.smi:3158-8

> <Gold.Version>
5.8.1

> <Gold.Id.Protein>
6NUR|6NUR_protein|mol2

> <Gold.PLP.Fitness>
41.4837

> <Gold.PLP.PLP>
-38.5762

> <Gold.PLP.part.hbond>
-0.8862

> <Gold.PLP.part.metal>
0.0000

> <Gold.PLP.part.buried>
-4.1178

> <Gold.PLP.part.nonpolar>
-33.8557

> <Gold.PLP.part.repulsive>
0.0195

> <Gold.PLP.ligand.clash>
0.0000

> <Gold.PLP.ligand.torsion>
0.1133

> <Gold.PLP.Chemscore.Hbond>
1.0000

> <Gold.PLP.Chemscore.CHOScore>
0.0000

> <Gold.PLP.Chemscore.Metal>
0.0000

> <Gold.Chemscore.Hbonds>
donor molecule, donor type, donor heavy atom, donor atom, acceptor molecule, acceptor atom, score
      P1  H  7997  8010       L1     7  1.00

> <Gold.PLP.Chemscore.Internal.Correction>
0.1341

> <Gold.Rescore>
     Score         DG    S(hbond)    S(metal)    S(lipo)     H(rot)  DE(clash)    DE(int)     intcor
     13.18     -14.17       1.00        0.00      92.25       2.12       0.03       0.95       ----

> <Gold.Chemscore.Fitness>
13.1824

> <Gold.Chemscore.DG>
-14.1690

> <Gold.Chemscore.ZeroCoef>
-5.4800

> <Gold.Chemscore.Hbond>
0.9974

> <Gold.Chemscore.Metal>
0.0000

> <Gold.Chemscore.Lipo>
92.2539

> <Gold.Chemscore.Internal_Hbond>
0.0000

> <Gold.Chemscore.DEClash>
0.0319

> <Gold.Chemscore.DEInternal>
0.9547

> <Gold.Chemscore.Rot>
2.1234

> <Gold.Chemscore.Internal.Correction>
   9.000000E+99

> <Gold.Chemscore.Hbonds>
donor molecule, donor type, donor heavy atom, donor atom, acceptor molecule, acceptor atom, score
      P1  H  7997  8010       L1     7  0.99

> <Gold.Chemscore.Hbond.Weighted>
-3.3312

> <Gold.Chemscore.Metal.Weighted>
-0.0000

> <Gold.Chemscore.Lipo.Weighted>
-10.7937

> <Gold.Chemscore.Internal_Hbond.Weighted>
0.0000

> <Gold.Chemscore.DEClash.Weighted>
0.0319

> <Gold.Chemscore.DEInternal.Weighted>
0.9547

> <Gold.Chemscore.Rot.Weighted>
5.4359

> <Gold.Chemscore.Internal.Correction.Weighted>
   9.000000E+99

> <Gold.Protein.RotatedTorsions>
[ 6907 6896 6895 6894 ] final  164.41 input  -60.11 | X-H torsion
[ 7974 7965 7964 7962 ] final   29.46 input  175.53 | X-H torsion
[ 8008 7997 7996 7995 ] final   54.26 input   59.86 | X-H torsion
[ 10167 10162 10161 10158 ] final  -27.15 input  -65.29 | X-H torsion
[ 10718 10713 10712 10709 ] final -117.29 input   66.30 | X-H torsion
[ 10763 10752 10751 10750 ] final  113.47 input  -60.55 | X-H torsion
[ 11005 11000 10999 10996 ] final   21.83 input  -57.11 | X-H torsion

> <Gold.Protein.ActiveResidues>
 VAL166  LYS551  ARG553  GLY616  TRP617  ASP618  TYR619  PRO620  LYS621  CYS622 
 ASP623  PHE694  ASN695  SER759  ASP760  ASP761  ALA762  ILE779  LEU786  VAL792 
 PHE793  MET794  SER795  GLU796  ALA797  LYS798  CYS799  TRP800  GLU811  SER814 

> <Gold.Protein.RotatedAtoms>
  151.9103  133.3559  159.3860 H   0  0  0  0  0  0  0  0  0  0  0  0  # atno 6907 bound_to 6896
  150.7059  134.4739  159.5447 H   0  0  0  0  0  0  0  0  0  0  0  0  # atno 6908 bound_to 6896
  152.2344  134.8291  160.0520 H   0  0  0  0  0  0  0  0  0  0  0  0  # atno 6909 bound_to 6896
  146.1670  139.6919  142.8994 H   0  0  0  0  0  0  0  0  0  0  0  0  # atno 7974 bound_to 7965
  155.4818  140.3468  155.4341 H   0  0  0  0  0  0  0  0  0  0  0  0  # atno 8008 bound_to 7997
  156.1034  140.1441  156.9465 H   0  0  0  0  0  0  0  0  0  0  0  0  # atno 8009 bound_to 7997
  154.4709  140.0901  156.7119 H   0  0  0  0  0  0  0  0  0  0  0  0  # atno 8010 bound_to 7997
  140.7279  143.4118  151.1094 H   0  0  0  0  0  0  0  0  0  0  0  0  # atno 10167 bound_to 10162
  156.1023  130.6182  150.9145 H   0  0  0  0  0  0  0  0  0  0  0  0  # atno 10718 bound_to 10713
  153.4930  135.3654  155.2501 H   0  0  0  0  0  0  0  0  0  0  0  0  # atno 10763 bound_to 10752
  154.8751  135.3982  154.3566 H   0  0  0  0  0  0  0  0  0  0  0  0  # atno 10764 bound_to 10752
  153.4189  135.7080  153.6373 H   0  0  0  0  0  0  0  0  0  0  0  0  # atno 10765 bound_to 10752
  140.3872  134.1858  155.7663 H   0  0  0  0  0  0  0  0  0  0  0  0  # atno 11005 bound_to 11000
  145.4441  141.0424  143.2841 LP  0  0  0  0  0  0  0  0  0  0  0  0  # atno 17320 bound_to 7965
  144.8107  139.5967  143.7031 LP  0  0  0  0  0  0  0  0  0  0  0  0  # atno 17321 bound_to 7965
  139.7752  143.8436  152.3128 LP  0  0  0  0  0  0  0  0  0  0  0  0  # atno 17342 bound_to 10162
  139.8368  144.7228  150.9381 LP  0  0  0  0  0  0  0  0  0  0  0  0  # atno 17343 bound_to 10162
  157.6195  131.0931  150.8648 LP  0  0  0  0  0  0  0  0  0  0  0  0  # atno 17370 bound_to 10713
  156.8773  130.5167  149.5293 LP  0  0  0  0  0  0  0  0  0  0  0  0  # atno 17371 bound_to 10713
  141.1903  133.8219  157.0923 LP  0  0  0  0  0  0  0  0  0  0  0  0  # atno 17394 bound_to 11000
  140.0434  134.9843  157.1003 LP  0  0  0  0  0  0  0  0  0  0  0  0  # atno 17395 bound_to 11000

$$$$
