AV-unprocessed.smi:565|AV-procd|sdf|2951|dock2
  -GOLD-   2262023453D 1   1.00000     0.00000
 Structure written by MMmdl.
 50 51  0  0  0  0  0  0  0  0  2 V2000
  153.5018  138.6007  154.2048 C   0  0  0  0  0  0  0  0  0  0  0  0
  152.5315  139.7040  154.5175 C   0  0  0  0  0  0  0  0  0  0  0  0
  152.9165  140.6972  155.3009 N   0  0  0  0  0  0  0  0  0  0  0  0
  151.8432  141.5083  155.3826 N   0  0  0  0  0  0  0  0  0  0  0  0
  151.9238  142.7176  156.1787 C   0  0  0  0  0  0  0  0  0  0  0  0
  150.7766  141.0264  154.6494 C   0  0  0  0  0  0  0  0  0  0  0  0
  149.4688  141.7479  154.5837 C   0  0  0  0  0  0  0  0  0  0  0  0
  151.1843  139.8527  154.0725 C   0  0  0  0  0  0  0  0  0  0  0  0
  150.4069  138.9195  153.1778 C   0  0  0  0  0  0  0  0  0  0  0  0
  148.9661  138.8132  153.6777 C   0  0  0  0  0  0  0  0  0  0  0  0
  148.7347  138.7449  154.8845 O   0  0  0  0  0  0  0  0  0  0  0  0
  148.0043  138.8150  152.7418 N   0  0  0  0  0  0  0  0  0  0  0  0
  146.5734  138.7876  153.0160 C   0  0  0  0  0  0  0  0  0  0  0  0
  145.8823  137.6465  152.2444 C   0  0  0  0  0  0  0  0  0  0  0  0
  146.4130  136.3085  152.6078 N   0  3  1  0  0  0  0  0  0  0  0  0
  146.4173  136.0906  154.0778 C   0  0  0  0  0  0  0  0  0  0  0  0
  147.1006  134.7624  154.4395 C   0  0  0  0  0  0  0  0  0  0  0  0
  146.4312  133.5865  153.7175 C   0  0  0  0  0  0  0  0  0  0  0  0
  146.4063  133.8372  152.2004 C   0  0  1  0  0  0  0  0  0  0  0  0
  145.7171  132.6864  151.4536 C   0  0  0  0  0  0  0  0  0  0  0  0
  145.7369  135.1920  151.8933 C   0  0  0  0  0  0  0  0  0  0  0  0
  152.9853  137.6573  154.0288 H   0  0  0  0  0  0  0  0  0  0  0  0
  154.2036  138.4404  155.0241 H   0  0  0  0  0  0  0  0  0  0  0  0
  154.0810  138.8339  153.3114 H   0  0  0  0  0  0  0  0  0  0  0  0
  151.1552  142.7001  156.9516 H   0  0  0  0  0  0  0  0  0  0  0  0
  151.7681  143.5873  155.5402 H   0  0  0  0  0  0  0  0  0  0  0  0
  152.9010  142.8011  156.6564 H   0  0  0  0  0  0  0  0  0  0  0  0
  148.7286  141.1800  154.0207 H   0  0  0  0  0  0  0  0  0  0  0  0
  149.5868  142.7169  154.0983 H   0  0  0  0  0  0  0  0  0  0  0  0
  149.0678  141.9158  155.5834 H   0  0  0  0  0  0  0  0  0  0  0  0
  150.4021  139.2601  152.1420 H   0  0  0  0  0  0  0  0  0  0  0  0
  150.8537  137.9246  153.1627 H   0  0  0  0  0  0  0  0  0  0  0  0
  148.2859  138.8697  151.7736 H   0  0  0  0  0  0  0  0  0  0  0  0
  146.4544  138.6610  154.0911 H   0  0  0  0  0  0  0  0  0  0  0  0
  146.1242  139.7496  152.7638 H   0  0  0  0  0  0  0  0  0  0  0  0
  144.8162  137.6764  152.4744 H   0  0  0  0  0  0  0  0  0  0  0  0
  145.9671  137.7992  151.1674 H   0  0  0  0  0  0  0  0  0  0  0  0
  146.9450  136.9072  154.5724 H   0  0  0  0  0  0  0  0  0  0  0  0
  145.3922  136.1022  154.4519 H   0  0  0  0  0  0  0  0  0  0  0  0
  148.1564  134.8070  154.1689 H   0  0  0  0  0  0  0  0  0  0  0  0
  147.0644  134.6064  155.5182 H   0  0  0  0  0  0  0  0  0  0  0  0
  146.9650  132.6620  153.9401 H   0  0  0  0  0  0  0  0  0  0  0  0
  145.4144  133.4573  154.0916 H   0  0  0  0  0  0  0  0  0  0  0  0
  147.4380  133.8841  151.8485 H   0  0  0  0  0  0  0  0  0  0  0  0
  144.6745  132.5837  151.7564 H   0  0  0  0  0  0  0  0  0  0  0  0
  146.2156  131.7367  151.6508 H   0  0  0  0  0  0  0  0  0  0  0  0
  145.7363  132.8497  150.3757 H   0  0  0  0  0  0  0  0  0  0  0  0
  144.6830  135.1655  152.1761 H   0  0  0  0  0  0  0  0  0  0  0  0
  145.7685  135.3624  150.8179 H   0  0  0  0  0  0  0  0  0  0  0  0
  147.3817  136.2991  152.3212 H   0  0  0  0  0  0  0  0  0  0  0  0
  1  2  1  0  0  0  0
  1 22  1  0  0  0  0
  1 23  1  0  0  0  0
  1 24  1  0  0  0  0
  2  8  1  0  0  0  0
  2  3  2  0  0  0  0
  3  4  1  0  0  0  0
  4  5  1  0  0  0  0
  4  6  1  0  0  0  0
  5 25  1  0  0  0  0
  5 26  1  0  0  0  0
  5 27  1  0  0  0  0
  6  7  1  0  0  0  0
  6  8  2  0  0  0  0
  7 28  1  0  0  0  0
  7 29  1  0  0  0  0
  7 30  1  0  0  0  0
  8  9  1  0  0  0  0
  9 10  1  0  0  0  0
  9 31  1  0  0  0  0
  9 32  1  0  0  0  0
 10 11  2  0  0  0  0
 10 12  1  0  0  0  0
 12 13  1  0  0  0  0
 12 33  1  0  0  0  0
 13 14  1  0  0  0  0
 13 34  1  0  0  0  0
 13 35  1  0  0  0  0
 14 15  1  0  0  0  0
 14 36  1  0  0  0  0
 14 37  1  0  0  0  0
 15 21  1  0  0  0  0
 15 16  1  0  0  0  0
 15 50  1  0  0  0  0
 16 17  1  0  0  0  0
 16 38  1  0  0  0  0
 16 39  1  0  0  0  0
 17 18  1  0  0  0  0
 17 40  1  0  0  0  0
 17 41  1  0  0  0  0
 18 19  1  0  0  0  0
 18 42  1  0  0  0  0
 18 43  1  0  0  0  0
 19 20  1  0  0  0  0
 19 21  1  0  0  0  0
 19 44  1  0  0  0  0
 20 45  1  0  0  0  0
 20 46  1  0  0  0  0
 20 47  1  0  0  0  0
 21 48  1  0  0  0  0
 21 49  1  0  0  0  0
M  CHG  1  15   1
M  END
> <s_m_source_file>
AV-unprocessed.smi

> <i_m_source_file_index>
565

> <i_lp_mmshare_version>
43012

> <i_f3d_flags>
0

> <s_epik_input>
W0NIM11jMW5uKFtDSDNdKWMoW0NIM10pYzFbQ0gyXUMoPU8pW05IXVtDSDJdW0NIMl1OMltDSDJdW0NIMl1bQ0gyXVtDQEBIXShbQ0gzXSlbQ0gyXTI=

> <s_epik_cmdline>
J2VwaWtfcHl0aG9uJywgJy1waCcsICc3LjAnLCAnLXRuJywgJzgnLCAnLW1hJywgJzIwMCcsICctbWV0YWxfYmluZGluZycsICctaW1hZScsICc8aW5maWxlLm1hZT4nLCAnLW9tYWUnLCAnPG91dGZpbGUubWFlPic=

> <r_lp_tautomer_probability>
1

> <r_epik_Ionization_Penalty>
0.00411138

> <r_epik_Ionization_Penalty_Charging>
0.0019503

> <r_epik_Ionization_Penalty_Neutral>
0.00216107

> <r_epik_State_Penalty>
-0

> <r_epik_Charging_Adjusted_Penalty>
0.0019503

> <i_epik_Tot_Q>
1

> <i_epik_Tot_abs_Q>
1

> <r_epik_Metal_State_Penalty>
-0

> <b_epik_Metal_Only>
0

> <s_lp_Force_Field>
OPLS_2005

> <r_lp_Energy>
10.3148

> <b_lp_Chiralities_Consistent>
1

> <s_lp_Variant>
AV-unprocessed.smi:565-1

> <Gold.Version>
5.8.1

> <Gold.Id.Protein>
6NUR|6NUR_protein|mol2

> <Gold.PLP.Fitness>
47.7721

> <Gold.PLP.PLP>
-36.9589

> <Gold.PLP.part.hbond>
-4.0000

> <Gold.PLP.part.metal>
0.0000

> <Gold.PLP.part.buried>
2.0899

> <Gold.PLP.part.nonpolar>
-34.5242

> <Gold.PLP.part.repulsive>
0.1633

> <Gold.PLP.ligand.clash>
0.0000

> <Gold.PLP.ligand.torsion>
0.6008

> <Gold.PLP.Chemscore.Hbond>
3.9920

> <Gold.PLP.Chemscore.CHOScore>
0.0000

> <Gold.PLP.Chemscore.Metal>
0.0000

> <Gold.Chemscore.Hbonds>
donor molecule, donor type, donor heavy atom, donor atom, acceptor molecule, acceptor atom, score
      L1  H    12    33       P1  7957  0.50
      L1  H    15    50       P1  7948  2.00
      P1  H  7997  8010       L1     3  0.25

> <Gold.PLP.Chemscore.Internal.Correction>
0.0388

> <Gold.Rescore>
     Score         DG    S(hbond)    S(metal)    S(lipo)     H(rot)  DE(clash)    DE(int)     intcor
     19.80     -21.00       2.67        0.00      91.76       1.61       0.76       0.44       ----

> <Gold.Chemscore.Fitness>
19.8039

> <Gold.Chemscore.DG>
-20.9985

> <Gold.Chemscore.ZeroCoef>
-5.4800

> <Gold.Chemscore.Hbond>
2.6691

> <Gold.Chemscore.Metal>
0.0000

> <Gold.Chemscore.Lipo>
91.7606

> <Gold.Chemscore.Internal_Hbond>
0.0000

> <Gold.Chemscore.DEClash>
0.7575

> <Gold.Chemscore.DEInternal>
0.4370

> <Gold.Chemscore.Rot>
1.6142

> <Gold.Chemscore.Internal.Correction>
   9.000000E+99

> <Gold.Chemscore.Hbonds>
donor molecule, donor type, donor heavy atom, donor atom, acceptor molecule, acceptor atom, score
      L1  H    12    33       P1  7957  0.43
      L1  H    15    50       P1  7948  0.99
      P1  H  7997  8010       L1     3  0.20

> <Gold.Chemscore.Hbond.Weighted>
-8.9149

> <Gold.Chemscore.Metal.Weighted>
-0.0000

> <Gold.Chemscore.Lipo.Weighted>
-10.7360

> <Gold.Chemscore.Internal_Hbond.Weighted>
0.0000

> <Gold.Chemscore.DEClash.Weighted>
0.7575

> <Gold.Chemscore.DEInternal.Weighted>
0.4370

> <Gold.Chemscore.Rot.Weighted>
4.1324

> <Gold.Chemscore.Internal.Correction.Weighted>
   9.000000E+99

> <Gold.Protein.RotatedTorsions>
[ 6907 6896 6895 6894 ] final  -44.66 input  -60.11 | X-H torsion
[ 7974 7965 7964 7962 ] final   74.49 input  175.53 | X-H torsion
[ 8008 7997 7996 7995 ] final   59.68 input   59.86 | X-H torsion
[ 10167 10162 10161 10158 ] final -153.34 input  -65.29 | X-H torsion
[ 10718 10713 10712 10709 ] final  168.61 input   66.30 | X-H torsion
[ 10763 10752 10751 10750 ] final -124.79 input  -60.55 | X-H torsion
[ 11005 11000 10999 10996 ] final  170.46 input  -57.11 | X-H torsion

> <Gold.Protein.ActiveResidues>
 VAL166  LYS551  ARG553  GLY616  TRP617  ASP618  TYR619  PRO620  LYS621  CYS622 
 ASP623  PHE694  ASN695  SER759  ASP760  ASP761  ALA762  ILE779  LEU786  VAL792 
 PHE793  MET794  SER795  GLU796  ALA797  LYS798  CYS799  TRP800  GLU811  SER814 

> <Gold.Protein.RotatedAtoms>
  150.9303  134.8719  159.7546 H   0  0  0  0  0  0  0  0  0  0  0  0  # atno 6907 bound_to 6896
  152.5035  134.4088  159.9451 H   0  0  0  0  0  0  0  0  0  0  0  0  # atno 6908 bound_to 6896
  151.4115  133.3686  159.2779 H   0  0  0  0  0  0  0  0  0  0  0  0  # atno 6909 bound_to 6896
  145.7276  139.2672  143.1559 H   0  0  0  0  0  0  0  0  0  0  0  0  # atno 7974 bound_to 7965
  155.5701  140.3490  155.4513 H   0  0  0  0  0  0  0  0  0  0  0  0  # atno 8008 bound_to 7997
  156.0451  140.1304  157.0138 H   0  0  0  0  0  0  0  0  0  0  0  0  # atno 8009 bound_to 7997
  154.4409  140.1016  156.6279 H   0  0  0  0  0  0  0  0  0  0  0  0  # atno 8010 bound_to 7997
  139.7105  143.9116  152.2466 H   0  0  0  0  0  0  0  0  0  0  0  0  # atno 10167 bound_to 10162
  157.0346  131.0269  151.2733 H   0  0  0  0  0  0  0  0  0  0  0  0  # atno 10718 bound_to 10713
  154.8728  135.4051  154.3163 H   0  0  0  0  0  0  0  0  0  0  0  0  # atno 10763 bound_to 10752
  153.3999  135.7017  153.6439 H   0  0  0  0  0  0  0  0  0  0  0  0  # atno 10764 bound_to 10752
  153.5186  135.3692  155.2592 H   0  0  0  0  0  0  0  0  0  0  0  0  # atno 10765 bound_to 10752
  140.3086  134.7536  157.3973 H   0  0  0  0  0  0  0  0  0  0  0  0  # atno 11005 bound_to 11000
  146.0567  140.8013  142.9755 LP  0  0  0  0  0  0  0  0  0  0  0  0  # atno 17320 bound_to 7965
  144.6901  140.3135  143.7244 LP  0  0  0  0  0  0  0  0  0  0  0  0  # atno 17321 bound_to 7965
  139.8984  144.6926  150.8692 LP  0  0  0  0  0  0  0  0  0  0  0  0  # atno 17342 bound_to 10162
  140.7732  143.3532  151.1972 LP  0  0  0  0  0  0  0  0  0  0  0  0  # atno 17343 bound_to 10162
  157.5151  130.7963  149.7747 LP  0  0  0  0  0  0  0  0  0  0  0  0  # atno 17370 bound_to 10713
  156.0058  130.3856  150.2437 LP  0  0  0  0  0  0  0  0  0  0  0  0  # atno 17371 bound_to 10713
  140.1045  134.5428  155.8322 LP  0  0  0  0  0  0  0  0  0  0  0  0  # atno 17394 bound_to 11000
  141.2113  133.6705  156.6572 LP  0  0  0  0  0  0  0  0  0  0  0  0  # atno 17395 bound_to 11000

$$$$
