#       Name:                AV-unprocessed.smi:234
#       Creating user name   scv26
#       Creation time:       Thu Mar 26 20:35:35 2020


#       File generated by GOLD software.
#

@<TRIPOS>MOLECULE
AV-unprocessed.smi:234
    69    72     1
SMALL
NO_CHARGES


@<TRIPOS>ATOM
      1 ****        -6.0100   2.6047   2.3534 C.3            1 S1                 0.0000
      2 ****        -5.3313   1.7581   1.2747 C.3            1 S1                 0.0000
      3 ****        -4.3569   2.5504   0.6157 O.3            1 S1                 0.0000
      4 ****        -3.6524   1.8405  -0.3961 C.3            1 S1                 0.0000
      5 ****        -2.4652   1.0556   0.1701 C.3            1 S1                 0.0000
      6 ****        -1.6372   2.3299  -0.0486 C.3            1 S1                 0.0000
      7 ****        -0.2674   2.0862  -0.5139 N.3            1 S1                 0.0000
      8 ****         0.4864   3.2202  -1.0383 C.3            1 S1                 0.0000
      9 ****         0.5122   1.2427   0.2082 C.ar           1 S1                 0.0000
     10 ****         0.3175   1.1075   1.5474 N.ar           1 S1                 0.0000
     11 ****         1.0928   0.2853   2.2601 C.ar           1 S1                 0.0000
     12 ****         2.1023  -0.4810   1.8426 N.ar           1 S1                 0.0000
     13 ****         2.3036  -0.3466   0.5004 C.ar           1 S1                 0.0000
     14 ****         1.5657   0.4917  -0.3818 C.ar           1 S1                 0.0000
     15 ****         2.0579   0.3705  -1.6754 N.2            1 S1                 0.0000
     16 ****         3.0300  -0.4934  -1.5648 C.2            1 S1                 0.0000
     17 ****         3.2384  -0.9855  -0.2956 N.pl3          1 S1                 0.0000
     18 ****         4.2373  -1.9647   0.1050 C.3            1 S1                 0.0000
     19 ****         3.8140  -3.4285  -0.1728 C.3            1 S1                 0.0000
     20 ****         3.7060  -3.6020  -1.5760 O.3            1 S1                 0.0000
     21 ****         4.8416  -4.4365   0.3537 C.3            1 S1                 0.0000
     22 ****         4.1218  -5.1379   1.4999 C.3            1 S1                 0.0000
     23 ****         2.7710  -5.1340   1.0743 O.3            1 S1                 0.0000
     24 ****         2.5059  -3.8403   0.5522 C.3            1 S1                 0.0000
     25 ****         1.2124  -3.8459  -0.2794 C.3            1 S1                 0.0000
     26 ****        -2.6437   2.7341  -1.1625 C.3            1 S1                 0.0000
     27 ****        -2.3522   2.2582  -2.5955 C.3            1 S1                 0.0000
     28 ****        -3.0049   4.2191  -1.2587 C.3            1 S1                 0.0000
     29 ****        -6.7700   2.0276   2.8804 H              1 S1                 0.0000
     30 ****        -6.4954   3.4779   1.9167 H              1 S1                 0.0000
     31 ****        -5.2854   2.9555   3.0887 H              1 S1                 0.0000
     32 ****        -4.8700   0.8805   1.7289 H              1 S1                 0.0000
     33 ****        -6.0740   1.4054   0.5577 H              1 S1                 0.0000
     34 ****        -4.3059   1.2624  -1.0518 H              1 S1                 0.0000
     35 ****        -2.5588   0.7517   1.2128 H              1 S1                 0.0000
     36 ****        -2.1669   0.2196  -0.4648 H              1 S1                 0.0000
     37 ****        -1.6931   2.9980   0.8129 H              1 S1                 0.0000
     38 ****         1.3786   3.4270  -0.4448 H              1 S1                 0.0000
     39 ****        -0.1172   4.1271  -1.0431 H              1 S1                 0.0000
     40 ****         0.7984   3.0181  -2.0630 H              1 S1                 0.0000
     41 ****         0.8723   0.2341   3.3162 H              1 S1                 0.0000
     42 ****         3.6201  -0.8067  -2.4141 H              1 S1                 0.0000
     43 ****         5.1680  -1.7337  -0.4151 H              1 S1                 0.0000
     44 ****         4.4420  -1.8292   1.1679 H              1 S1                 0.0000
     45 ****         3.4369  -4.4921  -1.7453 H              1 S1                 0.0000
     46 ****         5.0944  -5.1755  -0.4087 H              1 S1                 0.0000
     47 ****         5.7753  -3.9761   0.6785 H              1 S1                 0.0000
     48 ****         4.4885  -6.1501   1.6724 H              1 S1                 0.0000
     49 ****         4.2179  -4.5718   2.4280 H              1 S1                 0.0000
     50 ****         2.3563  -3.1941   1.4179 H              1 S1                 0.0000
     51 ****         1.0116  -2.8624  -0.7048 H              1 S1                 0.0000
     52 ****         0.3581  -4.1161   0.3414 H              1 S1                 0.0000
     53 ****         1.2624  -4.5647  -1.0976 H              1 S1                 0.0000
     54 ****        -1.5649   2.8470  -3.0666 H              1 S1                 0.0000
     55 ****        -3.2379   2.3387  -3.2264 H              1 S1                 0.0000
     56 ****        -2.0332   1.2162  -2.6259 H              1 S1                 0.0000
     57 ****        -2.2370   4.7912  -1.7795 H              1 S1                 0.0000
     58 ****        -3.1233   4.6702  -0.2732 H              1 S1                 0.0000
     59 ****        -3.9424   4.3648  -1.7959 H              1 S1                 0.0000
     60 ****        -3.6981   2.8747   1.2946 LP             1 S1                 0.0000
     61 ****        -4.8148   3.3336   0.1950 LP             1 S1                 0.0000
     62 ****        -0.5269   1.5564  -1.3213 LP             1 S1                 0.0000
     63 ****        -0.4084   1.6253   2.0002 LP             1 S1                 0.0000
     64 ****         2.6418  -1.0771   2.4373 LP             1 S1                 0.0000
     65 ****         1.7406   0.8375  -2.5008 LP             1 S1                 0.0000
     66 ****         4.5914  -3.4286  -2.0072 LP             1 S1                 0.0000
     67 ****         3.0262  -2.9675  -1.9438 LP             1 S1                 0.0000
     68 ****         2.1663  -5.3230   1.8480 LP             1 S1                 0.0000
     69 ****         2.6318  -5.8258   0.3658 LP             1 S1                 0.0000
@<TRIPOS>BOND
    1    1    2 1     
    2    1   29 1     
    3    1   30 1     
    4    1   31 1     
    5    2    3 1     
    6    2   32 1     
    7    2   33 1     
    8    3    4 1     
    9    4   26 1     
   10    4    5 1     
   11    4   34 1     
   12    5    6 1     
   13    5   35 1     
   14    5   36 1     
   15    6    7 1     
   16    6   26 1     
   17    6   37 1     
   18    7    8 1     
   19    7    9 1     
   20    8   38 1     
   21    8   39 1     
   22    8   40 1     
   23    9   14 ar    
   24    9   10 ar    
   25   10   11 ar    
   26   11   12 ar    
   27   11   41 1     
   28   12   13 ar    
   29   13   17 1     
   30   13   14 ar    
   31   14   15 1     
   32   15   16 2     
   33   16   17 1     
   34   16   42 1     
   35   17   18 1     
   36   18   19 1     
   37   18   43 1     
   38   18   44 1     
   39   19   24 1     
   40   19   20 1     
   41   19   21 1     
   42   20   45 1     
   43   21   22 1     
   44   21   46 1     
   45   21   47 1     
   46   22   23 1     
   47   22   48 1     
   48   22   49 1     
   49   23   24 1     
   50   24   25 1     
   51   24   50 1     
   52   25   51 1     
   53   25   52 1     
   54   25   53 1     
   55   26   27 1     
   56   26   28 1     
   57   27   54 1     
   58   27   55 1     
   59   27   56 1     
   60   28   57 1     
   61   28   58 1     
   62   28   59 1     
   63    3   60 1     
   64    3   61 1     
   65    7   62 1     
   66   10   63 1     
   67   12   64 1     
   68   15   65 1     
   69   20   66 1     
   70   20   67 1     
   71   23   68 1     
   72   23   69 1     
@<TRIPOS>SUBSTRUCTURE
      1 S1             1
@<TRIPOS>SET
LONE_PAIRS      STATIC     ATOMS    <user>   **** ""
10 60 61 62 63 64 65 66 67 68 69
DONOR_HYDROGENS      STATIC     ATOMS    <user>   **** ""
1 45
ATOM$BLUE        STATIC     ATOMS    COLORGROUP SYSTEM
10 60 61 62 63 64 65 66 67 68 69
ATOM$RED        STATIC     ATOMS    COLORGROUP SYSTEM
1 45
