AV-unprocessed.smi:1534|AV-procd|sdf|6168|dock1
  -GOLD-   22720 6313D 1   1.00000     0.00000
 Structure written by MMmdl.
 37 38  0  0  0  0  0  0  0  0  2 V2000
  142.4314  136.1099  153.2423 O   0  0  0  0  0  0  0  0  0  0  0  0
  142.8000  137.2547  152.9871 C   0  0  0  0  0  0  0  0  0  0  0  0
  143.9951  137.5412  152.4428 N   0  0  0  0  0  0  0  0  0  0  0  0
  145.0047  136.5545  152.0779 C   0  0  0  0  0  0  0  0  0  0  0  0
  144.7533  135.9799  150.6734 C   0  0  0  0  0  0  0  0  0  0  0  0
  144.8821  134.4697  150.6398 C   0  0  0  0  0  0  0  0  0  0  0  0
  146.0749  133.8108  151.0093 C   0  0  0  0  0  0  0  0  0  0  0  0
  146.1315  132.4027  150.9492 C   0  0  0  0  0  0  0  0  0  0  0  0
  144.9961  131.6840  150.5205 C   0  0  0  0  0  0  0  0  0  0  0  0
  143.8317  132.3932  150.1612 C   0  0  0  0  0  0  0  0  0  0  0  0
  143.8169  133.7426  150.2314 N   0  3  0  0  0  0  0  0  0  0  0  0
  142.0176  138.3222  153.2258 N   0  0  0  0  0  0  0  0  0  0  0  0
  140.6740  138.3471  153.8052 C   0  0  2  0  0  0  0  0  0  0  0  0
  139.7016  137.4890  152.9747 C   0  0  0  0  0  0  0  0  0  0  0  0
  138.2638  137.8230  153.3929 C   0  0  0  0  0  0  0  0  0  0  0  0
  138.2839  139.5713  153.9448 S   0  0  0  0  0  0  0  0  0  0  0  0
  137.6600  140.4233  152.9213 O   0  0  0  0  0  0  0  0  0  0  0  0
  137.8496  139.6308  155.3487 O   0  0  0  0  0  0  0  0  0  0  0  0
  140.1019  139.7729  153.8659 C   0  0  0  0  0  0  0  0  0  0  0  0
  144.2175  138.5103  152.2671 H   0  0  0  0  0  0  0  0  0  0  0  0
  145.9809  137.0388  152.1158 H   0  0  0  0  0  0  0  0  0  0  0  0
  145.0253  135.7545  152.8202 H   0  0  0  0  0  0  0  0  0  0  0  0
  143.7567  136.2536  150.3240 H   0  0  0  0  0  0  0  0  0  0  0  0
  145.4571  136.4127  149.9609 H   0  0  0  0  0  0  0  0  0  0  0  0
  146.9375  134.3758  151.3325 H   0  0  0  0  0  0  0  0  0  0  0  0
  147.0354  131.8806  151.2274 H   0  0  0  0  0  0  0  0  0  0  0  0
  145.0189  130.6052  150.4671 H   0  0  0  0  0  0  0  0  0  0  0  0
  142.9189  131.9255  149.8223 H   0  0  0  0  0  0  0  0  0  0  0  0
  142.3931  139.2202  152.9559 H   0  0  0  0  0  0  0  0  0  0  0  0
  140.6965  137.9315  154.8142 H   0  0  0  0  0  0  0  0  0  0  0  0
  139.8203  137.7333  151.9179 H   0  0  0  0  0  0  0  0  0  0  0  0
  139.9097  136.4235  153.0789 H   0  0  0  0  0  0  0  0  0  0  0  0
  137.5453  137.6909  152.5838 H   0  0  0  0  0  0  0  0  0  0  0  0
  137.9528  137.2074  154.2373 H   0  0  0  0  0  0  0  0  0  0  0  0
  140.4514  140.3450  154.7252 H   0  0  0  0  0  0  0  0  0  0  0  0
  140.3349  140.3304  152.9580 H   0  0  0  0  0  0  0  0  0  0  0  0
  142.9636  134.2351  149.9657 H   0  0  0  0  0  0  0  0  0  0  0  0
  1  2  2  0  0  0  0
  2  3  1  0  0  0  0
  2 12  1  0  0  0  0
  3  4  1  0  0  0  0
  3 20  1  0  0  0  0
  4  5  1  0  0  0  0
  4 21  1  0  0  0  0
  4 22  1  0  0  0  0
  5  6  1  0  0  0  0
  5 23  1  0  0  0  0
  5 24  1  0  0  0  0
  6 11  1  0  0  0  0
  6  7  2  0  0  0  0
  7  8  1  0  0  0  0
  7 25  1  0  0  0  0
  8  9  2  0  0  0  0
  8 26  1  0  0  0  0
  9 10  1  0  0  0  0
  9 27  1  0  0  0  0
 10 11  2  0  0  0  0
 10 28  1  0  0  0  0
 11 37  1  0  0  0  0
 12 13  1  0  0  0  0
 12 29  1  0  0  0  0
 13 19  1  0  0  0  0
 13 14  1  0  0  0  0
 13 30  1  0  0  0  0
 14 15  1  0  0  0  0
 14 31  1  0  0  0  0
 14 32  1  0  0  0  0
 15 16  1  0  0  0  0
 15 33  1  0  0  0  0
 15 34  1  0  0  0  0
 16 17  2  0  0  0  0
 16 18  2  0  0  0  0
 16 19  1  0  0  0  0
 19 35  1  0  0  0  0
 19 36  1  0  0  0  0
M  CHG  1  11   1
M  END
> <s_m_source_file>
AV-unprocessed.smi

> <i_m_source_file_index>
1534

> <i_lp_mmshare_version>
43012

> <i_f3d_flags>
0

> <s_epik_input>
Tz1TMSg9TylbQ0gyXVtDSDJdW0NASF0oW0NIMl0xKVtOSF1DKD1PKVtOSF1bQ0gyXVtDSDJdYzJbY0hdW2NIXVtjSF1bY0hdbjI=

> <s_epik_cmdline>
J2VwaWtfcHl0aG9uJywgJy1waCcsICc3LjAnLCAnLXRuJywgJzgnLCAnLW1hJywgJzIwMCcsICctbWV0YWxfYmluZGluZycsICctaW1hZScsICc8aW5maWxlLm1hZT4nLCAnLW9tYWUnLCAnPG91dGZpbGUubWFlPic=

> <r_epik_Ionization_Penalty>
1.58466

> <r_epik_Ionization_Penalty_Charging>
1.58462

> <r_epik_Ionization_Penalty_Neutral>
3.4911e-05

> <r_epik_State_Penalty>
1.6815

> <r_epik_Charging_Adjusted_Penalty>
3.26612

> <i_epik_Tot_Q>
1

> <i_epik_Tot_abs_Q>
1

> <r_epik_Metal_State_Penalty>
1.72144

> <b_epik_Metal_Only>
0

> <s_lp_Force_Field>
OPLS_2005

> <r_lp_Energy>
16.0644

> <b_lp_Chiralities_Consistent>
1

> <s_lp_Variant>
AV-unprocessed.smi:1534-3

> <Gold.Version>
5.8.1

> <Gold.Id.Protein>
6NUR|6NUR_protein|mol2

> <Gold.PLP.Fitness>
45.9532

> <Gold.PLP.PLP>
-35.1250

> <Gold.PLP.part.hbond>
-4.0000

> <Gold.PLP.part.metal>
0.0000

> <Gold.PLP.part.buried>
-5.2109

> <Gold.PLP.part.nonpolar>
-27.3419

> <Gold.PLP.part.repulsive>
0.2526

> <Gold.PLP.ligand.clash>
0.0000

> <Gold.PLP.ligand.torsion>
0.5063

> <Gold.PLP.Chemscore.Hbond>
3.9440

> <Gold.PLP.Chemscore.CHOScore>
0.0000

> <Gold.PLP.Chemscore.Metal>
0.0000

> <Gold.Chemscore.Hbonds>
donor molecule, donor type, donor heavy atom, donor atom, acceptor molecule, acceptor atom, score
      L1  H     3    20       P1 10175  0.94
      L1  H    11    37       P1 10186  2.00
      L1  H    12    29       P1 10175  1.00

> <Gold.PLP.Chemscore.Internal.Correction>
0.0087

> <Gold.Rescore>
     Score         DG    S(hbond)    S(metal)    S(lipo)     H(rot)  DE(clash)    DE(int)     intcor
     18.35     -20.20       2.87        0.00      83.81       1.82       1.34       0.51       ----

> <Gold.Chemscore.Fitness>
18.3462

> <Gold.Chemscore.DG>
-20.2015

> <Gold.Chemscore.ZeroCoef>
-5.4800

> <Gold.Chemscore.Hbond>
2.8682

> <Gold.Chemscore.Metal>
0.0000

> <Gold.Chemscore.Lipo>
83.8130

> <Gold.Chemscore.Internal_Hbond>
0.0000

> <Gold.Chemscore.DEClash>
1.3422

> <Gold.Chemscore.DEInternal>
0.5132

> <Gold.Chemscore.Rot>
1.8220

> <Gold.Chemscore.Internal.Correction>
   9.000000E+99

> <Gold.Chemscore.Hbonds>
donor molecule, donor type, donor heavy atom, donor atom, acceptor molecule, acceptor atom, score
      L1  H     3    20       P1 10175  0.86
      L1  H    11    37       P1 10186  0.93
      L1  H    12    29       P1 10175  0.99

> <Gold.Chemscore.Hbond.Weighted>
-9.5796

> <Gold.Chemscore.Metal.Weighted>
-0.0000

> <Gold.Chemscore.Lipo.Weighted>
-9.8061

> <Gold.Chemscore.Internal_Hbond.Weighted>
0.0000

> <Gold.Chemscore.DEClash.Weighted>
1.3422

> <Gold.Chemscore.DEInternal.Weighted>
0.5132

> <Gold.Chemscore.Rot.Weighted>
4.6642

> <Gold.Chemscore.Internal.Correction.Weighted>
   9.000000E+99

> <Gold.Protein.RotatedTorsions>
[ 6907 6896 6895 6894 ] final   56.14 input  -60.11 | X-H torsion
[ 7974 7965 7964 7962 ] final   53.14 input  175.53 | X-H torsion
[ 8008 7997 7996 7995 ] final  -27.67 input   59.86 | X-H torsion
[ 10167 10162 10161 10158 ] final  175.71 input  -65.29 | X-H torsion
[ 10718 10713 10712 10709 ] final  132.73 input   66.30 | X-H torsion
[ 10763 10752 10751 10750 ] final -149.00 input  -60.55 | X-H torsion
[ 11005 11000 10999 10996 ] final  -38.70 input  -57.11 | X-H torsion

> <Gold.Protein.ActiveResidues>
 VAL166  LYS551  ARG553  GLY616  TRP617  ASP618  TYR619  PRO620  LYS621  CYS622 
 ASP623  PHE694  ASN695  SER759  ASP760  ASP761  ALA762  ILE779  LEU786  VAL792 
 PHE793  MET794  SER795  GLU796  ALA797  LYS798  CYS799  TRP800  GLU811  SER814 

> <Gold.Protein.RotatedAtoms>
  152.3607  134.6875  160.0207 H   0  0  0  0  0  0  0  0  0  0  0  0  # atno 6907 bound_to 6896
  151.7199  133.3309  159.3321 H   0  0  0  0  0  0  0  0  0  0  0  0  # atno 6908 bound_to 6896
  150.7603  134.6391  159.6272 H   0  0  0  0  0  0  0  0  0  0  0  0  # atno 6909 bound_to 6896
  145.9742  139.4178  143.0172 H   0  0  0  0  0  0  0  0  0  0  0  0  # atno 7974 bound_to 7965
  154.4367  140.1866  156.0968 H   0  0  0  0  0  0  0  0  0  0  0  0  # atno 8008 bound_to 7997
  156.0323  140.3329  155.7127 H   0  0  0  0  0  0  0  0  0  0  0  0  # atno 8009 bound_to 7997
  155.5822  140.0623  157.2771 H   0  0  0  0  0  0  0  0  0  0  0  0  # atno 8010 bound_to 7997
  139.5187  144.3000  152.0387 H   0  0  0  0  0  0  0  0  0  0  0  0  # atno 10167 bound_to 10162
  157.4842  131.1087  150.9642 H   0  0  0  0  0  0  0  0  0  0  0  0  # atno 10718 bound_to 10713
  154.8202  135.3320  154.7060 H   0  0  0  0  0  0  0  0  0  0  0  0  # atno 10763 bound_to 10752
  153.7695  135.6926  153.4914 H   0  0  0  0  0  0  0  0  0  0  0  0  # atno 10764 bound_to 10752
  153.2055  135.4501  155.0266 H   0  0  0  0  0  0  0  0  0  0  0  0  # atno 10765 bound_to 10752
  141.0047  133.6937  156.2088 H   0  0  0  0  0  0  0  0  0  0  0  0  # atno 11005 bound_to 11000
  145.7863  140.9834  143.1072 LP  0  0  0  0  0  0  0  0  0  0  0  0  # atno 17320 bound_to 7965
  144.6844  139.9627  143.7480 LP  0  0  0  0  0  0  0  0  0  0  0  0  # atno 17321 bound_to 7965
  140.2448  144.4231  150.6245 LP  0  0  0  0  0  0  0  0  0  0  0  0  # atno 17342 bound_to 10162
  140.6266  143.2182  151.6584 LP  0  0  0  0  0  0  0  0  0  0  0  0  # atno 17343 bound_to 10162
  157.0365  130.5732  149.5350 LP  0  0  0  0  0  0  0  0  0  0  0  0  # atno 17370 bound_to 10713
  156.0138  130.5231  150.8071 LP  0  0  0  0  0  0  0  0  0  0  0  0  # atno 17371 bound_to 10713
  140.6832  134.4745  157.5589 LP  0  0  0  0  0  0  0  0  0  0  0  0  # atno 17394 bound_to 11000
  139.9057  134.8455  156.1716 LP  0  0  0  0  0  0  0  0  0  0  0  0  # atno 17395 bound_to 11000

$$$$
