#       Name:                AV-unprocessed.smi:2245
#       Creating user name   scv26
#       Creation time:       Fri Mar 27 12:28:11 2020


#       File generated by GOLD software.
#

@<TRIPOS>MOLECULE
AV-unprocessed.smi:2245
    48    49     1
SMALL
NO_CHARGES


@<TRIPOS>ATOM
      1 ****        -6.6752   1.4565   0.3204 C.3            1 S1                 0.0000
      2 ****        -5.3012   2.0888   0.2442 C.ar           1 S1                 0.0000
      3 ****        -5.1523   3.4812   0.0978 C.ar           1 S1                 0.0000
      4 ****        -3.8472   4.0068   0.0301 C.ar           1 S1                 0.0000
      5 ****        -3.6151   5.4939  -0.1351 C.3            1 S1                 0.0000
      6 ****        -2.7391   3.2384   0.0972 N.ar           1 S1                 0.0000
      7 ****        -2.8705   1.8961   0.2383 C.ar           1 S1                 0.0000
      8 ****        -1.7713   0.9999   0.3033 N.am           1 S1                 0.0000
      9 ****        -0.4595   1.2895   0.2483 C.2            1 S1                 0.0000
     10 ****         0.0211   2.4231   0.2238 O.2            1 S1                 0.0000
     11 ****         0.2809   0.1732   0.2229 N.am           1 S1                 0.0000
     12 ****         1.7339   0.1417   0.1127 C.3            1 S1                 0.0000
     13 ****         2.2094  -1.2251  -0.4049 C.3            1 S1                 0.0000
     14 ****         1.8972  -2.4064   0.5166 C.3            1 S1                 0.0000
     15 ****         3.1784  -3.2475   0.5242 C.3            1 S1                 0.0000
     16 ****         3.9488  -2.7561  -0.6131 N.3            1 S1                 0.0000
     17 ****         5.3740  -3.0700  -0.5366 C.3            1 S1                 0.0000
     18 ****         5.6770  -4.5621  -0.7745 C.3            1 S1                 0.0000
     19 ****         6.9972  -4.7195  -0.8624 F              1 S1                 0.0000
     20 ****         5.2340  -5.3171   0.2304 F              1 S1                 0.0000
     21 ****         5.1240  -4.9752  -1.9154 F              1 S1                 0.0000
     22 ****         3.7220  -1.3187  -0.5929 C.3            1 S1                 0.0000
     23 ****        -4.1436   1.2882   0.3163 C.ar           1 S1                 0.0000
     24 ****        -7.4622   2.2010   0.1965 H              1 S1                 0.0000
     25 ****        -6.8136   0.9699   1.2861 H              1 S1                 0.0000
     26 ****        -6.7899   0.7065  -0.4625 H              1 S1                 0.0000
     27 ****        -6.0145   4.1291   0.0367 H              1 S1                 0.0000
     28 ****        -4.5217   6.0600   0.0798 H              1 S1                 0.0000
     29 ****        -3.3072   5.7152  -1.1572 H              1 S1                 0.0000
     30 ****        -2.8325   5.8382   0.5420 H              1 S1                 0.0000
     31 ****        -2.0130   0.0215   0.3540 H              1 S1                 0.0000
     32 ****        -0.1934  -0.7173   0.2534 H              1 S1                 0.0000
     33 ****         2.0730   0.9235  -0.5693 H              1 S1                 0.0000
     34 ****         2.1717   0.3574   1.0883 H              1 S1                 0.0000
     35 ****         1.7436  -1.4143  -1.3740 H              1 S1                 0.0000
     36 ****         1.6519  -2.0873   1.5304 H              1 S1                 0.0000
     37 ****         1.0492  -2.9762   0.1355 H              1 S1                 0.0000
     38 ****         3.7270  -3.0731   1.4514 H              1 S1                 0.0000
     39 ****         2.9691  -4.3144   0.4452 H              1 S1                 0.0000
     40 ****         5.8830  -2.4937  -1.3105 H              1 S1                 0.0000
     41 ****         5.7871  -2.7417   0.4180 H              1 S1                 0.0000
     42 ****         4.0596  -0.8392  -1.5125 H              1 S1                 0.0000
     43 ****         4.2458  -0.8630   0.2496 H              1 S1                 0.0000
     44 ****        -4.2348   0.2171   0.4266 H              1 S1                 0.0000
     45 ****        -1.8314   3.6546   0.0435 LP             1 S1                 0.0000
     46 ****        -0.5804   3.2218   0.2451 LP             1 S1                 0.0000
     47 ****         1.0128   2.5450   0.1827 LP             1 S1                 0.0000
     48 ****         3.6560  -3.1942  -1.4630 LP             1 S1                 0.0000
@<TRIPOS>BOND
    1    1    2 1     
    2    1   24 1     
    3    1   25 1     
    4    1   26 1     
    5    2   23 ar    
    6    2    3 ar    
    7    3    4 ar    
    8    3   27 1     
    9    4    5 1     
   10    4    6 ar    
   11    5   28 1     
   12    5   29 1     
   13    5   30 1     
   14    6    7 ar    
   15    7    8 1     
   16    7   23 ar    
   17    8    9 am    
   18    8   31 1     
   19    9   10 2     
   20    9   11 am    
   21   11   12 1     
   22   11   32 1     
   23   12   13 1     
   24   12   33 1     
   25   12   34 1     
   26   13   22 1     
   27   13   14 1     
   28   13   35 1     
   29   14   15 1     
   30   14   36 1     
   31   14   37 1     
   32   15   16 1     
   33   15   38 1     
   34   15   39 1     
   35   16   17 1     
   36   16   22 1     
   37   17   18 1     
   38   17   40 1     
   39   17   41 1     
   40   18   19 1     
   41   18   20 1     
   42   18   21 1     
   43   22   42 1     
   44   22   43 1     
   45   23   44 1     
   46    6   45 1     
   47   10   46 1     
   48   10   47 1     
   49   16   48 1     
@<TRIPOS>SUBSTRUCTURE
      1 S1             1
@<TRIPOS>SET
LONE_PAIRS      STATIC     ATOMS    <user>   **** ""
4 45 46 47 48
DONOR_HYDROGENS      STATIC     ATOMS    <user>   **** ""
2 31 32
ATOM$BLUE        STATIC     ATOMS    COLORGROUP SYSTEM
4 45 46 47 48
ATOM$RED        STATIC     ATOMS    COLORGROUP SYSTEM
2 31 32
