#       Name:                AV-unprocessed.smi:1389
#       Creating user name   scv26
#       Creation time:       Fri Mar 27 05:27:47 2020


#       File generated by GOLD software.
#

@<TRIPOS>MOLECULE
AV-unprocessed.smi:1389
    58    60     1
SMALL
NO_CHARGES


@<TRIPOS>ATOM
      1 ****        -1.9705   1.2489  -2.9053 C.3            1 S1                 0.0000
      2 ****        -1.4886  -0.1794  -2.5595 C.3            1 S1                 0.0000
      3 ****        -0.0227  -0.2185  -2.0122 C.3            1 S1                 0.0000
      4 ****         0.0568   0.4069  -0.6908 N.pl3          1 S1                -1.0000
      5 ****        -0.1864  -0.2331   0.4841 C.2            1 S1                 0.0000
      6 ****        -0.5115  -1.4150   0.6479 O.2            1 S1                 0.0000
      7 ****        -0.0236   0.5769   1.5438 N.am           1 S1                 0.0000
      8 ****        -0.0951   0.2461   2.9252 C.ar           1 S1                 0.0000
      9 ****        -1.1108  -0.6124   3.4163 C.ar           1 S1                 0.0000
     10 ****        -1.2069  -0.8681   4.7970 C.ar           1 S1                 0.0000
     11 ****        -0.2967  -0.2454   5.6683 C.ar           1 S1                 0.0000
     12 ****         0.6486   0.5790   5.1712 N.pl3          1 S1                 1.0000
     13 ****         0.8019   0.8525   3.8510 C.ar           1 S1                 0.0000
     14 ****         1.8452   1.7290   3.4745 N.3            1 S1                 0.0000
     15 ****         2.6058   2.4521   4.4865 C.3            1 S1                 0.0000
     16 ****         3.8276   2.9949   3.7500 C.3            1 S1                 0.0000
     17 ****         4.1192   1.8897   2.7392 C.3            1 S1                 0.0000
     18 ****         2.7305   1.3536   2.3759 C.3            1 S1                 0.0000
     19 ****        -1.7870  -1.1100  -3.7012 N.4            1 S1                 1.0000
     20 ****        -1.0049  -0.9431  -4.9583 C.3            1 S1                 0.0000
     21 ****        -1.6289  -1.7913  -6.0784 C.3            1 S1                 0.0000
     22 ****        -1.6862  -3.1542  -5.6732 O.3            1 S1                 0.0000
     23 ****        -2.5000  -3.3373  -4.5204 C.3            1 S1                 0.0000
     24 ****        -1.9129  -2.5472  -3.3396 C.3            1 S1                 0.0000
     25 ****        -1.9602   1.9075  -2.0347 H              1 S1                 0.0000
     26 ****        -2.9988   1.2296  -3.2674 H              1 S1                 0.0000
     27 ****        -1.3644   1.7229  -3.6789 H              1 S1                 0.0000
     28 ****        -2.1416  -0.5165  -1.7528 H              1 S1                 0.0000
     29 ****         0.3227  -1.2523  -1.9823 H              1 S1                 0.0000
     30 ****         0.6354   0.2766  -2.7264 H              1 S1                 0.0000
     31 ****         0.3300   1.4985   1.3314 H              1 S1                 0.0000
     32 ****        -1.8324  -1.0623   2.7510 H              1 S1                 0.0000
     33 ****        -1.9762  -1.5219   5.1810 H              1 S1                 0.0000
     34 ****        -0.2984  -0.3758   6.7406 H              1 S1                 0.0000
     35 ****         2.0144   3.2517   4.9340 H              1 S1                 0.0000
     36 ****         2.9262   1.7743   5.2790 H              1 S1                 0.0000
     37 ****         3.5699   3.9176   3.2279 H              1 S1                 0.0000
     38 ****         4.6679   3.2018   4.4133 H              1 S1                 0.0000
     39 ****         4.6777   2.2413   1.8713 H              1 S1                 0.0000
     40 ****         4.7029   1.1019   3.2174 H              1 S1                 0.0000
     41 ****         2.7519   0.2750   2.2126 H              1 S1                 0.0000
     42 ****         2.3753   1.8281   1.4603 H              1 S1                 0.0000
     43 ****        -0.9869   0.1023  -5.2644 H              1 S1                 0.0000
     44 ****         0.0303  -1.2537  -4.8102 H              1 S1                 0.0000
     45 ****        -2.6280  -1.4314  -6.3295 H              1 S1                 0.0000
     46 ****        -1.0272  -1.7176  -6.9844 H              1 S1                 0.0000
     47 ****        -3.5235  -3.0222  -4.7298 H              1 S1                 0.0000
     48 ****        -2.5377  -4.3997  -4.2789 H              1 S1                 0.0000
     49 ****        -0.9390  -2.9597  -3.0737 H              1 S1                 0.0000
     50 ****        -2.5584  -2.6605  -2.4680 H              1 S1                 0.0000
     51 ****        -2.7272  -0.8494  -3.9615 H              1 S1                 0.0000
     52 ****         1.2930   1.0179   5.8287 H              1 S1                 0.0000
     53 ****         0.3079   1.3740  -0.6492 LP             1 S1                 0.0000
     54 ****        -0.6231  -2.0170  -0.1427 LP             1 S1                 0.0000
     55 ****        -0.6628  -1.7686   1.5710 LP             1 S1                 0.0000
     56 ****         1.1769   2.3820   3.1182 LP             1 S1                 0.0000
     57 ****        -0.7595  -3.4682  -5.4666 LP             1 S1                 0.0000
     58 ****        -2.0629  -3.6978  -6.4232 LP             1 S1                 0.0000
@<TRIPOS>BOND
    1    1    2 1     
    2    1   25 1     
    3    1   26 1     
    4    1   27 1     
    5    2    3 1     
    6    2   19 1     
    7    2   28 1     
    8    3    4 1     
    9    3   29 1     
   10    3   30 1     
   11    4    5 1     
   12    5    6 2     
   13    5    7 am    
   14    7    8 1     
   15    7   31 1     
   16    8   13 ar    
   17    8    9 ar    
   18    9   10 ar    
   19    9   32 1     
   20   10   11 ar    
   21   10   33 1     
   22   11   12 ar    
   23   11   34 1     
   24   12   13 ar    
   25   12   52 1     
   26   13   14 1     
   27   14   18 1     
   28   14   15 1     
   29   15   16 1     
   30   15   35 1     
   31   15   36 1     
   32   16   17 1     
   33   16   37 1     
   34   16   38 1     
   35   17   18 1     
   36   17   39 1     
   37   17   40 1     
   38   18   41 1     
   39   18   42 1     
   40   19   24 1     
   41   19   20 1     
   42   19   51 1     
   43   20   21 1     
   44   20   43 1     
   45   20   44 1     
   46   21   22 1     
   47   21   45 1     
   48   21   46 1     
   49   22   23 1     
   50   23   24 1     
   51   23   47 1     
   52   23   48 1     
   53   24   49 1     
   54   24   50 1     
   55    4   53 1     
   56    6   54 1     
   57    6   55 1     
   58   14   56 1     
   59   22   57 1     
   60   22   58 1     
@<TRIPOS>SUBSTRUCTURE
      1 S1             1
@<TRIPOS>SET
LONE_PAIRS      STATIC     ATOMS    <user>   **** ""
6 53 54 55 56 57 58
DONOR_HYDROGENS      STATIC     ATOMS    <user>   **** ""
3 31 52 51
ATOM$BLUE        STATIC     ATOMS    COLORGROUP SYSTEM
6 53 54 55 56 57 58
ATOM$RED        STATIC     ATOMS    COLORGROUP SYSTEM
3 31 52 51
