AV-unprocessed.smi:2900|AV-procd|sdf|11147|dock6
  -GOLD-   2272016 23D 1   1.00000     0.00000
 Structure written by MMmdl.
 35 36  0  0  0  0  0  0  0  0  1 V2000
  151.6040  136.7889  155.4215 O   0  0  0  0  0  0  0  0  0  0  0  0
  152.2079  137.2139  156.4060 C   0  0  0  0  0  0  0  0  0  0  0  0
  152.6029  136.3693  157.5306 C   0  0  0  0  0  0  0  0  0  0  0  0
  153.2703  136.8680  158.5930 C   0  0  0  0  0  0  0  0  0  0  0  0
  153.6061  138.2817  158.6281 C   0  0  0  0  0  0  0  0  0  0  0  0
  154.3505  138.9338  159.7672 C   0  0  0  0  0  0  0  0  0  0  0  0
  154.3423  140.2616  159.6482 F   0  0  0  0  0  0  0  0  0  0  0  0
  153.7841  138.6096  160.9299 F   0  0  0  0  0  0  0  0  0  0  0  0
  155.6171  138.5181  159.7837 F   0  0  0  0  0  0  0  0  0  0  0  0
  153.2554  139.0358  157.6365 N   0  0  0  0  0  0  0  0  0  0  0  0
  152.5759  138.5211  156.5463 N   0  0  0  0  0  0  0  0  0  0  0  0
  152.2774  139.5142  155.5074 C   0  0  0  0  0  0  0  0  0  0  0  0
  150.7895  139.9306  155.5104 C   0  0  2  0  0  0  0  0  0  0  0  0
  150.4114  140.2070  154.1756 O   0  0  0  0  0  0  0  0  0  0  0  0
  150.5572  141.2132  156.3269 C   0  0  0  0  0  0  0  0  0  0  0  0
  151.2225  141.0900  157.5772 O   0  0  0  0  0  0  0  0  0  0  0  0
  151.5093  142.2397  158.2816 C   0  0  0  0  0  0  0  0  0  0  0  0
  151.9436  142.0813  159.6141 C   0  0  0  0  0  0  0  0  0  0  0  0
  152.2601  143.2010  160.4076 C   0  0  0  0  0  0  0  0  0  0  0  0
  152.1449  144.4973  159.8727 C   0  0  0  0  0  0  0  0  0  0  0  0
  151.7128  144.6704  158.5447 C   0  0  0  0  0  0  0  0  0  0  0  0
  151.3957  143.5504  157.7514 C   0  0  0  0  0  0  0  0  0  0  0  0
  152.3550  135.3182  157.5090 H   0  0  0  0  0  0  0  0  0  0  0  0
  153.5530  136.2241  159.4124 H   0  0  0  0  0  0  0  0  0  0  0  0
  152.9084  140.3889  155.6759 H   0  0  0  0  0  0  0  0  0  0  0  0
  152.5694  139.1468  154.5215 H   0  0  0  0  0  0  0  0  0  0  0  0
  150.1704  139.1277  155.9129 H   0  0  0  0  0  0  0  0  0  0  0  0
  150.3564  139.3906  153.7031 H   0  0  0  0  0  0  0  0  0  0  0  0
  150.9883  142.0632  155.7955 H   0  0  0  0  0  0  0  0  0  0  0  0
  149.4902  141.4059  156.4545 H   0  0  0  0  0  0  0  0  0  0  0  0
  152.0358  141.0898  160.0324 H   0  0  0  0  0  0  0  0  0  0  0  0
  152.5914  143.0641  161.4263 H   0  0  0  0  0  0  0  0  0  0  0  0
  152.3876  145.3572  160.4794 H   0  0  0  0  0  0  0  0  0  0  0  0
  151.6246  145.6646  158.1325 H   0  0  0  0  0  0  0  0  0  0  0  0
  151.0688  143.7241  156.7377 H   0  0  0  0  0  0  0  0  0  0  0  0
  1  2  2  0  0  0  0
  2 11  1  0  0  0  0
  2  3  1  0  0  0  0
  3  4  2  0  0  0  0
  3 23  1  0  0  0  0
  4  5  1  0  0  0  0
  4 24  1  0  0  0  0
  5  6  1  0  0  0  0
  5 10  2  0  0  0  0
  6  7  1  0  0  0  0
  6  8  1  0  0  0  0
  6  9  1  0  0  0  0
 10 11  1  0  0  0  0
 11 12  1  0  0  0  0
 12 13  1  0  0  0  0
 12 25  1  0  0  0  0
 12 26  1  0  0  0  0
 13 14  1  0  0  0  0
 13 15  1  0  0  0  0
 13 27  1  0  0  0  0
 14 28  1  0  0  0  0
 15 16  1  0  0  0  0
 15 29  1  0  0  0  0
 15 30  1  0  0  0  0
 16 17  1  0  0  0  0
 17 22  1  0  0  0  0
 17 18  2  0  0  0  0
 18 19  1  0  0  0  0
 18 31  1  0  0  0  0
 19 20  2  0  0  0  0
 19 32  1  0  0  0  0
 20 21  1  0  0  0  0
 20 33  1  0  0  0  0
 21 22  2  0  0  0  0
 21 34  1  0  0  0  0
 22 35  1  0  0  0  0
M  END
> <s_m_source_file>
AV-unprocessed.smi

> <i_m_source_file_index>
2900

> <i_lp_mmshare_version>
43012

> <i_f3d_flags>
0

> <s_epik_input>
Tz1jMVtjSF1bY0hdYyhDKEYpKEYpRilubjFbQ0gyXVtDQEhdKFtPSF0pW0NIMl1PYzJbY0hdW2NIXVtjSF1bY0hdW2NIXTI=

> <s_epik_cmdline>
J2VwaWtfcHl0aG9uJywgJy1waCcsICc3LjAnLCAnLXRuJywgJzgnLCAnLW1hJywgJzIwMCcsICctbWV0YWxfYmluZGluZycsICctaW1hZScsICc8aW5maWxlLm1hZT4nLCAnLW9tYWUnLCAnPG91dGZpbGUubWFlPic=

> <r_lp_tautomer_probability>
1

> <r_epik_Ionization_Penalty>
1.22578e-07

> <r_epik_Ionization_Penalty_Charging>
5.40425e-09

> <r_epik_Ionization_Penalty_Neutral>
1.17174e-07

> <r_epik_State_Penalty>
-0

> <r_epik_Charging_Adjusted_Penalty>
5.40425e-09

> <i_epik_Tot_Q>
0

> <i_epik_Tot_abs_Q>
0

> <r_epik_Metal_State_Penalty>
-0

> <b_epik_Metal_Only>
0

> <s_lp_Force_Field>
OPLS_2005

> <r_lp_Energy>
34.5506

> <b_lp_Chiralities_Consistent>
1

> <s_lp_Variant>
AV-unprocessed.smi:2900-1

> <Gold.Version>
5.8.1

> <Gold.Id.Protein>
6NUR|6NUR_protein|mol2

> <Gold.PLP.Fitness>
47.8747

> <Gold.PLP.PLP>
-41.2556

> <Gold.PLP.part.hbond>
-3.6464

> <Gold.PLP.part.metal>
0.0000

> <Gold.PLP.part.buried>
-3.5511

> <Gold.PLP.part.nonpolar>
-34.6653

> <Gold.PLP.part.repulsive>
0.0946

> <Gold.PLP.ligand.clash>
0.0000

> <Gold.PLP.ligand.torsion>
1.2230

> <Gold.PLP.Chemscore.Hbond>
3.0000

> <Gold.PLP.Chemscore.CHOScore>
0.0000

> <Gold.PLP.Chemscore.Metal>
0.0000

> <Gold.Chemscore.Hbonds>
donor molecule, donor type, donor heavy atom, donor atom, acceptor molecule, acceptor atom, score
      P1  H  7989  7998       L1    14  1.00
      P1  H  7997  8008       L1    10  1.00
      P1  H 10752 10763       L1     1  1.00

> <Gold.PLP.Chemscore.Internal.Correction>
0.0651

> <Gold.Rescore>
     Score         DG    S(hbond)    S(metal)    S(lipo)     H(rot)  DE(clash)    DE(int)     intcor
     15.89     -17.79       2.10        0.00     102.88       2.63       0.08       1.83       ----

> <Gold.Chemscore.Fitness>
15.8862

> <Gold.Chemscore.DG>
-17.7949

> <Gold.Chemscore.ZeroCoef>
-5.4800

> <Gold.Chemscore.Hbond>
2.1017

> <Gold.Chemscore.Metal>
0.0000

> <Gold.Chemscore.Lipo>
102.8812

> <Gold.Chemscore.Internal_Hbond>
0.0000

> <Gold.Chemscore.DEClash>
0.0787

> <Gold.Chemscore.DEInternal>
1.8301

> <Gold.Chemscore.Rot>
2.6336

> <Gold.Chemscore.Internal.Correction>
   9.000000E+99

> <Gold.Chemscore.Hbonds>
donor molecule, donor type, donor heavy atom, donor atom, acceptor molecule, acceptor atom, score
      P1  H  7989  7998       L1    14  0.18
      P1  H  7997  8008       L1    10  0.54
      P1  H 10752 10763       L1     1  0.45

> <Gold.Chemscore.Hbond.Weighted>
-7.0198

> <Gold.Chemscore.Metal.Weighted>
-0.0000

> <Gold.Chemscore.Lipo.Weighted>
-12.0371

> <Gold.Chemscore.Internal_Hbond.Weighted>
0.0000

> <Gold.Chemscore.DEClash.Weighted>
0.0787

> <Gold.Chemscore.DEInternal.Weighted>
1.8301

> <Gold.Chemscore.Rot.Weighted>
6.7420

> <Gold.Chemscore.Internal.Correction.Weighted>
   9.000000E+99

> <Gold.Protein.RotatedTorsions>
[ 6907 6896 6895 6894 ] final  -55.48 input  -60.11 | X-H torsion
[ 7974 7965 7964 7962 ] final -102.86 input  175.53 | X-H torsion
[ 8008 7997 7996 7995 ] final  -94.22 input   59.86 | X-H torsion
[ 10167 10162 10161 10158 ] final  114.09 input  -65.29 | X-H torsion
[ 10718 10713 10712 10709 ] final   87.76 input   66.30 | X-H torsion
[ 10763 10752 10751 10750 ] final   49.35 input  -60.55 | X-H torsion
[ 11005 11000 10999 10996 ] final  -99.72 input  -57.11 | X-H torsion

> <Gold.Protein.ActiveResidues>
 VAL166  LYS551  ARG553  GLY616  TRP617  ASP618  TYR619  PRO620  LYS621  CYS622 
 ASP623  PHE694  ASN695  SER759  ASP760  ASP761  ALA762  ILE779  LEU786  VAL792 
 PHE793  MET794  SER795  GLU796  ALA797  LYS798  CYS799  TRP800  GLU811  SER814 

> <Gold.Protein.RotatedAtoms>
  150.8248  134.7474  159.6803 H   0  0  0  0  0  0  0  0  0  0  0  0  # atno 6907 bound_to 6896
  152.4360  134.5682  159.9923 H   0  0  0  0  0  0  0  0  0  0  0  0  # atno 6908 bound_to 6896
  151.5857  133.3335  159.3053 H   0  0  0  0  0  0  0  0  0  0  0  0  # atno 6909 bound_to 6896
  145.2633  140.9276  143.3028 H   0  0  0  0  0  0  0  0  0  0  0  0  # atno 7974 bound_to 7965
  154.7457  140.0491  157.0850 H   0  0  0  0  0  0  0  0  0  0  0  0  # atno 8008 bound_to 7997
  155.0122  140.3137  155.4806 H   0  0  0  0  0  0  0  0  0  0  0  0  # atno 8009 bound_to 7997
  156.2874  140.2182  156.5236 H   0  0  0  0  0  0  0  0  0  0  0  0  # atno 8010 bound_to 7997
  139.6414  144.7124  151.2230 H   0  0  0  0  0  0  0  0  0  0  0  0  # atno 10167 bound_to 10162
  157.6943  131.0268  150.3172 H   0  0  0  0  0  0  0  0  0  0  0  0  # atno 10718 bound_to 10713
  152.9787  135.5914  154.4075 H   0  0  0  0  0  0  0  0  0  0  0  0  # atno 10763 bound_to 10752
  154.3714  135.2767  155.2266 H   0  0  0  0  0  0  0  0  0  0  0  0  # atno 10764 bound_to 10752
  154.4220  135.6057  153.6070 H   0  0  0  0  0  0  0  0  0  0  0  0  # atno 10765 bound_to 10752
  141.1298  133.8343  157.1009 H   0  0  0  0  0  0  0  0  0  0  0  0  # atno 11005 bound_to 11000
  144.9399  139.4201  143.6454 LP  0  0  0  0  0  0  0  0  0  0  0  0  # atno 17320 bound_to 7965
  146.3268  139.8353  142.8900 LP  0  0  0  0  0  0  0  0  0  0  0  0  # atno 17321 bound_to 7965
  140.7492  143.6306  150.8427 LP  0  0  0  0  0  0  0  0  0  0  0  0  # atno 17342 bound_to 10162
  139.9943  143.5812  152.2899 LP  0  0  0  0  0  0  0  0  0  0  0  0  # atno 17343 bound_to 10162
  156.3664  130.3856  149.7210 LP  0  0  0  0  0  0  0  0  0  0  0  0  # atno 17370 bound_to 10713
  156.4639  130.7965  151.2984 LP  0  0  0  0  0  0  0  0  0  0  0  0  # atno 17371 bound_to 10713
  140.0334  134.9890  157.0824 LP  0  0  0  0  0  0  0  0  0  0  0  0  # atno 17394 bound_to 11000
  140.4249  134.1841  155.7166 LP  0  0  0  0  0  0  0  0  0  0  0  0  # atno 17395 bound_to 11000

$$$$
