AV-unprocessed.smi:2078|AV-procd|sdf|8466|dock7
  -GOLD-   2272011163D 1   1.00000     0.00000
 Structure written by MMmdl.
 42 43  0  0  0  0  0  0  0  0  2 V2000
  150.8710  140.4597  158.2906 C   0  0  0  0  0  0  0  0  0  0  0  0
  150.6970  140.2067  156.8323 C   0  0  0  0  0  0  0  0  0  0  0  0
  149.5964  139.9954  156.0502 C   0  0  0  0  0  0  0  0  0  0  0  0
  150.1531  139.8212  154.7553 C   0  0  0  0  0  0  0  0  0  0  0  0
  149.3222  139.5734  153.6330 N   0  0  0  0  0  0  0  0  0  0  0  0
  148.0832  139.0527  153.6311 C   0  0  0  0  0  0  0  0  0  0  0  0
  147.4585  138.6997  154.6319 O   0  0  0  0  0  0  0  0  0  0  0  0
  147.5943  138.9568  152.3861 N   0  0  0  0  0  0  0  0  0  0  0  0
  146.2702  138.4477  152.0477 C   0  0  0  0  0  0  0  0  0  0  0  0
  146.3545  137.2054  151.1394 C   0  0  0  0  0  0  0  0  0  0  0  0
  145.1319  136.3659  151.2121 N   0  3  2  0  0  0  0  0  0  0  0  0
  144.5206  136.3825  152.5664 C   0  0  0  0  0  0  0  0  0  0  0  0
  143.1847  135.6224  152.5827 C   0  0  0  0  0  0  0  0  0  0  0  0
  143.3633  134.1841  152.0809 C   0  0  0  0  0  0  0  0  0  0  0  0
  144.0220  134.1822  150.6913 C   0  0  2  0  0  0  0  0  0  0  0  0
  144.2380  132.7527  150.1750 C   0  0  0  0  0  0  0  0  0  0  0  0
  145.3438  134.9756  150.7262 C   0  0  0  0  0  0  0  0  0  0  0  0
  151.4736  139.9183  154.7469 N   0  0  0  0  0  0  0  0  0  0  0  0
  151.8291  140.1647  156.0783 O   0  0  0  0  0  0  0  0  0  0  0  0
  149.9437  140.8212  158.7355 H   0  0  0  0  0  0  0  0  0  0  0  0
  151.6436  141.2088  158.4660 H   0  0  0  0  0  0  0  0  0  0  0  0
  151.1613  139.5452  158.8084 H   0  0  0  0  0  0  0  0  0  0  0  0
  148.5619  139.9697  156.3589 H   0  0  0  0  0  0  0  0  0  0  0  0
  149.7134  139.8217  152.7364 H   0  0  0  0  0  0  0  0  0  0  0  0
  148.1736  139.2703  151.6206 H   0  0  0  0  0  0  0  0  0  0  0  0
  145.7162  138.2181  152.9596 H   0  0  0  0  0  0  0  0  0  0  0  0
  145.7331  139.2564  151.5540 H   0  0  0  0  0  0  0  0  0  0  0  0
  146.5465  137.4923  150.1044 H   0  0  0  0  0  0  0  0  0  0  0  0
  147.2108  136.6079  151.4553 H   0  0  0  0  0  0  0  0  0  0  0  0
  145.2139  135.9437  153.2858 H   0  0  0  0  0  0  0  0  0  0  0  0
  144.3462  137.4124  152.8807 H   0  0  0  0  0  0  0  0  0  0  0  0
  142.7724  135.6152  153.5921 H   0  0  0  0  0  0  0  0  0  0  0  0
  142.4588  136.1424  151.9561 H   0  0  0  0  0  0  0  0  0  0  0  0
  143.9787  133.6234  152.7864 H   0  0  0  0  0  0  0  0  0  0  0  0
  142.3959  133.6818  152.0428 H   0  0  0  0  0  0  0  0  0  0  0  0
  143.3468  134.6837  149.9960 H   0  0  0  0  0  0  0  0  0  0  0  0
  144.9044  132.1905  150.8301 H   0  0  0  0  0  0  0  0  0  0  0  0
  144.6780  132.7566  149.1773 H   0  0  0  0  0  0  0  0  0  0  0  0
  143.2941  132.2100  150.1158 H   0  0  0  0  0  0  0  0  0  0  0  0
  145.7711  134.9903  149.7242 H   0  0  0  0  0  0  0  0  0  0  0  0
  146.0687  134.4730  151.3691 H   0  0  0  0  0  0  0  0  0  0  0  0
  144.4560  136.7949  150.5960 H   0  0  0  0  0  0  0  0  0  0  0  0
  1  2  1  0  0  0  0
  1 20  1  0  0  0  0
  1 21  1  0  0  0  0
  1 22  1  0  0  0  0
  2 19  1  0  0  0  0
  2  3  2  0  0  0  0
  3  4  1  0  0  0  0
  3 23  1  0  0  0  0
  4  5  1  0  0  0  0
  4 18  2  0  0  0  0
  5  6  1  0  0  0  0
  5 24  1  0  0  0  0
  6  7  2  0  0  0  0
  6  8  1  0  0  0  0
  8  9  1  0  0  0  0
  8 25  1  0  0  0  0
  9 10  1  0  0  0  0
  9 26  1  0  0  0  0
  9 27  1  0  0  0  0
 10 11  1  0  0  0  0
 10 28  1  0  0  0  0
 10 29  1  0  0  0  0
 11 17  1  0  0  0  0
 11 12  1  0  0  0  0
 11 42  1  0  0  0  0
 12 13  1  0  0  0  0
 12 30  1  0  0  0  0
 12 31  1  0  0  0  0
 13 14  1  0  0  0  0
 13 32  1  0  0  0  0
 13 33  1  0  0  0  0
 14 15  1  0  0  0  0
 14 34  1  0  0  0  0
 14 35  1  0  0  0  0
 15 16  1  0  0  0  0
 15 17  1  0  0  0  0
 15 36  1  0  0  0  0
 16 37  1  0  0  0  0
 16 38  1  0  0  0  0
 16 39  1  0  0  0  0
 17 40  1  0  0  0  0
 17 41  1  0  0  0  0
 18 19  1  0  0  0  0
M  CHG  1  11   1
M  END
> <s_m_source_file>
AV-unprocessed.smi

> <i_m_source_file_index>
2078

> <i_lp_mmshare_version>
43012

> <i_f3d_flags>
0

> <s_epik_input>
W0NIM11jMVtjSF1jKG5vMSlbTkhdQyg9TylbTkhdW0NIMl1bQ0gyXU4yW0NIMl1bQ0gyXVtDSDJdW0NAQEhdKFtDSDNdKVtDSDJdMg==

> <s_epik_cmdline>
J2VwaWtfcHl0aG9uJywgJy1waCcsICc3LjAnLCAnLXRuJywgJzgnLCAnLW1hJywgJzIwMCcsICctbWV0YWxfYmluZGluZycsICctaW1hZScsICc8aW5maWxlLm1hZT4nLCAnLW9tYWUnLCAnPG91dGZpbGUubWFlPic=

> <r_epik_Ionization_Penalty>
0.00216453

> <r_epik_Ionization_Penalty_Charging>
0.00212879

> <r_epik_Ionization_Penalty_Neutral>
3.57418e-05

> <r_epik_State_Penalty>
0.00146033

> <r_epik_Charging_Adjusted_Penalty>
0.00358912

> <i_epik_Tot_Q>
1

> <i_epik_Tot_abs_Q>
1

> <r_epik_Metal_State_Penalty>
0.0215827

> <b_epik_Metal_Only>
0

> <s_lp_Force_Field>
OPLS_2005

> <r_lp_Energy>
12.7075

> <b_lp_Chiralities_Consistent>
1

> <s_lp_Variant>
AV-unprocessed.smi:2078-4

> <Gold.Version>
5.8.1

> <Gold.Id.Protein>
6NUR|6NUR_protein|mol2

> <Gold.PLP.Fitness>
41.7932

> <Gold.PLP.PLP>
-31.1753

> <Gold.PLP.part.hbond>
-4.8737

> <Gold.PLP.part.metal>
0.0000

> <Gold.PLP.part.buried>
-0.1871

> <Gold.PLP.part.nonpolar>
-27.2716

> <Gold.PLP.part.repulsive>
0.4134

> <Gold.PLP.ligand.clash>
0.0000

> <Gold.PLP.ligand.torsion>
0.4717

> <Gold.PLP.Chemscore.Hbond>
3.8483

> <Gold.PLP.Chemscore.CHOScore>
0.0000

> <Gold.PLP.Chemscore.Metal>
0.0000

> <Gold.Chemscore.Hbonds>
donor molecule, donor type, donor heavy atom, donor atom, acceptor molecule, acceptor atom, score
      L1  H     5    24       P1  7957  1.00
      L1  H     8    25       P1  7957  0.98
      L1  H    11    42       P1 10171  0.87
      P1  H  7989  7998       L1    18  0.95

> <Gold.PLP.Chemscore.Internal.Correction>
0.0164

> <Gold.Rescore>
     Score         DG    S(hbond)    S(metal)    S(lipo)     H(rot)  DE(clash)    DE(int)     intcor
     17.45     -20.84       3.51        0.00      65.48       1.57       1.69       1.70       ----

> <Gold.Chemscore.Fitness>
17.4532

> <Gold.Chemscore.DG>
-20.8433

> <Gold.Chemscore.ZeroCoef>
-5.4800

> <Gold.Chemscore.Hbond>
3.5093

> <Gold.Chemscore.Metal>
0.0000

> <Gold.Chemscore.Lipo>
65.4774

> <Gold.Chemscore.Internal_Hbond>
0.0000

> <Gold.Chemscore.DEClash>
1.6920

> <Gold.Chemscore.DEInternal>
1.6981

> <Gold.Chemscore.Rot>
1.5697

> <Gold.Chemscore.Internal.Correction>
   9.000000E+99

> <Gold.Chemscore.Hbonds>
donor molecule, donor type, donor heavy atom, donor atom, acceptor molecule, acceptor atom, score
      L1  H     5    24       P1  7957  0.95
      L1  H     8    25       P1  7957  0.90
      L1  H    11    42       P1 10171  0.80
      P1  H  7989  7998       L1    18  0.21

> <Gold.Chemscore.Hbond.Weighted>
-11.7210

> <Gold.Chemscore.Metal.Weighted>
-0.0000

> <Gold.Chemscore.Lipo.Weighted>
-7.6609

> <Gold.Chemscore.Internal_Hbond.Weighted>
0.0000

> <Gold.Chemscore.DEClash.Weighted>
1.6920

> <Gold.Chemscore.DEInternal.Weighted>
1.6981

> <Gold.Chemscore.Rot.Weighted>
4.0185

> <Gold.Chemscore.Internal.Correction.Weighted>
   9.000000E+99

> <Gold.Protein.RotatedTorsions>
[ 6907 6896 6895 6894 ] final  136.79 input  -60.11 | X-H torsion
[ 7974 7965 7964 7962 ] final  -16.40 input  175.53 | X-H torsion
[ 8008 7997 7996 7995 ] final -124.79 input   59.86 | X-H torsion
[ 10167 10162 10161 10158 ] final   78.67 input  -65.29 | X-H torsion
[ 10718 10713 10712 10709 ] final -158.98 input   66.30 | X-H torsion
[ 10763 10752 10751 10750 ] final   40.45 input  -60.55 | X-H torsion
[ 11005 11000 10999 10996 ] final   32.77 input  -57.11 | X-H torsion

> <Gold.Protein.ActiveResidues>
 VAL166  LYS551  ARG553  GLY616  TRP617  ASP618  TYR619  PRO620  LYS621  CYS622 
 ASP623  PHE694  ASN695  SER759  ASP760  ASP761  ALA762  ILE779  LEU786  VAL792 
 PHE793  MET794  SER795  GLU796  ALA797  LYS798  CYS799  TRP800  GLU811  SER814 

> <Gold.Protein.RotatedAtoms>
  152.2854  133.5510  159.5523 H   0  0  0  0  0  0  0  0  0  0  0  0  # atno 6907 bound_to 6896
  150.7213  134.0504  159.3805 H   0  0  0  0  0  0  0  0  0  0  0  0  # atno 6908 bound_to 6896
  151.8413  135.0589  160.0499 H   0  0  0  0  0  0  0  0  0  0  0  0  # atno 6909 bound_to 6896
  146.1989  140.3631  142.8430 H   0  0  0  0  0  0  0  0  0  0  0  0  # atno 7974 bound_to 7965
  155.2027  140.0416  157.2920 H   0  0  0  0  0  0  0  0  0  0  0  0  # atno 8008 bound_to 7997
  154.6064  140.2465  155.7697 H   0  0  0  0  0  0  0  0  0  0  0  0  # atno 8009 bound_to 7997
  156.2353  140.2924  156.0304 H   0  0  0  0  0  0  0  0  0  0  0  0  # atno 8010 bound_to 7997
  139.9685  144.5911  150.8007 H   0  0  0  0  0  0  0  0  0  0  0  0  # atno 10167 bound_to 10162
  156.5617  130.8650  151.2811 H   0  0  0  0  0  0  0  0  0  0  0  0  # atno 10718 bound_to 10713
  152.9936  135.6191  154.2628 H   0  0  0  0  0  0  0  0  0  0  0  0  # atno 10763 bound_to 10752
  154.2363  135.2790  155.2872 H   0  0  0  0  0  0  0  0  0  0  0  0  # atno 10764 bound_to 10752
  154.5407  135.5762  153.6894 H   0  0  0  0  0  0  0  0  0  0  0  0  # atno 10765 bound_to 10752
  140.2700  134.3093  155.7831 H   0  0  0  0  0  0  0  0  0  0  0  0  # atno 11005 bound_to 11000
  144.8640  140.7179  143.6089 LP  0  0  0  0  0  0  0  0  0  0  0  0  # atno 17320 bound_to 7965
  145.3551  139.1696  143.4413 LP  0  0  0  0  0  0  0  0  0  0  0  0  # atno 17321 bound_to 7965
  140.7530  143.3000  151.3105 LP  0  0  0  0  0  0  0  0  0  0  0  0  # atno 17342 bound_to 10162
  139.6499  144.0381  152.2618 LP  0  0  0  0  0  0  0  0  0  0  0  0  # atno 17343 bound_to 10162
  157.7367  130.9783  150.2151 LP  0  0  0  0  0  0  0  0  0  0  0  0  # atno 17370 bound_to 10713
  156.2793  130.3731  149.7951 LP  0  0  0  0  0  0  0  0  0  0  0  0  # atno 17371 bound_to 10713
  141.2178  133.7461  156.9320 LP  0  0  0  0  0  0  0  0  0  0  0  0  # atno 17394 bound_to 11000
  140.1382  134.9311  157.2430 LP  0  0  0  0  0  0  0  0  0  0  0  0  # atno 17395 bound_to 11000

$$$$
