AV-unprocessed.smi:1522|AV-procd|sdf|6134|dock3
  -GOLD-   22720 6273D 1   1.00000     0.00000
 Structure written by MMmdl.
 35 36  0  0  0  0  0  0  0  0  2 V2000
  144.0662  136.7118  152.7536 C   0  0  0  0  0  0  0  0  0  0  0  0
  145.6008  136.8889  152.7171 C   0  0  2  0  0  0  0  0  0  0  0  0
  145.9911  138.1178  151.8544 C   0  0  0  0  0  0  0  0  0  0  0  0
  147.2540  138.7242  152.2655 N   0  0  0  0  0  0  0  0  0  0  0  0
  147.5146  139.1870  153.4965 C   0  0  0  0  0  0  0  0  0  0  0  0
  146.7027  139.1395  154.4204 O   0  0  0  0  0  0  0  0  0  0  0  0
  148.7533  139.6992  153.5733 N   0  0  0  0  0  0  0  0  0  0  0  0
  149.3749  140.3119  154.6901 C   0  0  0  0  0  0  0  0  0  0  0  0
  150.7117  140.3055  154.7464 N   0  0  0  0  0  0  0  0  0  0  0  0
  151.1877  140.9420  155.8862 N   0  0  0  0  0  0  0  0  0  0  0  0
  150.1898  141.4050  156.6451 C   0  0  0  0  0  0  0  0  0  0  0  0
  148.5681  141.1096  156.0438 S   0  0  0  0  0  0  0  0  0  0  0  0
  146.2786  135.6580  152.2169 N   0  3  0  0  0  0  0  0  0  0  0  0
  146.2061  134.4848  153.1255 C   0  0  0  0  0  0  0  0  0  0  0  0
  146.0458  133.2356  152.2479 C   0  0  0  0  0  0  0  0  0  0  0  0
  146.2847  133.7238  150.8242 C   0  0  0  0  0  0  0  0  0  0  0  0
  145.8484  135.1828  150.8837 C   0  0  0  0  0  0  0  0  0  0  0  0
  143.5655  137.6123  153.1094 H   0  0  0  0  0  0  0  0  0  0  0  0
  143.7619  135.9113  153.4276 H   0  0  0  0  0  0  0  0  0  0  0  0
  143.6706  136.4851  151.7629 H   0  0  0  0  0  0  0  0  0  0  0  0
  145.9413  137.0538  153.7407 H   0  0  0  0  0  0  0  0  0  0  0  0
  146.0651  137.8595  150.7974 H   0  0  0  0  0  0  0  0  0  0  0  0
  145.2149  138.8805  151.9251 H   0  0  0  0  0  0  0  0  0  0  0  0
  147.9763  138.7984  151.5636 H   0  0  0  0  0  0  0  0  0  0  0  0
  149.3132  139.6598  152.7344 H   0  0  0  0  0  0  0  0  0  0  0  0
  150.4107  141.9251  157.5656 H   0  0  0  0  0  0  0  0  0  0  0  0
  147.1168  134.4360  153.7232 H   0  0  0  0  0  0  0  0  0  0  0  0
  145.3613  134.5591  153.8125 H   0  0  0  0  0  0  0  0  0  0  0  0
  146.7281  132.4336  152.5311 H   0  0  0  0  0  0  0  0  0  0  0  0
  145.0286  132.8520  152.3386 H   0  0  0  0  0  0  0  0  0  0  0  0
  147.3471  133.6642  150.5837 H   0  0  0  0  0  0  0  0  0  0  0  0
  145.7371  133.1459  150.0789 H   0  0  0  0  0  0  0  0  0  0  0  0
  144.7617  135.2448  150.8024 H   0  0  0  0  0  0  0  0  0  0  0  0
  146.2869  135.7716  150.0773 H   0  0  0  0  0  0  0  0  0  0  0  0
  147.2602  135.8775  152.1243 H   0  0  0  0  0  0  0  0  0  0  0  0
  1  2  1  0  0  0  0
  1 18  1  0  0  0  0
  1 19  1  0  0  0  0
  1 20  1  0  0  0  0
  2  3  1  0  0  0  0
  2 13  1  0  0  0  0
  2 21  1  0  0  0  0
  3  4  1  0  0  0  0
  3 22  1  0  0  0  0
  3 23  1  0  0  0  0
  4  5  1  0  0  0  0
  4 24  1  0  0  0  0
  5  6  2  0  0  0  0
  5  7  1  0  0  0  0
  7  8  1  0  0  0  0
  7 25  1  0  0  0  0
  8 12  1  0  0  0  0
  8  9  2  0  0  0  0
  9 10  1  0  0  0  0
 10 11  2  0  0  0  0
 11 12  1  0  0  0  0
 11 26  1  0  0  0  0
 13 17  1  0  0  0  0
 13 14  1  0  0  0  0
 13 35  1  0  0  0  0
 14 15  1  0  0  0  0
 14 27  1  0  0  0  0
 14 28  1  0  0  0  0
 15 16  1  0  0  0  0
 15 29  1  0  0  0  0
 15 30  1  0  0  0  0
 16 17  1  0  0  0  0
 16 31  1  0  0  0  0
 16 32  1  0  0  0  0
 17 33  1  0  0  0  0
 17 34  1  0  0  0  0
M  CHG  1  13   1
M  END
> <s_m_source_file>
AV-unprocessed.smi

> <i_m_source_file_index>
1522

> <i_lp_mmshare_version>
43012

> <i_f3d_flags>
0

> <s_epik_input>
W0NIMl0xW0NIMl1bQ0gyXVtDSDJdTjFbQ0BIXShbQ0gzXSlbQ0gyXVtOSF1DKD1PKVtOSF1jMm5uW2NIXXMy

> <s_epik_cmdline>
J2VwaWtfcHl0aG9uJywgJy1waCcsICc3LjAnLCAnLXRuJywgJzgnLCAnLW1hJywgJzIwMCcsICctbWV0YWxfYmluZGluZycsICctaW1hZScsICc8aW5maWxlLm1hZT4nLCAnLW9tYWUnLCAnPG91dGZpbGUubWFlPic=

> <r_lp_tautomer_probability>
1

> <r_epik_Ionization_Penalty>
0.00457064

> <r_epik_Ionization_Penalty_Charging>
0.000848324

> <r_epik_Ionization_Penalty_Neutral>
0.00372231

> <r_epik_State_Penalty>
-0

> <r_epik_Charging_Adjusted_Penalty>
0.000848324

> <i_epik_Tot_Q>
1

> <i_epik_Tot_abs_Q>
1

> <r_epik_Metal_State_Penalty>
0.370178

> <b_epik_Metal_Only>
0

> <s_lp_Force_Field>
OPLS_2005

> <r_lp_Energy>
27.0536

> <b_lp_Chiralities_Consistent>
1

> <s_lp_Variant>
AV-unprocessed.smi:1522-1

> <Gold.Version>
5.8.1

> <Gold.Id.Protein>
6NUR|6NUR_protein|mol2

> <Gold.PLP.Fitness>
40.8228

> <Gold.PLP.PLP>
-27.9812

> <Gold.PLP.part.hbond>
-5.5576

> <Gold.PLP.part.metal>
0.0000

> <Gold.PLP.part.buried>
-2.9873

> <Gold.PLP.part.nonpolar>
-20.0725

> <Gold.PLP.part.repulsive>
0.4557

> <Gold.PLP.ligand.clash>
0.0000

> <Gold.PLP.ligand.torsion>
0.5003

> <Gold.PLP.Chemscore.Hbond>
4.6000

> <Gold.PLP.Chemscore.CHOScore>
0.0000

> <Gold.PLP.Chemscore.Metal>
0.0000

> <Gold.Chemscore.Hbonds>
donor molecule, donor type, donor heavy atom, donor atom, acceptor molecule, acceptor atom, score
      L1  H     4    24       P1  7957  0.75
      L1  H     7    25       P1  7957  1.00
      L1  H    13    35       P1  7948  2.00
      P1  H  7989  7998       L1     9  1.00

> <Gold.PLP.Chemscore.Internal.Correction>
0.0421

> <Gold.Rescore>
     Score         DG    S(hbond)    S(metal)    S(lipo)     H(rot)  DE(clash)    DE(int)     intcor
     16.99     -19.27       3.86        0.00      44.98       1.70       0.37       1.92       ----

> <Gold.Chemscore.Fitness>
16.9854

> <Gold.Chemscore.DG>
-19.2701

> <Gold.Chemscore.ZeroCoef>
-5.4800

> <Gold.Chemscore.Hbond>
3.8581

> <Gold.Chemscore.Metal>
0.0000

> <Gold.Chemscore.Lipo>
44.9840

> <Gold.Chemscore.Internal_Hbond>
0.0000

> <Gold.Chemscore.DEClash>
0.3658

> <Gold.Chemscore.DEInternal>
1.9190

> <Gold.Chemscore.Rot>
1.7028

> <Gold.Chemscore.Internal.Correction>
   9.000000E+99

> <Gold.Chemscore.Hbonds>
donor molecule, donor type, donor heavy atom, donor atom, acceptor molecule, acceptor atom, score
      L1  H     4    24       P1  7957  0.50
      L1  H     7    25       P1  7957  0.97
      L1  H    13    35       P1  7948  1.00
      P1  H  7989  7998       L1     9  0.54

> <Gold.Chemscore.Hbond.Weighted>
-12.8862

> <Gold.Chemscore.Metal.Weighted>
-0.0000

> <Gold.Chemscore.Lipo.Weighted>
-5.2631

> <Gold.Chemscore.Internal_Hbond.Weighted>
0.0000

> <Gold.Chemscore.DEClash.Weighted>
0.3658

> <Gold.Chemscore.DEInternal.Weighted>
1.9190

> <Gold.Chemscore.Rot.Weighted>
4.3592

> <Gold.Chemscore.Internal.Correction.Weighted>
   9.000000E+99

> <Gold.Protein.RotatedTorsions>
[ 6907 6896 6895 6894 ] final  -17.89 input  -60.11 | X-H torsion
[ 7974 7965 7964 7962 ] final  105.06 input  175.53 | X-H torsion
[ 8008 7997 7996 7995 ] final  164.81 input   59.86 | X-H torsion
[ 10167 10162 10161 10158 ] final   32.02 input  -65.29 | X-H torsion
[ 10718 10713 10712 10709 ] final  -84.84 input   66.30 | X-H torsion
[ 10763 10752 10751 10750 ] final -173.87 input  -60.55 | X-H torsion
[ 11005 11000 10999 10996 ] final   30.34 input  -57.11 | X-H torsion

> <Gold.Protein.ActiveResidues>
 VAL166  LYS551  ARG553  GLY616  TRP617  ASP618  TYR619  PRO620  LYS621  CYS622 
 ASP623  PHE694  ASN695  SER759  ASP760  ASP761  ALA762  ILE779  LEU786  VAL792 
 PHE793  MET794  SER795  GLU796  ALA797  LYS798  CYS799  TRP800  GLU811  SER814 

> <Gold.Protein.RotatedAtoms>
  151.2865  135.0729  159.9188 H   0  0  0  0  0  0  0  0  0  0  0  0  # atno 6907 bound_to 6896
  152.5324  133.9976  159.7890 H   0  0  0  0  0  0  0  0  0  0  0  0  # atno 6908 bound_to 6896
  151.0239  133.5800  159.2699 H   0  0  0  0  0  0  0  0  0  0  0  0  # atno 6909 bound_to 6896
  145.3246  139.2503  143.3693 H   0  0  0  0  0  0  0  0  0  0  0  0  # atno 7974 bound_to 7965
  156.1850  140.1686  156.8202 H   0  0  0  0  0  0  0  0  0  0  0  0  # atno 8008 bound_to 7997
  154.5404  140.0738  156.8532 H   0  0  0  0  0  0  0  0  0  0  0  0  # atno 8009 bound_to 7997
  155.3227  140.3374  155.4243 H   0  0  0  0  0  0  0  0  0  0  0  0  # atno 8010 bound_to 7997
  140.4536  144.1011  150.6197 H   0  0  0  0  0  0  0  0  0  0  0  0  # atno 10167 bound_to 10162
  156.0002  130.4711  150.4471 H   0  0  0  0  0  0  0  0  0  0  0  0  # atno 10718 bound_to 10713
  154.6028  135.2856  155.0517 H   0  0  0  0  0  0  0  0  0  0  0  0  # atno 10763 bound_to 10752
  154.1776  135.6462  153.5029 H   0  0  0  0  0  0  0  0  0  0  0  0  # atno 10764 bound_to 10752
  153.0163  135.5416  154.6753 H   0  0  0  0  0  0  0  0  0  0  0  0  # atno 10765 bound_to 10752
  140.2954  134.2817  155.7766 H   0  0  0  0  0  0  0  0  0  0  0  0  # atno 11005 bound_to 11000
  146.3069  140.3811  142.8684 LP  0  0  0  0  0  0  0  0  0  0  0  0  # atno 17320 bound_to 7965
  144.8912  140.7526  143.5925 LP  0  0  0  0  0  0  0  0  0  0  0  0  # atno 17321 bound_to 7965
  140.4177  143.2626  151.9754 LP  0  0  0  0  0  0  0  0  0  0  0  0  # atno 17342 bound_to 10162
  139.4799  144.5859  151.7855 LP  0  0  0  0  0  0  0  0  0  0  0  0  # atno 17343 bound_to 10162
  157.2507  131.0546  151.2380 LP  0  0  0  0  0  0  0  0  0  0  0  0  # atno 17370 bound_to 10713
  157.3530  130.7092  149.6453 LP  0  0  0  0  0  0  0  0  0  0  0  0  # atno 17371 bound_to 10713
  141.2138  133.7612  156.9687 LP  0  0  0  0  0  0  0  0  0  0  0  0  # atno 17394 bound_to 11000
  140.1157  134.9449  157.2131 LP  0  0  0  0  0  0  0  0  0  0  0  0  # atno 17395 bound_to 11000

$$$$
