#       Name:                AV-unprocessed.smi:2822
#       Creating user name   scv26
#       Creation time:       Fri Mar 27 15:31:46 2020


#       File generated by GOLD software.
#

@<TRIPOS>MOLECULE
AV-unprocessed.smi:2822
    43    45     1
SMALL
NO_CHARGES


@<TRIPOS>ATOM
      1 ****        -5.2300   1.3673  -0.3656 Cl             1 S1                 0.0000
      2 ****        -4.3295   2.8438  -0.3515 C.ar           1 S1                 0.0000
      3 ****        -5.0103   4.0776  -0.3080 C.ar           1 S1                 0.0000
      4 ****        -4.3836   5.2726  -0.2930 N.ar           1 S1                 0.0000
      5 ****        -3.0349   5.2749  -0.3216 C.ar           1 S1                 0.0000
      6 ****        -2.2572   4.1004  -0.3657 C.ar           1 S1                 0.0000
      7 ****        -2.9158   2.8482  -0.3814 C.ar           1 S1                 0.0000
      8 ****        -2.2223   1.6292  -0.4278 N.pl3          1 S1                 0.0000
      9 ****        -0.7765   1.5816  -0.2734 C.3            1 S1                 0.0000
     10 ****        -0.2564   0.1376  -0.3002 C.3            1 S1                 0.0000
     11 ****         1.2820   0.0847  -0.3359 C.3            1 S1                 0.0000
     12 ****         1.7562  -1.3181  -0.2924 N.4            1 S1                 1.0000
     13 ****         3.2359  -1.4192  -0.3660 C.3            1 S1                 0.0000
     14 ****         3.6884  -2.8876  -0.4146 C.3            1 S1                 0.0000
     15 ****         3.1407  -3.6682   0.7872 C.3            1 S1                 0.0000
     16 ****         1.6145  -3.5239   0.8565 C.3            1 S1                 0.0000
     17 ****         1.1933  -2.0410   0.8805 C.3            1 S1                 0.0000
     18 ****        -0.3407  -1.8946   0.9025 C.3            1 S1                 0.0000
     19 ****        -0.6961  -0.5181   0.8846 O.3            1 S1                 0.0000
     20 ****        -6.0898   4.1059  -0.2843 H              1 S1                 0.0000
     21 ****        -2.5589   6.2443  -0.3097 H              1 S1                 0.0000
     22 ****        -1.1811   4.1819  -0.3878 H              1 S1                 0.0000
     23 ****        -2.7453   0.7683  -0.3494 H              1 S1                 0.0000
     24 ****        -0.3239   2.1438  -1.0910 H              1 S1                 0.0000
     25 ****        -0.4872   2.0703   0.6578 H              1 S1                 0.0000
     26 ****        -0.6583  -0.3724  -1.1783 H              1 S1                 0.0000
     27 ****         1.6490   0.5640  -1.2445 H              1 S1                 0.0000
     28 ****         1.6978   0.6375   0.5084 H              1 S1                 0.0000
     29 ****         3.5942  -0.8979  -1.2546 H              1 S1                 0.0000
     30 ****         3.6800  -0.9194   0.4962 H              1 S1                 0.0000
     31 ****         3.3423  -3.3486  -1.3406 H              1 S1                 0.0000
     32 ****         4.7774  -2.9424  -0.4292 H              1 S1                 0.0000
     33 ****         3.4169  -4.7205   0.7118 H              1 S1                 0.0000
     34 ****         3.5897  -3.2923   1.7076 H              1 S1                 0.0000
     35 ****         1.1634  -4.0231  -0.0025 H              1 S1                 0.0000
     36 ****         1.2374  -4.0348   1.7433 H              1 S1                 0.0000
     37 ****         1.5937  -1.5794   1.7850 H              1 S1                 0.0000
     38 ****        -0.7991  -2.4091   0.0561 H              1 S1                 0.0000
     39 ****        -0.7487  -2.3471   1.8068 H              1 S1                 0.0000
     40 ****         1.3922  -1.7744  -1.1168 H              1 S1                 0.0000
     41 ****        -4.9014   6.1275  -0.2617 LP             1 S1                 0.0000
     42 ****        -1.6914  -0.4421   0.9439 LP             1 S1                 0.0000
     43 ****        -0.2798  -0.0681   1.6747 LP             1 S1                 0.0000
@<TRIPOS>BOND
    1    1    2 1     
    2    2    7 ar    
    3    2    3 ar    
    4    3    4 ar    
    5    3   20 1     
    6    4    5 ar    
    7    5    6 ar    
    8    5   21 1     
    9    6    7 ar    
   10    6   22 1     
   11    7    8 1     
   12    8    9 1     
   13    8   23 1     
   14    9   10 1     
   15    9   24 1     
   16    9   25 1     
   17   10   19 1     
   18   10   11 1     
   19   10   26 1     
   20   11   12 1     
   21   11   27 1     
   22   11   28 1     
   23   12   17 1     
   24   12   13 1     
   25   12   40 1     
   26   13   14 1     
   27   13   29 1     
   28   13   30 1     
   29   14   15 1     
   30   14   31 1     
   31   14   32 1     
   32   15   16 1     
   33   15   33 1     
   34   15   34 1     
   35   16   17 1     
   36   16   35 1     
   37   16   36 1     
   38   17   18 1     
   39   17   37 1     
   40   18   19 1     
   41   18   38 1     
   42   18   39 1     
   43    4   41 1     
   44   19   42 1     
   45   19   43 1     
@<TRIPOS>SUBSTRUCTURE
      1 S1             1
@<TRIPOS>SET
LONE_PAIRS      STATIC     ATOMS    <user>   **** ""
3 41 42 43
DONOR_HYDROGENS      STATIC     ATOMS    <user>   **** ""
2 23 40
ATOM$BLUE        STATIC     ATOMS    COLORGROUP SYSTEM
3 41 42 43
ATOM$RED        STATIC     ATOMS    COLORGROUP SYSTEM
2 23 40
