AV-unprocessed.smi:1057|AV-procd|sdf|4650|dock10
  -GOLD-   22720 3153D 1   1.00000     0.00000
 Structure written by MMmdl.
 44 45  0  0  0  0  0  0  0  0  1 V2000
  142.5170  146.7252  155.7207 C   0  0  0  0  0  0  0  0  0  0  0  0
  142.4875  145.5045  155.7293 C   0  0  0  0  0  0  0  0  0  0  0  0
  142.4631  144.0322  155.7581 C   0  0  0  0  0  0  0  0  0  0  0  0
  143.5407  143.4370  154.9764 N   0  0  0  0  0  0  0  0  0  0  0  0
  144.7880  143.1942  155.4179 C   0  0  0  0  0  0  0  0  0  0  0  0
  145.1523  143.4606  156.5625 O   0  0  0  0  0  0  0  0  0  0  0  0
  145.7972  142.5668  154.4425 C   0  0  0  0  0  0  0  0  0  0  0  0
  147.1538  142.4315  154.9730 N   0  0  0  0  0  0  0  0  0  0  0  0
  147.9014  141.3197  154.9139 C   0  0  0  0  0  0  0  0  0  0  0  0
  147.5091  140.2591  154.4279 O   0  0  0  0  0  0  0  0  0  0  0  0
  149.1261  141.5333  155.4205 N   0  0  0  0  0  0  0  0  0  0  0  0
  150.2222  140.6277  155.4646 C   0  0  0  0  0  0  0  0  0  0  0  0
  150.2913  139.4709  154.6519 C   0  0  0  0  0  0  0  0  0  0  0  0
  151.3999  138.6135  154.7763 C   0  0  0  0  0  0  0  0  0  0  0  0
  152.3963  138.9387  155.7149 C   0  0  0  0  0  0  0  0  0  0  0  0
  152.3384  140.0299  156.5060 N   0  0  0  0  0  0  0  0  0  0  0  0
  151.2724  140.8575  156.3888 C   0  0  0  0  0  0  0  0  0  0  0  0
  151.2380  141.9870  157.2229 N   0  0  0  0  0  0  0  0  0  0  0  0
  151.7483  141.7368  158.5676 C   0  0  0  0  0  0  0  0  0  0  0  0
  151.4481  142.9300  159.4912 C   0  0  0  0  0  0  0  0  0  0  0  0
  151.9852  144.2393  158.8896 C   0  0  0  0  0  0  0  0  0  0  0  0
  151.4450  144.4323  157.4628 C   0  0  0  0  0  0  0  0  0  0  0  0
  151.7464  143.2014  156.5907 C   0  0  0  0  0  0  0  0  0  0  0  0
  142.5449  147.7918  155.7197 H   0  0  0  0  0  0  0  0  0  0  0  0
  142.4978  143.7013  156.7969 H   0  0  0  0  0  0  0  0  0  0  0  0
  141.5081  143.7038  155.3479 H   0  0  0  0  0  0  0  0  0  0  0  0
  143.3233  143.1846  154.0233 H   0  0  0  0  0  0  0  0  0  0  0  0
  145.4405  141.5715  154.1770 H   0  0  0  0  0  0  0  0  0  0  0  0
  145.8071  143.1459  153.5175 H   0  0  0  0  0  0  0  0  0  0  0  0
  147.5604  143.2559  155.3901 H   0  0  0  0  0  0  0  0  0  0  0  0
  149.3379  142.4816  155.6944 H   0  0  0  0  0  0  0  0  0  0  0  0
  149.5091  139.2224  153.9509 H   0  0  0  0  0  0  0  0  0  0  0  0
  151.4820  137.7239  154.1696 H   0  0  0  0  0  0  0  0  0  0  0  0
  153.2605  138.3030  155.8375 H   0  0  0  0  0  0  0  0  0  0  0  0
  151.2955  140.8299  158.9711 H   0  0  0  0  0  0  0  0  0  0  0  0
  152.8244  141.5643  158.5211 H   0  0  0  0  0  0  0  0  0  0  0  0
  150.3707  143.0125  159.6405 H   0  0  0  0  0  0  0  0  0  0  0  0
  151.8859  142.7608  160.4752 H   0  0  0  0  0  0  0  0  0  0  0  0
  151.7059  145.0861  159.5171 H   0  0  0  0  0  0  0  0  0  0  0  0
  153.0753  144.2118  158.8678 H   0  0  0  0  0  0  0  0  0  0  0  0
  150.3674  144.5976  157.4993 H   0  0  0  0  0  0  0  0  0  0  0  0
  151.8808  145.3248  157.0133 H   0  0  0  0  0  0  0  0  0  0  0  0
  152.8228  143.1095  156.4386 H   0  0  0  0  0  0  0  0  0  0  0  0
  151.2927  143.3225  155.6060 H   0  0  0  0  0  0  0  0  0  0  0  0
  1  2  3  0  0  0  0
  1 24  1  0  0  0  0
  2  3  1  0  0  0  0
  3  4  1  0  0  0  0
  3 25  1  0  0  0  0
  3 26  1  0  0  0  0
  4  5  1  0  0  0  0
  4 27  1  0  0  0  0
  5  6  2  0  0  0  0
  5  7  1  0  0  0  0
  7  8  1  0  0  0  0
  7 28  1  0  0  0  0
  7 29  1  0  0  0  0
  8  9  1  0  0  0  0
  8 30  1  0  0  0  0
  9 10  2  0  0  0  0
  9 11  1  0  0  0  0
 11 12  1  0  0  0  0
 11 31  1  0  0  0  0
 12 17  1  0  0  0  0
 12 13  2  0  0  0  0
 13 14  1  0  0  0  0
 13 32  1  0  0  0  0
 14 15  2  0  0  0  0
 14 33  1  0  0  0  0
 15 16  1  0  0  0  0
 15 34  1  0  0  0  0
 16 17  2  0  0  0  0
 17 18  1  0  0  0  0
 18 23  1  0  0  0  0
 18 19  1  0  0  0  0
 19 20  1  0  0  0  0
 19 35  1  0  0  0  0
 19 36  1  0  0  0  0
 20 21  1  0  0  0  0
 20 37  1  0  0  0  0
 20 38  1  0  0  0  0
 21 22  1  0  0  0  0
 21 39  1  0  0  0  0
 21 40  1  0  0  0  0
 22 23  1  0  0  0  0
 22 41  1  0  0  0  0
 22 42  1  0  0  0  0
 23 43  1  0  0  0  0
 23 44  1  0  0  0  0
M  END
> <s_m_source_file>
AV-unprocessed.smi

> <i_m_source_file_index>
1057

> <i_lp_mmshare_version>
43012

> <i_f3d_flags>
0

> <s_epik_input>
W0NIXSNDW0NIMl1bTkhdQyg9TylbQ0gyXVtOSF1DKD1PKVtOSF1jMVtjSF1bY0hdW2NIXW5jMU4yW0NIMl1bQ0gyXVtDSDJdW0NIMl1bQ0gyXTI=

> <s_epik_cmdline>
J2VwaWtfcHl0aG9uJywgJy1waCcsICc3LjAnLCAnLXRuJywgJzgnLCAnLW1hJywgJzIwMCcsICctbWV0YWxfYmluZGluZycsICctaW1hZScsICc8aW5maWxlLm1hZT4nLCAnLW9tYWUnLCAnPG91dGZpbGUubWFlPic=

> <r_lp_tautomer_probability>
1

> <r_epik_Ionization_Penalty>
0.251144

> <r_epik_Ionization_Penalty_Charging>
0

> <r_epik_Ionization_Penalty_Neutral>
0.251144

> <r_epik_State_Penalty>
0.236346

> <r_epik_Charging_Adjusted_Penalty>
0.236346

> <i_epik_Tot_Q>
0

> <i_epik_Tot_abs_Q>
0

> <r_epik_Metal_State_Penalty>
0.166327

> <b_epik_Metal_Only>
0

> <s_lp_Force_Field>
OPLS_2005

> <r_lp_Energy>
16.5817

> <b_lp_Chiralities_Consistent>
1

> <s_lp_Variant>
AV-unprocessed.smi:1057-1

> <Gold.Version>
5.8.1

> <Gold.Id.Protein>
6NUR|6NUR_protein|mol2

> <Gold.PLP.Fitness>
50.2642

> <Gold.PLP.PLP>
-42.5438

> <Gold.PLP.part.hbond>
-3.8949

> <Gold.PLP.part.metal>
0.0000

> <Gold.PLP.part.buried>
-2.8271

> <Gold.PLP.part.nonpolar>
-35.5553

> <Gold.PLP.part.repulsive>
0.6877

> <Gold.PLP.ligand.clash>
0.0000

> <Gold.PLP.ligand.torsion>
0.9900

> <Gold.PLP.Chemscore.Hbond>
3.1634

> <Gold.PLP.Chemscore.CHOScore>
0.0000

> <Gold.PLP.Chemscore.Metal>
0.0000

> <Gold.Chemscore.Hbonds>
donor molecule, donor type, donor heavy atom, donor atom, acceptor molecule, acceptor atom, score
      L1  H     4    27       P1 10174  0.78
      L1  H     8    30       P1  8028  0.95
      L1  H    11    31       P1  8028  0.37
      P1  H  7997  8008       L1    16  0.56

> <Gold.PLP.Chemscore.Internal.Correction>
0.2102

> <Gold.Rescore>
     Score         DG    S(hbond)    S(metal)    S(lipo)     H(rot)  DE(clash)    DE(int)     intcor
     16.22     -20.13       1.91        0.00     109.73       1.79       1.66       2.24       ----

> <Gold.Chemscore.Fitness>
16.2180

> <Gold.Chemscore.DG>
-20.1257

> <Gold.Chemscore.ZeroCoef>
-5.4800

> <Gold.Chemscore.Hbond>
1.9099

> <Gold.Chemscore.Metal>
0.0000

> <Gold.Chemscore.Lipo>
109.7319

> <Gold.Chemscore.Internal_Hbond>
0.0000

> <Gold.Chemscore.DEClash>
1.6629

> <Gold.Chemscore.DEInternal>
2.2448

> <Gold.Chemscore.Rot>
1.7860

> <Gold.Chemscore.Internal.Correction>
   9.000000E+99

> <Gold.Chemscore.Hbonds>
donor molecule, donor type, donor heavy atom, donor atom, acceptor molecule, acceptor atom, score
      L1  H     4    27       P1 10174  0.58
      L1  H     8    30       P1  8028  0.21
      L1  H    11    31       P1  8028  0.35
      P1  H  7997  8008       L1    16  0.04

> <Gold.Chemscore.Hbond.Weighted>
-6.3791

> <Gold.Chemscore.Metal.Weighted>
-0.0000

> <Gold.Chemscore.Lipo.Weighted>
-12.8386

> <Gold.Chemscore.Internal_Hbond.Weighted>
0.0000

> <Gold.Chemscore.DEClash.Weighted>
1.6629

> <Gold.Chemscore.DEInternal.Weighted>
2.2448

> <Gold.Chemscore.Rot.Weighted>
4.5721

> <Gold.Chemscore.Internal.Correction.Weighted>
   9.000000E+99

> <Gold.Protein.RotatedTorsions>
[ 6907 6896 6895 6894 ] final  137.02 input  -60.11 | X-H torsion
[ 7974 7965 7964 7962 ] final  -17.75 input  175.53 | X-H torsion
[ 8008 7997 7996 7995 ] final  -62.88 input   59.86 | X-H torsion
[ 10167 10162 10161 10158 ] final  108.85 input  -65.29 | X-H torsion
[ 10718 10713 10712 10709 ] final  -30.87 input   66.30 | X-H torsion
[ 10763 10752 10751 10750 ] final  -42.16 input  -60.55 | X-H torsion
[ 11005 11000 10999 10996 ] final  -14.02 input  -57.11 | X-H torsion

> <Gold.Protein.ActiveResidues>
 VAL166  LYS551  ARG553  GLY616  TRP617  ASP618  TYR619  PRO620  LYS621  CYS622 
 ASP623  PHE694  ASN695  SER759  ASP760  ASP761  ALA762  ILE779  LEU786  VAL792 
 PHE793  MET794  SER795  GLU796  ALA797  LYS798  CYS799  TRP800  GLU811  SER814 

> <Gold.Protein.RotatedAtoms>
  152.2828  133.5486  159.5508 H   0  0  0  0  0  0  0  0  0  0  0  0  # atno 6907 bound_to 6896
  150.7203  134.0540  159.3817 H   0  0  0  0  0  0  0  0  0  0  0  0  # atno 6908 bound_to 6896
  151.8450  135.0577  160.0503 H   0  0  0  0  0  0  0  0  0  0  0  0  # atno 6909 bound_to 6896
  146.1926  140.3824  142.8452 H   0  0  0  0  0  0  0  0  0  0  0  0  # atno 7974 bound_to 7965
  154.4524  140.0986  156.6656 H   0  0  0  0  0  0  0  0  0  0  0  0  # atno 8008 bound_to 7997
  155.5244  140.3480  155.4395 H   0  0  0  0  0  0  0  0  0  0  0  0  # atno 8009 bound_to 7997
  156.0708  140.1349  156.9820 H   0  0  0  0  0  0  0  0  0  0  0  0  # atno 8010 bound_to 7997
  139.6813  144.7118  151.1511 H   0  0  0  0  0  0  0  0  0  0  0  0  # atno 10167 bound_to 10162
  156.3944  130.4379  149.7370 H   0  0  0  0  0  0  0  0  0  0  0  0  # atno 10718 bound_to 10713
  153.9744  135.6724  153.4748 H   0  0  0  0  0  0  0  0  0  0  0  0  # atno 10763 bound_to 10752
  153.0777  135.4940  154.8436 H   0  0  0  0  0  0  0  0  0  0  0  0  # atno 10764 bound_to 10752
  154.7200  135.3115  154.9023 H   0  0  0  0  0  0  0  0  0  0  0  0  # atno 10765 bound_to 10752
  140.7821  133.8354  155.9301 H   0  0  0  0  0  0  0  0  0  0  0  0  # atno 11005 bound_to 11000
  144.8516  140.7009  143.6165 LP  0  0  0  0  0  0  0  0  0  0  0  0  # atno 17320 bound_to 7965
  145.3746  139.1651  143.4313 LP  0  0  0  0  0  0  0  0  0  0  0  0  # atno 17321 bound_to 7965
  140.7653  143.5695  150.9011 LP  0  0  0  0  0  0  0  0  0  0  0  0  # atno 17342 bound_to 10162
  139.9367  143.6429  152.3063 LP  0  0  0  0  0  0  0  0  0  0  0  0  # atno 17343 bound_to 10162
  156.4410  130.7861  151.2882 LP  0  0  0  0  0  0  0  0  0  0  0  0  # atno 17370 bound_to 10713
  157.7501  131.0125  150.3386 LP  0  0  0  0  0  0  0  0  0  0  0  0  # atno 17371 bound_to 10713
  140.9472  134.1825  157.4754 LP  0  0  0  0  0  0  0  0  0  0  0  0  # atno 17394 bound_to 11000
  139.8741  134.9895  156.5460 LP  0  0  0  0  0  0  0  0  0  0  0  0  # atno 17395 bound_to 11000

$$$$
