AV-unprocessed.smi:1005|AV-procd|sdf|4366|dock1
  -GOLD-   22720 2273D 1   1.00000     0.00000
 Structure written by MMmdl.
 57 59  0  0  0  0  0  0  0  0  3 V2000
  152.5508  143.2585  160.5701 C   0  0  0  0  0  0  0  0  0  0  0  0
  152.1075  142.4472  159.3653 C   0  0  0  0  0  0  0  0  0  0  0  0
  152.8268  141.2808  159.0198 C   0  0  0  0  0  0  0  0  0  0  0  0
  152.4486  140.5002  157.9060 C   0  0  0  0  0  0  0  0  0  0  0  0
  153.0021  139.3402  157.3915 N   0  0  0  0  0  0  0  0  0  0  0  0
  152.2075  139.1014  156.3527 C   0  0  0  0  0  0  0  0  0  0  0  0
  151.2055  139.9735  156.1293 N   0  0  0  0  0  0  0  0  0  0  0  0
  150.2255  139.9213  155.0591 C   0  0  0  0  0  0  0  0  0  0  0  0
  150.0483  138.4986  154.4954 C   0  0  2  0  0  0  0  0  0  0  0  0
  149.6921  138.5750  153.1279 O   0  0  0  0  0  0  0  0  0  0  0  0
  148.9495  137.7185  155.2430 C   0  0  0  0  0  0  0  0  0  0  0  0
  148.6977  136.3833  154.6433 N   0  3  1  0  0  0  0  0  0  0  0  0
  149.6475  135.3385  155.0977 C   0  0  0  0  0  0  0  0  0  0  0  0
  149.3509  134.0061  154.3915 C   0  0  0  0  0  0  0  0  0  0  0  0
  148.0011  133.6283  154.6349 O   0  0  0  0  0  0  0  0  0  0  0  0
  147.0695  134.5752  154.1208 C   0  0  1  0  0  0  0  0  0  0  0  0
  145.6488  134.0361  154.3758 C   0  0  0  0  0  0  0  0  0  0  0  0
  145.2920  132.8973  153.4905 N   0  3  0  0  0  0  0  0  0  0  0  0
  146.2405  131.7623  153.5755 C   0  0  0  0  0  0  0  0  0  0  0  0
  145.0896  133.3271  152.0888 C   0  0  0  0  0  0  0  0  0  0  0  0
  147.3003  135.9255  154.8300 C   0  0  0  0  0  0  0  0  0  0  0  0
  151.3221  140.9215  157.1404 C   0  0  0  0  0  0  0  0  0  0  0  0
  150.5978  142.0793  157.4745 C   0  0  0  0  0  0  0  0  0  0  0  0
  150.9886  142.8473  158.5913 C   0  0  0  0  0  0  0  0  0  0  0  0
  150.1990  144.0948  158.9452 C   0  0  0  0  0  0  0  0  0  0  0  0
  153.4286  142.8195  161.0450 H   0  0  0  0  0  0  0  0  0  0  0  0
  151.7551  143.3036  161.3141 H   0  0  0  0  0  0  0  0  0  0  0  0
  152.8058  144.2758  160.2726 H   0  0  0  0  0  0  0  0  0  0  0  0
  153.6789  140.9757  159.6093 H   0  0  0  0  0  0  0  0  0  0  0  0
  152.3655  138.2451  155.7131 H   0  0  0  0  0  0  0  0  0  0  0  0
  149.2767  140.2923  155.4495 H   0  0  0  0  0  0  0  0  0  0  0  0
  150.5286  140.6127  154.2717 H   0  0  0  0  0  0  0  0  0  0  0  0
  151.0025  137.9775  154.5700 H   0  0  0  0  0  0  0  0  0  0  0  0
  149.7714  137.7122  152.7483 H   0  0  0  0  0  0  0  0  0  0  0  0
  149.2106  137.5985  156.2957 H   0  0  0  0  0  0  0  0  0  0  0  0
  148.0327  138.3103  155.2243 H   0  0  0  0  0  0  0  0  0  0  0  0
  150.6746  135.6369  154.8906 H   0  0  0  0  0  0  0  0  0  0  0  0
  149.5639  135.2115  156.1785 H   0  0  0  0  0  0  0  0  0  0  0  0
  149.5342  134.0833  153.3184 H   0  0  0  0  0  0  0  0  0  0  0  0
  150.0099  133.2254  154.7717 H   0  0  0  0  0  0  0  0  0  0  0  0
  147.2346  134.7074  153.0511 H   0  0  0  0  0  0  0  0  0  0  0  0
  145.5883  133.7165  155.4175 H   0  0  0  0  0  0  0  0  0  0  0  0
  144.9101  134.8304  154.2567 H   0  0  0  0  0  0  0  0  0  0  0  0
  147.2436  132.0665  153.2730 H   0  0  0  0  0  0  0  0  0  0  0  0
  145.9231  130.9493  152.9213 H   0  0  0  0  0  0  0  0  0  0  0  0
  146.2953  131.3575  154.5852 H   0  0  0  0  0  0  0  0  0  0  0  0
  146.0120  133.7269  151.6653 H   0  0  0  0  0  0  0  0  0  0  0  0
  144.3209  134.0981  152.0255 H   0  0  0  0  0  0  0  0  0  0  0  0
  144.7645  132.4892  151.4709 H   0  0  0  0  0  0  0  0  0  0  0  0
  147.0869  135.8372  155.8968 H   0  0  0  0  0  0  0  0  0  0  0  0
  146.6145  136.6713  154.4259 H   0  0  0  0  0  0  0  0  0  0  0  0
  149.7486  142.3746  156.8763 H   0  0  0  0  0  0  0  0  0  0  0  0
  149.3730  144.2531  158.2513 H   0  0  0  0  0  0  0  0  0  0  0  0
  150.8396  144.9761  158.9092 H   0  0  0  0  0  0  0  0  0  0  0  0
  149.7813  144.0104  159.9486 H   0  0  0  0  0  0  0  0  0  0  0  0
  144.3952  132.5555  153.8063 H   0  0  0  0  0  0  0  0  0  0  0  0
  148.8295  136.4952  153.6475 H   0  0  0  0  0  0  0  0  0  0  0  0
  1  2  1  0  0  0  0
  1 26  1  0  0  0  0
  1 27  1  0  0  0  0
  1 28  1  0  0  0  0
  2 24  1  0  0  0  0
  2  3  2  0  0  0  0
  3  4  1  0  0  0  0
  3 29  1  0  0  0  0
  4 22  2  0  0  0  0
  4  5  1  0  0  0  0
  5  6  2  0  0  0  0
  6  7  1  0  0  0  0
  6 30  1  0  0  0  0
  7  8  1  0  0  0  0
  7 22  1  0  0  0  0
  8  9  1  0  0  0  0
  8 31  1  0  0  0  0
  8 32  1  0  0  0  0
  9 10  1  0  0  0  0
  9 11  1  0  0  0  0
  9 33  1  0  0  0  0
 10 34  1  0  0  0  0
 11 12  1  0  0  0  0
 11 35  1  0  0  0  0
 11 36  1  0  0  0  0
 12 21  1  0  0  0  0
 12 13  1  0  0  0  0
 12 57  1  0  0  0  0
 13 14  1  0  0  0  0
 13 37  1  0  0  0  0
 13 38  1  0  0  0  0
 14 15  1  0  0  0  0
 14 39  1  0  0  0  0
 14 40  1  0  0  0  0
 15 16  1  0  0  0  0
 16 17  1  0  0  0  0
 16 21  1  0  0  0  0
 16 41  1  0  0  0  0
 17 18  1  0  0  0  0
 17 42  1  0  0  0  0
 17 43  1  0  0  0  0
 18 19  1  0  0  0  0
 18 20  1  0  0  0  0
 18 56  1  0  0  0  0
 19 44  1  0  0  0  0
 19 45  1  0  0  0  0
 19 46  1  0  0  0  0
 20 47  1  0  0  0  0
 20 48  1  0  0  0  0
 20 49  1  0  0  0  0
 21 50  1  0  0  0  0
 21 51  1  0  0  0  0
 22 23  1  0  0  0  0
 23 24  2  0  0  0  0
 23 52  1  0  0  0  0
 24 25  1  0  0  0  0
 25 53  1  0  0  0  0
 25 54  1  0  0  0  0
 25 55  1  0  0  0  0
M  CHG  1  12   1
M  CHG  1  18   1
M  END
> <s_m_source_file>
AV-unprocessed.smi

> <i_m_source_file_index>
1005

> <i_lp_mmshare_version>
43012

> <i_f3d_flags>
0

> <s_epik_input>
W0NIM11jKFtjSF0xKWMoW0NIM10pW2NIXWMoYzEyKW4oW2NIXW4yKVtDSDJdW0NASF0oW09IXSlbQ0gyXU4zW0NIMl1bQ0gyXU9bQ0BIXShbQ0gyXTMpW0NIMl1OKFtDSDNdKVtDSDNd

> <s_epik_cmdline>
J2VwaWtfcHl0aG9uJywgJy1waCcsICc3LjAnLCAnLXRuJywgJzgnLCAnLW1hJywgJzIwMCcsICctbWV0YWxfYmluZGluZycsICctaW1hZScsICc8aW5maWxlLm1hZT4nLCAnLW9tYWUnLCAnPG91dGZpbGUubWFlPic=

> <r_epik_Ionization_Penalty>
1.0968

> <r_epik_Ionization_Penalty_Charging>
1.0096

> <r_epik_Ionization_Penalty_Neutral>
0.0871956

> <r_epik_State_Penalty>
1.31185

> <r_epik_Charging_Adjusted_Penalty>
2.32145

> <i_epik_Tot_Q>
2

> <i_epik_Tot_abs_Q>
2

> <r_epik_Metal_State_Penalty>
1.22442

> <b_epik_Metal_Only>
0

> <s_lp_Force_Field>
OPLS_2005

> <r_lp_Energy>
32.7622

> <b_lp_Chiralities_Consistent>
1

> <s_lp_Variant>
AV-unprocessed.smi:1005-5

> <Gold.Version>
5.8.1

> <Gold.Id.Protein>
6NUR|6NUR_protein|mol2

> <Gold.PLP.Fitness>
56.8255

> <Gold.PLP.PLP>
-40.6817

> <Gold.PLP.part.hbond>
-4.7039

> <Gold.PLP.part.metal>
0.0000

> <Gold.PLP.part.buried>
-5.2902

> <Gold.PLP.part.nonpolar>
-31.2046

> <Gold.PLP.part.repulsive>
0.0553

> <Gold.PLP.ligand.clash>
0.0000

> <Gold.PLP.ligand.torsion>
1.1281

> <Gold.PLP.Chemscore.Hbond>
6.0000

> <Gold.PLP.Chemscore.CHOScore>
0.0000

> <Gold.PLP.Chemscore.Metal>
0.0000

> <Gold.Chemscore.Hbonds>
donor molecule, donor type, donor heavy atom, donor atom, acceptor molecule, acceptor atom, score
      L1  H    10    34       P1  7948  1.00
      L1  H    12    57       P1  7948  2.00
      L1  H    18    56       P1 10957  1.53
      P1  H  7997  8008       L1     5  0.76

> <Gold.PLP.Chemscore.Internal.Correction>
0.3999

> <Gold.Rescore>
     Score         DG    S(hbond)    S(metal)    S(lipo)     H(rot)  DE(clash)    DE(int)     intcor
     18.87     -21.61       3.11        0.00     103.30       2.48       0.27       2.47       ----

> <Gold.Chemscore.Fitness>
18.8700

> <Gold.Chemscore.DG>
-21.6112

> <Gold.Chemscore.ZeroCoef>
-5.4800

> <Gold.Chemscore.Hbond>
3.1131

> <Gold.Chemscore.Metal>
0.0000

> <Gold.Chemscore.Lipo>
103.2978

> <Gold.Chemscore.Internal_Hbond>
0.0000

> <Gold.Chemscore.DEClash>
0.2718

> <Gold.Chemscore.DEInternal>
2.4694

> <Gold.Chemscore.Rot>
2.4814

> <Gold.Chemscore.Internal.Correction>
   9.000000E+99

> <Gold.Chemscore.Hbonds>
donor molecule, donor type, donor heavy atom, donor atom, acceptor molecule, acceptor atom, score
      L1  H    10    34       P1  7948  0.37
      L1  H    12    57       P1  7948  1.00
      L1  H    18    56       P1 10957  0.38
      P1  H  7997  8008       L1     5  0.02

> <Gold.Chemscore.Hbond.Weighted>
-10.3977

> <Gold.Chemscore.Metal.Weighted>
-0.0000

> <Gold.Chemscore.Lipo.Weighted>
-12.0858

> <Gold.Chemscore.Internal_Hbond.Weighted>
0.0000

> <Gold.Chemscore.DEClash.Weighted>
0.2718

> <Gold.Chemscore.DEInternal.Weighted>
2.4694

> <Gold.Chemscore.Rot.Weighted>
6.3524

> <Gold.Chemscore.Internal.Correction.Weighted>
   9.000000E+99

> <Gold.Protein.RotatedTorsions>
[ 6907 6896 6895 6894 ] final -147.37 input  -60.11 | X-H torsion
[ 7974 7965 7964 7962 ] final   10.88 input  175.53 | X-H torsion
[ 8008 7997 7996 7995 ] final  -48.78 input   59.86 | X-H torsion
[ 10167 10162 10161 10158 ] final -157.71 input  -65.29 | X-H torsion
[ 10718 10713 10712 10709 ] final  -33.03 input   66.30 | X-H torsion
[ 10763 10752 10751 10750 ] final -107.11 input  -60.55 | X-H torsion
[ 11005 11000 10999 10996 ] final   43.04 input  -57.11 | X-H torsion

> <Gold.Protein.ActiveResidues>
 VAL166  LYS551  ARG553  GLY616  TRP617  ASP618  TYR619  PRO620  LYS621  CYS622 
 ASP623  PHE694  ASN695  SER759  ASP760  ASP761  ALA762  ILE779  LEU786  VAL792 
 PHE793  MET794  SER795  GLU796  ALA797  LYS798  CYS799  TRP800  GLU811  SER814 

> <Gold.Protein.RotatedAtoms>
  151.1547  133.4884  159.2594 H   0  0  0  0  0  0  0  0  0  0  0  0  # atno 6907 bound_to 6896
  151.1517  135.0230  159.8681 H   0  0  0  0  0  0  0  0  0  0  0  0  # atno 6908 bound_to 6896
  152.5463  134.1430  159.8540 H   0  0  0  0  0  0  0  0  0  0  0  0  # atno 6909 bound_to 6896
  146.2381  139.9568  142.8463 H   0  0  0  0  0  0  0  0  0  0  0  0  # atno 7974 bound_to 7965
  154.4034  140.1313  156.4396 H   0  0  0  0  0  0  0  0  0  0  0  0  # atno 8008 bound_to 7997
  155.7472  140.3489  155.5113 H   0  0  0  0  0  0  0  0  0  0  0  0  # atno 8009 bound_to 7997
  155.8983  140.1015  157.1358 H   0  0  0  0  0  0  0  0  0  0  0  0  # atno 8010 bound_to 7997
  139.6749  143.9681  152.2304 H   0  0  0  0  0  0  0  0  0  0  0  0  # atno 10167 bound_to 10162
  156.3676  130.4334  149.7572 H   0  0  0  0  0  0  0  0  0  0  0  0  # atno 10718 bound_to 10713
  154.8055  135.4687  154.0381 H   0  0  0  0  0  0  0  0  0  0  0  0  # atno 10763 bound_to 10752
  153.1854  135.6847  153.8430 H   0  0  0  0  0  0  0  0  0  0  0  0  # atno 10764 bound_to 10752
  153.7966  135.3236  155.3362 H   0  0  0  0  0  0  0  0  0  0  0  0  # atno 10765 bound_to 10752
  140.1682  134.4255  155.8274 H   0  0  0  0  0  0  0  0  0  0  0  0  # atno 11005 bound_to 11000
  145.1809  140.9766  143.4267 LP  0  0  0  0  0  0  0  0  0  0  0  0  # atno 17320 bound_to 7965
  144.9943  139.3659  143.6199 LP  0  0  0  0  0  0  0  0  0  0  0  0  # atno 17321 bound_to 7965
  139.9456  144.6654  150.8223 LP  0  0  0  0  0  0  0  0  0  0  0  0  # atno 17342 bound_to 10162
  140.7631  143.3216  151.2609 LP  0  0  0  0  0  0  0  0  0  0  0  0  # atno 17343 bound_to 10162
  156.4711  130.7997  151.3015 LP  0  0  0  0  0  0  0  0  0  0  0  0  # atno 17370 bound_to 10713
  157.7480  131.0035  150.3042 LP  0  0  0  0  0  0  0  0  0  0  0  0  # atno 17371 bound_to 10713
  141.2215  133.6944  156.7716 LP  0  0  0  0  0  0  0  0  0  0  0  0  # atno 17394 bound_to 11000
  140.2409  134.8614  157.3572 LP  0  0  0  0  0  0  0  0  0  0  0  0  # atno 17395 bound_to 11000

$$$$
