AV-unprocessed.smi:1261|AV-procd|sdf|5302|dock9
  -GOLD-   22720 4423D 1   1.00000     0.00000
 Structure written by MMmdl.
 49 50  0  0  0  0  0  0  0  0  3 V2000
  151.6830  145.4988  159.5344 C   0  0  0  0  0  0  0  0  0  0  0  0
  152.0745  144.0597  159.1707 C   0  0  1  0  0  0  0  0  0  0  0  0
  152.7828  143.3574  160.3411 C   0  0  0  0  0  0  0  0  0  0  0  0
  153.1506  141.9131  159.9632 C   0  0  1  0  0  0  0  0  0  0  0  0
  153.8419  141.1883  161.1266 C   0  0  0  0  0  0  0  0  0  0  0  0
  151.8974  141.1525  159.4884 C   0  0  0  0  0  0  0  0  0  0  0  0
  151.2342  141.8490  158.3554 N   0  3  1  0  0  0  0  0  0  0  0  0
  150.1092  141.0571  157.7958 C   0  0  0  0  0  0  0  0  0  0  0  0
  150.5798  139.7659  157.1043 C   0  0  0  0  0  0  0  0  0  0  0  0
  150.5991  138.5666  158.0657 C   0  0  0  0  0  0  0  0  0  0  0  0
  149.2510  138.1384  158.4169 N   0  0  0  0  0  0  0  0  0  0  0  0
  148.8943  136.8805  158.7177 C   0  0  0  0  0  0  0  0  0  0  0  0
  149.6901  135.9415  158.7566 O   0  0  0  0  0  0  0  0  0  0  0  0
  147.4138  136.6550  159.0434 C   0  0  0  0  0  0  0  0  0  0  0  0
  147.2251  136.1547  160.4107 N   0  0  0  0  0  0  0  0  0  0  0  0
  147.6593  137.0954  161.4406 N   0  5  0  0  0  0  0  0  0  0  0  0
  147.5141  136.7584  162.7496 C   0  0  0  0  0  0  0  0  0  0  0  0
  147.8466  137.5022  163.6695 O   0  0  0  0  0  0  0  0  0  0  0  0
  146.9411  135.4598  163.0624 C   0  0  0  0  0  0  0  0  0  0  0  0
  146.5587  134.6074  162.0912 C   0  0  0  0  0  0  0  0  0  0  0  0
  146.6890  134.9291  160.6750 C   0  0  0  0  0  0  0  0  0  0  0  0
  146.3401  134.1547  159.7841 O   0  0  0  0  0  0  0  0  0  0  0  0
  150.8510  143.2393  158.7188 C   0  0  0  0  0  0  0  0  0  0  0  0
  150.9815  145.5207  160.3690 H   0  0  0  0  0  0  0  0  0  0  0  0
  151.2119  146.0035  158.6905 H   0  0  0  0  0  0  0  0  0  0  0  0
  152.5579  146.0837  159.8197 H   0  0  0  0  0  0  0  0  0  0  0  0
  152.7737  144.1122  158.3346 H   0  0  0  0  0  0  0  0  0  0  0  0
  153.6817  143.9099  160.6181 H   0  0  0  0  0  0  0  0  0  0  0  0
  152.1351  143.3571  161.2192 H   0  0  0  0  0  0  0  0  0  0  0  0
  153.8581  141.9500  159.1331 H   0  0  0  0  0  0  0  0  0  0  0  0
  153.1875  141.1188  161.9961 H   0  0  0  0  0  0  0  0  0  0  0  0
  154.7476  141.7125  161.4329 H   0  0  0  0  0  0  0  0  0  0  0  0
  154.1289  140.1749  160.8443 H   0  0  0  0  0  0  0  0  0  0  0  0
  152.1872  140.1477  159.1778 H   0  0  0  0  0  0  0  0  0  0  0  0
  151.1876  141.0378  160.3096 H   0  0  0  0  0  0  0  0  0  0  0  0
  149.4358  140.7755  158.6064 H   0  0  0  0  0  0  0  0  0  0  0  0
  149.5247  141.6730  157.1105 H   0  0  0  0  0  0  0  0  0  0  0  0
  149.9305  139.5327  156.2608 H   0  0  0  0  0  0  0  0  0  0  0  0
  151.5796  139.9151  156.6945 H   0  0  0  0  0  0  0  0  0  0  0  0
  151.1087  137.7228  157.6001 H   0  0  0  0  0  0  0  0  0  0  0  0
  151.1615  138.8081  158.9693 H   0  0  0  0  0  0  0  0  0  0  0  0
  148.5236  138.8394  158.3973 H   0  0  0  0  0  0  0  0  0  0  0  0
  146.8705  137.5908  158.9018 H   0  0  0  0  0  0  0  0  0  0  0  0
  146.9826  135.9608  158.3194 H   0  0  0  0  0  0  0  0  0  0  0  0
  146.8206  135.1715  164.0962 H   0  0  0  0  0  0  0  0  0  0  0  0
  146.1389  133.6524  162.3701 H   0  0  0  0  0  0  0  0  0  0  0  0
  150.0994  143.2137  159.5097 H   0  0  0  0  0  0  0  0  0  0  0  0
  150.3916  143.7366  157.8654 H   0  0  0  0  0  0  0  0  0  0  0  0
  151.9268  141.9159  157.6232 H   0  0  0  0  0  0  0  0  0  0  0  0
  1  2  1  0  0  0  0
  1 24  1  0  0  0  0
  1 25  1  0  0  0  0
  1 26  1  0  0  0  0
  2 23  1  0  0  0  0
  2  3  1  0  0  0  0
  2 27  1  0  0  0  0
  3  4  1  0  0  0  0
  3 28  1  0  0  0  0
  3 29  1  0  0  0  0
  4  5  1  0  0  0  0
  4  6  1  0  0  0  0
  4 30  1  0  0  0  0
  5 31  1  0  0  0  0
  5 32  1  0  0  0  0
  5 33  1  0  0  0  0
  6  7  1  0  0  0  0
  6 34  1  0  0  0  0
  6 35  1  0  0  0  0
  7  8  1  0  0  0  0
  7 23  1  0  0  0  0
  7 49  1  0  0  0  0
  8  9  1  0  0  0  0
  8 36  1  0  0  0  0
  8 37  1  0  0  0  0
  9 10  1  0  0  0  0
  9 38  1  0  0  0  0
  9 39  1  0  0  0  0
 10 11  1  0  0  0  0
 10 40  1  0  0  0  0
 10 41  1  0  0  0  0
 11 12  1  0  0  0  0
 11 42  1  0  0  0  0
 12 13  2  0  0  0  0
 12 14  1  0  0  0  0
 14 43  1  0  0  0  0
 14 44  1  0  0  0  0
 14 15  1  0  0  0  0
 15 16  1  0  0  0  0
 15 21  1  0  0  0  0
 16 17  1  0  0  0  0
 17 18  2  0  0  0  0
 17 19  1  0  0  0  0
 19 45  1  0  0  0  0
 19 20  2  0  0  0  0
 20 46  1  0  0  0  0
 20 21  1  0  0  0  0
 21 22  2  0  0  0  0
 23 47  1  0  0  0  0
 23 48  1  0  0  0  0
M  CHG  1   7   1
M  CHG  1  16  -1
M  END
> <s_m_source_file>
AV-unprocessed.smi

> <i_m_source_file_index>
1261

> <i_lp_mmshare_version>
43012

> <i_f3d_flags>
0

> <s_epik_input>
W0NIM11bQ0BASF0xW0NIMl1bQ0BASF0oW0NIM10pW0NIMl1OKFtDSDJdMSlbQ0gyXVtDSDJdW0NIMl1bTkhdQyg9TylbQ0gyXW4yW25IXWMoPU8pW2NIXVtjSF1jMj1P

> <s_epik_cmdline>
J2VwaWtfcHl0aG9uJywgJy1waCcsICc3LjAnLCAnLXRuJywgJzgnLCAnLW1hJywgJzIwMCcsICctbWV0YWxfYmluZGluZycsICctaW1hZScsICc8aW5maWxlLm1hZT4nLCAnLW9tYWUnLCAnPG91dGZpbGUubWFlPic=

> <r_lp_tautomer_probability>
1

> <r_epik_Ionization_Penalty>
0.0955723

> <r_epik_Ionization_Penalty_Charging>
0.0955723

> <r_epik_Ionization_Penalty_Neutral>
2.68632e-08

> <r_epik_State_Penalty>
0.0334406

> <r_epik_Charging_Adjusted_Penalty>
0.129013

> <i_epik_Tot_Q>
0

> <i_epik_Tot_abs_Q>
2

> <r_epik_Metal_State_Penalty>
0.0334406

> <b_epik_Metal_Only>
0

> <s_lp_Force_Field>
OPLS_2005

> <r_lp_Energy>
31.5278

> <b_lp_Chiralities_Consistent>
1

> <s_lp_Variant>
AV-unprocessed.smi:1261-2

> <Gold.Version>
5.8.1

> <Gold.Id.Protein>
6NUR|6NUR_protein|mol2

> <Gold.PLP.Fitness>
56.7135

> <Gold.PLP.PLP>
-46.0706

> <Gold.PLP.part.hbond>
-4.0000

> <Gold.PLP.part.metal>
0.0000

> <Gold.PLP.part.buried>
-5.2419

> <Gold.PLP.part.nonpolar>
-38.4858

> <Gold.PLP.part.repulsive>
0.3237

> <Gold.PLP.ligand.clash>
0.0000

> <Gold.PLP.ligand.torsion>
0.4964

> <Gold.PLP.Chemscore.Hbond>
3.8591

> <Gold.PLP.Chemscore.CHOScore>
0.0000

> <Gold.PLP.Chemscore.Metal>
0.0000

> <Gold.Chemscore.Hbonds>
donor molecule, donor type, donor heavy atom, donor atom, acceptor molecule, acceptor atom, score
      P1  H  6896  6908       L1    13  1.00
      P1  H  6931  6943       L1    16  0.90
      P1  H  6934  6947       L1    16  1.56

> <Gold.PLP.Chemscore.Internal.Correction>
0.0585

> <Gold.Rescore>
     Score         DG    S(hbond)    S(metal)    S(lipo)     H(rot)  DE(clash)    DE(int)     intcor
     16.79     -17.48       1.84        0.00     104.49       2.49       0.08       0.61       ----

> <Gold.Chemscore.Fitness>
16.7880

> <Gold.Chemscore.DG>
-17.4781

> <Gold.Chemscore.ZeroCoef>
-5.4800

> <Gold.Chemscore.Hbond>
1.8435

> <Gold.Chemscore.Metal>
0.0000

> <Gold.Chemscore.Lipo>
104.4870

> <Gold.Chemscore.Internal_Hbond>
0.0000

> <Gold.Chemscore.DEClash>
0.0814

> <Gold.Chemscore.DEInternal>
0.6087

> <Gold.Chemscore.Rot>
2.4938

> <Gold.Chemscore.Internal.Correction>
   9.000000E+99

> <Gold.Chemscore.Hbonds>
donor molecule, donor type, donor heavy atom, donor atom, acceptor molecule, acceptor atom, score
      P1  H  6896  6908       L1    13  1.00
      P1  H  6931  6943       L1    16  0.02
      P1  H  6934  6947       L1    16  0.56

> <Gold.Chemscore.Hbond.Weighted>
-6.1572

> <Gold.Chemscore.Metal.Weighted>
-0.0000

> <Gold.Chemscore.Lipo.Weighted>
-12.2250

> <Gold.Chemscore.Internal_Hbond.Weighted>
0.0000

> <Gold.Chemscore.DEClash.Weighted>
0.0814

> <Gold.Chemscore.DEInternal.Weighted>
0.6087

> <Gold.Chemscore.Rot.Weighted>
6.3840

> <Gold.Chemscore.Internal.Correction.Weighted>
   9.000000E+99

> <Gold.Protein.RotatedTorsions>
[ 6907 6896 6895 6894 ] final  173.14 input  -60.11 | X-H torsion
[ 7974 7965 7964 7962 ] final   70.47 input  175.53 | X-H torsion
[ 8008 7997 7996 7995 ] final  -12.18 input   59.86 | X-H torsion
[ 10167 10162 10161 10158 ] final  -17.52 input  -65.29 | X-H torsion
[ 10718 10713 10712 10709 ] final  -95.01 input   66.30 | X-H torsion
[ 10763 10752 10751 10750 ] final   20.65 input  -60.55 | X-H torsion
[ 11005 11000 10999 10996 ] final  116.54 input  -57.11 | X-H torsion

> <Gold.Protein.ActiveResidues>
 VAL166  LYS551  ARG553  GLY616  TRP617  ASP618  TYR619  PRO620  LYS621  CYS622 
 ASP623  PHE694  ASN695  SER759  ASP760  ASP761  ALA762  ILE779  LEU786  VAL792 
 PHE793  MET794  SER795  GLU796  ALA797  LYS798  CYS799  TRP800  GLU811  SER814 

> <Gold.Protein.RotatedAtoms>
  151.7731  133.3343  159.3449 H   0  0  0  0  0  0  0  0  0  0  0  0  # atno 6907 bound_to 6896
  150.7454  134.6000  159.6041 H   0  0  0  0  0  0  0  0  0  0  0  0  # atno 6908 bound_to 6896
  152.3327  134.7239  160.0336 H   0  0  0  0  0  0  0  0  0  0  0  0  # atno 6909 bound_to 6896
  145.7778  139.2873  143.1283 H   0  0  0  0  0  0  0  0  0  0  0  0  # atno 7974 bound_to 7965
  154.5400  140.2283  155.8657 H   0  0  0  0  0  0  0  0  0  0  0  0  # atno 8008 bound_to 7997
  156.1849  140.3091  155.9181 H   0  0  0  0  0  0  0  0  0  0  0  0  # atno 8009 bound_to 7997
  155.3277  140.0444  157.3032 H   0  0  0  0  0  0  0  0  0  0  0  0  # atno 8010 bound_to 7997
  140.7248  143.5007  150.9873 H   0  0  0  0  0  0  0  0  0  0  0  0  # atno 10167 bound_to 10162
  156.0036  130.5091  150.6012 H   0  0  0  0  0  0  0  0  0  0  0  0  # atno 10718 bound_to 10713
  153.1060  135.6685  153.9586 H   0  0  0  0  0  0  0  0  0  0  0  0  # atno 10763 bound_to 10752
  153.9143  135.3021  155.3450 H   0  0  0  0  0  0  0  0  0  0  0  0  # atno 10764 bound_to 10752
  154.7481  135.5048  153.9316 H   0  0  0  0  0  0  0  0  0  0  0  0  # atno 10765 bound_to 10752
  139.9045  134.9599  156.7214 H   0  0  0  0  0  0  0  0  0  0  0  0  # atno 11005 bound_to 11000
  146.0105  140.8440  142.9973 LP  0  0  0  0  0  0  0  0  0  0  0  0  # atno 17320 bound_to 7965
  144.6801  140.2482  143.7335 LP  0  0  0  0  0  0  0  0  0  0  0  0  # atno 17321 bound_to 7965
  139.8716  143.7185  152.3166 LP  0  0  0  0  0  0  0  0  0  0  0  0  # atno 17342 bound_to 10162
  139.7436  144.7553  151.0615 LP  0  0  0  0  0  0  0  0  0  0  0  0  # atno 17343 bound_to 10162
  157.3861  131.0788  151.1435 LP  0  0  0  0  0  0  0  0  0  0  0  0  # atno 17370 bound_to 10713
  157.2142  130.6451  149.5785 LP  0  0  0  0  0  0  0  0  0  0  0  0  # atno 17371 bound_to 10713
  140.6997  133.9317  155.8017 LP  0  0  0  0  0  0  0  0  0  0  0  0  # atno 17394 bound_to 11000
  141.0380  134.0661  157.3935 LP  0  0  0  0  0  0  0  0  0  0  0  0  # atno 17395 bound_to 11000

$$$$
