AV-unprocessed.smi:1301|AV-procd|sdf|5422|dock4
  -GOLD-   22720 4583D 1   1.00000     0.00000
 Structure written by MMmdl.
 45 46  0  0  0  0  0  0  0  0  2 V2000
  153.7370  141.7202  160.0472 C   0  0  0  0  0  0  0  0  0  0  0  0
  152.8171  141.5946  158.8811 C   0  0  0  0  0  0  0  0  0  0  0  0
  151.7967  142.3746  158.4140 C   0  0  0  0  0  0  0  0  0  0  0  0
  151.3491  141.6640  157.2688 C   0  0  0  0  0  0  0  0  0  0  0  0
  150.2753  142.1528  156.4814 N   0  0  0  0  0  0  0  0  0  0  0  0
  149.7001  141.5559  155.4233 C   0  0  0  0  0  0  0  0  0  0  0  0
  150.0280  140.4635  154.9598 O   0  0  0  0  0  0  0  0  0  0  0  0
  148.7056  142.3029  154.9205 N   0  0  0  0  0  0  0  0  0  0  0  0
  147.8580  141.9251  153.7897 C   0  0  2  0  0  0  0  0  0  0  0  0
  146.6649  142.8860  153.6165 C   0  0  0  0  0  0  0  0  0  0  0  0
  145.6161  142.7120  154.7286 C   0  0  0  0  0  0  0  0  0  0  0  0
  145.1474  141.3048  154.8052 N   0  3  2  0  0  0  0  0  0  0  0  0
  144.0172  141.1363  155.7552 C   0  0  0  0  0  0  0  0  0  0  0  0
  144.4416  141.2824  157.2329 C   0  0  0  0  0  0  0  0  0  0  0  0
  143.4273  140.6325  158.1894 C   0  0  0  0  0  0  0  0  0  0  0  0
  144.6432  142.7621  157.5927 C   0  0  0  0  0  0  0  0  0  0  0  0
  146.2760  140.3698  155.0561 C   0  0  0  0  0  0  0  0  0  0  0  0
  147.3465  140.4836  153.9552 C   0  0  0  0  0  0  0  0  0  0  0  0
  152.0347  140.5516  157.0551 N   0  0  0  0  0  0  0  0  0  0  0  0
  152.9781  140.5006  158.0880 O   0  0  0  0  0  0  0  0  0  0  0  0
  153.9253  142.7679  160.2815 H   0  0  0  0  0  0  0  0  0  0  0  0
  154.6957  141.2435  159.8416 H   0  0  0  0  0  0  0  0  0  0  0  0
  153.3065  141.2474  160.9296 H   0  0  0  0  0  0  0  0  0  0  0  0
  151.4317  143.3024  158.8287 H   0  0  0  0  0  0  0  0  0  0  0  0
  149.9011  143.0476  156.7599 H   0  0  0  0  0  0  0  0  0  0  0  0
  148.5039  143.1849  155.3682 H   0  0  0  0  0  0  0  0  0  0  0  0
  148.4714  141.9619  152.8875 H   0  0  0  0  0  0  0  0  0  0  0  0
  147.0043  143.9218  153.5804 H   0  0  0  0  0  0  0  0  0  0  0  0
  146.1921  142.6937  152.6525 H   0  0  0  0  0  0  0  0  0  0  0  0
  146.0267  143.0162  155.6928 H   0  0  0  0  0  0  0  0  0  0  0  0
  144.7720  143.3715  154.5223 H   0  0  0  0  0  0  0  0  0  0  0  0
  143.2299  141.8500  155.5070 H   0  0  0  0  0  0  0  0  0  0  0  0
  143.5777  140.1459  155.6265 H   0  0  0  0  0  0  0  0  0  0  0  0
  145.4029  140.7913  157.3810 H   0  0  0  0  0  0  0  0  0  0  0  0
  142.4379  141.0781  158.0815 H   0  0  0  0  0  0  0  0  0  0  0  0
  143.7343  140.7555  159.2284 H   0  0  0  0  0  0  0  0  0  0  0  0
  143.3330  139.5620  158.0058 H   0  0  0  0  0  0  0  0  0  0  0  0
  143.7177  143.3282  157.4813 H   0  0  0  0  0  0  0  0  0  0  0  0
  145.3953  143.2244  156.9527 H   0  0  0  0  0  0  0  0  0  0  0  0
  144.9784  142.8741  158.6243 H   0  0  0  0  0  0  0  0  0  0  0  0
  146.7140  140.5791  156.0330 H   0  0  0  0  0  0  0  0  0  0  0  0
  145.9182  139.3416  155.0889 H   0  0  0  0  0  0  0  0  0  0  0  0
  146.9181  140.1468  153.0101 H   0  0  0  0  0  0  0  0  0  0  0  0
  148.1772  139.8090  154.1668 H   0  0  0  0  0  0  0  0  0  0  0  0
  144.7798  141.0846  153.8904 H   0  0  0  0  0  0  0  0  0  0  0  0
  1  2  1  0  0  0  0
  1 21  1  0  0  0  0
  1 22  1  0  0  0  0
  1 23  1  0  0  0  0
  2 20  1  0  0  0  0
  2  3  2  0  0  0  0
  3  4  1  0  0  0  0
  3 24  1  0  0  0  0
  4  5  1  0  0  0  0
  4 19  2  0  0  0  0
  5  6  1  0  0  0  0
  5 25  1  0  0  0  0
  6  7  2  0  0  0  0
  6  8  1  0  0  0  0
  8  9  1  0  0  0  0
  8 26  1  0  0  0  0
  9 18  1  0  0  0  0
  9 10  1  0  0  0  0
  9 27  1  0  0  0  0
 10 11  1  0  0  0  0
 10 28  1  0  0  0  0
 10 29  1  0  0  0  0
 11 12  1  0  0  0  0
 11 30  1  0  0  0  0
 11 31  1  0  0  0  0
 12 13  1  0  0  0  0
 12 17  1  0  0  0  0
 12 45  1  0  0  0  0
 13 14  1  0  0  0  0
 13 32  1  0  0  0  0
 13 33  1  0  0  0  0
 14 15  1  0  0  0  0
 14 16  1  0  0  0  0
 14 34  1  0  0  0  0
 15 35  1  0  0  0  0
 15 36  1  0  0  0  0
 15 37  1  0  0  0  0
 16 38  1  0  0  0  0
 16 39  1  0  0  0  0
 16 40  1  0  0  0  0
 17 18  1  0  0  0  0
 17 41  1  0  0  0  0
 17 42  1  0  0  0  0
 18 43  1  0  0  0  0
 18 44  1  0  0  0  0
 19 20  1  0  0  0  0
M  CHG  1  12   1
M  END
> <s_m_source_file>
AV-unprocessed.smi

> <i_m_source_file_index>
1301

> <i_lp_mmshare_version>
43012

> <i_f3d_flags>
0

> <s_epik_input>
W0NIM11jMVtjSF1jKG5vMSlbTkhdQyg9TylbTkhdW0NIXTJbQ0gyXVtDSDJdTihbQ0gyXVtDSDJdMilbQ0gyXVtDSF0oW0NIM10pW0NIM10=

> <s_epik_cmdline>
J2VwaWtfcHl0aG9uJywgJy1waCcsICc3LjAnLCAnLXRuJywgJzgnLCAnLW1hJywgJzIwMCcsICctbWV0YWxfYmluZGluZycsICctaW1hZScsICc8aW5maWxlLm1hZT4nLCAnLW9tYWUnLCAnPG91dGZpbGUubWFlPic=

> <r_epik_Ionization_Penalty>
0.0020743

> <r_epik_Ionization_Penalty_Charging>
0.0020412

> <r_epik_Ionization_Penalty_Neutral>
3.31029e-05

> <r_epik_State_Penalty>
0.00139626

> <r_epik_Charging_Adjusted_Penalty>
0.00343746

> <i_epik_Tot_Q>
1

> <i_epik_Tot_abs_Q>
1

> <r_epik_Metal_State_Penalty>
0.0141509

> <b_epik_Metal_Only>
0

> <s_lp_Force_Field>
OPLS_2005

> <r_lp_Energy>
16.729

> <b_lp_Chiralities_Consistent>
1

> <s_lp_Variant>
AV-unprocessed.smi:1301-2

> <Gold.Version>
5.8.1

> <Gold.Id.Protein>
6NUR|6NUR_protein|mol2

> <Gold.PLP.Fitness>
41.2818

> <Gold.PLP.PLP>
-28.1281

> <Gold.PLP.part.hbond>
-4.6867

> <Gold.PLP.part.metal>
0.0000

> <Gold.PLP.part.buried>
-2.5886

> <Gold.PLP.part.nonpolar>
-18.9306

> <Gold.PLP.part.repulsive>
0.3592

> <Gold.PLP.ligand.clash>
0.0000

> <Gold.PLP.ligand.torsion>
0.3139

> <Gold.PLP.Chemscore.Hbond>
4.5802

> <Gold.PLP.Chemscore.CHOScore>
0.0000

> <Gold.PLP.Chemscore.Metal>
0.0000

> <Gold.Chemscore.Hbonds>
donor molecule, donor type, donor heavy atom, donor atom, acceptor molecule, acceptor atom, score
      L1  H     5    25       P1  8028  0.32
      L1  H     8    26       P1  8028  1.00
      L1  H    12    45       P1 10175  2.00
      P1  H  7989  7998       L1     7  0.54
      P1  H  7997  8010       L1    20  0.75

> <Gold.PLP.Chemscore.Internal.Correction>
0.0408

> <Gold.Rescore>
     Score         DG    S(hbond)    S(metal)    S(lipo)     H(rot)  DE(clash)    DE(int)     intcor
     14.58     -18.87       2.90        0.00      62.82       1.43       1.24       3.05       ----

> <Gold.Chemscore.Fitness>
14.5805

> <Gold.Chemscore.DG>
-18.8716

> <Gold.Chemscore.ZeroCoef>
-5.4800

> <Gold.Chemscore.Hbond>
2.9046

> <Gold.Chemscore.Metal>
0.0000

> <Gold.Chemscore.Lipo>
62.8246

> <Gold.Chemscore.Internal_Hbond>
0.0000

> <Gold.Chemscore.DEClash>
1.2425

> <Gold.Chemscore.DEInternal>
3.0486

> <Gold.Chemscore.Rot>
1.4298

> <Gold.Chemscore.Internal.Correction>
   9.000000E+99

> <Gold.Chemscore.Hbonds>
donor molecule, donor type, donor heavy atom, donor atom, acceptor molecule, acceptor atom, score
      L1  H     5    25       P1  8028  0.32
      L1  H     8    26       P1  8028  0.94
      L1  H    12    45       P1 10175  0.74
      P1  H  7989  7998       L1     7  0.28
      P1  H  7997  8010       L1    20  0.22

> <Gold.Chemscore.Hbond.Weighted>
-9.7015

> <Gold.Chemscore.Metal.Weighted>
-0.0000

> <Gold.Chemscore.Lipo.Weighted>
-7.3505

> <Gold.Chemscore.Internal_Hbond.Weighted>
0.0000

> <Gold.Chemscore.DEClash.Weighted>
1.2425

> <Gold.Chemscore.DEInternal.Weighted>
3.0486

> <Gold.Chemscore.Rot.Weighted>
3.6604

> <Gold.Chemscore.Internal.Correction.Weighted>
   9.000000E+99

> <Gold.Protein.RotatedTorsions>
[ 6907 6896 6895 6894 ] final   30.51 input  -60.11 | X-H torsion
[ 7974 7965 7964 7962 ] final   20.75 input  175.53 | X-H torsion
[ 8008 7997 7996 7995 ] final   30.22 input   59.86 | X-H torsion
[ 10167 10162 10161 10158 ] final  -43.43 input  -65.29 | X-H torsion
[ 10718 10713 10712 10709 ] final  105.65 input   66.30 | X-H torsion
[ 10763 10752 10751 10750 ] final  -57.63 input  -60.55 | X-H torsion
[ 11005 11000 10999 10996 ] final -101.16 input  -57.11 | X-H torsion

> <Gold.Protein.ActiveResidues>
 VAL166  LYS551  ARG553  GLY616  TRP617  ASP618  TYR619  PRO620  LYS621  CYS622 
 ASP623  PHE694  ASN695  SER759  ASP760  ASP761  ALA762  ILE779  LEU786  VAL792 
 PHE793  MET794  SER795  GLU796  ALA797  LYS798  CYS799  TRP800  GLU811  SER814 

> <Gold.Protein.RotatedAtoms>
  152.0470  134.9677  160.0574 H   0  0  0  0  0  0  0  0  0  0  0  0  # atno 6907 bound_to 6896
  152.1093  133.4287  159.4631 H   0  0  0  0  0  0  0  0  0  0  0  0  # atno 6908 bound_to 6896
  150.6842  134.2586  159.4583 H   0  0  0  0  0  0  0  0  0  0  0  0  # atno 6909 bound_to 6896
  146.2099  139.8125  142.8697 H   0  0  0  0  0  0  0  0  0  0  0  0  # atno 7974 bound_to 7965
  155.0869  140.3216  155.4585 H   0  0  0  0  0  0  0  0  0  0  0  0  # atno 8008 bound_to 7997
  156.2753  140.2085  156.5943 H   0  0  0  0  0  0  0  0  0  0  0  0  # atno 8009 bound_to 7997
  154.6934  140.0514  157.0373 H   0  0  0  0  0  0  0  0  0  0  0  0  # atno 8010 bound_to 7997
  140.6934  143.2983  151.3351 H   0  0  0  0  0  0  0  0  0  0  0  0  # atno 10167 bound_to 10162
  157.6697  131.0832  150.5889 H   0  0  0  0  0  0  0  0  0  0  0  0  # atno 10718 bound_to 10713
  154.2255  135.6370  153.5158 H   0  0  0  0  0  0  0  0  0  0  0  0  # atno 10763 bound_to 10752
  152.9960  135.5507  154.6068 H   0  0  0  0  0  0  0  0  0  0  0  0  # atno 10764 bound_to 10752
  154.5539  135.2903  155.0957 H   0  0  0  0  0  0  0  0  0  0  0  0  # atno 10765 bound_to 10752
  141.1242  133.8456  157.1196 H   0  0  0  0  0  0  0  0  0  0  0  0  # atno 11005 bound_to 11000
  145.3181  141.0237  143.3516 LP  0  0  0  0  0  0  0  0  0  0  0  0  # atno 17320 bound_to 7965
  144.8886  139.4805  143.6688 LP  0  0  0  0  0  0  0  0  0  0  0  0  # atno 17321 bound_to 7965
  139.6361  144.0627  152.2517 LP  0  0  0  0  0  0  0  0  0  0  0  0  # atno 17342 bound_to 10162
  140.0118  144.6218  150.7641 LP  0  0  0  0  0  0  0  0  0  0  0  0  # atno 17343 bound_to 10162
  156.6189  130.4400  149.5830 LP  0  0  0  0  0  0  0  0  0  0  0  0  # atno 17370 bound_to 10713
  156.2371  130.6829  151.1520 LP  0  0  0  0  0  0  0  0  0  0  0  0  # atno 17371 bound_to 10713
  140.0225  134.9939  157.0620 LP  0  0  0  0  0  0  0  0  0  0  0  0  # atno 17394 bound_to 11000
  140.4417  134.1674  155.7174 LP  0  0  0  0  0  0  0  0  0  0  0  0  # atno 17395 bound_to 11000

$$$$
