AV-unprocessed.smi:1049|AV-procd|sdf|4610|dock6
  -GOLD-   22720 3103D 1   1.00000     0.00000
 Structure written by MMmdl.
 41 42  0  0  0  0  0  0  0  0  2 V2000
  150.6679  134.8374  155.2874 C   0  0  0  0  0  0  0  0  0  0  0  0
  150.3217  136.3260  155.4284 C   0  0  2  0  0  0  0  0  0  0  0  0
  148.8022  136.5691  155.2945 C   0  0  0  0  0  0  0  0  0  0  0  0
  148.4520  138.0694  155.2998 C   0  0  0  0  0  0  0  0  0  0  0  0
  149.3180  138.8388  154.2865 C   0  0  0  0  0  0  0  0  0  0  0  0
  150.7365  138.5992  154.6037 N   0  0  0  0  0  0  0  0  0  0  0  0
  151.5742  139.4664  155.2264 C   0  0  0  0  0  0  0  0  0  0  0  0
  152.7834  139.2683  155.3509 O   0  0  0  0  0  0  0  0  0  0  0  0
  150.9829  140.5756  155.7009 N   0  0  0  0  0  0  0  0  0  0  0  0
  151.6491  141.6370  156.4494 C   0  0  0  0  0  0  0  0  0  0  0  0
  150.9596  141.9637  157.7916 C   0  0  0  0  0  0  0  0  0  0  0  0
  151.8923  142.1067  158.9591 C   0  0  0  0  0  0  0  0  0  0  0  0
  152.5983  141.1073  159.5025 N   0  3  0  0  0  0  0  0  0  0  0  0
  153.3386  141.5620  160.5583 C   0  0  0  0  0  0  0  0  0  0  0  0
  153.0763  142.9025  160.6641 C   0  0  0  0  0  0  0  0  0  0  0  0
  152.1829  143.2112  159.6696 N   0  0  0  0  0  0  0  0  0  0  0  0
  151.6316  144.5414  159.3909 C   0  0  0  0  0  0  0  0  0  0  0  0
  151.8986  145.3741  160.3968 F   0  0  0  0  0  0  0  0  0  0  0  0
  152.1168  145.0222  158.2475 F   0  0  0  0  0  0  0  0  0  0  0  0
  151.0917  137.1882  154.4050 C   0  0  0  0  0  0  0  0  0  0  0  0
  150.3937  134.4582  154.3024 H   0  0  0  0  0  0  0  0  0  0  0  0
  150.1425  134.2394  156.0327 H   0  0  0  0  0  0  0  0  0  0  0  0
  151.7366  134.6684  155.4225 H   0  0  0  0  0  0  0  0  0  0  0  0
  150.6261  136.6406  156.4281 H   0  0  0  0  0  0  0  0  0  0  0  0
  148.4488  136.1292  154.3606 H   0  0  0  0  0  0  0  0  0  0  0  0
  148.2656  136.0593  156.0954 H   0  0  0  0  0  0  0  0  0  0  0  0
  147.3946  138.2056  155.0709 H   0  0  0  0  0  0  0  0  0  0  0  0
  148.6076  138.4786  156.2983 H   0  0  0  0  0  0  0  0  0  0  0  0
  149.1120  138.4819  153.2762 H   0  0  0  0  0  0  0  0  0  0  0  0
  149.0353  139.8913  154.2809 H   0  0  0  0  0  0  0  0  0  0  0  0
  149.9912  140.6830  155.5434 H   0  0  0  0  0  0  0  0  0  0  0  0
  152.6974  141.3829  156.6131 H   0  0  0  0  0  0  0  0  0  0  0  0
  151.6482  142.5204  155.8120 H   0  0  0  0  0  0  0  0  0  0  0  0
  150.4178  142.9073  157.7164 H   0  0  0  0  0  0  0  0  0  0  0  0
  150.2221  141.2019  158.0418 H   0  0  0  0  0  0  0  0  0  0  0  0
  153.9809  140.9149  161.1378 H   0  0  0  0  0  0  0  0  0  0  0  0
  153.4520  143.6420  161.3562 H   0  0  0  0  0  0  0  0  0  0  0  0
  150.5480  144.4721  159.2908 H   0  0  0  0  0  0  0  0  0  0  0  0
  152.1651  137.0141  154.4949 H   0  0  0  0  0  0  0  0  0  0  0  0
  150.8326  136.8901  153.3878 H   0  0  0  0  0  0  0  0  0  0  0  0
  152.5820  140.1494  159.1752 H   0  0  0  0  0  0  0  0  0  0  0  0
  1  2  1  0  0  0  0
  1 21  1  0  0  0  0
  1 22  1  0  0  0  0
  1 23  1  0  0  0  0
  2 20  1  0  0  0  0
  2  3  1  0  0  0  0
  2 24  1  0  0  0  0
  3  4  1  0  0  0  0
  3 25  1  0  0  0  0
  3 26  1  0  0  0  0
  4  5  1  0  0  0  0
  4 27  1  0  0  0  0
  4 28  1  0  0  0  0
  5  6  1  0  0  0  0
  5 29  1  0  0  0  0
  5 30  1  0  0  0  0
  6  7  1  0  0  0  0
  6 20  1  0  0  0  0
  7  8  2  0  0  0  0
  7  9  1  0  0  0  0
  9 10  1  0  0  0  0
  9 31  1  0  0  0  0
 10 11  1  0  0  0  0
 10 32  1  0  0  0  0
 10 33  1  0  0  0  0
 11 12  1  0  0  0  0
 11 34  1  0  0  0  0
 11 35  1  0  0  0  0
 12 16  1  0  0  0  0
 12 13  2  0  0  0  0
 13 14  1  0  0  0  0
 13 41  1  0  0  0  0
 14 15  2  0  0  0  0
 14 36  1  0  0  0  0
 15 16  1  0  0  0  0
 15 37  1  0  0  0  0
 16 17  1  0  0  0  0
 17 18  1  0  0  0  0
 17 19  1  0  0  0  0
 17 38  1  0  0  0  0
 20 39  1  0  0  0  0
 20 40  1  0  0  0  0
M  CHG  1  13   1
M  END
> <s_m_source_file>
AV-unprocessed.smi

> <i_m_source_file_index>
1049

> <i_lp_mmshare_version>
43012

> <i_f3d_flags>
0

> <s_epik_input>
W0NIM11bQ0BASF0xW0NIMl1bQ0gyXVtDSDJdTihbQ0gyXTEpQyg9TylbTkhdW0NIMl1bQ0gyXWMybltjSF1bY0hdbjJbQ0hdKEYpRg==

> <s_epik_cmdline>
J2VwaWtfcHl0aG9uJywgJy1waCcsICc3LjAnLCAnLXRuJywgJzgnLCAnLW1hJywgJzIwMCcsICctbWV0YWxfYmluZGluZycsICctaW1hZScsICc8aW5maWxlLm1hZT4nLCAnLW9tYWUnLCAnPG91dGZpbGUubWFlPic=

> <r_lp_tautomer_probability>
1

> <r_epik_Ionization_Penalty>
1.09766

> <r_epik_Ionization_Penalty_Charging>
0

> <r_epik_Ionization_Penalty_Neutral>
1.09766

> <r_epik_State_Penalty>
1.15444

> <r_epik_Charging_Adjusted_Penalty>
1.15444

> <i_epik_Tot_Q>
1

> <i_epik_Tot_abs_Q>
1

> <r_epik_Metal_State_Penalty>
1.24204

> <b_epik_Metal_Only>
0

> <s_lp_Force_Field>
OPLS_2005

> <r_lp_Energy>
36.2432

> <b_lp_Chiralities_Consistent>
1

> <s_lp_Variant>
AV-unprocessed.smi:1049-3

> <Gold.Version>
5.8.1

> <Gold.Id.Protein>
6NUR|6NUR_protein|mol2

> <Gold.PLP.Fitness>
46.5164

> <Gold.PLP.PLP>
-44.8787

> <Gold.PLP.part.hbond>
-1.0000

> <Gold.PLP.part.metal>
0.0000

> <Gold.PLP.part.buried>
-6.2108

> <Gold.PLP.part.nonpolar>
-37.3590

> <Gold.PLP.part.repulsive>
0.2672

> <Gold.PLP.ligand.clash>
0.0000

> <Gold.PLP.ligand.torsion>
0.7186

> <Gold.PLP.Chemscore.Hbond>
1.0000

> <Gold.PLP.Chemscore.CHOScore>
0.0000

> <Gold.PLP.Chemscore.Metal>
0.0000

> <Gold.Chemscore.Hbonds>
donor molecule, donor type, donor heavy atom, donor atom, acceptor molecule, acceptor atom, score
      P1  H  7997  8010       L1     8  1.00

> <Gold.PLP.Chemscore.Internal.Correction>
0.0749

> <Gold.Rescore>
     Score         DG    S(hbond)    S(metal)    S(lipo)     H(rot)  DE(clash)    DE(int)     intcor
     11.60     -13.78       1.00        0.00      77.57       1.61       1.53       0.64       ----

> <Gold.Chemscore.Fitness>
11.6045

> <Gold.Chemscore.DG>
-13.7785

> <Gold.Chemscore.ZeroCoef>
-5.4800

> <Gold.Chemscore.Hbond>
0.9975

> <Gold.Chemscore.Metal>
0.0000

> <Gold.Chemscore.Lipo>
77.5721

> <Gold.Chemscore.Internal_Hbond>
0.0000

> <Gold.Chemscore.DEClash>
1.5334

> <Gold.Chemscore.DEInternal>
0.6406

> <Gold.Chemscore.Rot>
1.6051

> <Gold.Chemscore.Internal.Correction>
   9.000000E+99

> <Gold.Chemscore.Hbonds>
donor molecule, donor type, donor heavy atom, donor atom, acceptor molecule, acceptor atom, score
      P1  H  7997  8010       L1     8  0.98

> <Gold.Chemscore.Hbond.Weighted>
-3.3317

> <Gold.Chemscore.Metal.Weighted>
-0.0000

> <Gold.Chemscore.Lipo.Weighted>
-9.0759

> <Gold.Chemscore.Internal_Hbond.Weighted>
0.0000

> <Gold.Chemscore.DEClash.Weighted>
1.5334

> <Gold.Chemscore.DEInternal.Weighted>
0.6406

> <Gold.Chemscore.Rot.Weighted>
4.1092

> <Gold.Chemscore.Internal.Correction.Weighted>
   9.000000E+99

> <Gold.Protein.RotatedTorsions>
[ 6907 6896 6895 6894 ] final  167.76 input  -60.11 | X-H torsion
[ 7974 7965 7964 7962 ] final -150.77 input  175.53 | X-H torsion
[ 8008 7997 7996 7995 ] final   85.03 input   59.86 | X-H torsion
[ 10167 10162 10161 10158 ] final  117.46 input  -65.29 | X-H torsion
[ 10718 10713 10712 10709 ] final -118.05 input   66.30 | X-H torsion
[ 10763 10752 10751 10750 ] final  -32.49 input  -60.55 | X-H torsion
[ 11005 11000 10999 10996 ] final  -92.35 input  -57.11 | X-H torsion

> <Gold.Protein.ActiveResidues>
 VAL166  LYS551  ARG553  GLY616  TRP617  ASP618  TYR619  PRO620  LYS621  CYS622 
 ASP623  PHE694  ASN695  SER759  ASP760  ASP761  ALA762  ILE779  LEU786  VAL792 
 PHE793  MET794  SER795  GLU796  ALA797  LYS798  CYS799  TRP800  GLU811  SER814 

> <Gold.Protein.RotatedAtoms>
  151.8582  133.3452  159.3694 H   0  0  0  0  0  0  0  0  0  0  0  0  # atno 6907 bound_to 6896
  150.7186  134.5232  159.5673 H   0  0  0  0  0  0  0  0  0  0  0  0  # atno 6908 bound_to 6896
  152.2740  134.7902  160.0460 H   0  0  0  0  0  0  0  0  0  0  0  0  # atno 6909 bound_to 6896
  144.7888  140.4887  143.5787 H   0  0  0  0  0  0  0  0  0  0  0  0  # atno 7974 bound_to 7965
  155.9448  140.3405  155.6357 H   0  0  0  0  0  0  0  0  0  0  0  0  # atno 8008 bound_to 7997
  155.6995  140.0758  157.2434 H   0  0  0  0  0  0  0  0  0  0  0  0  # atno 8009 bound_to 7997
  154.4109  140.1642  156.2162 H   0  0  0  0  0  0  0  0  0  0  0  0  # atno 8010 bound_to 7997
  139.6177  144.7095  151.2702 H   0  0  0  0  0  0  0  0  0  0  0  0  # atno 10167 bound_to 10162
  156.1078  130.6224  150.9242 H   0  0  0  0  0  0  0  0  0  0  0  0  # atno 10718 bound_to 10713
  153.8146  135.6879  153.4836 H   0  0  0  0  0  0  0  0  0  0  0  0  # atno 10763 bound_to 10752
  153.1607  135.4581  154.9766 H   0  0  0  0  0  0  0  0  0  0  0  0  # atno 10764 bound_to 10752
  154.7953  135.3317  154.7623 H   0  0  0  0  0  0  0  0  0  0  0  0  # atno 10765 bound_to 10752
  141.1524  133.7815  157.0008 H   0  0  0  0  0  0  0  0  0  0  0  0  # atno 11005 bound_to 11000
  145.5849  139.1491  143.3214 LP  0  0  0  0  0  0  0  0  0  0  0  0  # atno 17320 bound_to 7965
  146.2131  140.5978  142.9050 LP  0  0  0  0  0  0  0  0  0  0  0  0  # atno 17321 bound_to 7965
  140.7362  143.6715  150.8078 LP  0  0  0  0  0  0  0  0  0  0  0  0  # atno 17342 bound_to 10162
  140.0320  143.5433  152.2756 LP  0  0  0  0  0  0  0  0  0  0  0  0  # atno 17343 bound_to 10162
  157.6256  131.0926  150.8539 LP  0  0  0  0  0  0  0  0  0  0  0  0  # atno 17370 bound_to 10713
  156.8655  130.5128  149.5300 LP  0  0  0  0  0  0  0  0  0  0  0  0  # atno 17371 bound_to 10713
  140.0941  134.9575  157.1822 LP  0  0  0  0  0  0  0  0  0  0  0  0  # atno 17394 bound_to 11000
  140.3406  134.2709  155.7213 LP  0  0  0  0  0  0  0  0  0  0  0  0  # atno 17395 bound_to 11000

$$$$
