AV-unprocessed.smi:2969|AV-procd|sdf|11330|dock5
  -GOLD-   2272016243D 1   1.00000     0.00000
 Structure written by MMmdl.
 39 39  0  0  0  0  0  0  0  0  2 V2000
  146.3573  132.7145  151.7432 C   0  0  0  0  0  0  0  0  0  0  0  0
  147.1658  133.1041  152.9877 C   0  0  0  0  0  0  0  0  0  0  0  0
  148.6910  132.9162  152.8414 C   0  0  0  0  0  0  0  0  0  0  0  0
  149.4095  132.9919  154.1344 N   0  0  0  0  0  0  0  0  0  0  0  0
  149.4578  134.2368  154.8186 C   0  0  0  0  0  0  0  0  0  0  0  0
  148.8229  135.3375  154.2617 N   0  0  0  0  0  0  0  0  0  0  0  0
  150.1283  134.3395  155.9968 C   0  0  0  0  0  0  0  0  0  0  0  0
  150.1988  135.5419  156.7230 N   0  0  0  0  0  0  0  0  0  0  0  0
  148.9273  136.0700  157.2437 C   0  0  0  0  0  0  0  0  0  0  0  0
  148.3651  135.2255  158.4056 C   0  0  0  0  0  0  0  0  0  0  0  0
  149.1817  135.3182  159.5644 O   0  0  0  0  0  0  0  0  0  0  0  0
  148.5020  135.8006  160.7132 C   0  0  0  0  0  0  0  0  0  0  0  0
  151.3812  136.1373  157.0381 C   0  0  0  0  0  0  0  0  0  0  0  0
  152.4558  135.6943  156.6260 O   0  0  0  0  0  0  0  0  0  0  0  0
  151.4140  137.3878  157.9431 C   0  0  0  0  0  0  0  0  0  0  0  0
  150.7722  138.3989  157.3592 F   0  0  0  0  0  0  0  0  0  0  0  0
  150.8606  137.1202  159.1256 F   0  0  0  0  0  0  0  0  0  0  0  0
  152.6794  137.7579  158.1489 F   0  0  0  0  0  0  0  0  0  0  0  0
  150.7582  133.1413  156.5622 C   0  0  0  0  0  0  0  0  0  0  0  0
  151.3409  133.2034  157.6451 O   0  0  0  0  0  0  0  0  0  0  0  0
  150.6699  131.9861  155.8524 N   0  5  0  0  0  0  0  0  0  0  0  0
  150.0206  131.8834  154.6576 C   0  0  0  0  0  0  0  0  0  0  0  0
  149.9760  130.8189  154.0398 O   0  0  0  0  0  0  0  0  0  0  0  0
  145.2877  132.8025  151.9335 H   0  0  0  0  0  0  0  0  0  0  0  0
  146.5600  131.6846  151.4485 H   0  0  0  0  0  0  0  0  0  0  0  0
  146.5932  133.3598  150.8967 H   0  0  0  0  0  0  0  0  0  0  0  0
  146.9381  134.1372  153.2504 H   0  0  0  0  0  0  0  0  0  0  0  0
  146.8217  132.5008  153.8283 H   0  0  0  0  0  0  0  0  0  0  0  0
  148.8952  131.9585  152.3620 H   0  0  0  0  0  0  0  0  0  0  0  0
  149.0702  133.6408  152.1198 H   0  0  0  0  0  0  0  0  0  0  0  0
  148.3268  135.2819  153.3840 H   0  0  0  0  0  0  0  0  0  0  0  0
  148.8106  136.2331  154.7283 H   0  0  0  0  0  0  0  0  0  0  0  0
  149.0662  137.0953  157.5913 H   0  0  0  0  0  0  0  0  0  0  0  0
  148.2092  136.1387  156.4258 H   0  0  0  0  0  0  0  0  0  0  0  0
  147.3342  135.4921  158.6428 H   0  0  0  0  0  0  0  0  0  0  0  0
  148.3507  134.1766  158.1121 H   0  0  0  0  0  0  0  0  0  0  0  0
  149.1831  135.7985  161.5640 H   0  0  0  0  0  0  0  0  0  0  0  0
  147.6524  135.1647  160.9652 H   0  0  0  0  0  0  0  0  0  0  0  0
  148.1461  136.8218  160.5787 H   0  0  0  0  0  0  0  0  0  0  0  0
  1  2  1  0  0  0  0
  1 24  1  0  0  0  0
  1 25  1  0  0  0  0
  1 26  1  0  0  0  0
  2  3  1  0  0  0  0
  2 27  1  0  0  0  0
  2 28  1  0  0  0  0
  3  4  1  0  0  0  0
  3 29  1  0  0  0  0
  3 30  1  0  0  0  0
  4 22  1  0  0  0  0
  4  5  1  0  0  0  0
  5  6  1  0  0  0  0
  5  7  2  0  0  0  0
  6 31  1  0  0  0  0
  6 32  1  0  0  0  0
  7  8  1  0  0  0  0
  7 19  1  0  0  0  0
  8  9  1  0  0  0  0
  8 13  1  0  0  0  0
  9 10  1  0  0  0  0
  9 33  1  0  0  0  0
  9 34  1  0  0  0  0
 10 11  1  0  0  0  0
 10 35  1  0  0  0  0
 10 36  1  0  0  0  0
 11 12  1  0  0  0  0
 12 37  1  0  0  0  0
 12 38  1  0  0  0  0
 12 39  1  0  0  0  0
 13 14  2  0  0  0  0
 13 15  1  0  0  0  0
 15 16  1  0  0  0  0
 15 17  1  0  0  0  0
 15 18  1  0  0  0  0
 19 20  2  0  0  0  0
 19 21  1  0  0  0  0
 21 22  1  0  0  0  0
 22 23  2  0  0  0  0
M  CHG  1  21  -1
M  END
> <s_m_source_file>
AV-unprocessed.smi

> <i_m_source_file_index>
2969

> <i_lp_mmshare_version>
43012

> <i_f3d_flags>
0

> <s_epik_input>
W0NIM11bQ0gyXVtDSDJdbjFjKFtOSDJdKWMoYyg9TylbbkhdYzE9TylOKEMoPU8pQyhGKShGKUYpW0NIMl1bQ0gyXU9bQ0gzXQ==

> <s_epik_cmdline>
J2VwaWtfcHl0aG9uJywgJy1waCcsICc3LjAnLCAnLXRuJywgJzgnLCAnLW1hJywgJzIwMCcsICctbWV0YWxfYmluZGluZycsICctaW1hZScsICc8aW5maWxlLm1hZT4nLCAnLW9tYWUnLCAnPG91dGZpbGUubWFlPic=

> <r_lp_tautomer_probability>
1

> <r_epik_Ionization_Penalty>
4.29138

> <r_epik_Ionization_Penalty_Charging>
0.0262752

> <r_epik_Ionization_Penalty_Neutral>
4.26511

> <r_epik_State_Penalty>
4.26466

> <r_epik_Charging_Adjusted_Penalty>
4.29094

> <i_epik_Tot_Q>
-1

> <i_epik_Tot_abs_Q>
1

> <r_epik_Metal_State_Penalty>
0.502851

> <b_epik_Metal_Only>
1

> <s_epik_Chemistry_Notes>
This compound has an imine and may undergo hydrolysis.

> <s_lp_Force_Field>
OPLS_2005

> <r_lp_Energy>
42.256

> <b_lp_Chiralities_Consistent>
1

> <s_lp_Variant>
AV-unprocessed.smi:2969-2

> <Gold.Version>
5.8.1

> <Gold.Id.Protein>
6NUR|6NUR_protein|mol2

> <Gold.PLP.Fitness>
36.9349

> <Gold.PLP.PLP>
-30.0302

> <Gold.PLP.part.hbond>
-3.1965

> <Gold.PLP.part.metal>
0.0000

> <Gold.PLP.part.buried>
-4.9503

> <Gold.PLP.part.nonpolar>
-22.5811

> <Gold.PLP.part.repulsive>
0.0811

> <Gold.PLP.ligand.clash>
4.3188

> <Gold.PLP.ligand.torsion>
1.8451

> <Gold.PLP.Chemscore.Hbond>
3.0880

> <Gold.PLP.Chemscore.CHOScore>
0.0000

> <Gold.PLP.Chemscore.Metal>
0.0000

> <Gold.Chemscore.Hbonds>
donor molecule, donor type, donor heavy atom, donor atom, acceptor molecule, acceptor atom, score
      L1  H     6    31       P1  7948  0.42
      P1  H  6896  6907       L1    20  0.78
      P1  H  6896  6908       L1    11  0.88
      P1  H 10752 10765       L1    14  0.93

> <Gold.PLP.Chemscore.Internal.Correction>
5.6496

> <Gold.Rescore>
     Score         DG    S(hbond)    S(metal)    S(lipo)     H(rot)  DE(clash)    DE(int)     intcor
      8.52     -15.00       3.21        0.00      38.56       2.24       0.15       6.33       ----

> <Gold.Chemscore.Fitness>
8.5160

> <Gold.Chemscore.DG>
-14.9974

> <Gold.Chemscore.ZeroCoef>
-5.4800

> <Gold.Chemscore.Hbond>
3.2131

> <Gold.Chemscore.Metal>
0.0000

> <Gold.Chemscore.Lipo>
38.5594

> <Gold.Chemscore.Internal_Hbond>
0.0000

> <Gold.Chemscore.DEClash>
0.1475

> <Gold.Chemscore.DEInternal>
6.3339

> <Gold.Chemscore.Rot>
2.2366

> <Gold.Chemscore.Internal.Correction>
   9.000000E+99

> <Gold.Chemscore.Hbonds>
donor molecule, donor type, donor heavy atom, donor atom, acceptor molecule, acceptor atom, score
      L1  H     6    31       P1  7948  0.39
      P1  H  6896  6907       L1    20  0.76
      P1  H  6896  6908       L1    11  0.83
      P1  H 10752 10765       L1    14  0.90

> <Gold.Chemscore.Hbond.Weighted>
-10.7317

> <Gold.Chemscore.Metal.Weighted>
-0.0000

> <Gold.Chemscore.Lipo.Weighted>
-4.5115

> <Gold.Chemscore.Internal_Hbond.Weighted>
0.0000

> <Gold.Chemscore.DEClash.Weighted>
0.1475

> <Gold.Chemscore.DEInternal.Weighted>
6.3339

> <Gold.Chemscore.Rot.Weighted>
5.7257

> <Gold.Chemscore.Internal.Correction.Weighted>
   9.000000E+99

> <Gold.Protein.RotatedTorsions>
[ 6907 6896 6895 6894 ] final -166.31 input  -60.11 | X-H torsion
[ 7974 7965 7964 7962 ] final -107.32 input  175.53 | X-H torsion
[ 8008 7997 7996 7995 ] final   60.72 input   59.86 | X-H torsion
[ 10167 10162 10161 10158 ] final  -66.55 input  -65.29 | X-H torsion
[ 10718 10713 10712 10709 ] final  100.44 input   66.30 | X-H torsion
[ 10763 10752 10751 10750 ] final -157.72 input  -60.55 | X-H torsion
[ 11005 11000 10999 10996 ] final   45.77 input  -57.11 | X-H torsion

> <Gold.Protein.ActiveResidues>
 VAL166  LYS551  ARG553  GLY616  TRP617  ASP618  TYR619  PRO620  LYS621  CYS622 
 ASP623  PHE694  ASN695  SER759  ASP760  ASP761  ALA762  ILE779  LEU786  VAL792 
 PHE793  MET794  SER795  GLU796  ALA797  LYS798  CYS799  TRP800  GLU811  SER814 

> <Gold.Protein.RotatedAtoms>
  151.4416  133.3642  159.2782 H   0  0  0  0  0  0  0  0  0  0  0  0  # atno 6907 bound_to 6896
  150.9153  134.8572  159.7464 H   0  0  0  0  0  0  0  0  0  0  0  0  # atno 6908 bound_to 6896
  152.4954  134.4349  159.9576 H   0  0  0  0  0  0  0  0  0  0  0  0  # atno 6909 bound_to 6896
  145.2067  140.9079  143.3338 H   0  0  0  0  0  0  0  0  0  0  0  0  # atno 7974 bound_to 7965
  155.5869  140.3492  155.4555 H   0  0  0  0  0  0  0  0  0  0  0  0  # atno 8008 bound_to 7997
  156.0331  140.1279  157.0262 H   0  0  0  0  0  0  0  0  0  0  0  0  # atno 8009 bound_to 7997
  154.4360  140.1039  156.6114 H   0  0  0  0  0  0  0  0  0  0  0  0  # atno 8010 bound_to 7997
  140.5648  143.2314  151.6656 H   0  0  0  0  0  0  0  0  0  0  0  0  # atno 10167 bound_to 10162
  157.6854  131.0698  150.5101 H   0  0  0  0  0  0  0  0  0  0  0  0  # atno 10718 bound_to 10713
  154.7614  135.3119  154.8371 H   0  0  0  0  0  0  0  0  0  0  0  0  # atno 10763 bound_to 10752
  153.9131  135.6803  153.4754 H   0  0  0  0  0  0  0  0  0  0  0  0  # atno 10764 bound_to 10752
  153.1215  135.4820  154.9134 H   0  0  0  0  0  0  0  0  0  0  0  0  # atno 10765 bound_to 10752
  140.1429  134.4560  155.8436 H   0  0  0  0  0  0  0  0  0  0  0  0  # atno 11005 bound_to 11000
  144.9895  139.3703  143.6222 LP  0  0  0  0  0  0  0  0  0  0  0  0  # atno 17320 bound_to 7965
  146.3406  139.9071  142.8786 LP  0  0  0  0  0  0  0  0  0  0  0  0  # atno 17321 bound_to 7965
  139.5088  144.3600  152.0571 LP  0  0  0  0  0  0  0  0  0  0  0  0  # atno 17342 bound_to 10162
  140.2730  144.3943  150.6144 LP  0  0  0  0  0  0  0  0  0  0  0  0  # atno 17343 bound_to 10162
  156.5419  130.4210  149.6150 LP  0  0  0  0  0  0  0  0  0  0  0  0  # atno 17370 bound_to 10713
  156.2978  130.7160  151.2024 LP  0  0  0  0  0  0  0  0  0  0  0  0  # atno 17371 bound_to 10713
  141.2188  133.6840  156.7280 LP  0  0  0  0  0  0  0  0  0  0  0  0  # atno 17394 bound_to 11000
  140.2699  134.8400  157.3838 LP  0  0  0  0  0  0  0  0  0  0  0  0  # atno 17395 bound_to 11000

$$$$
