AV-unprocessed.smi:345|AV-procd|sdf|2391|dock4
  -GOLD-   2262022323D 1   1.00000     0.00000
 Structure written by MMmdl.
 34 36  0  0  0  0  0  0  0  0  1 V2000
  149.0079  130.0738  153.7454 C   0  0  0  0  0  0  0  0  0  0  0  0
  149.2142  131.4800  154.1938 C   0  0  0  0  0  0  0  0  0  0  0  0
  149.1824  132.6798  153.5402 C   0  0  0  0  0  0  0  0  0  0  0  0
  149.4561  133.6146  154.5737 C   0  0  0  0  0  0  0  0  0  0  0  0
  149.5030  135.0058  154.3026 N   0  0  0  0  0  0  0  0  0  0  0  0
  149.8428  135.9942  155.1474 C   0  0  0  0  0  0  0  0  0  0  0  0
  150.2050  135.8356  156.3134 O   0  0  0  0  0  0  0  0  0  0  0  0
  149.7366  137.1945  154.5579 N   0  0  0  0  0  0  0  0  0  0  0  0
  150.0043  138.4813  155.1921 C   0  0  0  0  0  0  0  0  0  0  0  0
  149.6555  139.6579  154.2941 C   0  0  0  0  0  0  0  0  0  0  0  0
  149.3454  141.0204  154.8686 C   0  0  0  0  0  0  0  0  0  0  0  0
  148.2499  140.2071  154.2194 C   0  0  0  0  0  0  0  0  0  0  0  0
  151.4478  138.5834  155.6516 C   0  0  0  0  0  0  0  0  0  0  0  0
  152.1950  139.8943  155.5941 C   0  0  0  0  0  0  0  0  0  0  0  0
  152.5790  138.7633  154.6667 C   0  0  0  0  0  0  0  0  0  0  0  0
  149.6447  133.0375  155.7505 N   0  0  0  0  0  0  0  0  0  0  0  0
  149.4905  131.6665  155.5130 O   0  0  0  0  0  0  0  0  0  0  0  0
  148.8676  130.0254  152.6654 H   0  0  0  0  0  0  0  0  0  0  0  0
  148.1256  129.6437  154.2195 H   0  0  0  0  0  0  0  0  0  0  0  0
  149.8671  129.4547  154.0038 H   0  0  0  0  0  0  0  0  0  0  0  0
  148.9896  132.8570  152.4925 H   0  0  0  0  0  0  0  0  0  0  0  0
  149.2313  135.2794  153.3700 H   0  0  0  0  0  0  0  0  0  0  0  0
  149.4372  137.2230  153.5943 H   0  0  0  0  0  0  0  0  0  0  0  0
  149.3817  138.5530  156.0867 H   0  0  0  0  0  0  0  0  0  0  0  0
  150.2122  139.6646  153.3586 H   0  0  0  0  0  0  0  0  0  0  0  0
  149.3119  141.1241  155.9510 H   0  0  0  0  0  0  0  0  0  0  0  0
  149.7157  141.8890  154.3282 H   0  0  0  0  0  0  0  0  0  0  0  0
  147.8903  140.5316  153.2453 H   0  0  0  0  0  0  0  0  0  0  0  0
  147.4960  139.7742  154.8738 H   0  0  0  0  0  0  0  0  0  0  0  0
  151.6727  137.9526  156.5101 H   0  0  0  0  0  0  0  0  0  0  0  0
  151.6861  140.7506  155.1559 H   0  0  0  0  0  0  0  0  0  0  0  0
  152.8718  140.1233  156.4146 H   0  0  0  0  0  0  0  0  0  0  0  0
  153.5091  138.2369  154.8710 H   0  0  0  0  0  0  0  0  0  0  0  0
  152.3293  138.8773  153.6139 H   0  0  0  0  0  0  0  0  0  0  0  0
  1  2  1  0  0  0  0
  1 18  1  0  0  0  0
  1 19  1  0  0  0  0
  1 20  1  0  0  0  0
  2 17  1  0  0  0  0
  2  3  2  0  0  0  0
  3  4  1  0  0  0  0
  3 21  1  0  0  0  0
  4  5  1  0  0  0  0
  4 16  2  0  0  0  0
  5  6  1  0  0  0  0
  5 22  1  0  0  0  0
  6  7  2  0  0  0  0
  6  8  1  0  0  0  0
  8  9  1  0  0  0  0
  8 23  1  0  0  0  0
  9 10  1  0  0  0  0
  9 13  1  0  0  0  0
  9 24  1  0  0  0  0
 10 12  1  0  0  0  0
 10 11  1  0  0  0  0
 10 25  1  0  0  0  0
 11 12  1  0  0  0  0
 11 26  1  0  0  0  0
 11 27  1  0  0  0  0
 12 28  1  0  0  0  0
 12 29  1  0  0  0  0
 13 15  1  0  0  0  0
 13 14  1  0  0  0  0
 13 30  1  0  0  0  0
 14 15  1  0  0  0  0
 14 31  1  0  0  0  0
 14 32  1  0  0  0  0
 15 33  1  0  0  0  0
 15 34  1  0  0  0  0
 16 17  1  0  0  0  0
M  END
> <s_m_source_file>
AV-unprocessed.smi

> <i_m_source_file_index>
345

> <i_lp_mmshare_version>
43012

> <i_f3d_flags>
0

> <s_epik_input>
W0NIM11jMVtjSF1jKG5vMSlbTkhdQyg9TylbTkhdW0NIXShbQ0hdMltDSDJdW0NIMl0yKVtDSF0zW0NIMl1bQ0gyXTM=

> <s_epik_cmdline>
J2VwaWtfcHl0aG9uJywgJy1waCcsICc3LjAnLCAnLXRuJywgJzgnLCAnLW1hJywgJzIwMCcsICctbWV0YWxfYmluZGluZycsICctaW1hZScsICc8aW5maWxlLm1hZT4nLCAnLW9tYWUnLCAnPG91dGZpbGUubWFlPic=

> <r_lp_tautomer_probability>
1

> <r_epik_Ionization_Penalty>
2.39082e-05

> <r_epik_Ionization_Penalty_Charging>
0

> <r_epik_Ionization_Penalty_Neutral>
2.39082e-05

> <r_epik_State_Penalty>
-0

> <r_epik_Charging_Adjusted_Penalty>
0

> <i_epik_Tot_Q>
0

> <i_epik_Tot_abs_Q>
0

> <r_epik_Metal_State_Penalty>
-0

> <b_epik_Metal_Only>
0

> <s_lp_Force_Field>
OPLS_2005

> <r_lp_Energy>
21.3823

> <b_lp_Chiralities_Consistent>
1

> <s_lp_Variant>
AV-unprocessed.smi:345-1

> <Gold.Version>
5.8.1

> <Gold.Id.Protein>
6NUR|6NUR_protein|mol2

> <Gold.PLP.Fitness>
36.4997

> <Gold.PLP.PLP>
-30.6809

> <Gold.PLP.part.hbond>
-2.0000

> <Gold.PLP.part.metal>
0.0000

> <Gold.PLP.part.buried>
-2.3131

> <Gold.PLP.part.nonpolar>
-26.5160

> <Gold.PLP.part.repulsive>
0.0699

> <Gold.PLP.ligand.clash>
0.0000

> <Gold.PLP.ligand.torsion>
1.1340

> <Gold.PLP.Chemscore.Hbond>
1.9920

> <Gold.PLP.Chemscore.CHOScore>
0.0000

> <Gold.PLP.Chemscore.Metal>
0.0000

> <Gold.Chemscore.Hbonds>
donor molecule, donor type, donor heavy atom, donor atom, acceptor molecule, acceptor atom, score
      L1  H     5    22       P1  7948  0.95
      L1  H     8    23       P1  7948  0.99

> <Gold.PLP.Chemscore.Internal.Correction>
2.1107

> <Gold.Rescore>
     Score         DG    S(hbond)    S(metal)    S(lipo)     H(rot)  DE(clash)    DE(int)     intcor
     12.75     -15.19       1.77        0.00      63.47       1.42       0.05       2.39       ----

> <Gold.Chemscore.Fitness>
12.7505

> <Gold.Chemscore.DG>
-15.1911

> <Gold.Chemscore.ZeroCoef>
-5.4800

> <Gold.Chemscore.Hbond>
1.7714

> <Gold.Chemscore.Metal>
0.0000

> <Gold.Chemscore.Lipo>
63.4658

> <Gold.Chemscore.Internal_Hbond>
0.0000

> <Gold.Chemscore.DEClash>
0.0524

> <Gold.Chemscore.DEInternal>
2.3882

> <Gold.Chemscore.Rot>
1.4183

> <Gold.Chemscore.Internal.Correction>
   9.000000E+99

> <Gold.Chemscore.Hbonds>
donor molecule, donor type, donor heavy atom, donor atom, acceptor molecule, acceptor atom, score
      L1  H     5    22       P1  7948  0.22
      L1  H     8    23       P1  7948  0.83

> <Gold.Chemscore.Hbond.Weighted>
-5.9164

> <Gold.Chemscore.Metal.Weighted>
-0.0000

> <Gold.Chemscore.Lipo.Weighted>
-7.4255

> <Gold.Chemscore.Internal_Hbond.Weighted>
0.0000

> <Gold.Chemscore.DEClash.Weighted>
0.0524

> <Gold.Chemscore.DEInternal.Weighted>
2.3882

> <Gold.Chemscore.Rot.Weighted>
3.6308

> <Gold.Chemscore.Internal.Correction.Weighted>
   9.000000E+99

> <Gold.Protein.RotatedTorsions>
[ 6907 6896 6895 6894 ] final -127.41 input  -60.11 | X-H torsion
[ 7974 7965 7964 7962 ] final -138.30 input  175.53 | X-H torsion
[ 8008 7997 7996 7995 ] final -100.03 input   59.86 | X-H torsion
[ 10167 10162 10161 10158 ] final  -50.56 input  -65.29 | X-H torsion
[ 10718 10713 10712 10709 ] final -178.31 input   66.30 | X-H torsion
[ 10763 10752 10751 10750 ] final   59.60 input  -60.55 | X-H torsion
[ 11005 11000 10999 10996 ] final   89.77 input  -57.11 | X-H torsion

> <Gold.Protein.ActiveResidues>
 VAL166  LYS551  ARG553  GLY616  TRP617  ASP618  TYR619  PRO620  LYS621  CYS622 
 ASP623  PHE694  ASN695  SER759  ASP760  ASP761  ALA762  ILE779  LEU786  VAL792 
 PHE793  MET794  SER795  GLU796  ALA797  LYS798  CYS799  TRP800  GLU811  SER814 

> <Gold.Protein.RotatedAtoms>
  150.9070  133.7045  159.2864 H   0  0  0  0  0  0  0  0  0  0  0  0  # atno 6907 bound_to 6896
  151.4544  135.1031  159.9716 H   0  0  0  0  0  0  0  0  0  0  0  0  # atno 6908 bound_to 6896
  152.4909  133.8448  159.7226 H   0  0  0  0  0  0  0  0  0  0  0  0  # atno 6909 bound_to 6896
  144.8770  140.6451  143.5230 H   0  0  0  0  0  0  0  0  0  0  0  0  # atno 7974 bound_to 7965
  154.8229  140.0443  157.1423 H   0  0  0  0  0  0  0  0  0  0  0  0  # atno 8008 bound_to 7997
  154.9239  140.3030  155.5182 H   0  0  0  0  0  0  0  0  0  0  0  0  # atno 8009 bound_to 7997
  156.2981  140.2335  156.4292 H   0  0  0  0  0  0  0  0  0  0  0  0  # atno 8010 bound_to 7997
  140.6632  143.2653  151.4377 H   0  0  0  0  0  0  0  0  0  0  0  0  # atno 10167 bound_to 10162
  156.8424  130.9691  151.3099 H   0  0  0  0  0  0  0  0  0  0  0  0  # atno 10718 bound_to 10713
  152.9899  135.5566  154.5740 H   0  0  0  0  0  0  0  0  0  0  0  0  # atno 10763 bound_to 10752
  154.5134  135.2803  155.1325 H   0  0  0  0  0  0  0  0  0  0  0  0  # atno 10764 bound_to 10752
  154.2708  135.6363  153.5362 H   0  0  0  0  0  0  0  0  0  0  0  0  # atno 10765 bound_to 10752
  139.8869  134.8572  156.3189 H   0  0  0  0  0  0  0  0  0  0  0  0  # atno 11005 bound_to 11000
  145.4024  139.1595  143.4170 LP  0  0  0  0  0  0  0  0  0  0  0  0  # atno 17320 bound_to 7965
  146.2969  140.4122  142.8718 LP  0  0  0  0  0  0  0  0  0  0  0  0  # atno 17321 bound_to 7965
  139.5872  144.1579  152.2043 LP  0  0  0  0  0  0  0  0  0  0  0  0  # atno 17342 bound_to 10162
  140.0922  144.5610  150.7046 LP  0  0  0  0  0  0  0  0  0  0  0  0  # atno 17343 bound_to 10162
  157.6348  130.8758  149.9339 LP  0  0  0  0  0  0  0  0  0  0  0  0  # atno 17370 bound_to 10713
  156.0873  130.3667  150.0463 LP  0  0  0  0  0  0  0  0  0  0  0  0  # atno 17371 bound_to 10713
  140.9800  133.7273  156.0658 LP  0  0  0  0  0  0  0  0  0  0  0  0  # atno 17394 bound_to 11000
  140.7762  134.3777  157.5497 LP  0  0  0  0  0  0  0  0  0  0  0  0  # atno 17395 bound_to 11000

$$$$
