#       Name:                AV-unprocessed.smi:3253
#       Creating user name   scv26
#       Creation time:       Fri Mar 27 18:34:14 2020


#       File generated by GOLD software.
#

@<TRIPOS>MOLECULE
AV-unprocessed.smi:3253
    41    42     1
SMALL
NO_CHARGES


@<TRIPOS>ATOM
      1 ****        -2.0589   0.0871   2.2322 C.3            1 S1                 0.0000
      2 ****        -1.4039   0.0507   0.8420 C.3            1 S1                 0.0000
      3 ****        -2.0129  -1.0252  -0.0846 C.3            1 S1                 0.0000
      4 ****        -3.4464  -0.8301  -0.3184 N.pl3          1 S1                 0.0000
      5 ****        -4.4871  -1.5325   0.2337 C.2            1 S1                 0.0000
      6 ****        -5.6381  -0.9937  -0.2814 C.2            1 S1                 0.0000
      7 ****        -5.2515   0.0099  -1.1292 N.pl3          1 S1                 1.0000
      8 ****        -3.9181   0.1058  -1.1523 C.2            1 S1                 0.0000
      9 ****         0.0324  -0.1623   0.9937 N.am           1 S1                 0.0000
     10 ****         0.9659   0.1908   0.0960 C.2            1 S1                 0.0000
     11 ****         0.6972   0.7271  -0.9798 O.2            1 S1                 0.0000
     12 ****         2.4263  -0.1075   0.4700 C.3            1 S1                 0.0000
     13 ****         3.0628  -1.1166  -0.5076 C.3            1 S1                 0.0000
     14 ****         4.1133  -0.3033  -1.2452 C.2            1 S1                 0.0000
     15 ****         4.7693  -0.7530  -2.1835 O.2            1 S1                 0.0000
     16 ****         4.2030   0.9307  -0.7414 N.am           1 S1                 0.0000
     17 ****         5.0976   1.9792  -1.2125 C.3            1 S1                 0.0000
     18 ****         3.3234   1.1481   0.3943 C.3            1 S1                 0.0000
     19 ****        -3.1178   0.3383   2.1693 H              1 S1                 0.0000
     20 ****        -1.5874   0.8374   2.8680 H              1 S1                 0.0000
     21 ****        -1.9743  -0.8766   2.7358 H              1 S1                 0.0000
     22 ****        -1.5549   1.0312   0.3858 H              1 S1                 0.0000
     23 ****        -1.5204  -1.0279  -1.0583 H              1 S1                 0.0000
     24 ****        -1.8749  -2.0205   0.3405 H              1 S1                 0.0000
     25 ****        -4.3360  -2.3398   0.9358 H              1 S1                 0.0000
     26 ****        -6.6757  -1.2435  -0.1137 H              1 S1                 0.0000
     27 ****        -3.3364   0.8035  -1.7287 H              1 S1                 0.0000
     28 ****         0.3415  -0.5992   1.8503 H              1 S1                 0.0000
     29 ****         2.4573  -0.5110   1.4838 H              1 S1                 0.0000
     30 ****         3.5468  -1.9328   0.0297 H              1 S1                 0.0000
     31 ****         2.3533  -1.5521  -1.2135 H              1 S1                 0.0000
     32 ****         6.1377   1.6626  -1.1267 H              1 S1                 0.0000
     33 ****         4.9728   2.8931  -0.6307 H              1 S1                 0.0000
     34 ****         4.8940   2.2133  -2.2581 H              1 S1                 0.0000
     35 ****         2.7571   2.0727   0.2675 H              1 S1                 0.0000
     36 ****         3.9225   1.2517   1.3000 H              1 S1                 0.0000
     37 ****        -5.8813   0.5947  -1.6645 H              1 S1                 0.0000
     38 ****        -0.2546   0.9190  -1.2188 LP             1 S1                 0.0000
     39 ****         1.4310   0.9706  -1.6141 LP             1 S1                 0.0000
     40 ****         4.6218  -1.6928  -2.4917 LP             1 S1                 0.0000
     41 ****         5.4502  -0.1788  -2.6381 LP             1 S1                 0.0000
@<TRIPOS>BOND
    1    1    2 1     
    2    1   19 1     
    3    1   20 1     
    4    1   21 1     
    5    2    3 1     
    6    2    9 1     
    7    2   22 1     
    8    3    4 1     
    9    3   23 1     
   10    3   24 1     
   11    4    8 1     
   12    4    5 1     
   13    5    6 2     
   14    5   25 1     
   15    6    7 1     
   16    6   26 1     
   17    7    8 2     
   18    7   37 1     
   19    8   27 1     
   20    9   10 am    
   21    9   28 1     
   22   10   11 2     
   23   10   12 1     
   24   12   18 1     
   25   12   13 1     
   26   12   29 1     
   27   13   14 1     
   28   13   30 1     
   29   13   31 1     
   30   14   15 2     
   31   14   16 am    
   32   16   17 1     
   33   16   18 1     
   34   17   32 1     
   35   17   33 1     
   36   17   34 1     
   37   18   35 1     
   38   18   36 1     
   39   11   38 1     
   40   11   39 1     
   41   15   40 1     
   42   15   41 1     
@<TRIPOS>SUBSTRUCTURE
      1 S1             1
@<TRIPOS>SET
LONE_PAIRS      STATIC     ATOMS    <user>   **** ""
4 38 39 40 41
DONOR_HYDROGENS      STATIC     ATOMS    <user>   **** ""
2 37 28
ATOM$BLUE        STATIC     ATOMS    COLORGROUP SYSTEM
4 38 39 40 41
ATOM$RED        STATIC     ATOMS    COLORGROUP SYSTEM
2 37 28
