AV-unprocessed.smi:889|AV-procd|sdf|4056|dock9
  -GOLD-   22720 1543D 1   1.00000     0.00000
 Structure written by MMmdl.
 43 44  0  0  0  0  0  0  0  0  1 V2000
  146.9157  134.1482  162.6293 C   0  0  0  0  0  0  0  0  0  0  0  0
  147.3627  135.2045  161.6770 C   0  0  0  0  0  0  0  0  0  0  0  0
  147.6887  135.1817  160.3510 C   0  0  0  0  0  0  0  0  0  0  0  0
  148.0256  136.5336  160.0632 C   0  0  0  0  0  0  0  0  0  0  0  0
  148.4623  137.1294  158.7517 C   0  0  0  0  0  0  0  0  0  0  0  0
  149.9143  137.6011  158.8375 C   0  0  0  0  0  0  0  0  0  0  0  0
  150.8159  136.7890  159.0447 O   0  0  0  0  0  0  0  0  0  0  0  0
  150.1273  138.9137  158.6656 N   0  0  0  0  0  0  0  0  0  0  0  0
  151.4366  139.5556  158.6798 C   0  0  0  0  0  0  0  0  0  0  0  0
  151.3973  140.9588  158.0397 C   0  0  0  0  0  0  0  0  0  0  0  0
  152.5482  141.8309  158.5956 C   0  0  0  0  0  0  0  0  0  0  0  0
  152.6048  142.0495  160.1287 C   0  0  0  0  0  0  0  0  0  0  0  0
  152.4866  143.5249  160.5447 C   0  0  0  0  0  0  0  0  0  0  0  0
  153.8883  141.4337  160.7067 C   0  0  0  0  0  0  0  0  0  0  0  0
  151.3001  140.9516  156.4960 C   0  0  0  0  0  0  0  0  0  0  0  0
  149.7807  141.0486  156.5996 C   0  0  0  0  0  0  0  0  0  0  0  0
  149.9988  141.6187  157.9985 C   0  0  0  0  0  0  0  0  0  0  0  0
  147.9093  137.3053  161.1329 N   0  0  0  0  0  0  0  0  0  0  0  0
  147.4892  136.4642  162.1691 O   0  0  0  0  0  0  0  0  0  0  0  0
  146.1021  133.5624  162.2013 H   0  0  0  0  0  0  0  0  0  0  0  0
  146.5606  134.5845  163.5633 H   0  0  0  0  0  0  0  0  0  0  0  0
  147.7351  133.4685  162.8636 H   0  0  0  0  0  0  0  0  0  0  0  0
  147.6867  134.3298  159.6876 H   0  0  0  0  0  0  0  0  0  0  0  0
  148.3681  136.3928  157.9530 H   0  0  0  0  0  0  0  0  0  0  0  0
  147.8263  137.9707  158.4712 H   0  0  0  0  0  0  0  0  0  0  0  0
  149.3276  139.5096  158.5069 H   0  0  0  0  0  0  0  0  0  0  0  0
  151.7653  139.6140  159.7181 H   0  0  0  0  0  0  0  0  0  0  0  0
  152.1704  138.9235  158.1782 H   0  0  0  0  0  0  0  0  0  0  0  0
  153.5029  141.4145  158.2715 H   0  0  0  0  0  0  0  0  0  0  0  0
  152.5089  142.8123  158.1207 H   0  0  0  0  0  0  0  0  0  0  0  0
  151.7761  141.5108  160.5883 H   0  0  0  0  0  0  0  0  0  0  0  0
  153.2446  144.1375  160.0558 H   0  0  0  0  0  0  0  0  0  0  0  0
  152.6115  143.6394  161.6218 H   0  0  0  0  0  0  0  0  0  0  0  0
  151.5086  143.9345  160.2964 H   0  0  0  0  0  0  0  0  0  0  0  0
  154.7779  141.9215  160.3073 H   0  0  0  0  0  0  0  0  0  0  0  0
  153.9561  140.3712  160.4705 H   0  0  0  0  0  0  0  0  0  0  0  0
  153.9163  141.5282  161.7927 H   0  0  0  0  0  0  0  0  0  0  0  0
  151.7393  141.8379  156.0348 H   0  0  0  0  0  0  0  0  0  0  0  0
  151.6611  140.0417  156.0150 H   0  0  0  0  0  0  0  0  0  0  0  0
  149.3167  141.7364  155.8921 H   0  0  0  0  0  0  0  0  0  0  0  0
  149.2884  140.0752  156.6060 H   0  0  0  0  0  0  0  0  0  0  0  0
  149.2930  141.2504  158.7433 H   0  0  0  0  0  0  0  0  0  0  0  0
  150.0381  142.7095  157.9993 H   0  0  0  0  0  0  0  0  0  0  0  0
  1  2  1  0  0  0  0
  1 20  1  0  0  0  0
  1 21  1  0  0  0  0
  1 22  1  0  0  0  0
  2 19  1  0  0  0  0
  2  3  2  0  0  0  0
  3  4  1  0  0  0  0
  3 23  1  0  0  0  0
  4  5  1  0  0  0  0
  4 18  2  0  0  0  0
  5  6  1  0  0  0  0
  5 24  1  0  0  0  0
  5 25  1  0  0  0  0
  6  7  2  0  0  0  0
  6  8  1  0  0  0  0
  8  9  1  0  0  0  0
  8 26  1  0  0  0  0
  9 10  1  0  0  0  0
  9 27  1  0  0  0  0
  9 28  1  0  0  0  0
 10 17  1  0  0  0  0
 10 11  1  0  0  0  0
 10 15  1  0  0  0  0
 11 12  1  0  0  0  0
 11 29  1  0  0  0  0
 11 30  1  0  0  0  0
 12 13  1  0  0  0  0
 12 14  1  0  0  0  0
 12 31  1  0  0  0  0
 13 32  1  0  0  0  0
 13 33  1  0  0  0  0
 13 34  1  0  0  0  0
 14 35  1  0  0  0  0
 14 36  1  0  0  0  0
 14 37  1  0  0  0  0
 15 16  1  0  0  0  0
 15 38  1  0  0  0  0
 15 39  1  0  0  0  0
 16 17  1  0  0  0  0
 16 40  1  0  0  0  0
 16 41  1  0  0  0  0
 17 42  1  0  0  0  0
 17 43  1  0  0  0  0
 18 19  1  0  0  0  0
M  END
> <s_m_source_file>
AV-unprocessed.smi

> <i_m_source_file_index>
889

> <i_lp_mmshare_version>
43012

> <i_f3d_flags>
0

> <s_epik_input>
W0NIM11jMVtjSF1jKG5vMSlbQ0gyXUMoPU8pW05IXVtDSDJdQzIoW0NIMl1bQ0hdKFtDSDNdKVtDSDNdKVtDSDJdW0NIMl1bQ0gyXTI=

> <s_epik_cmdline>
J2VwaWtfcHl0aG9uJywgJy1waCcsICc3LjAnLCAnLXRuJywgJzgnLCAnLW1hJywgJzIwMCcsICctbWV0YWxfYmluZGluZycsICctaW1hZScsICc8aW5maWxlLm1hZT4nLCAnLW9tYWUnLCAnPG91dGZpbGUubWFlPic=

> <r_lp_tautomer_probability>
1

> <r_epik_Ionization_Penalty>
7.05168e-08

> <r_epik_Ionization_Penalty_Charging>
0

> <r_epik_Ionization_Penalty_Neutral>
7.05168e-08

> <r_epik_State_Penalty>
-0

> <r_epik_Charging_Adjusted_Penalty>
0

> <i_epik_Tot_Q>
0

> <i_epik_Tot_abs_Q>
0

> <r_epik_Metal_State_Penalty>
-0

> <b_epik_Metal_Only>
0

> <s_lp_Force_Field>
OPLS_2005

> <r_lp_Energy>
19.2899

> <b_lp_Chiralities_Consistent>
1

> <s_lp_Variant>
AV-unprocessed.smi:889-1

> <Gold.Version>
5.8.1

> <Gold.Id.Protein>
6NUR|6NUR_protein|mol2

> <Gold.PLP.Fitness>
44.0002

> <Gold.PLP.PLP>
-38.5896

> <Gold.PLP.part.hbond>
-3.0000

> <Gold.PLP.part.metal>
0.0000

> <Gold.PLP.part.buried>
-5.6689

> <Gold.PLP.part.nonpolar>
-29.8278

> <Gold.PLP.part.repulsive>
0.1944

> <Gold.PLP.ligand.clash>
0.2993

> <Gold.PLP.ligand.torsion>
1.4499

> <Gold.PLP.Chemscore.Hbond>
2.7280

> <Gold.PLP.Chemscore.CHOScore>
0.0000

> <Gold.PLP.Chemscore.Metal>
0.0000

> <Gold.Chemscore.Hbonds>
donor molecule, donor type, donor heavy atom, donor atom, acceptor molecule, acceptor atom, score
      P1  H  6896  6907       L1     7  1.00
      P1  H  6931  6943       L1    18  0.91
      P1  H  6934  6947       L1    18  0.74

> <Gold.PLP.Chemscore.Internal.Correction>
0.4257

> <Gold.Rescore>
     Score         DG    S(hbond)    S(metal)    S(lipo)     H(rot)  DE(clash)    DE(int)     intcor
     17.87     -20.35       2.48        0.00      93.21       1.68       0.03       2.45       ----

> <Gold.Chemscore.Fitness>
17.8746

> <Gold.Chemscore.DG>
-20.3469

> <Gold.Chemscore.ZeroCoef>
-5.4800

> <Gold.Chemscore.Hbond>
2.4774

> <Gold.Chemscore.Metal>
0.0000

> <Gold.Chemscore.Lipo>
93.2053

> <Gold.Chemscore.Internal_Hbond>
0.0000

> <Gold.Chemscore.DEClash>
0.0270

> <Gold.Chemscore.DEInternal>
2.4453

> <Gold.Chemscore.Rot>
1.6846

> <Gold.Chemscore.Internal.Correction>
   9.000000E+99

> <Gold.Chemscore.Hbonds>
donor molecule, donor type, donor heavy atom, donor atom, acceptor molecule, acceptor atom, score
      P1  H  6896  6907       L1     7  0.95
      P1  H  6931  6943       L1    18  0.31
      P1  H  6934  6947       L1    18  0.70

> <Gold.Chemscore.Hbond.Weighted>
-8.2746

> <Gold.Chemscore.Metal.Weighted>
-0.0000

> <Gold.Chemscore.Lipo.Weighted>
-10.9050

> <Gold.Chemscore.Internal_Hbond.Weighted>
0.0000

> <Gold.Chemscore.DEClash.Weighted>
0.0270

> <Gold.Chemscore.DEInternal.Weighted>
2.4453

> <Gold.Chemscore.Rot.Weighted>
4.3127

> <Gold.Chemscore.Internal.Correction.Weighted>
   9.000000E+99

> <Gold.Protein.RotatedTorsions>
[ 6907 6896 6895 6894 ] final  -39.24 input  -60.11 | X-H torsion
[ 7974 7965 7964 7962 ] final  -66.82 input  175.53 | X-H torsion
[ 8008 7997 7996 7995 ] final  -75.21 input   59.86 | X-H torsion
[ 10167 10162 10161 10158 ] final   43.10 input  -65.29 | X-H torsion
[ 10718 10713 10712 10709 ] final  -94.00 input   66.30 | X-H torsion
[ 10763 10752 10751 10750 ] final  -16.10 input  -60.55 | X-H torsion
[ 11005 11000 10999 10996 ] final   80.92 input  -57.11 | X-H torsion

> <Gold.Protein.ActiveResidues>
 VAL166  LYS551  ARG553  GLY616  TRP617  ASP618  TYR619  PRO620  LYS621  CYS622 
 ASP623  PHE694  ASN695  SER759  ASP760  ASP761  ALA762  ILE779  LEU786  VAL792 
 PHE793  MET794  SER795  GLU796  ALA797  LYS798  CYS799  TRP800  GLU811  SER814 

> <Gold.Protein.RotatedAtoms>
  150.9927  134.9258  159.7908 H   0  0  0  0  0  0  0  0  0  0  0  0  # atno 6907 bound_to 6896
  152.5255  134.3260  159.9176 H   0  0  0  0  0  0  0  0  0  0  0  0  # atno 6908 bound_to 6896
  151.3266  133.3976  159.2693 H   0  0  0  0  0  0  0  0  0  0  0  0  # atno 6909 bound_to 6896
  145.7370  140.8971  143.0550 H   0  0  0  0  0  0  0  0  0  0  0  0  # atno 7974 bound_to 7965
  154.5397  140.0748  156.8488 H   0  0  0  0  0  0  0  0  0  0  0  0  # atno 8008 bound_to 7997
  155.3206  140.3396  155.4223 H   0  0  0  0  0  0  0  0  0  0  0  0  # atno 8009 bound_to 7997
  156.1862  140.1670  156.8166 H   0  0  0  0  0  0  0  0  0  0  0  0  # atno 8010 bound_to 7997
  140.3478  144.2389  150.6148 H   0  0  0  0  0  0  0  0  0  0  0  0  # atno 10167 bound_to 10162
  156.0021  130.5050  150.5861 H   0  0  0  0  0  0  0  0  0  0  0  0  # atno 10718 bound_to 10713
  153.5534  135.7011  153.5580 H   0  0  0  0  0  0  0  0  0  0  0  0  # atno 10763 bound_to 10752
  153.3494  135.3999  155.1634 H   0  0  0  0  0  0  0  0  0  0  0  0  # atno 10764 bound_to 10752
  154.8658  135.3761  154.5047 H   0  0  0  0  0  0  0  0  0  0  0  0  # atno 10765 bound_to 10752
  139.9116  134.7957  156.1973 H   0  0  0  0  0  0  0  0  0  0  0  0  # atno 11005 bound_to 11000
  144.6879  139.9408  143.7475 LP  0  0  0  0  0  0  0  0  0  0  0  0  # atno 17320 bound_to 7965
  146.0484  139.3488  143.0654 LP  0  0  0  0  0  0  0  0  0  0  0  0  # atno 17321 bound_to 7965
  140.5248  143.2257  151.8332 LP  0  0  0  0  0  0  0  0  0  0  0  0  # atno 17342 bound_to 10162
  139.4831  144.4793  151.9327 LP  0  0  0  0  0  0  0  0  0  0  0  0  # atno 17343 bound_to 10162
  157.3733  131.0769  151.1539 LP  0  0  0  0  0  0  0  0  0  0  0  0  # atno 17370 bound_to 10713
  157.2285  130.6514  149.5840 LP  0  0  0  0  0  0  0  0  0  0  0  0  # atno 17371 bound_to 10713
  141.0546  133.6871  156.1837 LP  0  0  0  0  0  0  0  0  0  0  0  0  # atno 17394 bound_to 11000
  140.6756  134.4821  157.5588 LP  0  0  0  0  0  0  0  0  0  0  0  0  # atno 17395 bound_to 11000

$$$$
