AV-unprocessed.smi:198|AV-procd|sdf|1557|dock4
  -GOLD-   2262019433D 1   1.00000     0.00000
 Structure written by MMmdl.
 59 63  0  0  0  0  0  0  0  0  2 V2000
  147.6398  142.6481  158.2142 C   0  0  0  0  0  0  0  0  0  0  0  0
  149.0401  142.5950  157.7414 N   0  3  2  0  0  0  0  0  0  0  0  0
  149.3963  141.2673  157.1860 C   0  0  0  0  0  0  0  0  0  0  0  0
  150.8124  141.2877  156.5892 C   0  0  0  0  0  0  0  0  0  0  0  0
  151.8732  141.7277  157.6263 C   0  0  1  0  0  0  0  0  0  0  0  0
  151.4472  143.0903  158.2271 C   0  0  2  0  0  0  0  0  0  0  0  0
  152.4665  143.5651  159.2817 C   0  0  0  0  0  0  0  0  0  0  0  0
  152.7175  142.4865  160.3464 C   0  0  0  0  0  0  0  0  0  0  0  0
  153.1035  141.1530  159.6908 C   0  0  0  0  0  0  0  0  0  0  0  0
  152.1148  140.7445  158.6941 N   0  0  0  0  0  0  0  0  0  0  0  0
  152.3335  139.4718  158.2955 C   0  0  0  0  0  0  0  0  0  0  0  0
  153.6243  139.0861  158.1486 N   0  0  0  0  0  0  0  0  0  0  0  0
  153.9061  137.8417  157.7502 C   0  0  0  0  0  0  0  0  0  0  0  0
  153.0645  136.8490  157.4535 N   0  0  0  0  0  0  0  0  0  0  0  0
  151.7645  137.2359  157.6011 C   0  0  0  0  0  0  0  0  0  0  0  0
  151.3126  138.5215  158.0118 C   0  0  0  0  0  0  0  0  0  0  0  0
  149.9240  138.5533  158.0315 N   0  0  0  0  0  0  0  0  0  0  0  0
  149.5742  137.3566  157.6455 C   0  0  0  0  0  0  0  0  0  0  0  0
  150.6158  136.4919  157.3928 N   0  0  0  0  0  0  0  0  0  0  0  0
  150.5114  135.1450  156.9111 C   0  0  0  0  0  0  0  0  0  0  0  0
  150.7189  134.8189  155.4289 C   0  0  0  0  0  0  0  0  0  0  0  0
  149.6202  133.7356  155.4995 C   0  0  0  0  0  0  0  0  0  0  0  0
  148.5966  133.7684  154.3539 C   0  0  0  0  0  0  0  0  0  0  0  0
  148.0598  135.0640  154.1780 O   0  0  0  0  0  0  0  0  0  0  0  0
  150.0834  132.2696  155.6522 C   0  0  0  0  0  0  0  0  0  0  0  0
  151.0728  132.0948  156.6461 O   0  0  0  0  0  0  0  0  0  0  0  0
  149.1540  134.4451  156.7910 C   0  0  0  0  0  0  0  0  0  0  0  0
  150.0030  143.0394  158.7787 C   0  0  0  0  0  0  0  0  0  0  0  0
  147.4789  141.9534  159.0397 H   0  0  0  0  0  0  0  0  0  0  0  0
  146.9511  142.3883  157.4094 H   0  0  0  0  0  0  0  0  0  0  0  0
  147.3861  143.6519  158.5565 H   0  0  0  0  0  0  0  0  0  0  0  0
  149.3232  140.5080  157.9661 H   0  0  0  0  0  0  0  0  0  0  0  0
  148.6804  140.9936  156.4099 H   0  0  0  0  0  0  0  0  0  0  0  0
  151.0522  140.3168  156.1550 H   0  0  0  0  0  0  0  0  0  0  0  0
  150.8291  141.9877  155.7529 H   0  0  0  0  0  0  0  0  0  0  0  0
  152.8181  141.8738  157.1014 H   0  0  0  0  0  0  0  0  0  0  0  0
  151.4538  143.8260  157.4212 H   0  0  0  0  0  0  0  0  0  0  0  0
  153.4098  143.8002  158.7868 H   0  0  0  0  0  0  0  0  0  0  0  0
  152.1303  144.4897  159.7517 H   0  0  0  0  0  0  0  0  0  0  0  0
  153.5092  142.8092  161.0229 H   0  0  0  0  0  0  0  0  0  0  0  0
  151.8285  142.3507  160.9627 H   0  0  0  0  0  0  0  0  0  0  0  0
  154.0793  141.2494  159.2128 H   0  0  0  0  0  0  0  0  0  0  0  0
  153.2014  140.3840  160.4587 H   0  0  0  0  0  0  0  0  0  0  0  0
  154.9561  137.6069  157.6556 H   0  0  0  0  0  0  0  0  0  0  0  0
  148.5383  137.0697  157.5366 H   0  0  0  0  0  0  0  0  0  0  0  0
  151.1905  134.5585  157.5310 H   0  0  0  0  0  0  0  0  0  0  0  0
  150.4464  135.6510  154.7775 H   0  0  0  0  0  0  0  0  0  0  0  0
  151.7141  134.4455  155.1862 H   0  0  0  0  0  0  0  0  0  0  0  0
  149.0424  133.4386  153.4148 H   0  0  0  0  0  0  0  0  0  0  0  0
  147.7660  133.0911  154.5541 H   0  0  0  0  0  0  0  0  0  0  0  0
  148.3788  135.4133  153.3599 H   0  0  0  0  0  0  0  0  0  0  0  0
  149.2418  131.6245  155.9065 H   0  0  0  0  0  0  0  0  0  0  0  0
  150.4944  131.8903  154.7160 H   0  0  0  0  0  0  0  0  0  0  0  0
  151.8372  132.5931  156.4002 H   0  0  0  0  0  0  0  0  0  0  0  0
  148.9189  133.7787  157.6218 H   0  0  0  0  0  0  0  0  0  0  0  0
  148.3401  135.1516  156.6203 H   0  0  0  0  0  0  0  0  0  0  0  0
  149.7144  144.0296  159.1341 H   0  0  0  0  0  0  0  0  0  0  0  0
  149.9346  142.3658  159.6338 H   0  0  0  0  0  0  0  0  0  0  0  0
  149.1109  143.2551  156.9800 H   0  0  0  0  0  0  0  0  0  0  0  0
  1  2  1  0  0  0  0
  1 29  1  0  0  0  0
  1 30  1  0  0  0  0
  1 31  1  0  0  0  0
  2 28  1  0  0  0  0
  2  3  1  0  0  0  0
  2 59  1  0  0  0  0
  3  4  1  0  0  0  0
  3 32  1  0  0  0  0
  3 33  1  0  0  0  0
  4  5  1  0  0  0  0
  4 34  1  0  0  0  0
  4 35  1  0  0  0  0
  5 10  1  0  0  0  0
  5  6  1  0  0  0  0
  5 36  1  0  0  0  0
  6  7  1  0  0  0  0
  6 28  1  0  0  0  0
  6 37  1  0  0  0  0
  7  8  1  0  0  0  0
  7 38  1  0  0  0  0
  7 39  1  0  0  0  0
  8  9  1  0  0  0  0
  8 40  1  0  0  0  0
  8 41  1  0  0  0  0
  9 10  1  0  0  0  0
  9 42  1  0  0  0  0
  9 43  1  0  0  0  0
 10 11  1  0  0  0  0
 11 16  1  0  0  0  0
 11 12  2  0  0  0  0
 12 13  1  0  0  0  0
 13 14  2  0  0  0  0
 13 44  1  0  0  0  0
 14 15  1  0  0  0  0
 15 19  1  0  0  0  0
 15 16  2  0  0  0  0
 16 17  1  0  0  0  0
 17 18  2  0  0  0  0
 18 19  1  0  0  0  0
 18 45  1  0  0  0  0
 19 20  1  0  0  0  0
 20 27  1  0  0  0  0
 20 21  1  0  0  0  0
 20 46  1  0  0  0  0
 21 22  1  0  0  0  0
 21 47  1  0  0  0  0
 21 48  1  0  0  0  0
 22 23  1  0  0  0  0
 22 25  1  0  0  0  0
 22 27  1  0  0  0  0
 23 24  1  0  0  0  0
 23 49  1  0  0  0  0
 23 50  1  0  0  0  0
 24 51  1  0  0  0  0
 25 26  1  0  0  0  0
 25 52  1  0  0  0  0
 25 53  1  0  0  0  0
 26 54  1  0  0  0  0
 27 55  1  0  0  0  0
 27 56  1  0  0  0  0
 28 57  1  0  0  0  0
 28 58  1  0  0  0  0
M  CHG  1   2   1
M  END
> <s_m_source_file>
AV-unprocessed.smi

> <i_m_source_file_index>
198

> <i_lp_mmshare_version>
43012

> <i_f3d_flags>
0

> <s_epik_input>
W0NIMl0xW0NIMl1OKFtDSDNdKVtDSDJdW0NAQEhdKFtDQEhdMTIpW0NIMl1bQ0gyXVtDSDJdTjJjKG5bY0hdbjMpYyhjMzQpbltjSF1uNFtDSF0oW0NIMl01KVtDSDJdQzUoW0NIMl1bT0hdKVtDSDJdW09IXQ==

> <s_epik_cmdline>
J2VwaWtfcHl0aG9uJywgJy1waCcsICc3LjAnLCAnLXRuJywgJzgnLCAnLW1hJywgJzIwMCcsICctbWV0YWxfYmluZGluZycsICctaW1hZScsICc8aW5maWxlLm1hZT4nLCAnLW9tYWUnLCAnPG91dGZpbGUubWFlPic=

> <r_lp_tautomer_probability>
1

> <r_epik_Ionization_Penalty>
0.00239938

> <r_epik_Ionization_Penalty_Charging>
0.00138697

> <r_epik_Ionization_Penalty_Neutral>
0.00101241

> <r_epik_State_Penalty>
-0

> <r_epik_Charging_Adjusted_Penalty>
0.00138697

> <i_epik_Tot_Q>
1

> <i_epik_Tot_abs_Q>
1

> <r_epik_Metal_State_Penalty>
-0

> <b_epik_Metal_Only>
0

> <s_lp_Force_Field>
OPLS_2005

> <r_lp_Energy>
60.6867

> <b_lp_Chiralities_Consistent>
1

> <s_lp_Variant>
AV-unprocessed.smi:198-6

> <Gold.Version>
5.8.1

> <Gold.Id.Protein>
6NUR|6NUR_protein|mol2

> <Gold.PLP.Fitness>
48.5271

> <Gold.PLP.PLP>
-38.0628

> <Gold.PLP.part.hbond>
-2.9703

> <Gold.PLP.part.metal>
0.0000

> <Gold.PLP.part.buried>
-6.1620

> <Gold.PLP.part.nonpolar>
-28.6188

> <Gold.PLP.part.repulsive>
0.0622

> <Gold.PLP.ligand.clash>
0.0000

> <Gold.PLP.ligand.torsion>
1.0686

> <Gold.PLP.Chemscore.Hbond>
4.0000

> <Gold.PLP.Chemscore.CHOScore>
0.0000

> <Gold.PLP.Chemscore.Metal>
0.0000

> <Gold.Chemscore.Hbonds>
donor molecule, donor type, donor heavy atom, donor atom, acceptor molecule, acceptor atom, score
      L1  H     2    59       P1  8028  2.00
      L1  H    24    51       P1  7948  1.00
      P1  H  7997  8010       L1    12  1.00

> <Gold.PLP.Chemscore.Internal.Correction>
0.6014

> <Gold.Rescore>
     Score         DG    S(hbond)    S(metal)    S(lipo)     H(rot)  DE(clash)    DE(int)     intcor
     15.29     -18.35       2.72        0.00      99.70       3.08       0.80       2.26       ----

> <Gold.Chemscore.Fitness>
15.2854

> <Gold.Chemscore.DG>
-18.3487

> <Gold.Chemscore.ZeroCoef>
-5.4800

> <Gold.Chemscore.Hbond>
2.7196

> <Gold.Chemscore.Metal>
0.0000

> <Gold.Chemscore.Lipo>
99.7036

> <Gold.Chemscore.Internal_Hbond>
0.0000

> <Gold.Chemscore.DEClash>
0.8040

> <Gold.Chemscore.DEInternal>
2.2593

> <Gold.Chemscore.Rot>
3.0781

> <Gold.Chemscore.Internal.Correction>
   9.000000E+99

> <Gold.Chemscore.Hbonds>
donor molecule, donor type, donor heavy atom, donor atom, acceptor molecule, acceptor atom, score
      L1  H     2    59       P1  8028  0.86
      L1  H    24    51       P1  7948  0.99
      P1  H  7997  8010       L1    12  0.25

> <Gold.Chemscore.Hbond.Weighted>
-9.0834

> <Gold.Chemscore.Metal.Weighted>
-0.0000

> <Gold.Chemscore.Lipo.Weighted>
-11.6653

> <Gold.Chemscore.Internal_Hbond.Weighted>
0.0000

> <Gold.Chemscore.DEClash.Weighted>
0.8040

> <Gold.Chemscore.DEInternal.Weighted>
2.2593

> <Gold.Chemscore.Rot.Weighted>
7.8800

> <Gold.Chemscore.Internal.Correction.Weighted>
   9.000000E+99

> <Gold.Protein.RotatedTorsions>
[ 6907 6896 6895 6894 ] final   66.09 input  -60.11 | X-H torsion
[ 7974 7965 7964 7962 ] final  -88.01 input  175.53 | X-H torsion
[ 8008 7997 7996 7995 ] final   14.41 input   59.86 | X-H torsion
[ 10167 10162 10161 10158 ] final  106.78 input  -65.29 | X-H torsion
[ 10718 10713 10712 10709 ] final   51.33 input   66.30 | X-H torsion
[ 10763 10752 10751 10750 ] final -104.71 input  -60.55 | X-H torsion
[ 11005 11000 10999 10996 ] final   57.46 input  -57.11 | X-H torsion

> <Gold.Protein.ActiveResidues>
 VAL166  LYS551  ARG553  GLY616  TRP617  ASP618  TYR619  PRO620  LYS621  CYS622 
 ASP623  PHE694  ASN695  SER759  ASP760  ASP761  ALA762  ILE779  LEU786  VAL792 
 PHE793  MET794  SER795  GLU796  ALA797  LYS798  CYS799  TRP800  GLU811  SER814 

> <Gold.Protein.RotatedAtoms>
  152.4456  134.5502  159.9864 H   0  0  0  0  0  0  0  0  0  0  0  0  # atno 6907 bound_to 6896
  151.5588  133.3400  159.2975 H   0  0  0  0  0  0  0  0  0  0  0  0  # atno 6908 bound_to 6896
  150.8371  134.7682  159.6966 H   0  0  0  0  0  0  0  0  0  0  0  0  # atno 6909 bound_to 6896
  145.4588  140.9561  143.1981 H   0  0  0  0  0  0  0  0  0  0  0  0  # atno 7974 bound_to 7965
  154.8481  140.2925  155.5616 H   0  0  0  0  0  0  0  0  0  0  0  0  # atno 8008 bound_to 7997
  156.3015  140.2501  156.3367 H   0  0  0  0  0  0  0  0  0  0  0  0  # atno 8009 bound_to 7997
  154.9051  140.0390  157.1904 H   0  0  0  0  0  0  0  0  0  0  0  0  # atno 8010 bound_to 7997
  139.6981  144.7098  151.1233 H   0  0  0  0  0  0  0  0  0  0  0  0  # atno 10167 bound_to 10162
  157.4970  130.8413  149.8271 H   0  0  0  0  0  0  0  0  0  0  0  0  # atno 10718 bound_to 10713
  154.7897  135.4776  154.0025 H   0  0  0  0  0  0  0  0  0  0  0  0  # atno 10763 bound_to 10752
  153.1612  135.6809  153.8746 H   0  0  0  0  0  0  0  0  0  0  0  0  # atno 10764 bound_to 10752
  153.8359  135.3185  155.3400 H   0  0  0  0  0  0  0  0  0  0  0  0  # atno 10765 bound_to 10752
  140.0451  134.5817  155.9333 H   0  0  0  0  0  0  0  0  0  0  0  0  # atno 11005 bound_to 11000
  144.8015  139.6131  143.7069 LP  0  0  0  0  0  0  0  0  0  0  0  0  # atno 17320 bound_to 7965
  146.2463  139.6104  142.9458 LP  0  0  0  0  0  0  0  0  0  0  0  0  # atno 17321 bound_to 7965
  140.7702  143.5463  150.9255 LP  0  0  0  0  0  0  0  0  0  0  0  0  # atno 17342 bound_to 10162
  139.9143  143.6682  152.3109 LP  0  0  0  0  0  0  0  0  0  0  0  0  # atno 17343 bound_to 10162
  156.0206  130.3797  150.1973 LP  0  0  0  0  0  0  0  0  0  0  0  0  # atno 17370 bound_to 10713
  157.0162  130.9966  151.3352 LP  0  0  0  0  0  0  0  0  0  0  0  0  # atno 17371 bound_to 10713
  141.1903  133.6568  156.5405 LP  0  0  0  0  0  0  0  0  0  0  0  0  # atno 17394 bound_to 11000
  140.4006  134.7360  157.4777 LP  0  0  0  0  0  0  0  0  0  0  0  0  # atno 17395 bound_to 11000

$$$$
