AV-unprocessed.smi:821|AV-procd|sdf|3841|dock7
  -GOLD-   22720 1283D 1   1.00000     0.00000
 Structure written by MMmdl.
 45 46  0  0  0  0  0  0  0  0  2 V2000
  146.8696  142.1870  154.3521 C   0  0  0  0  0  0  0  0  0  0  0  0
  147.5820  140.8407  154.5405 C   0  0  1  0  0  0  0  0  0  0  0  0
  147.4072  139.9340  153.3006 C   0  0  0  0  0  0  0  0  0  0  0  0
  146.1488  139.1462  153.3302 N   0  3  0  0  0  0  0  0  0  0  0  0
  146.1131  138.0506  152.3311 C   0  0  0  0  0  0  0  0  0  0  0  0
  144.7501  137.3406  152.3716 C   0  0  0  0  0  0  0  0  0  0  0  0
  144.5095  136.8484  153.6846 O   0  0  0  0  0  0  0  0  0  0  0  0
  144.4658  137.8942  154.6478 C   0  0  0  0  0  0  0  0  0  0  0  0
  145.8176  138.6281  154.6778 C   0  0  0  0  0  0  0  0  0  0  0  0
  148.9961  141.0872  154.8261 N   0  0  0  0  0  0  0  0  0  0  0  0
  149.5999  140.9421  156.0161 C   0  0  0  0  0  0  0  0  0  0  0  0
  149.0198  140.5289  157.0209 O   0  0  0  0  0  0  0  0  0  0  0  0
  151.0946  141.2893  156.0579 C   0  0  0  0  0  0  0  0  0  0  0  0
  151.5428  141.7747  157.3744 N   0  0  0  0  0  0  0  0  0  0  0  0
  151.0446  143.0200  157.7974 C   0  0  0  0  0  0  0  0  0  0  0  0
  151.3900  143.5533  158.9770 C   0  0  0  0  0  0  0  0  0  0  0  0
  152.2967  142.8140  159.8211 C   0  0  0  0  0  0  0  0  0  0  0  0
  152.7966  141.6159  159.4390 C   0  0  0  0  0  0  0  0  0  0  0  0
  153.7546  140.8185  160.3217 C   0  0  0  0  0  0  0  0  0  0  0  0
  154.9840  140.8268  159.8053 F   0  0  0  0  0  0  0  0  0  0  0  0
  153.8271  141.3225  161.5545 F   0  0  0  0  0  0  0  0  0  0  0  0
  153.3537  139.5504  160.4230 F   0  0  0  0  0  0  0  0  0  0  0  0
  152.4138  141.0398  158.1336 C   0  0  0  0  0  0  0  0  0  0  0  0
  152.8484  139.9571  157.7369 O   0  0  0  0  0  0  0  0  0  0  0  0
  145.8031  142.0445  154.1754 H   0  0  0  0  0  0  0  0  0  0  0  0
  147.2766  142.7385  153.5039 H   0  0  0  0  0  0  0  0  0  0  0  0
  146.9737  142.8141  155.2385 H   0  0  0  0  0  0  0  0  0  0  0  0
  147.1208  140.3608  155.4047 H   0  0  0  0  0  0  0  0  0  0  0  0
  147.4488  140.5215  152.3819 H   0  0  0  0  0  0  0  0  0  0  0  0
  148.2565  139.2502  153.2600 H   0  0  0  0  0  0  0  0  0  0  0  0
  146.2877  138.4425  151.3293 H   0  0  0  0  0  0  0  0  0  0  0  0
  146.9120  137.3368  152.5385 H   0  0  0  0  0  0  0  0  0  0  0  0
  143.9492  138.0174  152.0690 H   0  0  0  0  0  0  0  0  0  0  0  0
  144.7411  136.5039  151.6732 H   0  0  0  0  0  0  0  0  0  0  0  0
  143.6529  138.5846  154.4155 H   0  0  0  0  0  0  0  0  0  0  0  0
  144.2494  137.4650  155.6263 H   0  0  0  0  0  0  0  0  0  0  0  0
  146.6057  137.9531  155.0156 H   0  0  0  0  0  0  0  0  0  0  0  0
  145.7700  139.4514  155.3912 H   0  0  0  0  0  0  0  0  0  0  0  0
  149.5568  141.4266  154.0574 H   0  0  0  0  0  0  0  0  0  0  0  0
  151.6565  140.4015  155.7652 H   0  0  0  0  0  0  0  0  0  0  0  0
  151.3177  142.0317  155.2890 H   0  0  0  0  0  0  0  0  0  0  0  0
  150.3762  143.5111  157.1051 H   0  0  0  0  0  0  0  0  0  0  0  0
  151.0019  144.5127  159.2869 H   0  0  0  0  0  0  0  0  0  0  0  0
  152.5713  143.2397  160.7747 H   0  0  0  0  0  0  0  0  0  0  0  0
  145.4083  139.7887  153.0859 H   0  0  0  0  0  0  0  0  0  0  0  0
  1  2  1  0  0  0  0
  1 25  1  0  0  0  0
  1 26  1  0  0  0  0
  1 27  1  0  0  0  0
  2  3  1  0  0  0  0
  2 10  1  0  0  0  0
  2 28  1  0  0  0  0
  3  4  1  0  0  0  0
  3 29  1  0  0  0  0
  3 30  1  0  0  0  0
  4  9  1  0  0  0  0
  4  5  1  0  0  0  0
  4 45  1  0  0  0  0
  5  6  1  0  0  0  0
  5 31  1  0  0  0  0
  5 32  1  0  0  0  0
  6  7  1  0  0  0  0
  6 33  1  0  0  0  0
  6 34  1  0  0  0  0
  7  8  1  0  0  0  0
  8  9  1  0  0  0  0
  8 35  1  0  0  0  0
  8 36  1  0  0  0  0
  9 37  1  0  0  0  0
  9 38  1  0  0  0  0
 10 11  1  0  0  0  0
 10 39  1  0  0  0  0
 11 12  2  0  0  0  0
 11 13  1  0  0  0  0
 13 14  1  0  0  0  0
 13 40  1  0  0  0  0
 13 41  1  0  0  0  0
 14 23  1  0  0  0  0
 14 15  1  0  0  0  0
 15 16  2  0  0  0  0
 15 42  1  0  0  0  0
 16 17  1  0  0  0  0
 16 43  1  0  0  0  0
 17 18  2  0  0  0  0
 17 44  1  0  0  0  0
 18 19  1  0  0  0  0
 18 23  1  0  0  0  0
 19 20  1  0  0  0  0
 19 21  1  0  0  0  0
 19 22  1  0  0  0  0
 23 24  2  0  0  0  0
M  CHG  1   4   1
M  END
> <s_m_source_file>
AV-unprocessed.smi

> <i_m_source_file_index>
821

> <i_lp_mmshare_version>
43012

> <i_f3d_flags>
0

> <s_epik_input>
W0NIMl0xW0NIMl1PW0NIMl1bQ0gyXU4xW0NIMl1bQ0BASF0oW0NIM10pW05IXUMoPU8pW0NIMl1uMltjSF1bY0hdW2NIXWMoQyhGKShGKUYpYzI9Tw==

> <s_epik_cmdline>
J2VwaWtfcHl0aG9uJywgJy1waCcsICc3LjAnLCAnLXRuJywgJzgnLCAnLW1hJywgJzIwMCcsICctbWV0YWxfYmluZGluZycsICctaW1hZScsICc8aW5maWxlLm1hZT4nLCAnLW9tYWUnLCAnPG91dGZpbGUubWFlPic=

> <r_lp_tautomer_probability>
1

> <r_epik_Ionization_Penalty>
0.656654

> <r_epik_Ionization_Penalty_Charging>
0.656653

> <r_epik_Ionization_Penalty_Neutral>
9.12373e-08

> <r_epik_State_Penalty>
0.675641

> <r_epik_Charging_Adjusted_Penalty>
1.33229

> <i_epik_Tot_Q>
1

> <i_epik_Tot_abs_Q>
1

> <r_epik_Metal_State_Penalty>
0.675695

> <b_epik_Metal_Only>
0

> <s_lp_Force_Field>
OPLS_2005

> <r_lp_Energy>
32.7589

> <b_lp_Chiralities_Consistent>
1

> <s_lp_Variant>
AV-unprocessed.smi:821-4

> <Gold.Version>
5.8.1

> <Gold.Id.Protein>
6NUR|6NUR_protein|mol2

> <Gold.PLP.Fitness>
51.9768

> <Gold.PLP.PLP>
-42.2898

> <Gold.PLP.part.hbond>
-2.0000

> <Gold.PLP.part.metal>
0.0000

> <Gold.PLP.part.buried>
-4.4029

> <Gold.PLP.part.nonpolar>
-35.9278

> <Gold.PLP.part.repulsive>
0.2469

> <Gold.PLP.ligand.clash>
0.0000

> <Gold.PLP.ligand.torsion>
1.3356

> <Gold.PLP.Chemscore.Hbond>
3.0000

> <Gold.PLP.Chemscore.CHOScore>
1.0000

> <Gold.PLP.Chemscore.Metal>
0.0000

> <Gold.Chemscore.Hbonds>
donor molecule, donor type, donor heavy atom, donor atom, acceptor molecule, acceptor atom, score
      L1  H     4    45       P1 10175  2.00
      P1  H  7997  8009       L1    24  1.00
      L1  C    15    42       P1  8028  1.00

> <Gold.PLP.Chemscore.Internal.Correction>
0.3581

> <Gold.Rescore>
     Score         DG    S(hbond)    S(metal)    S(lipo)     H(rot)  DE(clash)    DE(int)     intcor
     13.21     -16.77       1.90        0.00      89.73       2.17       0.10       3.46       ----

> <Gold.Chemscore.Fitness>
13.2147

> <Gold.Chemscore.DG>
-16.7663

> <Gold.Chemscore.ZeroCoef>
-5.4800

> <Gold.Chemscore.Hbond>
1.9002

> <Gold.Chemscore.Metal>
0.0000

> <Gold.Chemscore.Lipo>
89.7338

> <Gold.Chemscore.Internal_Hbond>
0.0000

> <Gold.Chemscore.DEClash>
0.0954

> <Gold.Chemscore.DEInternal>
3.4562

> <Gold.Chemscore.Rot>
2.1716

> <Gold.Chemscore.Internal.Correction>
   9.000000E+99

> <Gold.Chemscore.Hbonds>
donor molecule, donor type, donor heavy atom, donor atom, acceptor molecule, acceptor atom, score
      L1  H     4    45       P1 10175  0.98
      P1  H  7997  8009       L1    24  0.87

> <Gold.Chemscore.Hbond.Weighted>
-6.3466

> <Gold.Chemscore.Metal.Weighted>
-0.0000

> <Gold.Chemscore.Lipo.Weighted>
-10.4989

> <Gold.Chemscore.Internal_Hbond.Weighted>
0.0000

> <Gold.Chemscore.DEClash.Weighted>
0.0954

> <Gold.Chemscore.DEInternal.Weighted>
3.4562

> <Gold.Chemscore.Rot.Weighted>
5.5592

> <Gold.Chemscore.Internal.Correction.Weighted>
   9.000000E+99

> <Gold.Protein.RotatedTorsions>
[ 6907 6896 6895 6894 ] final  111.11 input  -60.11 | X-H torsion
[ 7974 7965 7964 7962 ] final  172.72 input  175.53 | X-H torsion
[ 8008 7997 7996 7995 ] final  167.01 input   59.86 | X-H torsion
[ 10167 10162 10161 10158 ] final   83.47 input  -65.29 | X-H torsion
[ 10718 10713 10712 10709 ] final -109.28 input   66.30 | X-H torsion
[ 10763 10752 10751 10750 ] final  104.90 input  -60.55 | X-H torsion
[ 11005 11000 10999 10996 ] final  -11.43 input  -57.11 | X-H torsion

> <Gold.Protein.ActiveResidues>
 VAL166  LYS551  ARG553  GLY616  TRP617  ASP618  TYR619  PRO620  LYS621  CYS622 
 ASP623  PHE694  ASN695  SER759  ASP760  ASP761  ALA762  ILE779  LEU786  VAL792 
 PHE793  MET794  SER795  GLU796  ALA797  LYS798  CYS799  TRP800  GLU811  SER814 

> <Gold.Protein.RotatedAtoms>
  152.4986  133.8705  159.7295 H   0  0  0  0  0  0  0  0  0  0  0  0  # atno 6907 bound_to 6896
  150.9193  133.6891  159.2842 H   0  0  0  0  0  0  0  0  0  0  0  0  # atno 6908 bound_to 6896
  151.4274  135.1010  159.9684 H   0  0  0  0  0  0  0  0  0  0  0  0  # atno 6909 bound_to 6896
  144.7261  139.9540  143.6433 H   0  0  0  0  0  0  0  0  0  0  0  0  # atno 7974 bound_to 7965
  156.1670  140.1628  156.8514 H   0  0  0  0  0  0  0  0  0  0  0  0  # atno 8008 bound_to 7997
  154.5217  140.0776  156.8219 H   0  0  0  0  0  0  0  0  0  0  0  0  # atno 8009 bound_to 7997
  155.3591  140.3394  155.4243 H   0  0  0  0  0  0  0  0  0  0  0  0  # atno 8010 bound_to 7997
  139.9181  144.6230  150.8468 H   0  0  0  0  0  0  0  0  0  0  0  0  # atno 10167 bound_to 10162
  156.0529  130.5756  150.8078 H   0  0  0  0  0  0  0  0  0  0  0  0  # atno 10718 bound_to 10713
  153.3721  135.3928  155.1796 H   0  0  0  0  0  0  0  0  0  0  0  0  # atno 10763 bound_to 10752
  154.8696  135.3705  154.4965 H   0  0  0  0  0  0  0  0  0  0  0  0  # atno 10764 bound_to 10752
  153.5433  135.7084  153.5687 H   0  0  0  0  0  0  0  0  0  0  0  0  # atno 10765 bound_to 10752
  140.7551  133.8560  155.9078 H   0  0  0  0  0  0  0  0  0  0  0  0  # atno 11005 bound_to 11000
  146.0689  139.3679  143.0535 LP  0  0  0  0  0  0  0  0  0  0  0  0  # atno 17320 bound_to 7965
  145.7994  140.9778  143.1007 LP  0  0  0  0  0  0  0  0  0  0  0  0  # atno 17321 bound_to 7965
  140.7669  143.3317  151.2397 LP  0  0  0  0  0  0  0  0  0  0  0  0  # atno 17342 bound_to 10162
  139.6885  143.9733  152.2847 LP  0  0  0  0  0  0  0  0  0  0  0  0  # atno 17343 bound_to 10162
  157.5472  131.0943  150.9746 LP  0  0  0  0  0  0  0  0  0  0  0  0  # atno 17370 bound_to 10713
  157.0015  130.5601  149.5312 LP  0  0  0  0  0  0  0  0  0  0  0  0  # atno 17371 bound_to 10713
  140.9715  134.1525  157.4572 LP  0  0  0  0  0  0  0  0  0  0  0  0  # atno 17394 bound_to 11000
  139.8780  134.9980  156.5876 LP  0  0  0  0  0  0  0  0  0  0  0  0  # atno 17395 bound_to 11000

$$$$
