AV-unprocessed.smi:231|AV-procd|sdf|1766|dock10
  -GOLD-   2262020303D 1   1.00000     0.00000
 Structure written by MMmdl.
 50 53  0  0  0  0  0  0  0  0  1 V2000
  150.0529  139.4534  155.9340 C   0  0  0  0  0  0  0  0  0  0  0  0
  148.6299  139.0061  156.2917 C   0  0  0  0  0  0  0  0  0  0  0  0
  147.7601  138.8560  155.1274 N   0  0  0  0  0  0  0  0  0  0  0  0
  147.3393  137.6001  154.8457 C   0  0  0  0  0  0  0  0  0  0  0  0
  147.7858  136.5956  155.6402 N   0  0  0  0  0  0  0  0  0  0  0  0
  147.4125  135.3356  155.3989 C   0  0  0  0  0  0  0  0  0  0  0  0
  146.6080  134.8727  154.4401 N   0  0  0  0  0  0  0  0  0  0  0  0
  146.1363  135.8846  153.6562 C   0  0  0  0  0  0  0  0  0  0  0  0
  146.4463  137.2673  153.7893 C   0  0  0  0  0  0  0  0  0  0  0  0
  145.7835  137.9953  152.8093 N   0  0  0  0  0  0  0  0  0  0  0  0
  145.1369  137.0935  152.1231 C   0  0  0  0  0  0  0  0  0  0  0  0
  145.2735  135.8013  152.5777 N   0  0  0  0  0  0  0  0  0  0  0  0
  144.7176  134.6176  151.9913 C   0  0  0  0  0  0  0  0  0  0  0  0
  145.3745  133.2452  152.1771 C   0  0  0  0  0  0  0  0  0  0  0  0
  144.8802  132.8363  150.7698 C   0  0  0  0  0  0  0  0  0  0  0  0
  145.8465  131.9912  149.9166 C   0  0  0  0  0  0  0  0  0  0  0  0
  147.1718  132.4821  149.9483 O   0  0  0  0  0  0  0  0  0  0  0  0
  143.5196  132.1131  150.7663 C   0  0  0  0  0  0  0  0  0  0  0  0
  142.9368  132.1071  149.4788 O   0  0  0  0  0  0  0  0  0  0  0  0
  144.8248  134.3558  150.4862 C   0  0  0  0  0  0  0  0  0  0  0  0
  147.2011  140.0207  154.4216 C   0  0  1  0  0  0  0  0  0  0  0  0
  145.8814  140.5268  155.0403 C   0  0  0  0  0  0  0  0  0  0  0  0
  146.2380  141.8260  155.7769 C   0  0  0  0  0  0  0  0  0  0  0  0
  147.5129  142.2198  155.2119 N   0  0  0  0  0  0  0  0  0  0  0  0
  148.0867  141.2637  154.4822 C   0  0  0  0  0  0  0  0  0  0  0  0
  149.1696  141.3595  153.9093 O   0  0  0  0  0  0  0  0  0  0  0  0
  150.6508  139.5853  156.8357 H   0  0  0  0  0  0  0  0  0  0  0  0
  150.0506  140.4027  155.3990 H   0  0  0  0  0  0  0  0  0  0  0  0
  150.5590  138.7147  155.3132 H   0  0  0  0  0  0  0  0  0  0  0  0
  148.6694  138.0518  156.8181 H   0  0  0  0  0  0  0  0  0  0  0  0
  148.1941  139.7170  156.9957 H   0  0  0  0  0  0  0  0  0  0  0  0
  147.8171  134.5918  156.0692 H   0  0  0  0  0  0  0  0  0  0  0  0
  144.5371  137.3513  151.2625 H   0  0  0  0  0  0  0  0  0  0  0  0
  143.6745  134.5913  152.3107 H   0  0  0  0  0  0  0  0  0  0  0  0
  146.4603  133.3132  152.2596 H   0  0  0  0  0  0  0  0  0  0  0  0
  144.9609  132.6569  152.9967 H   0  0  0  0  0  0  0  0  0  0  0  0
  145.8656  130.9572  150.2623 H   0  0  0  0  0  0  0  0  0  0  0  0
  145.5310  131.9682  148.8730 H   0  0  0  0  0  0  0  0  0  0  0  0
  147.7638  131.7458  149.9703 H   0  0  0  0  0  0  0  0  0  0  0  0
  143.6221  131.0830  151.1090 H   0  0  0  0  0  0  0  0  0  0  0  0
  142.8141  132.5900  151.4469 H   0  0  0  0  0  0  0  0  0  0  0  0
  142.3481  132.8434  149.4121 H   0  0  0  0  0  0  0  0  0  0  0  0
  143.9599  134.6877  149.9113 H   0  0  0  0  0  0  0  0  0  0  0  0
  145.7470  134.7565  150.0620 H   0  0  0  0  0  0  0  0  0  0  0  0
  147.0378  139.7542  153.3763 H   0  0  0  0  0  0  0  0  0  0  0  0
  145.1818  140.7578  154.2355 H   0  0  0  0  0  0  0  0  0  0  0  0
  145.3792  139.8047  155.6835 H   0  0  0  0  0  0  0  0  0  0  0  0
  145.4828  142.6002  155.6394 H   0  0  0  0  0  0  0  0  0  0  0  0
  146.3626  141.6485  156.8461 H   0  0  0  0  0  0  0  0  0  0  0  0
  147.9237  143.1274  155.3771 H   0  0  0  0  0  0  0  0  0  0  0  0
  1  2  1  0  0  0  0
  1 27  1  0  0  0  0
  1 28  1  0  0  0  0
  1 29  1  0  0  0  0
  2  3  1  0  0  0  0
  2 30  1  0  0  0  0
  2 31  1  0  0  0  0
  3  4  1  0  0  0  0
  3 21  1  0  0  0  0
  4  9  1  0  0  0  0
  4  5  2  0  0  0  0
  5  6  1  0  0  0  0
  6  7  2  0  0  0  0
  6 32  1  0  0  0  0
  7  8  1  0  0  0  0
  8 12  1  0  0  0  0
  8  9  2  0  0  0  0
  9 10  1  0  0  0  0
 10 11  2  0  0  0  0
 11 12  1  0  0  0  0
 11 33  1  0  0  0  0
 12 13  1  0  0  0  0
 13 20  1  0  0  0  0
 13 14  1  0  0  0  0
 13 34  1  0  0  0  0
 14 15  1  0  0  0  0
 14 35  1  0  0  0  0
 14 36  1  0  0  0  0
 15 16  1  0  0  0  0
 15 18  1  0  0  0  0
 15 20  1  0  0  0  0
 16 17  1  0  0  0  0
 16 37  1  0  0  0  0
 16 38  1  0  0  0  0
 17 39  1  0  0  0  0
 18 19  1  0  0  0  0
 18 40  1  0  0  0  0
 18 41  1  0  0  0  0
 19 42  1  0  0  0  0
 20 43  1  0  0  0  0
 20 44  1  0  0  0  0
 21 25  1  0  0  0  0
 21 22  1  0  0  0  0
 21 45  1  0  0  0  0
 22 23  1  0  0  0  0
 22 46  1  0  0  0  0
 22 47  1  0  0  0  0
 23 24  1  0  0  0  0
 23 48  1  0  0  0  0
 23 49  1  0  0  0  0
 24 25  1  0  0  0  0
 24 50  1  0  0  0  0
 25 26  2  0  0  0  0
M  END
> <s_m_source_file>
AV-unprocessed.smi

> <i_m_source_file_index>
231

> <i_lp_mmshare_version>
43012

> <i_f3d_flags>
0

> <s_epik_input>
Tz1DMVtOSF1bQ0gyXVtDSDJdW0NASF0xTihbQ0gyXVtDSDNdKWMobltjSF1uMiljKGMyMyluW2NIXW4zW0NIXShbQ0gyXTQpW0NIMl1DNChbQ0gyXVtPSF0pW0NIMl1bT0hd

> <s_epik_cmdline>
J2VwaWtfcHl0aG9uJywgJy1waCcsICc3LjAnLCAnLXRuJywgJzgnLCAnLW1hJywgJzIwMCcsICctbWV0YWxfYmluZGluZycsICctaW1hZScsICc8aW5maWxlLm1hZT4nLCAnLW9tYWUnLCAnPG91dGZpbGUubWFlPic=

> <r_lp_tautomer_probability>
1

> <r_epik_Ionization_Penalty>
0.000842899

> <r_epik_Ionization_Penalty_Charging>
0

> <r_epik_Ionization_Penalty_Neutral>
0.000842899

> <r_epik_State_Penalty>
0.000441286

> <r_epik_Charging_Adjusted_Penalty>
0.000441286

> <i_epik_Tot_Q>
0

> <i_epik_Tot_abs_Q>
0

> <r_epik_Metal_State_Penalty>
-0

> <b_epik_Metal_Only>
0

> <s_lp_Force_Field>
OPLS_2005

> <r_lp_Energy>
52.3391

> <b_lp_Chiralities_Consistent>
1

> <s_lp_Variant>
AV-unprocessed.smi:231-2

> <Gold.Version>
5.8.1

> <Gold.Id.Protein>
6NUR|6NUR_protein|mol2

> <Gold.PLP.Fitness>
47.7273

> <Gold.PLP.PLP>
-33.2225

> <Gold.PLP.part.hbond>
-7.3911

> <Gold.PLP.part.metal>
0.0000

> <Gold.PLP.part.buried>
-5.5742

> <Gold.PLP.part.nonpolar>
-22.7483

> <Gold.PLP.part.repulsive>
1.6529

> <Gold.PLP.ligand.clash>
0.0000

> <Gold.PLP.ligand.torsion>
1.4141

> <Gold.PLP.Chemscore.Hbond>
4.5548

> <Gold.PLP.Chemscore.CHOScore>
0.9733

> <Gold.PLP.Chemscore.Metal>
0.0000

> <Gold.Chemscore.Hbonds>
donor molecule, donor type, donor heavy atom, donor atom, acceptor molecule, acceptor atom, score
      L1  H    17    39       P1 10747  0.98
      L1  H    19    42       P1 10186  0.91
      L1  H    24    50       P1  8028  1.00
      P1  H  8011  8017       L1    26  0.78
      P1  H 10785 10796       L1    19  0.80
      L1  C    11    33       P1 10171  0.97

> <Gold.PLP.Chemscore.Internal.Correction>
0.7489

> <Gold.Rescore>
     Score         DG    S(hbond)    S(metal)    S(lipo)     H(rot)  DE(clash)    DE(int)     intcor
     14.09     -19.11       4.66        0.00      62.78       3.63       1.46       3.57       ----

> <Gold.Chemscore.Fitness>
14.0863

> <Gold.Chemscore.DG>
-19.1150

> <Gold.Chemscore.ZeroCoef>
-5.4800

> <Gold.Chemscore.Hbond>
4.6627

> <Gold.Chemscore.Metal>
0.0000

> <Gold.Chemscore.Lipo>
62.7781

> <Gold.Chemscore.Internal_Hbond>
0.0000

> <Gold.Chemscore.DEClash>
1.4602

> <Gold.Chemscore.DEInternal>
3.5684

> <Gold.Chemscore.Rot>
3.6264

> <Gold.Chemscore.Internal.Correction>
   9.000000E+99

> <Gold.Chemscore.Hbonds>
donor molecule, donor type, donor heavy atom, donor atom, acceptor molecule, acceptor atom, score
      L1  H    17    39       P1 10747  0.91
      L1  H    19    42       P1 10186  0.87
      L1  H    24    50       P1  8028  0.70
      P1  H  8011  8017       L1    26  0.75
      P1  H 10785 10796       L1    19  0.43

> <Gold.Chemscore.Hbond.Weighted>
-15.5735

> <Gold.Chemscore.Metal.Weighted>
-0.0000

> <Gold.Chemscore.Lipo.Weighted>
-7.3450

> <Gold.Chemscore.Internal_Hbond.Weighted>
0.0000

> <Gold.Chemscore.DEClash.Weighted>
1.4602

> <Gold.Chemscore.DEInternal.Weighted>
3.5684

> <Gold.Chemscore.Rot.Weighted>
9.2835

> <Gold.Chemscore.Internal.Correction.Weighted>
   9.000000E+99

> <Gold.Protein.RotatedTorsions>
[ 6907 6896 6895 6894 ] final -116.47 input  -60.11 | X-H torsion
[ 7974 7965 7964 7962 ] final -149.43 input  175.53 | X-H torsion
[ 8008 7997 7996 7995 ] final  177.23 input   59.86 | X-H torsion
[ 10167 10162 10161 10158 ] final   24.42 input  -65.29 | X-H torsion
[ 10718 10713 10712 10709 ] final  -53.63 input   66.30 | X-H torsion
[ 10763 10752 10751 10750 ] final   72.09 input  -60.55 | X-H torsion
[ 11005 11000 10999 10996 ] final   16.63 input  -57.11 | X-H torsion

> <Gold.Protein.ActiveResidues>
 VAL166  LYS551  ARG553  GLY616  TRP617  ASP618  TYR619  PRO620  LYS621  CYS622 
 ASP623  PHE694  ASN695  SER759  ASP760  ASP761  ALA762  ILE779  LEU786  VAL792 
 PHE793  MET794  SER795  GLU796  ALA797  LYS798  CYS799  TRP800  GLU811  SER814 

> <Gold.Protein.RotatedAtoms>
  150.8059  133.8512  159.3205 H   0  0  0  0  0  0  0  0  0  0  0  0  # atno 6907 bound_to 6896
  151.6311  135.1021  160.0131 H   0  0  0  0  0  0  0  0  0  0  0  0  # atno 6908 bound_to 6896
  152.4149  133.6982  159.6465 H   0  0  0  0  0  0  0  0  0  0  0  0  # atno 6909 bound_to 6896
  144.7968  140.5065  143.5735 H   0  0  0  0  0  0  0  0  0  0  0  0  # atno 7974 bound_to 7965
  156.0679  140.1363  156.9864 H   0  0  0  0  0  0  0  0  0  0  0  0  # atno 8008 bound_to 7997
  154.4516  140.0978  156.6685 H   0  0  0  0  0  0  0  0  0  0  0  0  # atno 8009 bound_to 7997
  155.5275  140.3458  155.4421 H   0  0  0  0  0  0  0  0  0  0  0  0  # atno 8010 bound_to 7997
  140.5189  144.0035  150.6407 H   0  0  0  0  0  0  0  0  0  0  0  0  # atno 10167 bound_to 10162
  156.1519  130.4151  149.9931 H   0  0  0  0  0  0  0  0  0  0  0  0  # atno 10718 bound_to 10713
  153.0438  135.5112  154.7692 H   0  0  0  0  0  0  0  0  0  0  0  0  # atno 10763 bound_to 10752
  154.6608  135.2938  154.9871 H   0  0  0  0  0  0  0  0  0  0  0  0  # atno 10764 bound_to 10752
  154.0722  135.6676  153.4878 H   0  0  0  0  0  0  0  0  0  0  0  0  # atno 10765 bound_to 10752
  140.4450  134.1283  155.7695 H   0  0  0  0  0  0  0  0  0  0  0  0  # atno 11005 bound_to 11000
  145.5654  139.1481  143.3318 LP  0  0  0  0  0  0  0  0  0  0  0  0  # atno 17320 bound_to 7965
  146.2238  140.5789  142.9005 LP  0  0  0  0  0  0  0  0  0  0  0  0  # atno 17321 bound_to 7965
  140.3379  143.3038  152.0619 LP  0  0  0  0  0  0  0  0  0  0  0  0  # atno 17342 bound_to 10162
  139.4917  144.6463  151.6770 LP  0  0  0  0  0  0  0  0  0  0  0  0  # atno 17343 bound_to 10162
  156.7787  130.9213  151.3645 LP  0  0  0  0  0  0  0  0  0  0  0  0  # atno 17370 bound_to 10713
  157.6664  130.9011  149.9941 LP  0  0  0  0  0  0  0  0  0  0  0  0  # atno 17371 bound_to 10713
  141.1689  133.8648  157.1631 LP  0  0  0  0  0  0  0  0  0  0  0  0  # atno 17394 bound_to 11000
  140.0045  135.0014  157.0262 LP  0  0  0  0  0  0  0  0  0  0  0  0  # atno 17395 bound_to 11000

$$$$
