AV-unprocessed.smi:2214|AV-procd|sdf|8959|dock10
  -GOLD-   2272012173D 1   1.00000     0.00000
 Structure written by MMmdl.
 41 42  0  0  0  0  0  0  0  0  1 V2000
  151.1013  144.6195  158.3764 C   0  0  0  0  0  0  0  0  0  0  0  0
  151.9229  143.4262  158.8192 C   0  0  0  0  0  0  0  0  0  0  0  0
  152.7019  143.4936  159.9913 C   0  0  0  0  0  0  0  0  0  0  0  0
  153.4595  142.3794  160.3958 C   0  0  0  0  0  0  0  0  0  0  0  0
  153.4415  141.1963  159.6323 C   0  0  0  0  0  0  0  0  0  0  0  0
  154.3836  139.8425  160.1474 Cl  0  0  0  0  0  0  0  0  0  0  0  0
  152.6668  141.1139  158.4543 C   0  0  0  0  0  0  0  0  0  0  0  0
  152.6987  139.9235  157.7603 O   0  0  0  0  0  0  0  0  0  0  0  0
  151.9952  139.8338  156.5291 C   0  0  0  0  0  0  0  0  0  0  0  0
  152.8811  139.0761  155.5292 C   0  0  1  0  0  0  0  0  0  0  0  0
  153.5152  138.0298  156.2362 O   0  0  0  0  0  0  0  0  0  0  0  0
  152.0640  138.4754  154.3608 C   0  0  0  0  0  0  0  0  0  0  0  0
  150.8276  137.8327  154.8334 N   0  0  0  0  0  0  0  0  0  0  0  0
  149.6222  138.4573  154.4698 C   0  0  0  0  0  0  0  0  0  0  0  0
  148.4752  137.9740  154.8189 N   0  0  0  0  0  0  0  0  0  0  0  0
  148.4149  136.7986  155.5733 C   0  0  0  0  0  0  0  0  0  0  0  0
  147.0187  136.3185  155.9278 C   0  0  0  0  0  0  0  0  0  0  0  0
  149.5458  136.1417  155.9512 C   0  0  0  0  0  0  0  0  0  0  0  0
  149.5412  134.8577  156.7714 C   0  0  0  0  0  0  0  0  0  0  0  0
  150.8591  136.6777  155.5576 C   0  0  0  0  0  0  0  0  0  0  0  0
  151.9215  136.1288  155.8562 O   0  0  0  0  0  0  0  0  0  0  0  0
  151.9055  142.2416  158.0548 C   0  0  0  0  0  0  0  0  0  0  0  0
  151.2809  145.4854  159.0142 H   0  0  0  0  0  0  0  0  0  0  0  0
  150.0383  144.3810  158.4159 H   0  0  0  0  0  0  0  0  0  0  0  0
  151.3542  144.8943  157.3521 H   0  0  0  0  0  0  0  0  0  0  0  0
  152.7218  144.3965  160.5840 H   0  0  0  0  0  0  0  0  0  0  0  0
  154.0564  142.4339  161.2942 H   0  0  0  0  0  0  0  0  0  0  0  0
  151.0609  139.2911  156.6832 H   0  0  0  0  0  0  0  0  0  0  0  0
  151.7550  140.8263  156.1438 H   0  0  0  0  0  0  0  0  0  0  0  0
  153.6510  139.7560  155.1612 H   0  0  0  0  0  0  0  0  0  0  0  0
  153.8432  137.4000  155.6127 H   0  0  0  0  0  0  0  0  0  0  0  0
  151.8635  139.2282  153.5958 H   0  0  0  0  0  0  0  0  0  0  0  0
  152.6637  137.7305  153.8336 H   0  0  0  0  0  0  0  0  0  0  0  0
  149.7252  139.3658  153.8731 H   0  0  0  0  0  0  0  0  0  0  0  0
  146.8907  136.2778  157.0099 H   0  0  0  0  0  0  0  0  0  0  0  0
  146.8418  135.3242  155.5172 H   0  0  0  0  0  0  0  0  0  0  0  0
  146.2552  136.9859  155.5262 H   0  0  0  0  0  0  0  0  0  0  0  0
  150.0165  134.0523  156.2105 H   0  0  0  0  0  0  0  0  0  0  0  0
  148.5407  134.5241  157.0419 H   0  0  0  0  0  0  0  0  0  0  0  0
  150.1001  135.0010  157.6970 H   0  0  0  0  0  0  0  0  0  0  0  0
  151.2959  142.2193  157.1641 H   0  0  0  0  0  0  0  0  0  0  0  0
  1  2  1  0  0  0  0
  1 23  1  0  0  0  0
  1 24  1  0  0  0  0
  1 25  1  0  0  0  0
  2 22  1  0  0  0  0
  2  3  2  0  0  0  0
  3  4  1  0  0  0  0
  3 26  1  0  0  0  0
  4  5  2  0  0  0  0
  4 27  1  0  0  0  0
  5  6  1  0  0  0  0
  5  7  1  0  0  0  0
  7  8  1  0  0  0  0
  7 22  2  0  0  0  0
  8  9  1  0  0  0  0
  9 10  1  0  0  0  0
  9 28  1  0  0  0  0
  9 29  1  0  0  0  0
 10 11  1  0  0  0  0
 10 12  1  0  0  0  0
 10 30  1  0  0  0  0
 11 31  1  0  0  0  0
 12 13  1  0  0  0  0
 12 32  1  0  0  0  0
 12 33  1  0  0  0  0
 13 20  1  0  0  0  0
 13 14  1  0  0  0  0
 14 15  2  0  0  0  0
 14 34  1  0  0  0  0
 15 16  1  0  0  0  0
 16 17  1  0  0  0  0
 16 18  2  0  0  0  0
 17 35  1  0  0  0  0
 17 36  1  0  0  0  0
 17 37  1  0  0  0  0
 18 19  1  0  0  0  0
 18 20  1  0  0  0  0
 19 38  1  0  0  0  0
 19 39  1  0  0  0  0
 19 40  1  0  0  0  0
 20 21  2  0  0  0  0
 22 41  1  0  0  0  0
M  END
> <s_m_source_file>
AV-unprocessed.smi

> <i_m_source_file_index>
2214

> <i_lp_mmshare_version>
43012

> <i_f3d_flags>
0

> <s_epik_input>
W0NIM11jMVtjSF1bY0hdYyhDbCljKFtjSF0xKU9bQ0gyXVtDQEhdKFtPSF0pW0NIMl1uMltjSF1uYyhbQ0gzXSljKFtDSDNdKWMyPU8=

> <s_epik_cmdline>
J2VwaWtfcHl0aG9uJywgJy1waCcsICc3LjAnLCAnLXRuJywgJzgnLCAnLW1hJywgJzIwMCcsICctbWV0YWxfYmluZGluZycsICctaW1hZScsICc8aW5maWxlLm1hZT4nLCAnLW9tYWUnLCAnPG91dGZpbGUubWFlPic=

> <r_lp_tautomer_probability>
1

> <r_epik_Ionization_Penalty>
3.50205e-05

> <r_epik_Ionization_Penalty_Charging>
7.87908e-08

> <r_epik_Ionization_Penalty_Neutral>
3.49418e-05

> <r_epik_State_Penalty>
-0

> <r_epik_Charging_Adjusted_Penalty>
7.87908e-08

> <i_epik_Tot_Q>
0

> <i_epik_Tot_abs_Q>
0

> <r_epik_Metal_State_Penalty>
-0

> <b_epik_Metal_Only>
0

> <s_lp_Force_Field>
OPLS_2005

> <r_lp_Energy>
22.3765

> <b_lp_Chiralities_Consistent>
1

> <s_lp_Variant>
AV-unprocessed.smi:2214-2

> <Gold.Version>
5.8.1

> <Gold.Id.Protein>
6NUR|6NUR_protein|mol2

> <Gold.PLP.Fitness>
46.0195

> <Gold.PLP.PLP>
-39.0723

> <Gold.PLP.part.hbond>
-3.0000

> <Gold.PLP.part.metal>
0.0000

> <Gold.PLP.part.buried>
-2.3751

> <Gold.PLP.part.nonpolar>
-33.1537

> <Gold.PLP.part.repulsive>
0.2239

> <Gold.PLP.ligand.clash>
0.0000

> <Gold.PLP.ligand.torsion>
0.7017

> <Gold.PLP.Chemscore.Hbond>
1.7800

> <Gold.PLP.Chemscore.CHOScore>
0.9927

> <Gold.PLP.Chemscore.Metal>
0.0000

> <Gold.Chemscore.Hbonds>
donor molecule, donor type, donor heavy atom, donor atom, acceptor molecule, acceptor atom, score
      P1  H  7997  8009       L1     8  0.81
      P1  H 10752 10763       L1    21  0.99
      L1  C    14    34       P1  7957  0.34

> <Gold.PLP.Chemscore.Internal.Correction>
0.0327

> <Gold.Rescore>
     Score         DG    S(hbond)    S(metal)    S(lipo)     H(rot)  DE(clash)    DE(int)     intcor
     12.01     -15.81       0.95        0.00     112.53       2.35       1.22       2.58       ----

> <Gold.Chemscore.Fitness>
12.0105

> <Gold.Chemscore.DG>
-15.8125

> <Gold.Chemscore.ZeroCoef>
-5.4800

> <Gold.Chemscore.Hbond>
0.9522

> <Gold.Chemscore.Metal>
0.0000

> <Gold.Chemscore.Lipo>
112.5287

> <Gold.Chemscore.Internal_Hbond>
0.0000

> <Gold.Chemscore.DEClash>
1.2246

> <Gold.Chemscore.DEInternal>
2.5774

> <Gold.Chemscore.Rot>
2.3490

> <Gold.Chemscore.Internal.Correction>
   9.000000E+99

> <Gold.Chemscore.Hbonds>
donor molecule, donor type, donor heavy atom, donor atom, acceptor molecule, acceptor atom, score
      P1  H  7997  8009       L1     8  0.03
      P1  H 10752 10763       L1    21  0.92

> <Gold.Chemscore.Hbond.Weighted>
-3.1802

> <Gold.Chemscore.Metal.Weighted>
-0.0000

> <Gold.Chemscore.Lipo.Weighted>
-13.1659

> <Gold.Chemscore.Internal_Hbond.Weighted>
0.0000

> <Gold.Chemscore.DEClash.Weighted>
1.2246

> <Gold.Chemscore.DEInternal.Weighted>
2.5774

> <Gold.Chemscore.Rot.Weighted>
6.0136

> <Gold.Chemscore.Internal.Correction.Weighted>
   9.000000E+99

> <Gold.Protein.RotatedTorsions>
[ 6907 6896 6895 6894 ] final -127.62 input  -60.11 | X-H torsion
[ 7974 7965 7964 7962 ] final   69.31 input  175.53 | X-H torsion
[ 8008 7997 7996 7995 ] final  156.61 input   59.86 | X-H torsion
[ 10167 10162 10161 10158 ] final  -28.93 input  -65.29 | X-H torsion
[ 10718 10713 10712 10709 ] final   14.12 input   66.30 | X-H torsion
[ 10763 10752 10751 10750 ] final   62.06 input  -60.55 | X-H torsion
[ 11005 11000 10999 10996 ] final   31.58 input  -57.11 | X-H torsion

> <Gold.Protein.ActiveResidues>
 VAL166  LYS551  ARG553  GLY616  TRP617  ASP618  TYR619  PRO620  LYS621  CYS622 
 ASP623  PHE694  ASN695  SER759  ASP760  ASP761  ALA762  ILE779  LEU786  VAL792 
 PHE793  MET794  SER795  GLU796  ALA797  LYS798  CYS799  TRP800  GLU811  SER814 

> <Gold.Protein.RotatedAtoms>
  150.9092  133.7019  159.2858 H   0  0  0  0  0  0  0  0  0  0  0  0  # atno 6907 bound_to 6896
  151.4512  135.1028  159.9708 H   0  0  0  0  0  0  0  0  0  0  0  0  # atno 6908 bound_to 6896
  152.4920  133.8477  159.7240 H   0  0  0  0  0  0  0  0  0  0  0  0  # atno 6909 bound_to 6896
  145.7920  139.2939  143.1205 H   0  0  0  0  0  0  0  0  0  0  0  0  # atno 7974 bound_to 7965
  156.2412  140.1908  156.6982 H   0  0  0  0  0  0  0  0  0  0  0  0  # atno 8008 bound_to 7997
  154.6201  140.0609  156.9631 H   0  0  0  0  0  0  0  0  0  0  0  0  # atno 8009 bound_to 7997
  155.1875  140.3281  155.4367 H   0  0  0  0  0  0  0  0  0  0  0  0  # atno 8010 bound_to 7997
  140.7265  143.3969  151.1331 H   0  0  0  0  0  0  0  0  0  0  0  0  # atno 10167 bound_to 10162
  157.0346  130.6206  149.5741 H   0  0  0  0  0  0  0  0  0  0  0  0  # atno 10718 bound_to 10713
  152.9970  135.5478  154.6133 H   0  0  0  0  0  0  0  0  0  0  0  0  # atno 10763 bound_to 10752
  154.5448  135.2822  155.1064 H   0  0  0  0  0  0  0  0  0  0  0  0  # atno 10764 bound_to 10752
  154.2327  135.6430  153.5233 H   0  0  0  0  0  0  0  0  0  0  0  0  # atno 10765 bound_to 10752
  140.2825  134.2957  155.7797 H   0  0  0  0  0  0  0  0  0  0  0  0  # atno 11005 bound_to 11000
  145.9967  140.8556  143.0039 LP  0  0  0  0  0  0  0  0  0  0  0  0  # atno 17320 bound_to 7965
  144.6780  140.2293  143.7357 LP  0  0  0  0  0  0  0  0  0  0  0  0  # atno 17321 bound_to 7965
  139.7583  143.8673  152.3094 LP  0  0  0  0  0  0  0  0  0  0  0  0  # atno 17342 bound_to 10162
  139.8551  144.7145  150.9167 LP  0  0  0  0  0  0  0  0  0  0  0  0  # atno 17343 bound_to 10162
  156.0058  130.5144  150.7825 LP  0  0  0  0  0  0  0  0  0  0  0  0  # atno 17370 bound_to 10713
  157.5152  131.0928  151.0149 LP  0  0  0  0  0  0  0  0  0  0  0  0  # atno 17371 bound_to 10713
  141.2160  133.7534  156.9501 LP  0  0  0  0  0  0  0  0  0  0  0  0  # atno 17394 bound_to 11000
  140.1270  134.9380  157.2284 LP  0  0  0  0  0  0  0  0  0  0  0  0  # atno 17395 bound_to 11000

$$$$
