AV-unprocessed.smi:2191|AV-procd|sdf|8895|dock4
  -GOLD-   2272012103D 1   1.00000     0.00000
 Structure written by MMmdl.
 37 39  0  0  0  0  0  0  0  0  2 V2000
  151.1263  139.9335  154.6126 O   0  0  0  0  0  0  0  0  0  0  0  0
  150.2248  140.5639  155.5009 C   0  0  1  0  0  0  0  0  0  0  0  0
  151.0091  141.0685  156.7206 C   0  0  0  0  0  0  0  0  0  0  0  0
  150.3561  142.2178  157.2441 O   0  0  0  0  0  0  0  0  0  0  0  0
  150.9720  142.9103  158.2645 C   0  0  0  0  0  0  0  0  0  0  0  0
  150.3299  144.0791  158.7238 C   0  0  0  0  0  0  0  0  0  0  0  0
  150.8894  144.8492  159.7615 C   0  0  0  0  0  0  0  0  0  0  0  0
  152.1027  144.4545  160.3547 C   0  0  0  0  0  0  0  0  0  0  0  0
  152.7531  143.2892  159.9084 C   0  0  0  0  0  0  0  0  0  0  0  0
  152.1938  142.5195  158.8696 C   0  0  0  0  0  0  0  0  0  0  0  0
  149.4806  141.6979  154.7669 C   0  0  0  0  0  0  0  0  0  0  0  0
  148.0433  141.4343  154.6203 N   0  0  0  0  0  0  0  0  0  0  0  0
  147.3298  141.0468  153.5285 C   0  0  0  0  0  0  0  0  0  0  0  0
  146.0265  140.9338  153.9082 N   0  3  0  0  0  0  0  0  0  0  0  0
  145.9058  141.2547  155.2622 C   0  0  0  0  0  0  0  0  0  0  0  0
  144.7930  141.2854  156.0970 C   0  0  0  0  0  0  0  0  0  0  0  0
  145.0188  141.6566  157.4390 C   0  0  0  0  0  0  0  0  0  0  0  0
  146.3098  141.9809  157.9050 C   0  0  0  0  0  0  0  0  0  0  0  0
  147.4309  141.9481  157.0495 C   0  0  0  0  0  0  0  0  0  0  0  0
  147.1986  141.5784  155.7254 C   0  0  0  0  0  0  0  0  0  0  0  0
  151.8594  139.6062  155.1110 H   0  0  0  0  0  0  0  0  0  0  0  0
  149.5113  139.8077  155.8300 H   0  0  0  0  0  0  0  0  0  0  0  0
  151.0397  140.2895  157.4847 H   0  0  0  0  0  0  0  0  0  0  0  0
  152.0357  141.3039  156.4343 H   0  0  0  0  0  0  0  0  0  0  0  0
  149.3982  144.3899  158.2739 H   0  0  0  0  0  0  0  0  0  0  0  0
  150.3875  145.7428  160.1021 H   0  0  0  0  0  0  0  0  0  0  0  0
  152.5335  145.0437  161.1509 H   0  0  0  0  0  0  0  0  0  0  0  0
  153.6836  142.9838  160.3636 H   0  0  0  0  0  0  0  0  0  0  0  0
  152.7221  141.6319  158.5564 H   0  0  0  0  0  0  0  0  0  0  0  0
  149.6014  142.6487  155.2877 H   0  0  0  0  0  0  0  0  0  0  0  0
  149.8927  141.8390  153.7666 H   0  0  0  0  0  0  0  0  0  0  0  0
  147.7260  140.8599  152.5407 H   0  0  0  0  0  0  0  0  0  0  0  0
  143.8028  141.0376  155.7435 H   0  0  0  0  0  0  0  0  0  0  0  0
  144.1849  141.6935  158.1250 H   0  0  0  0  0  0  0  0  0  0  0  0
  146.4435  142.2600  158.9402 H   0  0  0  0  0  0  0  0  0  0  0  0
  148.4167  142.1960  157.4150 H   0  0  0  0  0  0  0  0  0  0  0  0
  145.2773  140.6572  153.2866 H   0  0  0  0  0  0  0  0  0  0  0  0
  1  2  1  0  0  0  0
  1 21  1  0  0  0  0
  2  3  1  0  0  0  0
  2 11  1  0  0  0  0
  2 22  1  0  0  0  0
  3  4  1  0  0  0  0
  3 23  1  0  0  0  0
  3 24  1  0  0  0  0
  4  5  1  0  0  0  0
  5 10  1  0  0  0  0
  5  6  2  0  0  0  0
  6  7  1  0  0  0  0
  6 25  1  0  0  0  0
  7  8  2  0  0  0  0
  7 26  1  0  0  0  0
  8  9  1  0  0  0  0
  8 27  1  0  0  0  0
  9 10  2  0  0  0  0
  9 28  1  0  0  0  0
 10 29  1  0  0  0  0
 11 12  1  0  0  0  0
 11 30  1  0  0  0  0
 11 31  1  0  0  0  0
 12 20  1  0  0  0  0
 12 13  1  0  0  0  0
 13 14  2  0  0  0  0
 13 32  1  0  0  0  0
 14 15  1  0  0  0  0
 14 37  1  0  0  0  0
 15 20  2  0  0  0  0
 15 16  1  0  0  0  0
 16 17  2  0  0  0  0
 16 33  1  0  0  0  0
 17 18  1  0  0  0  0
 17 34  1  0  0  0  0
 18 19  2  0  0  0  0
 18 35  1  0  0  0  0
 19 20  1  0  0  0  0
 19 36  1  0  0  0  0
M  CHG  1  14   1
M  END
> <s_m_source_file>
AV-unprocessed.smi

> <i_m_source_file_index>
2191

> <i_lp_mmshare_version>
43012

> <i_f3d_flags>
0

> <s_epik_input>
W2NIXTFbY0hdW2NIXVtjSF1jKGMxMiluKFtjSF1uMilbQ0gyXVtDQEhdKFtPSF0pW0NIMl1PYzNbY0hdW2NIXVtjSF1bY0hdW2NIXTM=

> <s_epik_cmdline>
J2VwaWtfcHl0aG9uJywgJy1waCcsICc3LjAnLCAnLXRuJywgJzgnLCAnLW1hJywgJzIwMCcsICctbWV0YWxfYmluZGluZycsICctaW1hZScsICc8aW5maWxlLm1hZT4nLCAnLW9tYWUnLCAnPG91dGZpbGUubWFlPic=

> <r_lp_tautomer_probability>
1

> <r_epik_Ionization_Penalty>
1.35015

> <r_epik_Ionization_Penalty_Charging>
1.35015

> <r_epik_Ionization_Penalty_Neutral>
2.3993e-06

> <r_epik_State_Penalty>
1.42814

> <r_epik_Charging_Adjusted_Penalty>
2.77829

> <i_epik_Tot_Q>
1

> <i_epik_Tot_abs_Q>
1

> <r_epik_Metal_State_Penalty>
5.46522

> <b_epik_Metal_Only>
0

> <s_lp_Force_Field>
OPLS_2005

> <r_lp_Energy>
19.3108

> <b_lp_Chiralities_Consistent>
1

> <s_lp_Variant>
AV-unprocessed.smi:2191-4

> <Gold.Version>
5.8.1

> <Gold.Id.Protein>
6NUR|6NUR_protein|mol2

> <Gold.PLP.Fitness>
48.5900

> <Gold.PLP.PLP>
-39.2088

> <Gold.PLP.part.hbond>
-2.0000

> <Gold.PLP.part.metal>
0.0000

> <Gold.PLP.part.buried>
-4.8596

> <Gold.PLP.part.nonpolar>
-32.0804

> <Gold.PLP.part.repulsive>
0.1207

> <Gold.PLP.ligand.clash>
0.0000

> <Gold.PLP.ligand.torsion>
1.3284

> <Gold.PLP.Chemscore.Hbond>
3.0000

> <Gold.PLP.Chemscore.CHOScore>
1.0000

> <Gold.PLP.Chemscore.Metal>
0.0000

> <Gold.Chemscore.Hbonds>
donor molecule, donor type, donor heavy atom, donor atom, acceptor molecule, acceptor atom, score
      L1  H    14    37       P1 10175  2.00
      P1  H  7989  7998       L1     1  1.00
      L1  C    13    32       P1  7957  1.00

> <Gold.PLP.Chemscore.Internal.Correction>
0.0379

> <Gold.Rescore>
     Score         DG    S(hbond)    S(metal)    S(lipo)     H(rot)  DE(clash)    DE(int)     intcor
     15.07     -16.39       1.73        0.00      94.16       2.31       0.01       1.31       ----

> <Gold.Chemscore.Fitness>
15.0734

> <Gold.Chemscore.DG>
-16.3876

> <Gold.Chemscore.ZeroCoef>
-5.4800

> <Gold.Chemscore.Hbond>
1.7342

> <Gold.Chemscore.Metal>
0.0000

> <Gold.Chemscore.Lipo>
94.1602

> <Gold.Chemscore.Internal_Hbond>
0.0000

> <Gold.Chemscore.DEClash>
0.0089

> <Gold.Chemscore.DEInternal>
1.3053

> <Gold.Chemscore.Rot>
2.3053

> <Gold.Chemscore.Internal.Correction>
   9.000000E+99

> <Gold.Chemscore.Hbonds>
donor molecule, donor type, donor heavy atom, donor atom, acceptor molecule, acceptor atom, score
      L1  H    14    37       P1 10175  0.88
      P1  H  7989  7998       L1     1  0.58

> <Gold.Chemscore.Hbond.Weighted>
-5.7924

> <Gold.Chemscore.Metal.Weighted>
-0.0000

> <Gold.Chemscore.Lipo.Weighted>
-11.0167

> <Gold.Chemscore.Internal_Hbond.Weighted>
0.0000

> <Gold.Chemscore.DEClash.Weighted>
0.0089

> <Gold.Chemscore.DEInternal.Weighted>
1.3053

> <Gold.Chemscore.Rot.Weighted>
5.9015

> <Gold.Chemscore.Internal.Correction.Weighted>
   9.000000E+99

> <Gold.Protein.RotatedTorsions>
[ 6907 6896 6895 6894 ] final   57.41 input  -60.11 | X-H torsion
[ 7974 7965 7964 7962 ] final   49.64 input  175.53 | X-H torsion
[ 8008 7997 7996 7995 ] final  170.79 input   59.86 | X-H torsion
[ 10167 10162 10161 10158 ] final   92.31 input  -65.29 | X-H torsion
[ 10718 10713 10712 10709 ] final   59.67 input   66.30 | X-H torsion
[ 10763 10752 10751 10750 ] final  -26.95 input  -60.55 | X-H torsion
[ 11005 11000 10999 10996 ] final -156.15 input  -57.11 | X-H torsion

> <Gold.Protein.ActiveResidues>
 VAL166  LYS551  ARG553  GLY616  TRP617  ASP618  TYR619  PRO620  LYS621  CYS622 
 ASP623  PHE694  ASN695  SER759  ASP760  ASP761  ALA762  ILE779  LEU786  VAL792 
 PHE793  MET794  SER795  GLU796  ALA797  LYS798  CYS799  TRP800  GLU811  SER814 

> <Gold.Protein.RotatedAtoms>
  152.3728  134.6708  160.0169 H   0  0  0  0  0  0  0  0  0  0  0  0  # atno 6907 bound_to 6896
  151.6996  133.3305  159.3271 H   0  0  0  0  0  0  0  0  0  0  0  0  # atno 6908 bound_to 6896
  150.7687  134.6563  159.6360 H   0  0  0  0  0  0  0  0  0  0  0  0  # atno 6909 bound_to 6896
  146.0090  139.4522  142.9968 H   0  0  0  0  0  0  0  0  0  0  0  0  # atno 7974 bound_to 7965
  156.1333  140.1529  156.9033 H   0  0  0  0  0  0  0  0  0  0  0  0  # atno 8008 bound_to 7997
  154.4926  140.0847  156.7667 H   0  0  0  0  0  0  0  0  0  0  0  0  # atno 8009 bound_to 7997
  155.4216  140.3423  155.4274 H   0  0  0  0  0  0  0  0  0  0  0  0  # atno 8010 bound_to 7997
  139.8290  144.6696  150.9424 H   0  0  0  0  0  0  0  0  0  0  0  0  # atno 10167 bound_to 10162
  157.5694  130.8895  149.9241 H   0  0  0  0  0  0  0  0  0  0  0  0  # atno 10718 bound_to 10713
  153.7243  135.6943  153.5005 H   0  0  0  0  0  0  0  0  0  0  0  0  # atno 10763 bound_to 10752
  153.2181  135.4379  155.0457 H   0  0  0  0  0  0  0  0  0  0  0  0  # atno 10764 bound_to 10752
  154.8274  135.3453  154.6775 H   0  0  0  0  0  0  0  0  0  0  0  0  # atno 10765 bound_to 10752
  140.6788  134.4168  157.5228 H   0  0  0  0  0  0  0  0  0  0  0  0  # atno 11005 bound_to 11000
  145.7372  141.0021  143.1320 LP  0  0  0  0  0  0  0  0  0  0  0  0  # atno 17320 bound_to 7965
  144.6946  139.9055  143.7461 LP  0  0  0  0  0  0  0  0  0  0  0  0  # atno 17321 bound_to 7965
  140.7808  143.4019  151.1134 LP  0  0  0  0  0  0  0  0  0  0  0  0  # atno 17342 bound_to 10162
  139.7674  143.8544  152.3113 LP  0  0  0  0  0  0  0  0  0  0  0  0  # atno 17343 bound_to 10162
  156.0740  130.3681  150.0716 LP  0  0  0  0  0  0  0  0  0  0  0  0  # atno 17370 bound_to 10713
  156.8871  130.9576  151.3593 LP  0  0  0  0  0  0  0  0  0  0  0  0  # atno 17371 bound_to 10713
  139.8958  134.8674  156.2114 LP  0  0  0  0  0  0  0  0  0  0  0  0  # atno 17394 bound_to 11000
  141.0334  133.6976  156.1470 LP  0  0  0  0  0  0  0  0  0  0  0  0  # atno 17395 bound_to 11000

$$$$
