AV-unprocessed.smi:315|AV-procd|sdf|2318|dock7
  -GOLD-   2262022223D 1   1.00000     0.00000
 Structure written by MMmdl.
 47 49  0  0  0  0  0  0  0  0  2 V2000
  152.0677  139.4580  156.1993 C   0  0  0  0  0  0  0  0  0  0  0  0
  152.0242  138.7503  154.8428 C   0  0  0  0  0  0  0  0  0  0  0  0
  150.6764  138.3828  154.5697 O   0  0  0  0  0  0  0  0  0  0  0  0
  149.7262  139.3782  154.4432 C   0  0  0  0  0  0  0  0  0  0  0  0
  150.0923  140.6600  154.6932 N   0  0  0  0  0  0  0  0  0  0  0  0
  149.1611  141.6283  154.5701 C   0  0  0  0  0  0  0  0  0  0  0  0
  147.8269  141.3722  154.2023 C   0  0  0  0  0  0  0  0  0  0  0  0
  147.4449  140.0429  153.9431 C   0  0  0  0  0  0  0  0  0  0  0  0
  148.4156  139.0186  154.0540 C   0  0  0  0  0  0  0  0  0  0  0  0
  148.1464  137.6413  153.8338 N   0  0  0  0  0  0  0  0  0  0  0  0
  147.0156  136.9476  154.0647 C   0  0  0  0  0  0  0  0  0  0  0  0
  146.0053  137.4034  154.5946 O   0  0  0  0  0  0  0  0  0  0  0  0
  147.0670  135.6706  153.6457 N   0  0  0  0  0  0  0  0  0  0  0  0
  146.0196  134.6522  153.7422 C   0  0  2  0  0  0  0  0  0  0  0  0
  146.4278  133.3956  154.5387 C   0  0  0  0  0  0  0  0  0  0  0  0
  145.7979  132.2083  153.7847 C   0  0  0  0  0  0  0  0  0  0  0  0
  145.0019  132.8136  152.7003 N   0  3  2  0  0  0  0  0  0  0  0  0
  144.7363  131.9773  151.5095 C   0  0  0  0  0  0  0  0  0  0  0  0
  143.8300  132.7555  150.5341 C   0  0  0  0  0  0  0  0  0  0  0  0
  144.4110  134.1440  150.1959 C   0  0  0  0  0  0  0  0  0  0  0  0
  144.7525  134.9308  151.4759 C   0  0  0  0  0  0  0  0  0  0  0  0
  145.6706  134.0808  152.3689 C   0  0  1  0  0  0  0  0  0  0  0  0
  153.0852  139.7583  156.4497 H   0  0  0  0  0  0  0  0  0  0  0  0
  151.7072  138.8032  156.9928 H   0  0  0  0  0  0  0  0  0  0  0  0
  151.4460  140.3536  156.1938 H   0  0  0  0  0  0  0  0  0  0  0  0
  152.4011  139.4185  154.0668 H   0  0  0  0  0  0  0  0  0  0  0  0
  152.6638  137.8667  154.8707 H   0  0  0  0  0  0  0  0  0  0  0  0
  149.4874  142.6368  154.7767 H   0  0  0  0  0  0  0  0  0  0  0  0
  147.1113  142.1773  154.1249 H   0  0  0  0  0  0  0  0  0  0  0  0
  146.4193  139.8372  153.6797 H   0  0  0  0  0  0  0  0  0  0  0  0
  148.8725  137.1412  153.3424 H   0  0  0  0  0  0  0  0  0  0  0  0
  147.9304  135.3766  153.2118 H   0  0  0  0  0  0  0  0  0  0  0  0
  145.1182  135.0842  154.1823 H   0  0  0  0  0  0  0  0  0  0  0  0
  147.5121  133.2786  154.5691 H   0  0  0  0  0  0  0  0  0  0  0  0
  146.0760  133.4518  155.5697 H   0  0  0  0  0  0  0  0  0  0  0  0
  146.5811  131.5737  153.3668 H   0  0  0  0  0  0  0  0  0  0  0  0
  145.1699  131.5925  154.4289 H   0  0  0  0  0  0  0  0  0  0  0  0
  145.6770  131.7094  151.0258 H   0  0  0  0  0  0  0  0  0  0  0  0
  144.2532  131.0483  151.8141 H   0  0  0  0  0  0  0  0  0  0  0  0
  143.6823  132.1793  149.6203 H   0  0  0  0  0  0  0  0  0  0  0  0
  142.8430  132.8798  150.9815 H   0  0  0  0  0  0  0  0  0  0  0  0
  145.3127  134.0219  149.5942 H   0  0  0  0  0  0  0  0  0  0  0  0
  143.7057  134.7082  149.5849 H   0  0  0  0  0  0  0  0  0  0  0  0
  145.2384  135.8726  151.2193 H   0  0  0  0  0  0  0  0  0  0  0  0
  143.8363  135.1852  152.0104 H   0  0  0  0  0  0  0  0  0  0  0  0
  146.5939  133.8545  151.8297 H   0  0  0  0  0  0  0  0  0  0  0  0
  144.1083  133.0588  153.1023 H   0  0  0  0  0  0  0  0  0  0  0  0
  1  2  1  0  0  0  0
  1 23  1  0  0  0  0
  1 24  1  0  0  0  0
  1 25  1  0  0  0  0
  2  3  1  0  0  0  0
  2 26  1  0  0  0  0
  2 27  1  0  0  0  0
  3  4  1  0  0  0  0
  4  9  1  0  0  0  0
  4  5  2  0  0  0  0
  5  6  1  0  0  0  0
  6  7  2  0  0  0  0
  6 28  1  0  0  0  0
  7  8  1  0  0  0  0
  7 29  1  0  0  0  0
  8  9  2  0  0  0  0
  8 30  1  0  0  0  0
  9 10  1  0  0  0  0
 10 11  1  0  0  0  0
 10 31  1  0  0  0  0
 11 12  2  0  0  0  0
 11 13  1  0  0  0  0
 13 14  1  0  0  0  0
 13 32  1  0  0  0  0
 14 22  1  0  0  0  0
 14 15  1  0  0  0  0
 14 33  1  0  0  0  0
 15 16  1  0  0  0  0
 15 34  1  0  0  0  0
 15 35  1  0  0  0  0
 16 17  1  0  0  0  0
 16 36  1  0  0  0  0
 16 37  1  0  0  0  0
 17 22  1  0  0  0  0
 17 18  1  0  0  0  0
 17 47  1  0  0  0  0
 18 19  1  0  0  0  0
 18 38  1  0  0  0  0
 18 39  1  0  0  0  0
 19 20  1  0  0  0  0
 19 40  1  0  0  0  0
 19 41  1  0  0  0  0
 20 21  1  0  0  0  0
 20 42  1  0  0  0  0
 20 43  1  0  0  0  0
 21 22  1  0  0  0  0
 21 44  1  0  0  0  0
 21 45  1  0  0  0  0
 22 46  1  0  0  0  0
M  CHG  1  17   1
M  END
> <s_m_source_file>
AV-unprocessed.smi

> <i_m_source_file_index>
315

> <i_lp_mmshare_version>
43012

> <i_f3d_flags>
0

> <s_epik_input>
W0NIM11bQ0gyXU9jMW5bY0hdW2NIXVtjSF1jMVtOSF1DKD1PKVtOSF1bQ0BIXShbQ0gyXVtDSDJdMilbQ0BASF0oTjIzKVtDSDJdW0NIMl1bQ0gyXVtDSDJdMw==

> <s_epik_cmdline>
J2VwaWtfcHl0aG9uJywgJy1waCcsICc3LjAnLCAnLXRuJywgJzgnLCAnLW1hJywgJzIwMCcsICctbWV0YWxfYmluZGluZycsICctaW1hZScsICc8aW5maWxlLm1hZT4nLCAnLW9tYWUnLCAnPG91dGZpbGUubWFlPic=

> <r_lp_tautomer_probability>
1

> <r_epik_Ionization_Penalty>
0.00106455

> <r_epik_Ionization_Penalty_Charging>
0.000974069

> <r_epik_Ionization_Penalty_Neutral>
9.04821e-05

> <r_epik_State_Penalty>
0.000633842

> <r_epik_Charging_Adjusted_Penalty>
0.00160791

> <i_epik_Tot_Q>
1

> <i_epik_Tot_abs_Q>
1

> <r_epik_Metal_State_Penalty>
-0

> <b_epik_Metal_Only>
0

> <s_lp_Force_Field>
OPLS_2005

> <r_lp_Energy>
47.5763

> <b_lp_Chiralities_Consistent>
1

> <s_lp_Variant>
AV-unprocessed.smi:315-3

> <Gold.Version>
5.8.1

> <Gold.Id.Protein>
6NUR|6NUR_protein|mol2

> <Gold.PLP.Fitness>
44.1335

> <Gold.PLP.PLP>
-35.0209

> <Gold.PLP.part.hbond>
-2.9110

> <Gold.PLP.part.metal>
0.0000

> <Gold.PLP.part.buried>
-2.4834

> <Gold.PLP.part.nonpolar>
-29.2116

> <Gold.PLP.part.repulsive>
0.3729

> <Gold.PLP.ligand.clash>
0.0000

> <Gold.PLP.ligand.torsion>
0.2612

> <Gold.PLP.Chemscore.Hbond>
2.2080

> <Gold.PLP.Chemscore.CHOScore>
1.0000

> <Gold.PLP.Chemscore.Metal>
0.0000

> <Gold.Chemscore.Hbonds>
donor molecule, donor type, donor heavy atom, donor atom, acceptor molecule, acceptor atom, score
      L1  H    10    31       P1  7948  0.72
      L1  H    13    32       P1  7948  0.61
      P1  H  7989  7998       L1     5  0.83
      L1  C     6    28       P1  8028  1.00

> <Gold.PLP.Chemscore.Internal.Correction>
0.0111

> <Gold.Rescore>
     Score         DG    S(hbond)    S(metal)    S(lipo)     H(rot)  DE(clash)    DE(int)     intcor
     15.29     -17.18       1.61        0.00      84.34       1.38       1.33       0.56       ----

> <Gold.Chemscore.Fitness>
15.2902

> <Gold.Chemscore.DG>
-17.1847

> <Gold.Chemscore.ZeroCoef>
-5.4800

> <Gold.Chemscore.Hbond>
1.6053

> <Gold.Chemscore.Metal>
0.0000

> <Gold.Chemscore.Lipo>
84.3443

> <Gold.Chemscore.Internal_Hbond>
0.0000

> <Gold.Chemscore.DEClash>
1.3330

> <Gold.Chemscore.DEInternal>
0.5615

> <Gold.Chemscore.Rot>
1.3770

> <Gold.Chemscore.Internal.Correction>
   9.000000E+99

> <Gold.Chemscore.Hbonds>
donor molecule, donor type, donor heavy atom, donor atom, acceptor molecule, acceptor atom, score
      L1  H    10    31       P1  7948  0.72
      L1  H    13    32       P1  7948  0.62
      P1  H  7989  7998       L1     5  0.24

> <Gold.Chemscore.Hbond.Weighted>
-5.3616

> <Gold.Chemscore.Metal.Weighted>
-0.0000

> <Gold.Chemscore.Lipo.Weighted>
-9.8683

> <Gold.Chemscore.Internal_Hbond.Weighted>
0.0000

> <Gold.Chemscore.DEClash.Weighted>
1.3330

> <Gold.Chemscore.DEInternal.Weighted>
0.5615

> <Gold.Chemscore.Rot.Weighted>
3.5252

> <Gold.Chemscore.Internal.Correction.Weighted>
   9.000000E+99

> <Gold.Protein.RotatedTorsions>
[ 6907 6896 6895 6894 ] final   71.06 input  -60.11 | X-H torsion
[ 7974 7965 7964 7962 ] final -138.18 input  175.53 | X-H torsion
[ 8008 7997 7996 7995 ] final  -98.32 input   59.86 | X-H torsion
[ 10167 10162 10161 10158 ] final   49.50 input  -65.29 | X-H torsion
[ 10718 10713 10712 10709 ] final  -80.61 input   66.30 | X-H torsion
[ 10763 10752 10751 10750 ] final   16.59 input  -60.55 | X-H torsion
[ 11005 11000 10999 10996 ] final  147.88 input  -57.11 | X-H torsion

> <Gold.Protein.ActiveResidues>
 VAL166  LYS551  ARG553  GLY616  TRP617  ASP618  TYR619  PRO620  LYS621  CYS622 
 ASP623  PHE694  ASN695  SER759  ASP760  ASP761  ALA762  ILE779  LEU786  VAL792 
 PHE793  MET794  SER795  GLU796  ALA797  LYS798  CYS799  TRP800  GLU811  SER814 

> <Gold.Protein.RotatedAtoms>
  152.4787  134.4776  159.9655 H   0  0  0  0  0  0  0  0  0  0  0  0  # atno 6907 bound_to 6896
  151.4786  133.3546  159.2842 H   0  0  0  0  0  0  0  0  0  0  0  0  # atno 6908 bound_to 6896
  150.8844  134.8266  159.7309 H   0  0  0  0  0  0  0  0  0  0  0  0  # atno 6909 bound_to 6896
  144.8780  140.6465  143.5224 H   0  0  0  0  0  0  0  0  0  0  0  0  # atno 7974 bound_to 7965
  154.7996  140.0456  157.1262 H   0  0  0  0  0  0  0  0  0  0  0  0  # atno 8008 bound_to 7997
  154.9495  140.3063  155.5062 H   0  0  0  0  0  0  0  0  0  0  0  0  # atno 8009 bound_to 7997
  156.2960  140.2291  156.4571 H   0  0  0  0  0  0  0  0  0  0  0  0  # atno 8010 bound_to 7997
  140.2822  144.3143  150.6261 H   0  0  0  0  0  0  0  0  0  0  0  0  # atno 10167 bound_to 10162
  156.0067  130.4579  150.3826 H   0  0  0  0  0  0  0  0  0  0  0  0  # atno 10718 bound_to 10713
  153.1416  135.6761  153.9018 H   0  0  0  0  0  0  0  0  0  0  0  0  # atno 10763 bound_to 10752
  153.8473  135.3098  155.3431 H   0  0  0  0  0  0  0  0  0  0  0  0  # atno 10764 bound_to 10752
  154.7792  135.4897  153.9893 H   0  0  0  0  0  0  0  0  0  0  0  0  # atno 10765 bound_to 10752
  140.0913  134.9039  157.1655 H   0  0  0  0  0  0  0  0  0  0  0  0  # atno 11005 bound_to 11000
  145.4007  139.1598  143.4179 LP  0  0  0  0  0  0  0  0  0  0  0  0  # atno 17320 bound_to 7965
  146.2975  140.4104  142.8716 LP  0  0  0  0  0  0  0  0  0  0  0  0  # atno 17321 bound_to 7965
  140.5802  143.2173  151.7442 LP  0  0  0  0  0  0  0  0  0  0  0  0  # atno 17342 bound_to 10162
  139.4959  144.4091  152.0100 LP  0  0  0  0  0  0  0  0  0  0  0  0  # atno 17343 bound_to 10162
  157.1905  131.0414  151.2702 LP  0  0  0  0  0  0  0  0  0  0  0  0  # atno 17370 bound_to 10713
  157.4065  130.7362  149.6807 LP  0  0  0  0  0  0  0  0  0  0  0  0  # atno 17371 bound_to 10713
  140.3348  134.2769  155.7222 LP  0  0  0  0  0  0  0  0  0  0  0  0  # atno 17394 bound_to 11000
  141.2079  133.7794  157.0093 LP  0  0  0  0  0  0  0  0  0  0  0  0  # atno 17395 bound_to 11000

$$$$
