AV-unprocessed.smi:224|AV-procd|sdf|1710|dock3
  -GOLD-   2262020173D 1   1.00000     0.00000
 Structure written by MMmdl.
 56 59  0  0  0  0  0  0  0  0  2 V2000
  144.6920  132.3308  149.5270 C   0  0  0  0  0  0  0  0  0  0  0  0
  144.0539  133.0544  150.7198 C   0  0  1  0  0  0  0  0  0  0  0  0
  142.7097  132.6308  150.8245 O   0  0  0  0  0  0  0  0  0  0  0  0
  144.7900  132.7490  152.0403 C   0  0  0  0  0  0  0  0  0  0  0  0
  144.3766  133.6205  153.1752 N   0  3  1  0  0  0  0  0  0  0  0  0
  145.4447  133.7415  154.2026 C   0  0  0  0  0  0  0  0  0  0  0  0
  144.9474  134.5085  155.4405 C   0  0  0  0  0  0  0  0  0  0  0  0
  144.3700  135.7969  155.0659 N   0  0  0  0  0  0  0  0  0  0  0  0
  145.1626  136.9025  155.0292 C   0  0  0  0  0  0  0  0  0  0  0  0
  144.6834  138.0550  154.4887 N   0  0  0  0  0  0  0  0  0  0  0  0
  145.4368  139.1576  154.4615 C   0  0  0  0  0  0  0  0  0  0  0  0
  146.6807  139.3273  154.9103 N   0  0  0  0  0  0  0  0  0  0  0  0
  147.1764  138.1743  155.4425 C   0  0  0  0  0  0  0  0  0  0  0  0
  146.4943  136.9274  155.5367 C   0  0  0  0  0  0  0  0  0  0  0  0
  147.3296  135.9792  156.1161 N   0  0  0  0  0  0  0  0  0  0  0  0
  148.4330  136.6303  156.3631 C   0  0  0  0  0  0  0  0  0  0  0  0
  148.4242  137.9580  156.0009 N   0  0  0  0  0  0  0  0  0  0  0  0
  149.5127  138.9106  156.1612 C   0  0  0  0  0  0  0  0  0  0  0  0
  150.5491  138.8636  155.0135 C   0  0  1  0  0  0  0  0  0  0  0  0
  150.0974  139.6870  153.9516 O   0  0  0  0  0  0  0  0  0  0  0  0
  151.9296  139.3457  155.4391 C   0  0  0  0  0  0  0  0  0  0  0  0
  152.8536  138.5893  154.4942 C   0  0  0  0  0  0  0  0  0  0  0  0
  152.2516  137.3081  154.4152 O   0  0  0  0  0  0  0  0  0  0  0  0
  150.8345  137.4549  154.4527 C   0  0  0  0  0  0  0  0  0  0  0  0
  143.3068  135.7016  154.0678 C   0  0  0  0  0  0  0  0  0  0  0  0
  143.7641  134.9358  152.8053 C   0  0  1  0  0  0  0  0  0  0  0  0
  144.6608  135.8004  151.8934 C   0  0  0  0  0  0  0  0  0  0  0  0
  145.7291  132.6395  149.3926 H   0  0  0  0  0  0  0  0  0  0  0  0
  144.1611  132.5536  148.6008 H   0  0  0  0  0  0  0  0  0  0  0  0
  144.6829  131.2488  149.6640 H   0  0  0  0  0  0  0  0  0  0  0  0
  144.0672  134.1229  150.5077 H   0  0  0  0  0  0  0  0  0  0  0  0
  142.1444  133.3539  150.5992 H   0  0  0  0  0  0  0  0  0  0  0  0
  144.5924  131.7101  152.3094 H   0  0  0  0  0  0  0  0  0  0  0  0
  145.8690  132.8149  151.8976 H   0  0  0  0  0  0  0  0  0  0  0  0
  145.7739  132.7487  154.5107 H   0  0  0  0  0  0  0  0  0  0  0  0
  146.3151  134.2364  153.7706 H   0  0  0  0  0  0  0  0  0  0  0  0
  144.1726  133.9268  155.9412 H   0  0  0  0  0  0  0  0  0  0  0  0
  145.7489  134.6293  156.1705 H   0  0  0  0  0  0  0  0  0  0  0  0
  144.9766  140.0287  154.0193 H   0  0  0  0  0  0  0  0  0  0  0  0
  149.2892  136.1580  156.8229 H   0  0  0  0  0  0  0  0  0  0  0  0
  149.0827  139.9101  156.2397 H   0  0  0  0  0  0  0  0  0  0  0  0
  150.0010  138.7141  157.1165 H   0  0  0  0  0  0  0  0  0  0  0  0
  149.1586  139.7729  154.0189 H   0  0  0  0  0  0  0  0  0  0  0  0
  152.0535  140.4283  155.3874 H   0  0  0  0  0  0  0  0  0  0  0  0
  152.1391  139.0359  156.4639 H   0  0  0  0  0  0  0  0  0  0  0  0
  152.8658  139.0494  153.5050 H   0  0  0  0  0  0  0  0  0  0  0  0
  153.8784  138.5305  154.8610 H   0  0  0  0  0  0  0  0  0  0  0  0
  150.4386  136.6683  155.0937 H   0  0  0  0  0  0  0  0  0  0  0  0
  150.4096  137.3092  153.4584 H   0  0  0  0  0  0  0  0  0  0  0  0
  142.4744  135.1689  154.5291 H   0  0  0  0  0  0  0  0  0  0  0  0
  142.9121  136.6755  153.7837 H   0  0  0  0  0  0  0  0  0  0  0  0
  142.8517  134.7330  152.2463 H   0  0  0  0  0  0  0  0  0  0  0  0
  144.1986  136.7702  151.7065 H   0  0  0  0  0  0  0  0  0  0  0  0
  144.8163  135.3348  150.9206 H   0  0  0  0  0  0  0  0  0  0  0  0
  145.6399  135.9873  152.3329 H   0  0  0  0  0  0  0  0  0  0  0  0
  143.6350  133.1114  153.6351 H   0  0  0  0  0  0  0  0  0  0  0  0
  1  2  1  0  0  0  0
  1 28  1  0  0  0  0
  1 29  1  0  0  0  0
  1 30  1  0  0  0  0
  2  3  1  0  0  0  0
  2  4  1  0  0  0  0
  2 31  1  0  0  0  0
  3 32  1  0  0  0  0
  4  5  1  0  0  0  0
  4 33  1  0  0  0  0
  4 34  1  0  0  0  0
  5 26  1  0  0  0  0
  5  6  1  0  0  0  0
  5 56  1  0  0  0  0
  6  7  1  0  0  0  0
  6 35  1  0  0  0  0
  6 36  1  0  0  0  0
  7  8  1  0  0  0  0
  7 37  1  0  0  0  0
  7 38  1  0  0  0  0
  8  9  1  0  0  0  0
  8 25  1  0  0  0  0
  9 14  1  0  0  0  0
  9 10  2  0  0  0  0
 10 11  1  0  0  0  0
 11 12  2  0  0  0  0
 11 39  1  0  0  0  0
 12 13  1  0  0  0  0
 13 17  1  0  0  0  0
 13 14  2  0  0  0  0
 14 15  1  0  0  0  0
 15 16  2  0  0  0  0
 16 17  1  0  0  0  0
 16 40  1  0  0  0  0
 17 18  1  0  0  0  0
 18 19  1  0  0  0  0
 18 41  1  0  0  0  0
 18 42  1  0  0  0  0
 19 24  1  0  0  0  0
 19 20  1  0  0  0  0
 19 21  1  0  0  0  0
 20 43  1  0  0  0  0
 21 22  1  0  0  0  0
 21 44  1  0  0  0  0
 21 45  1  0  0  0  0
 22 23  1  0  0  0  0
 22 46  1  0  0  0  0
 22 47  1  0  0  0  0
 23 24  1  0  0  0  0
 24 48  1  0  0  0  0
 24 49  1  0  0  0  0
 25 26  1  0  0  0  0
 25 50  1  0  0  0  0
 25 51  1  0  0  0  0
 26 27  1  0  0  0  0
 26 52  1  0  0  0  0
 27 53  1  0  0  0  0
 27 54  1  0  0  0  0
 27 55  1  0  0  0  0
M  CHG  1   5   1
M  END
> <s_m_source_file>
AV-unprocessed.smi

> <i_m_source_file_index>
224

> <i_lp_mmshare_version>
43012

> <i_f3d_flags>
0

> <s_epik_input>
W0NIM11bQ0BIXShbT0hdKVtDSDJdTjFbQ0gyXVtDSDJdTihbQ0gyXVtDQEhdMVtDSDNdKWMobltjSF1uMiljKGMyMyluW2NIXW4zW0NIMl1bQ0BAXTQoW09IXSlbQ0gyXVtDSDJdT1tDSDJdNA==

> <s_epik_cmdline>
J2VwaWtfcHl0aG9uJywgJy1waCcsICc3LjAnLCAnLXRuJywgJzgnLCAnLW1hJywgJzIwMCcsICctbWV0YWxfYmluZGluZycsICctaW1hZScsICc8aW5maWxlLm1hZT4nLCAnLW9tYWUnLCAnPG91dGZpbGUubWFlPic=

> <r_lp_tautomer_probability>
1

> <r_epik_Ionization_Penalty>
0.00516958

> <r_epik_Ionization_Penalty_Charging>
0.00509693

> <r_epik_Ionization_Penalty_Neutral>
7.26542e-05

> <r_epik_State_Penalty>
-0

> <r_epik_Charging_Adjusted_Penalty>
0.00509693

> <i_epik_Tot_Q>
1

> <i_epik_Tot_abs_Q>
1

> <r_epik_Metal_State_Penalty>
-0

> <b_epik_Metal_Only>
0

> <s_lp_Force_Field>
OPLS_2005

> <r_lp_Energy>
49.6762

> <b_lp_Chiralities_Consistent>
1

> <s_lp_Variant>
AV-unprocessed.smi:224-4

> <Gold.Version>
5.8.1

> <Gold.Id.Protein>
6NUR|6NUR_protein|mol2

> <Gold.PLP.Fitness>
47.1134

> <Gold.PLP.PLP>
-32.0429

> <Gold.PLP.part.hbond>
-5.4063

> <Gold.PLP.part.metal>
0.0000

> <Gold.PLP.part.buried>
-6.0878

> <Gold.PLP.part.nonpolar>
-21.8983

> <Gold.PLP.part.repulsive>
0.3054

> <Gold.PLP.ligand.clash>
0.0000

> <Gold.PLP.ligand.torsion>
1.3736

> <Gold.PLP.Chemscore.Hbond>
4.8240

> <Gold.PLP.Chemscore.CHOScore>
1.0000

> <Gold.PLP.Chemscore.Metal>
0.0000

> <Gold.Chemscore.Hbonds>
donor molecule, donor type, donor heavy atom, donor atom, acceptor molecule, acceptor atom, score
      L1  H     3    32       P1 10186  1.00
      L1  H     5    56       P1 10957  2.00
      P1  H  7989  7998       L1    20  0.99
      P1  H 10752 10765       L1    23  0.80
      L1  C    11    39       P1 10175  1.00

> <Gold.PLP.Chemscore.Internal.Correction>
0.3458

> <Gold.Rescore>
     Score         DG    S(hbond)    S(metal)    S(lipo)     H(rot)  DE(clash)    DE(int)     intcor
     15.14     -17.89       3.66        0.00      67.69       3.02       0.07       2.68       ----

> <Gold.Chemscore.Fitness>
15.1399

> <Gold.Chemscore.DG>
-17.8926

> <Gold.Chemscore.ZeroCoef>
-5.4800

> <Gold.Chemscore.Hbond>
3.6622

> <Gold.Chemscore.Metal>
0.0000

> <Gold.Chemscore.Lipo>
67.6913

> <Gold.Chemscore.Internal_Hbond>
0.0000

> <Gold.Chemscore.DEClash>
0.0727

> <Gold.Chemscore.DEInternal>
2.6800

> <Gold.Chemscore.Rot>
3.0231

> <Gold.Chemscore.Internal.Correction>
   9.000000E+99

> <Gold.Chemscore.Hbonds>
donor molecule, donor type, donor heavy atom, donor atom, acceptor molecule, acceptor atom, score
      L1  H     3    32       P1 10186  0.97
      L1  H     5    56       P1 10957  0.90
      P1  H  7989  7998       L1    20  0.55
      P1  H 10752 10765       L1    23  0.78

> <Gold.Chemscore.Hbond.Weighted>
-12.2319

> <Gold.Chemscore.Metal.Weighted>
-0.0000

> <Gold.Chemscore.Lipo.Weighted>
-7.9199

> <Gold.Chemscore.Internal_Hbond.Weighted>
0.0000

> <Gold.Chemscore.DEClash.Weighted>
0.0727

> <Gold.Chemscore.DEInternal.Weighted>
2.6800

> <Gold.Chemscore.Rot.Weighted>
7.7391

> <Gold.Chemscore.Internal.Correction.Weighted>
   9.000000E+99

> <Gold.Protein.RotatedTorsions>
[ 6907 6896 6895 6894 ] final  158.35 input  -60.11 | X-H torsion
[ 7974 7965 7964 7962 ] final   20.95 input  175.53 | X-H torsion
[ 8008 7997 7996 7995 ] final -121.55 input   59.86 | X-H torsion
[ 10167 10162 10161 10158 ] final  108.45 input  -65.29 | X-H torsion
[ 10718 10713 10712 10709 ] final  158.46 input   66.30 | X-H torsion
[ 10763 10752 10751 10750 ] final  159.36 input  -60.55 | X-H torsion
[ 11005 11000 10999 10996 ] final -172.87 input  -57.11 | X-H torsion

> <Gold.Protein.ActiveResidues>
 VAL166  LYS551  ARG553  GLY616  TRP617  ASP618  TYR619  PRO620  LYS621  CYS622 
 ASP623  PHE694  ASN695  SER759  ASP760  ASP761  ALA762  ILE779  LEU786  VAL792 
 PHE793  MET794  SER795  GLU796  ALA797  LYS798  CYS799  TRP800  GLU811  SER814 

> <Gold.Protein.RotatedAtoms>
  152.0016  133.3828  159.4183 H   0  0  0  0  0  0  0  0  0  0  0  0  # atno 6907 bound_to 6896
  150.6909  134.3827  159.5050 H   0  0  0  0  0  0  0  0  0  0  0  0  # atno 6908 bound_to 6896
  152.1575  134.8938  160.0594 H   0  0  0  0  0  0  0  0  0  0  0  0  # atno 6909 bound_to 6896
  146.2091  139.8096  142.8703 H   0  0  0  0  0  0  0  0  0  0  0  0  # atno 7974 bound_to 7965
  155.1498  140.0403  157.2818 H   0  0  0  0  0  0  0  0  0  0  0  0  # atno 8008 bound_to 7997
  154.6412  140.2547  155.7293 H   0  0  0  0  0  0  0  0  0  0  0  0  # atno 8009 bound_to 7997
  156.2533  140.2855  156.0807 H   0  0  0  0  0  0  0  0  0  0  0  0  # atno 8010 bound_to 7997
  139.6845  144.7115  151.1457 H   0  0  0  0  0  0  0  0  0  0  0  0  # atno 10167 bound_to 10162
  157.1776  131.0625  151.2149 H   0  0  0  0  0  0  0  0  0  0  0  0  # atno 10718 bound_to 10713
  154.2306  135.2778  155.2891 H   0  0  0  0  0  0  0  0  0  0  0  0  # atno 10763 bound_to 10752
  154.5627  135.5642  153.7025 H   0  0  0  0  0  0  0  0  0  0  0  0  # atno 10764 bound_to 10752
  153.0021  135.6302  154.2448 H   0  0  0  0  0  0  0  0  0  0  0  0  # atno 10765 bound_to 10752
  140.4921  134.5974  157.4958 H   0  0  0  0  0  0  0  0  0  0  0  0  # atno 11005 bound_to 11000
  145.3210  141.0244  143.3500 LP  0  0  0  0  0  0  0  0  0  0  0  0  # atno 17320 bound_to 7965
  144.8867  139.4830  143.6697 LP  0  0  0  0  0  0  0  0  0  0  0  0  # atno 17321 bound_to 7965
  140.7663  143.5650  150.9057 LP  0  0  0  0  0  0  0  0  0  0  0  0  # atno 17342 bound_to 10162
  139.9324  143.6478  152.3073 LP  0  0  0  0  0  0  0  0  0  0  0  0  # atno 17343 bound_to 10162
  157.3984  130.7320  149.6748 LP  0  0  0  0  0  0  0  0  0  0  0  0  # atno 17370 bound_to 10713
  155.9729  130.4127  150.4047 LP  0  0  0  0  0  0  0  0  0  0  0  0  # atno 17371 bound_to 10713
  139.9763  134.7210  155.9944 LP  0  0  0  0  0  0  0  0  0  0  0  0  # atno 17394 bound_to 11000
  141.1478  133.6553  156.3922 LP  0  0  0  0  0  0  0  0  0  0  0  0  # atno 17395 bound_to 11000

$$$$
