AV-unprocessed.smi:2032|AV-procd|sdf|8231|dock3
  -GOLD-   2272010503D 1   1.00000     0.00000
 Structure written by MMmdl.
 42 43  0  0  0  0  0  0  0  0  1 V2000
  150.2101  141.0593  157.0813 C   0  0  0  0  0  0  0  0  0  0  0  0
  150.5671  141.2541  155.5975 C   0  0  2  0  0  0  0  0  0  0  0  0
  149.3317  141.3474  154.6801 C   0  0  0  0  0  0  0  0  0  0  0  0
  148.6566  140.0616  154.4674 N   0  0  0  0  0  0  0  0  0  0  0  0
  147.4829  140.1739  153.5679 C   0  0  2  0  0  0  0  0  0  0  0  0
  146.7609  141.5402  153.6944 C   0  0  0  0  0  0  0  0  0  0  0  0
  146.4471  139.0304  153.7693 C   0  0  0  0  0  0  0  0  0  0  0  0
  146.7328  137.8454  152.9621 N   0  0  0  0  0  0  0  0  0  0  0  0
  145.8400  136.9096  152.6056 C   0  0  0  0  0  0  0  0  0  0  0  0
  144.6504  136.9475  152.9209 O   0  0  0  0  0  0  0  0  0  0  0  0
  146.4157  135.9472  151.8636 N   0  0  0  0  0  0  0  0  0  0  0  0
  145.8083  134.7980  151.2923 C   0  0  0  0  0  0  0  0  0  0  0  0
  144.4933  134.6643  151.0822 N   0  0  0  0  0  0  0  0  0  0  0  0
  144.1763  133.4307  150.5080 C   0  0  0  0  0  0  0  0  0  0  0  0
  145.2698  132.6315  150.2856 C   0  0  0  0  0  0  0  0  0  0  0  0
  146.7504  133.4015  150.7906 S   0  0  0  0  0  0  0  0  0  0  0  0
  149.6557  139.1029  153.9855 C   0  0  0  0  0  0  0  0  0  0  0  0
  150.8639  138.9697  154.9304 C   0  0  1  0  0  0  0  0  0  0  0  0
  151.9356  138.0302  154.3670 C   0  0  0  0  0  0  0  0  0  0  0  0
  151.4596  140.2473  155.1270 O   0  0  0  0  0  0  0  0  0  0  0  0
  149.6309  141.9047  157.4535 H   0  0  0  0  0  0  0  0  0  0  0  0
  151.1101  140.9815  157.6913 H   0  0  0  0  0  0  0  0  0  0  0  0
  149.6149  140.1614  157.2467 H   0  0  0  0  0  0  0  0  0  0  0  0
  151.1085  142.1978  155.5244 H   0  0  0  0  0  0  0  0  0  0  0  0
  148.6558  142.0729  155.1286 H   0  0  0  0  0  0  0  0  0  0  0  0
  149.6367  141.7585  153.7167 H   0  0  0  0  0  0  0  0  0  0  0  0
  147.8409  140.1006  152.5398 H   0  0  0  0  0  0  0  0  0  0  0  0
  145.8843  141.6089  153.0521 H   0  0  0  0  0  0  0  0  0  0  0  0
  147.3910  142.3745  153.3905 H   0  0  0  0  0  0  0  0  0  0  0  0
  146.4312  141.7190  154.7184 H   0  0  0  0  0  0  0  0  0  0  0  0
  146.4561  138.6660  154.7944 H   0  0  0  0  0  0  0  0  0  0  0  0
  145.4385  139.4055  153.5872 H   0  0  0  0  0  0  0  0  0  0  0  0
  147.6868  137.7312  152.6525 H   0  0  0  0  0  0  0  0  0  0  0  0
  147.4033  136.0495  151.6833 H   0  0  0  0  0  0  0  0  0  0  0  0
  143.1434  133.2031  150.2899 H   0  0  0  0  0  0  0  0  0  0  0  0
  145.2932  131.6408  149.8563 H   0  0  0  0  0  0  0  0  0  0  0  0
  149.2232  138.1091  153.8931 H   0  0  0  0  0  0  0  0  0  0  0  0
  149.9972  139.3948  152.9911 H   0  0  0  0  0  0  0  0  0  0  0  0
  150.5328  138.5713  155.8898 H   0  0  0  0  0  0  0  0  0  0  0  0
  151.5384  137.0260  154.2180 H   0  0  0  0  0  0  0  0  0  0  0  0
  152.7840  137.9542  155.0475 H   0  0  0  0  0  0  0  0  0  0  0  0
  152.3100  138.3885  153.4077 H   0  0  0  0  0  0  0  0  0  0  0  0
  1  2  1  0  0  0  0
  1 21  1  0  0  0  0
  1 22  1  0  0  0  0
  1 23  1  0  0  0  0
  2 20  1  0  0  0  0
  2  3  1  0  0  0  0
  2 24  1  0  0  0  0
  3  4  1  0  0  0  0
  3 25  1  0  0  0  0
  3 26  1  0  0  0  0
  4  5  1  0  0  0  0
  4 17  1  0  0  0  0
  5  6  1  0  0  0  0
  5  7  1  0  0  0  0
  5 27  1  0  0  0  0
  6 28  1  0  0  0  0
  6 29  1  0  0  0  0
  6 30  1  0  0  0  0
  7  8  1  0  0  0  0
  7 31  1  0  0  0  0
  7 32  1  0  0  0  0
  8  9  1  0  0  0  0
  8 33  1  0  0  0  0
  9 10  2  0  0  0  0
  9 11  1  0  0  0  0
 11 12  1  0  0  0  0
 11 34  1  0  0  0  0
 12 16  1  0  0  0  0
 12 13  2  0  0  0  0
 13 14  1  0  0  0  0
 14 15  2  0  0  0  0
 14 35  1  0  0  0  0
 15 16  1  0  0  0  0
 15 36  1  0  0  0  0
 17 18  1  0  0  0  0
 17 37  1  0  0  0  0
 17 38  1  0  0  0  0
 18 19  1  0  0  0  0
 18 20  1  0  0  0  0
 18 39  1  0  0  0  0
 19 40  1  0  0  0  0
 19 41  1  0  0  0  0
 19 42  1  0  0  0  0
M  END
> <s_m_source_file>
AV-unprocessed.smi

> <i_m_source_file_index>
2032

> <i_lp_mmshare_version>
43012

> <i_f3d_flags>
0

> <s_epik_input>
W0NIM11bQ0BASF0xW0NIMl1OKFtDSDJdW0NASF0oTzEpW0NIM10pW0NASF0oW0NIM10pW0NIMl1bTkhdQyg9TylbTkhdYzJuW2NIXVtjSF1zMg==

> <s_epik_cmdline>
J2VwaWtfcHl0aG9uJywgJy1waCcsICc3LjAnLCAnLXRuJywgJzgnLCAnLW1hJywgJzIwMCcsICctbWV0YWxfYmluZGluZycsICctaW1hZScsICc8aW5maWxlLm1hZT4nLCAnLW9tYWUnLCAnPG91dGZpbGUubWFlPic=

> <r_lp_tautomer_probability>
0.999

> <r_epik_Ionization_Penalty>
0.219202

> <r_epik_Ionization_Penalty_Charging>
0

> <r_epik_Ionization_Penalty_Neutral>
0.219202

> <r_epik_State_Penalty>
0.209349

> <r_epik_Charging_Adjusted_Penalty>
0.209349

> <i_epik_Tot_Q>
0

> <i_epik_Tot_abs_Q>
0

> <r_epik_Metal_State_Penalty>
0.247737

> <b_epik_Metal_Only>
0

> <s_lp_Force_Field>
OPLS_2005

> <r_lp_Energy>
29.8023

> <b_lp_Chiralities_Consistent>
1

> <s_lp_Variant>
AV-unprocessed.smi:2032-1

> <Gold.Version>
5.8.1

> <Gold.Id.Protein>
6NUR|6NUR_protein|mol2

> <Gold.PLP.Fitness>
44.7233

> <Gold.PLP.PLP>
-36.5447

> <Gold.PLP.part.hbond>
-3.0000

> <Gold.PLP.part.metal>
0.0000

> <Gold.PLP.part.buried>
-4.5118

> <Gold.PLP.part.nonpolar>
-29.1368

> <Gold.PLP.part.repulsive>
0.5862

> <Gold.PLP.ligand.clash>
0.0000

> <Gold.PLP.ligand.torsion>
1.1550

> <Gold.PLP.Chemscore.Hbond>
2.4763

> <Gold.PLP.Chemscore.CHOScore>
1.0000

> <Gold.PLP.Chemscore.Metal>
0.0000

> <Gold.Chemscore.Hbonds>
donor molecule, donor type, donor heavy atom, donor atom, acceptor molecule, acceptor atom, score
      L1  H     8    33       P1  7948  0.65
      L1  H    11    34       P1  7948  1.00
      P1  H  7989  7998       L1    20  0.85
      L1  C    14    35       P1 10186  0.91

> <Gold.PLP.Chemscore.Internal.Correction>
0.0600

> <Gold.Rescore>
     Score         DG    S(hbond)    S(metal)    S(lipo)     H(rot)  DE(clash)    DE(int)     intcor
     15.47     -18.07       1.91        0.00      87.68       1.57       0.36       2.24       ----

> <Gold.Chemscore.Fitness>
15.4683

> <Gold.Chemscore.DG>
-18.0698

> <Gold.Chemscore.ZeroCoef>
-5.4800

> <Gold.Chemscore.Hbond>
1.9051

> <Gold.Chemscore.Metal>
0.0000

> <Gold.Chemscore.Lipo>
87.6798

> <Gold.Chemscore.Internal_Hbond>
0.0000

> <Gold.Chemscore.DEClash>
0.3574

> <Gold.Chemscore.DEInternal>
2.2441

> <Gold.Chemscore.Rot>
1.5750

> <Gold.Chemscore.Internal.Correction>
   9.000000E+99

> <Gold.Chemscore.Hbonds>
donor molecule, donor type, donor heavy atom, donor atom, acceptor molecule, acceptor atom, score
      L1  H     8    33       P1  7948  0.64
      L1  H    11    34       P1  7948  0.93
      P1  H  7989  7998       L1    20  0.06

> <Gold.Chemscore.Hbond.Weighted>
-6.3632

> <Gold.Chemscore.Metal.Weighted>
-0.0000

> <Gold.Chemscore.Lipo.Weighted>
-10.2585

> <Gold.Chemscore.Internal_Hbond.Weighted>
0.0000

> <Gold.Chemscore.DEClash.Weighted>
0.3574

> <Gold.Chemscore.DEInternal.Weighted>
2.2441

> <Gold.Chemscore.Rot.Weighted>
4.0319

> <Gold.Chemscore.Internal.Correction.Weighted>
   9.000000E+99

> <Gold.Protein.RotatedTorsions>
[ 6907 6896 6895 6894 ] final   96.10 input  -60.11 | X-H torsion
[ 7974 7965 7964 7962 ] final  137.43 input  175.53 | X-H torsion
[ 8008 7997 7996 7995 ] final  -16.53 input   59.86 | X-H torsion
[ 10167 10162 10161 10158 ] final -108.56 input  -65.29 | X-H torsion
[ 10718 10713 10712 10709 ] final  100.01 input   66.30 | X-H torsion
[ 10763 10752 10751 10750 ] final -151.26 input  -60.55 | X-H torsion
[ 11005 11000 10999 10996 ] final   44.93 input  -57.11 | X-H torsion

> <Gold.Protein.ActiveResidues>
 VAL166  LYS551  ARG553  GLY616  TRP617  ASP618  TYR619  PRO620  LYS621  CYS622 
 ASP623  PHE694  ASN695  SER759  ASP760  ASP761  ALA762  ILE779  LEU786  VAL792 
 PHE793  MET794  SER795  GLU796  ALA797  LYS798  CYS799  TRP800  GLU811  SER814 

> <Gold.Protein.RotatedAtoms>
  152.5438  134.0938  159.8287 H   0  0  0  0  0  0  0  0  0  0  0  0  # atno 6907 bound_to 6896
  151.1024  133.5226  159.2616 H   0  0  0  0  0  0  0  0  0  0  0  0  # atno 6908 bound_to 6896
  151.1976  135.0438  159.8913 H   0  0  0  0  0  0  0  0  0  0  0  0  # atno 6909 bound_to 6896
  144.9469  139.4864  143.5545 H   0  0  0  0  0  0  0  0  0  0  0  0  # atno 7974 bound_to 7965
  154.5046  140.2167  155.9277 H   0  0  0  0  0  0  0  0  0  0  0  0  # atno 8008 bound_to 7997
  156.1477  140.3167  155.8564 H   0  0  0  0  0  0  0  0  0  0  0  0  # atno 8009 bound_to 7997
  155.3999  140.0483  157.3028 H   0  0  0  0  0  0  0  0  0  0  0  0  # atno 8010 bound_to 7997
  140.1648  143.4090  152.1398 H   0  0  0  0  0  0  0  0  0  0  0  0  # atno 10167 bound_to 10162
  157.6863  131.0686  150.5036 H   0  0  0  0  0  0  0  0  0  0  0  0  # atno 10718 bound_to 10713
  154.8069  135.3264  154.7408 H   0  0  0  0  0  0  0  0  0  0  0  0  # atno 10763 bound_to 10752
  153.8065  135.6899  153.4852 H   0  0  0  0  0  0  0  0  0  0  0  0  # atno 10764 bound_to 10752
  153.1820  135.4583  154.9985 H   0  0  0  0  0  0  0  0  0  0  0  0  # atno 10765 bound_to 10752
  140.1506  134.4466  155.8384 H   0  0  0  0  0  0  0  0  0  0  0  0  # atno 11005 bound_to 11000
  146.3307  139.8527  142.8870 LP  0  0  0  0  0  0  0  0  0  0  0  0  # atno 17320 bound_to 7965
  145.2904  141.0165  143.3666 LP  0  0  0  0  0  0  0  0  0  0  0  0  # atno 17321 bound_to 7965
  139.5364  144.7214  151.4878 LP  0  0  0  0  0  0  0  0  0  0  0  0  # atno 17342 bound_to 10162
  140.6620  143.8479  150.6898 LP  0  0  0  0  0  0  0  0  0  0  0  0  # atno 17343 bound_to 10162
  156.5356  130.4195  149.6179 LP  0  0  0  0  0  0  0  0  0  0  0  0  # atno 17370 bound_to 10713
  156.3030  130.7187  151.2063 LP  0  0  0  0  0  0  0  0  0  0  0  0  # atno 17371 bound_to 10713
  141.2198  133.6871  156.7415 LP  0  0  0  0  0  0  0  0  0  0  0  0  # atno 17394 bound_to 11000
  140.2609  134.8467  157.3758 LP  0  0  0  0  0  0  0  0  0  0  0  0  # atno 17395 bound_to 11000

$$$$
