AV-unprocessed.smi:2867|AV-procd|sdf|11024|dock4
  -GOLD-   2272015483D 1   1.00000     0.00000
 Structure written by MMmdl.
 41 43  0  0  0  0  0  0  0  0  2 V2000
  150.4925  130.5988  158.8737 C   0  0  0  0  0  0  0  0  0  0  0  0
  150.2168  131.9353  158.4947 O   0  0  0  0  0  0  0  0  0  0  0  0
  149.4824  132.0201  157.2839 C   0  0  0  0  0  0  0  0  0  0  0  0
  150.4568  132.1355  156.1039 C   0  0  0  0  0  0  0  0  0  0  0  0
  150.2125  133.3458  155.3033 N   0  0  0  0  0  0  0  0  0  0  0  0
  149.3679  133.5799  154.2590 C   0  0  0  0  0  0  0  0  0  0  0  0
  148.4514  132.6138  153.6348 C   0  0  0  0  0  0  0  0  0  0  0  0
  147.4309  133.0608  152.7676 C   0  0  0  0  0  0  0  0  0  0  0  0
  146.5456  132.1456  152.1655 C   0  0  0  0  0  0  0  0  0  0  0  0
  146.6762  130.7681  152.4217 C   0  0  0  0  0  0  0  0  0  0  0  0
  147.6938  130.3096  153.2785 C   0  0  0  0  0  0  0  0  0  0  0  0
  147.8260  128.9848  153.5251 F   0  0  0  0  0  0  0  0  0  0  0  0
  148.5761  131.2285  153.8785 C   0  0  0  0  0  0  0  0  0  0  0  0
  149.4766  134.8864  153.8970 N   0  3  0  0  0  0  0  0  0  0  0  0
  150.4172  135.5073  154.7212 C   0  0  0  0  0  0  0  0  0  0  0  0
  150.8754  136.8206  154.7448 C   0  0  0  0  0  0  0  0  0  0  0  0
  151.8387  137.1306  155.7281 C   0  0  0  0  0  0  0  0  0  0  0  0
  152.4859  138.7961  155.8179 S   0  0  0  0  0  0  0  0  0  0  0  0
  153.8742  138.6964  154.8073 N   0  0  0  0  0  0  0  0  0  0  0  0
  151.5292  139.7061  155.1700 O   0  0  0  0  0  0  0  0  0  0  0  0
  152.9526  139.0474  157.1901 O   0  0  0  0  0  0  0  0  0  0  0  0
  152.3095  136.1630  156.6405 C   0  0  0  0  0  0  0  0  0  0  0  0
  151.8355  134.8350  156.6051 C   0  0  0  0  0  0  0  0  0  0  0  0
  150.8880  134.5290  155.6278 C   0  0  0  0  0  0  0  0  0  0  0  0
  151.0448  130.5921  159.8134 H   0  0  0  0  0  0  0  0  0  0  0  0
  151.1003  130.0938  158.1218 H   0  0  0  0  0  0  0  0  0  0  0  0
  149.5724  130.0318  159.0200 H   0  0  0  0  0  0  0  0  0  0  0  0
  148.8542  131.1358  157.1653 H   0  0  0  0  0  0  0  0  0  0  0  0
  148.8232  132.8890  157.3056 H   0  0  0  0  0  0  0  0  0  0  0  0
  151.4915  132.1354  156.4467 H   0  0  0  0  0  0  0  0  0  0  0  0
  150.3539  131.2681  155.4543 H   0  0  0  0  0  0  0  0  0  0  0  0
  147.3180  134.1162  152.5664 H   0  0  0  0  0  0  0  0  0  0  0  0
  145.7657  132.5009  151.5081 H   0  0  0  0  0  0  0  0  0  0  0  0
  145.9982  130.0648  151.9610 H   0  0  0  0  0  0  0  0  0  0  0  0
  149.3573  130.8633  154.5290 H   0  0  0  0  0  0  0  0  0  0  0  0
  150.5144  137.5646  154.0498 H   0  0  0  0  0  0  0  0  0  0  0  0
  153.6549  138.8549  153.8241 H   0  0  0  0  0  0  0  0  0  0  0  0
  154.4182  137.8498  154.9722 H   0  0  0  0  0  0  0  0  0  0  0  0
  153.0459  136.4387  157.3816 H   0  0  0  0  0  0  0  0  0  0  0  0
  152.1989  134.1003  157.3082 H   0  0  0  0  0  0  0  0  0  0  0  0
  148.9499  135.3147  153.1467 H   0  0  0  0  0  0  0  0  0  0  0  0
  1  2  1  0  0  0  0
  1 25  1  0  0  0  0
  1 26  1  0  0  0  0
  1 27  1  0  0  0  0
  2  3  1  0  0  0  0
  3  4  1  0  0  0  0
  3 28  1  0  0  0  0
  3 29  1  0  0  0  0
  4  5  1  0  0  0  0
  4 30  1  0  0  0  0
  4 31  1  0  0  0  0
  5 24  1  0  0  0  0
  5  6  1  0  0  0  0
  6  7  1  0  0  0  0
  6 14  2  0  0  0  0
  7 13  1  0  0  0  0
  7  8  2  0  0  0  0
  8  9  1  0  0  0  0
  8 32  1  0  0  0  0
  9 10  2  0  0  0  0
  9 33  1  0  0  0  0
 10 11  1  0  0  0  0
 10 34  1  0  0  0  0
 11 12  1  0  0  0  0
 11 13  2  0  0  0  0
 13 35  1  0  0  0  0
 14 15  1  0  0  0  0
 14 41  1  0  0  0  0
 15 24  2  0  0  0  0
 15 16  1  0  0  0  0
 16 17  2  0  0  0  0
 16 36  1  0  0  0  0
 17 18  1  0  0  0  0
 17 22  1  0  0  0  0
 18 19  1  0  0  0  0
 18 20  2  0  0  0  0
 18 21  2  0  0  0  0
 19 37  1  0  0  0  0
 19 38  1  0  0  0  0
 22 23  2  0  0  0  0
 22 39  1  0  0  0  0
 23 24  1  0  0  0  0
 23 40  1  0  0  0  0
M  CHG  1  14   1
M  END
> <s_m_source_file>
AV-unprocessed.smi

> <i_m_source_file_index>
2867

> <i_lp_mmshare_version>
43012

> <i_f3d_flags>
0

> <s_epik_input>
W05IMl1TKD1PKSg9TyljKFtjSF0xKVtjSF1bY0hdYyhjMTIpbihbQ0gyXVtDSDJdT1tDSDNdKWMobjIpLWMzW2NIXVtjSF1bY0hdYyhGKVtjSF0z

> <s_epik_cmdline>
J2VwaWtfcHl0aG9uJywgJy1waCcsICc3LjAnLCAnLXRuJywgJzgnLCAnLW1hJywgJzIwMCcsICctbWV0YWxfYmluZGluZycsICctaW1hZScsICc8aW5maWxlLm1hZT4nLCAnLW9tYWUnLCAnPG91dGZpbGUubWFlPic=

> <r_epik_Ionization_Penalty>
1.25825

> <r_epik_Ionization_Penalty_Charging>
1.24336

> <r_epik_Ionization_Penalty_Neutral>
0.014884

> <r_epik_State_Penalty>
1.4115

> <r_epik_Charging_Adjusted_Penalty>
2.65486

> <i_epik_Tot_Q>
1

> <i_epik_Tot_abs_Q>
1

> <r_epik_Metal_State_Penalty>
3.65574

> <b_epik_Metal_Only>
0

> <s_lp_Force_Field>
OPLS_2005

> <r_lp_Energy>
21.7235

> <b_lp_Chiralities_Consistent>
1

> <s_lp_Variant>
AV-unprocessed.smi:2867-2

> <Gold.Version>
5.8.1

> <Gold.Id.Protein>
6NUR|6NUR_protein|mol2

> <Gold.PLP.Fitness>
47.0648

> <Gold.PLP.PLP>
-33.3371

> <Gold.PLP.part.hbond>
-5.3351

> <Gold.PLP.part.metal>
0.0000

> <Gold.PLP.part.buried>
1.0277

> <Gold.PLP.part.nonpolar>
-29.8717

> <Gold.PLP.part.repulsive>
0.0564

> <Gold.PLP.ligand.clash>
0.0000

> <Gold.PLP.ligand.torsion>
2.0136

> <Gold.PLP.Chemscore.Hbond>
5.2509

> <Gold.PLP.Chemscore.CHOScore>
0.0000

> <Gold.PLP.Chemscore.Metal>
0.0000

> <Gold.Chemscore.Hbonds>
donor molecule, donor type, donor heavy atom, donor atom, acceptor molecule, acceptor atom, score
      L1  H    14    41       P1  7948  1.86
      P1  H  6896  6909       L1     2  1.00
      P1  H  7989  7998       L1    20  0.99
      P1  H  7997  8009       L1    21  0.98
      P1  H  7997  8010       L1    19  0.42

> <Gold.PLP.Chemscore.Internal.Correction>
2.0022

> <Gold.Rescore>
     Score         DG    S(hbond)    S(metal)    S(lipo)     H(rot)  DE(clash)    DE(int)     intcor
     17.55     -21.28       3.30        0.00      73.00       1.47       1.02       2.71       ----

> <Gold.Chemscore.Fitness>
17.5472

> <Gold.Chemscore.DG>
-21.2766

> <Gold.Chemscore.ZeroCoef>
-5.4800

> <Gold.Chemscore.Hbond>
3.3021

> <Gold.Chemscore.Metal>
0.0000

> <Gold.Chemscore.Lipo>
72.9954

> <Gold.Chemscore.Internal_Hbond>
0.0000

> <Gold.Chemscore.DEClash>
1.0236

> <Gold.Chemscore.DEInternal>
2.7057

> <Gold.Chemscore.Rot>
1.4738

> <Gold.Chemscore.Internal.Correction>
   9.000000E+99

> <Gold.Chemscore.Hbonds>
donor molecule, donor type, donor heavy atom, donor atom, acceptor molecule, acceptor atom, score
      L1  H    14    41       P1  7948  0.38
      P1  H  6896  6909       L1     2  0.97
      P1  H  7989  7998       L1    20  0.91
      P1  H  7997  8009       L1    21  0.51
      P1  H  7997  8010       L1    19  0.06

> <Gold.Chemscore.Hbond.Weighted>
-11.0291

> <Gold.Chemscore.Metal.Weighted>
-0.0000

> <Gold.Chemscore.Lipo.Weighted>
-8.5405

> <Gold.Chemscore.Internal_Hbond.Weighted>
0.0000

> <Gold.Chemscore.DEClash.Weighted>
1.0236

> <Gold.Chemscore.DEInternal.Weighted>
2.7057

> <Gold.Chemscore.Rot.Weighted>
3.7730

> <Gold.Chemscore.Internal.Correction.Weighted>
   9.000000E+99

> <Gold.Protein.RotatedTorsions>
[ 6907 6896 6895 6894 ] final  -29.31 input  -60.11 | X-H torsion
[ 7974 7965 7964 7962 ] final  146.65 input  175.53 | X-H torsion
[ 8008 7997 7996 7995 ] final  152.40 input   59.86 | X-H torsion
[ 10167 10162 10161 10158 ] final   43.84 input  -65.29 | X-H torsion
[ 10718 10713 10712 10709 ] final -162.33 input   66.30 | X-H torsion
[ 10763 10752 10751 10750 ] final  120.13 input  -60.55 | X-H torsion
[ 11005 11000 10999 10996 ] final  -18.14 input  -57.11 | X-H torsion

> <Gold.Protein.ActiveResidues>
 VAL166  LYS551  ARG553  GLY616  TRP617  ASP618  TYR619  PRO620  LYS621  CYS622 
 ASP623  PHE694  ASN695  SER759  ASP760  ASP761  ALA762  ILE779  LEU786  VAL792 
 PHE793  MET794  SER795  GLU796  ALA797  LYS798  CYS799  TRP800  GLU811  SER814 

> <Gold.Protein.RotatedAtoms>
  151.1210  135.0079  159.8538 H   0  0  0  0  0  0  0  0  0  0  0  0  # atno 6907 bound_to 6896
  152.5448  134.1723  159.8612 H   0  0  0  0  0  0  0  0  0  0  0  0  # atno 6908 bound_to 6896
  151.1781  133.4697  159.2627 H   0  0  0  0  0  0  0  0  0  0  0  0  # atno 6909 bound_to 6896
  144.8654  139.5931  143.5911 H   0  0  0  0  0  0  0  0  0  0  0  0  # atno 7974 bound_to 7965
  156.2630  140.2022  156.6327 H   0  0  0  0  0  0  0  0  0  0  0  0  # atno 8008 bound_to 7997
  154.6670  140.0554  157.0149 H   0  0  0  0  0  0  0  0  0  0  0  0  # atno 8009 bound_to 7997
  155.1192  140.3223  155.4504 H   0  0  0  0  0  0  0  0  0  0  0  0  # atno 8010 bound_to 7997
  140.3403  144.2479  150.6156 H   0  0  0  0  0  0  0  0  0  0  0  0  # atno 10167 bound_to 10162
  156.6088  130.8842  151.2931 H   0  0  0  0  0  0  0  0  0  0  0  0  # atno 10718 bound_to 10713
  153.5937  135.3461  155.2920 H   0  0  0  0  0  0  0  0  0  0  0  0  # atno 10763 bound_to 10752
  154.8648  135.4211  154.2488 H   0  0  0  0  0  0  0  0  0  0  0  0  # atno 10764 bound_to 10752
  153.3301  135.7043  153.7026 H   0  0  0  0  0  0  0  0  0  0  0  0  # atno 10765 bound_to 10752
  140.8238  133.8048  155.9687 H   0  0  0  0  0  0  0  0  0  0  0  0  # atno 11005 bound_to 11000
  146.2892  139.7090  142.9173 LP  0  0  0  0  0  0  0  0  0  0  0  0  # atno 17320 bound_to 7965
  145.4231  141.0408  143.2952 LP  0  0  0  0  0  0  0  0  0  0  0  0  # atno 17321 bound_to 7965
  140.5315  143.2242  151.8231 LP  0  0  0  0  0  0  0  0  0  0  0  0  # atno 17342 bound_to 10162
  139.4841  144.4714  151.9420 LP  0  0  0  0  0  0  0  0  0  0  0  0  # atno 17343 bound_to 10162
  157.7260  130.9623  150.1636 LP  0  0  0  0  0  0  0  0  0  0  0  0  # atno 17370 bound_to 10713
  156.2407  130.3690  149.8341 LP  0  0  0  0  0  0  0  0  0  0  0  0  # atno 17371 bound_to 10713
  140.9070  134.2307  157.5008 LP  0  0  0  0  0  0  0  0  0  0  0  0  # atno 17394 bound_to 11000
  139.8707  134.9733  156.4804 LP  0  0  0  0  0  0  0  0  0  0  0  0  # atno 17395 bound_to 11000

$$$$
