AV-unprocessed.smi:2062|AV-procd|sdf|8406|dock10
  -GOLD-   2272011 93D 1   1.00000     0.00000
 Structure written by MMmdl.
 41 42  0  0  0  0  0  0  0  0  2 V2000
  152.0309  143.8621  160.2661 C   0  0  0  0  0  0  0  0  0  0  0  0
  152.1803  142.3662  159.9526 C   0  0  0  0  0  0  0  0  0  0  0  0
  153.4793  141.8157  160.5635 C   0  0  0  0  0  0  0  0  0  0  0  0
  152.1182  142.1265  158.4284 C   0  0  0  0  0  0  0  0  0  0  0  0
  150.7991  141.7955  157.8874 N   0  0  0  0  0  0  0  0  0  0  0  0
  150.6481  142.1802  156.4858 C   0  0  0  0  0  0  0  0  0  0  0  0
  149.2685  141.7895  155.9299 C   0  0  0  0  0  0  0  0  0  0  0  0
  149.0645  140.3920  156.1033 O   0  0  0  0  0  0  0  0  0  0  0  0
  149.1385  139.9855  157.4681 C   0  0  1  0  0  0  0  0  0  0  0  0
  148.8901  138.4693  157.5439 C   0  0  0  0  0  0  0  0  0  0  0  0
  148.3304  138.0750  158.8325 N   0  0  0  0  0  0  0  0  0  0  0  0
  148.6852  136.9968  159.5458 C   0  0  0  0  0  0  0  0  0  0  0  0
  149.5537  136.2336  159.1164 O   0  0  0  0  0  0  0  0  0  0  0  0
  148.0134  136.8711  160.7130 N   0  5  0  0  0  0  0  0  0  0  0  0
  147.8826  135.6641  161.2869 C   0  0  0  0  0  0  0  0  0  0  0  0
  147.8188  134.5257  160.5863 N   0  0  0  0  0  0  0  0  0  0  0  0
  147.6756  133.3895  161.3850 C   0  0  0  0  0  0  0  0  0  0  0  0
  147.6193  133.6700  162.7246 C   0  0  0  0  0  0  0  0  0  0  0  0
  147.7463  135.3798  163.0248 S   0  0  0  0  0  0  0  0  0  0  0  0
  150.5269  140.3676  158.0174 C   0  0  0  0  0  0  0  0  0  0  0  0
  152.8428  144.4427  159.8267 H   0  0  0  0  0  0  0  0  0  0  0  0
  152.0382  144.0420  161.3416 H   0  0  0  0  0  0  0  0  0  0  0  0
  151.0917  144.2540  159.8750 H   0  0  0  0  0  0  0  0  0  0  0  0
  151.3414  141.8632  160.4322 H   0  0  0  0  0  0  0  0  0  0  0  0
  154.3564  142.2903  160.1229 H   0  0  0  0  0  0  0  0  0  0  0  0
  153.5682  140.7405  160.4055 H   0  0  0  0  0  0  0  0  0  0  0  0
  153.5117  141.9897  161.6393 H   0  0  0  0  0  0  0  0  0  0  0  0
  152.5064  143.0045  157.9098 H   0  0  0  0  0  0  0  0  0  0  0  0
  152.8101  141.3163  158.1928 H   0  0  0  0  0  0  0  0  0  0  0  0
  150.7737  143.2558  156.3700 H   0  0  0  0  0  0  0  0  0  0  0  0
  151.4258  141.7057  155.8854 H   0  0  0  0  0  0  0  0  0  0  0  0
  148.4764  142.3460  156.4332 H   0  0  0  0  0  0  0  0  0  0  0  0
  149.2051  142.0299  154.8686 H   0  0  0  0  0  0  0  0  0  0  0  0
  148.3713  140.5096  158.0412 H   0  0  0  0  0  0  0  0  0  0  0  0
  148.1959  138.1641  156.7606 H   0  0  0  0  0  0  0  0  0  0  0  0
  149.8171  137.9225  157.3638 H   0  0  0  0  0  0  0  0  0  0  0  0
  147.6187  138.6749  159.2233 H   0  0  0  0  0  0  0  0  0  0  0  0
  147.6201  132.4193  160.9144 H   0  0  0  0  0  0  0  0  0  0  0  0
  147.5107  132.9808  163.5483 H   0  0  0  0  0  0  0  0  0  0  0  0
  151.2942  139.7970  157.4917 H   0  0  0  0  0  0  0  0  0  0  0  0
  150.5881  140.0768  159.0669 H   0  0  0  0  0  0  0  0  0  0  0  0
  1  2  1  0  0  0  0
  1 21  1  0  0  0  0
  1 22  1  0  0  0  0
  1 23  1  0  0  0  0
  2  3  1  0  0  0  0
  2  4  1  0  0  0  0
  2 24  1  0  0  0  0
  3 25  1  0  0  0  0
  3 26  1  0  0  0  0
  3 27  1  0  0  0  0
  4  5  1  0  0  0  0
  4 28  1  0  0  0  0
  4 29  1  0  0  0  0
  5 20  1  0  0  0  0
  5  6  1  0  0  0  0
  6  7  1  0  0  0  0
  6 30  1  0  0  0  0
  6 31  1  0  0  0  0
  7  8  1  0  0  0  0
  7 32  1  0  0  0  0
  7 33  1  0  0  0  0
  8  9  1  0  0  0  0
  9 10  1  0  0  0  0
  9 20  1  0  0  0  0
  9 34  1  0  0  0  0
 10 11  1  0  0  0  0
 10 35  1  0  0  0  0
 10 36  1  0  0  0  0
 11 12  1  0  0  0  0
 11 37  1  0  0  0  0
 12 13  2  0  0  0  0
 12 14  1  0  0  0  0
 14 15  1  0  0  0  0
 15 19  1  0  0  0  0
 15 16  2  0  0  0  0
 16 17  1  0  0  0  0
 17 18  2  0  0  0  0
 17 38  1  0  0  0  0
 18 19  1  0  0  0  0
 18 39  1  0  0  0  0
 20 40  1  0  0  0  0
 20 41  1  0  0  0  0
M  CHG  1  14  -1
M  END
> <s_m_source_file>
AV-unprocessed.smi

> <i_m_source_file_index>
2062

> <i_lp_mmshare_version>
43012

> <i_f3d_flags>
0

> <s_epik_input>
W0NIM11bQ0hdKFtDSDNdKVtDSDJdTjFbQ0gyXVtDSDJdT1tDQEhdKFtDSDJdMSlbQ0gyXVtOSF1DKD1PKVtOSF1jMm5bY0hdW2NIXXMy

> <s_epik_cmdline>
J2VwaWtfcHl0aG9uJywgJy1waCcsICc3LjAnLCAnLXRuJywgJzgnLCAnLW1hJywgJzIwMCcsICctbWV0YWxfYmluZGluZycsICctaW1hZScsICc8aW5maWxlLm1hZT4nLCAnLW9tYWUnLCAnPG91dGZpbGUubWFlPic=

> <r_lp_tautomer_probability>
0.999

> <r_epik_Ionization_Penalty>
7.76343

> <r_epik_Ionization_Penalty_Charging>
5.65212

> <r_epik_Ionization_Penalty_Neutral>
2.11131

> <r_epik_State_Penalty>
6.82229

> <r_epik_Charging_Adjusted_Penalty>
12.4744

> <i_epik_Tot_Q>
-1

> <i_epik_Tot_abs_Q>
1

> <r_epik_Metal_State_Penalty>
2.82401

> <b_epik_Metal_Only>
1

> <s_lp_Force_Field>
OPLS_2005

> <r_lp_Energy>
19.1571

> <b_lp_Chiralities_Consistent>
1

> <s_lp_Variant>
AV-unprocessed.smi:2062-11

> <Gold.Version>
5.8.1

> <Gold.Id.Protein>
6NUR|6NUR_protein|mol2

> <Gold.PLP.Fitness>
47.4771

> <Gold.PLP.PLP>
-37.6844

> <Gold.PLP.part.hbond>
-3.0000

> <Gold.PLP.part.metal>
0.0000

> <Gold.PLP.part.buried>
-4.7661

> <Gold.PLP.part.nonpolar>
-31.4107

> <Gold.PLP.part.repulsive>
0.6120

> <Gold.PLP.ligand.clash>
0.0000

> <Gold.PLP.ligand.torsion>
1.5277

> <Gold.PLP.Chemscore.Hbond>
4.2640

> <Gold.PLP.Chemscore.CHOScore>
0.0000

> <Gold.PLP.Chemscore.Metal>
0.0000

> <Gold.Chemscore.Hbonds>
donor molecule, donor type, donor heavy atom, donor atom, acceptor molecule, acceptor atom, score
      P1  H  6896  6908       L1    13  1.00
      P1  H  6931  6943       L1    14  1.65
      P1  H  6934  6947       L1    14  0.48

> <Gold.PLP.Chemscore.Internal.Correction>
0.0560

> <Gold.Rescore>
     Score         DG    S(hbond)    S(metal)    S(lipo)     H(rot)  DE(clash)    DE(int)     intcor
     14.74     -17.46       1.55        0.00      94.79       1.68       0.35       2.38       ----

> <Gold.Chemscore.Fitness>
14.7411

> <Gold.Chemscore.DG>
-17.4628

> <Gold.Chemscore.ZeroCoef>
-5.4800

> <Gold.Chemscore.Hbond>
1.5534

> <Gold.Chemscore.Metal>
0.0000

> <Gold.Chemscore.Lipo>
94.7850

> <Gold.Chemscore.Internal_Hbond>
0.0000

> <Gold.Chemscore.DEClash>
0.3450

> <Gold.Chemscore.DEInternal>
2.3767

> <Gold.Chemscore.Rot>
1.6779

> <Gold.Chemscore.Internal.Correction>
   9.000000E+99

> <Gold.Chemscore.Hbonds>
donor molecule, donor type, donor heavy atom, donor atom, acceptor molecule, acceptor atom, score
      P1  H  6896  6908       L1    13  0.98
      P1  H  6931  6943       L1    14  0.17
      P1  H  6934  6947       L1    14  0.06

> <Gold.Chemscore.Hbond.Weighted>
-5.1882

> <Gold.Chemscore.Metal.Weighted>
-0.0000

> <Gold.Chemscore.Lipo.Weighted>
-11.0898

> <Gold.Chemscore.Internal_Hbond.Weighted>
0.0000

> <Gold.Chemscore.DEClash.Weighted>
0.3450

> <Gold.Chemscore.DEInternal.Weighted>
2.3767

> <Gold.Chemscore.Rot.Weighted>
4.2953

> <Gold.Chemscore.Internal.Correction.Weighted>
   9.000000E+99

> <Gold.Protein.RotatedTorsions>
[ 6907 6896 6895 6894 ] final -177.12 input  -60.11 | X-H torsion
[ 7974 7965 7964 7962 ] final  120.50 input  175.53 | X-H torsion
[ 8008 7997 7996 7995 ] final  -63.96 input   59.86 | X-H torsion
[ 10167 10162 10161 10158 ] final   60.02 input  -65.29 | X-H torsion
[ 10718 10713 10712 10709 ] final  -86.77 input   66.30 | X-H torsion
[ 10763 10752 10751 10750 ] final  -18.02 input  -60.55 | X-H torsion
[ 11005 11000 10999 10996 ] final   39.66 input  -57.11 | X-H torsion

> <Gold.Protein.ActiveResidues>
 VAL166  LYS551  ARG553  GLY616  TRP617  ASP618  TYR619  PRO620  LYS621  CYS622 
 ASP623  PHE694  ASN695  SER759  ASP760  ASP761  ALA762  ILE779  LEU786  VAL792 
 PHE793  MET794  SER795  GLU796  ALA797  LYS798  CYS799  TRP800  GLU811  SER814 

> <Gold.Protein.RotatedAtoms>
  151.6159  133.3343  159.3077 H   0  0  0  0  0  0  0  0  0  0  0  0  # atno 6907 bound_to 6896
  150.8132  134.7302  159.6718 H   0  0  0  0  0  0  0  0  0  0  0  0  # atno 6908 bound_to 6896
  152.4228  134.5929  160.0030 H   0  0  0  0  0  0  0  0  0  0  0  0  # atno 6909 bound_to 6896
  145.1305  139.3331  143.4668 H   0  0  0  0  0  0  0  0  0  0  0  0  # atno 7974 bound_to 7965
  154.4584  140.0964  156.6824 H   0  0  0  0  0  0  0  0  0  0  0  0  # atno 8008 bound_to 7997
  155.5068  140.3475  155.4362 H   0  0  0  0  0  0  0  0  0  0  0  0  # atno 8009 bound_to 7997
  156.0823  140.1376  156.9686 H   0  0  0  0  0  0  0  0  0  0  0  0  # atno 8010 bound_to 7997
  140.1701  144.4285  150.6665 H   0  0  0  0  0  0  0  0  0  0  0  0  # atno 10167 bound_to 10162
  155.9988  130.4777  150.4766 H   0  0  0  0  0  0  0  0  0  0  0  0  # atno 10718 bound_to 10713
  153.5828  135.7004  153.5456 H   0  0  0  0  0  0  0  0  0  0  0  0  # atno 10763 bound_to 10752
  153.3246  135.4064  155.1445 H   0  0  0  0  0  0  0  0  0  0  0  0  # atno 10764 bound_to 10752
  154.8614  135.3704  154.5356 H   0  0  0  0  0  0  0  0  0  0  0  0  # atno 10765 bound_to 10752
  140.2006  134.3875  155.8098 H   0  0  0  0  0  0  0  0  0  0  0  0  # atno 11005 bound_to 11000
  146.3514  140.1301  142.8597 LP  0  0  0  0  0  0  0  0  0  0  0  0  # atno 17320 bound_to 7965
  145.0641  140.9109  143.4921 LP  0  0  0  0  0  0  0  0  0  0  0  0  # atno 17321 bound_to 7965
  140.6587  143.2245  151.5907 LP  0  0  0  0  0  0  0  0  0  0  0  0  # atno 17342 bound_to 10162
  139.5341  144.2830  152.1214 LP  0  0  0  0  0  0  0  0  0  0  0  0  # atno 17343 bound_to 10162
  157.2775  131.0600  151.2219 LP  0  0  0  0  0  0  0  0  0  0  0  0  # atno 17370 bound_to 10713
  157.3277  130.6969  149.6306 LP  0  0  0  0  0  0  0  0  0  0  0  0  # atno 17371 bound_to 10713
  141.2227  133.7092  156.8252 LP  0  0  0  0  0  0  0  0  0  0  0  0  # atno 17394 bound_to 11000
  140.2058  134.8864  157.3220 LP  0  0  0  0  0  0  0  0  0  0  0  0  # atno 17395 bound_to 11000

$$$$
