AV-unprocessed.smi:1958|AV-procd|sdf|7911|dock8
  -GOLD-   2272010 73D 1   1.00000     0.00000
 Structure written by MMmdl.
 47 48  0  0  0  0  0  0  0  0  3 V2000
  152.2001  143.1029  159.6670 C   0  0  0  0  0  0  0  0  0  0  0  0
  150.9970  142.4322  159.3353 O   0  0  0  0  0  0  0  0  0  0  0  0
  150.9595  142.0247  157.9781 C   0  0  0  0  0  0  0  0  0  0  0  0
  151.9598  140.8766  157.7760 C   0  0  0  0  0  0  0  0  0  0  0  0
  151.6208  140.0665  156.6017 N   0  0  0  0  0  0  0  0  0  0  0  0
  150.4903  140.4963  155.9280 N   0  0  0  0  0  0  0  0  0  0  0  0
  150.0773  139.8690  154.8736 C   0  0  0  0  0  0  0  0  0  0  0  0
  148.8505  140.3101  154.1369 C   0  0  0  0  0  0  0  0  0  0  0  0
  148.7654  141.5201  153.8891 O   0  0  0  0  0  0  0  0  0  0  0  0
  147.9336  139.3563  153.7895 N   0  5  0  0  0  0  0  0  0  0  0  0
  146.4922  139.4370  154.0315 C   0  0  0  0  0  0  0  0  0  0  0  0
  145.7839  138.1214  153.6048 C   0  0  1  0  0  0  0  0  0  0  0  0
  146.3935  136.8406  154.2292 C   0  0  0  0  0  0  0  0  0  0  0  0
  144.3062  138.2248  153.8154 N   0  3  0  0  0  0  0  0  0  0  0  0
  143.5393  137.1312  153.1680 C   0  0  0  0  0  0  0  0  0  0  0  0
  142.0291  137.4025  153.2736 C   0  0  0  0  0  0  0  0  0  0  0  0
  141.6601  137.5615  154.6378 O   0  0  0  0  0  0  0  0  0  0  0  0
  142.3271  138.6611  155.2457 C   0  0  0  0  0  0  0  0  0  0  0  0
  143.8440  138.4158  155.2190 C   0  0  0  0  0  0  0  0  0  0  0  0
  150.7985  138.7046  154.3781 C   0  0  0  0  0  0  0  0  0  0  0  0
  151.9030  138.3007  155.0428 C   0  0  0  0  0  0  0  0  0  0  0  0
  152.3871  138.9961  156.2357 C   0  0  0  0  0  0  0  0  0  0  0  0
  153.3943  138.6509  156.8535 O   0  0  0  0  0  0  0  0  0  0  0  0
  152.1769  143.4000  160.7154 H   0  0  0  0  0  0  0  0  0  0  0  0
  152.3294  144.0028  159.0645 H   0  0  0  0  0  0  0  0  0  0  0  0
  153.0654  142.4553  159.5201 H   0  0  0  0  0  0  0  0  0  0  0  0
  149.9527  141.6960  157.7150 H   0  0  0  0  0  0  0  0  0  0  0  0
  151.2111  142.8669  157.3313 H   0  0  0  0  0  0  0  0  0  0  0  0
  152.9721  141.2738  157.6839 H   0  0  0  0  0  0  0  0  0  0  0  0
  151.9751  140.2484  158.6688 H   0  0  0  0  0  0  0  0  0  0  0  0
  146.2783  139.6307  155.0827 H   0  0  0  0  0  0  0  0  0  0  0  0
  146.0416  140.2724  153.4929 H   0  0  0  0  0  0  0  0  0  0  0  0
  145.9325  138.0412  152.5266 H   0  0  0  0  0  0  0  0  0  0  0  0
  147.4339  136.6994  153.9307 H   0  0  0  0  0  0  0  0  0  0  0  0
  145.8552  135.9528  153.8975 H   0  0  0  0  0  0  0  0  0  0  0  0
  146.3691  136.8499  155.3204 H   0  0  0  0  0  0  0  0  0  0  0  0
  143.8152  137.0489  152.1159 H   0  0  0  0  0  0  0  0  0  0  0  0
  143.7848  136.1791  153.6404 H   0  0  0  0  0  0  0  0  0  0  0  0
  141.7534  138.2922  152.7051 H   0  0  0  0  0  0  0  0  0  0  0  0
  141.4678  136.5692  152.8509 H   0  0  0  0  0  0  0  0  0  0  0  0
  142.0713  139.5897  154.7328 H   0  0  0  0  0  0  0  0  0  0  0  0
  141.9802  138.7588  156.2746 H   0  0  0  0  0  0  0  0  0  0  0  0
  144.0736  137.5327  155.8164 H   0  0  0  0  0  0  0  0  0  0  0  0
  144.3563  139.2593  155.6825 H   0  0  0  0  0  0  0  0  0  0  0  0
  150.4708  138.1675  153.5002 H   0  0  0  0  0  0  0  0  0  0  0  0
  152.4462  137.4389  154.6846 H   0  0  0  0  0  0  0  0  0  0  0  0
  144.0393  139.0628  153.3182 H   0  0  0  0  0  0  0  0  0  0  0  0
  1  2  1  0  0  0  0
  1 24  1  0  0  0  0
  1 25  1  0  0  0  0
  1 26  1  0  0  0  0
  2  3  1  0  0  0  0
  3  4  1  0  0  0  0
  3 27  1  0  0  0  0
  3 28  1  0  0  0  0
  4  5  1  0  0  0  0
  4 29  1  0  0  0  0
  4 30  1  0  0  0  0
  5 22  1  0  0  0  0
  5  6  1  0  0  0  0
  6  7  2  0  0  0  0
  7  8  1  0  0  0  0
  7 20  1  0  0  0  0
  8  9  2  0  0  0  0
  8 10  1  0  0  0  0
 10 11  1  0  0  0  0
 11 12  1  0  0  0  0
 11 31  1  0  0  0  0
 11 32  1  0  0  0  0
 12 13  1  0  0  0  0
 12 14  1  0  0  0  0
 12 33  1  0  0  0  0
 13 34  1  0  0  0  0
 13 35  1  0  0  0  0
 13 36  1  0  0  0  0
 14 19  1  0  0  0  0
 14 15  1  0  0  0  0
 14 47  1  0  0  0  0
 15 16  1  0  0  0  0
 15 37  1  0  0  0  0
 15 38  1  0  0  0  0
 16 17  1  0  0  0  0
 16 39  1  0  0  0  0
 16 40  1  0  0  0  0
 17 18  1  0  0  0  0
 18 19  1  0  0  0  0
 18 41  1  0  0  0  0
 18 42  1  0  0  0  0
 19 43  1  0  0  0  0
 19 44  1  0  0  0  0
 20 21  2  0  0  0  0
 20 45  1  0  0  0  0
 21 22  1  0  0  0  0
 21 46  1  0  0  0  0
 22 23  2  0  0  0  0
M  CHG  1  10  -1
M  CHG  1  14   1
M  END
> <s_m_source_file>
AV-unprocessed.smi

> <i_m_source_file_index>
1958

> <i_lp_mmshare_version>
43012

> <i_f3d_flags>
0

> <s_epik_input>
W0NIM11PW0NIMl1bQ0gyXW4xbmMoW2NIXVtjSF1jMT1PKUMoPU8pW05IXVtDSDJdW0NASF0oW0NIM10pTjJbQ0gyXVtDSDJdT1tDSDJdW0NIMl0y

> <s_epik_cmdline>
J2VwaWtfcHl0aG9uJywgJy1waCcsICc3LjAnLCAnLXRuJywgJzgnLCAnLW1hJywgJzIwMCcsICctbWV0YWxfYmluZGluZycsICctaW1hZScsICc8aW5maWxlLm1hZT4nLCAnLW9tYWUnLCAnPG91dGZpbGUubWFlPic=

> <r_lp_tautomer_probability>
1

> <r_epik_Ionization_Penalty>
6.89388

> <r_epik_Ionization_Penalty_Charging>
6.89388

> <r_epik_Ionization_Penalty_Neutral>
1.08445e-11

> <r_epik_State_Penalty>
7.53214

> <r_epik_Charging_Adjusted_Penalty>
14.426

> <i_epik_Tot_Q>
0

> <i_epik_Tot_abs_Q>
2

> <r_epik_Metal_State_Penalty>
3.44743

> <b_epik_Metal_Only>
1

> <s_lp_Force_Field>
OPLS_2005

> <r_lp_Energy>
43.2643

> <b_lp_Chiralities_Consistent>
1

> <s_lp_Variant>
AV-unprocessed.smi:1958-6

> <Gold.Version>
5.8.1

> <Gold.Id.Protein>
6NUR|6NUR_protein|mol2

> <Gold.PLP.Fitness>
43.1206

> <Gold.PLP.PLP>
-34.8301

> <Gold.PLP.part.hbond>
-3.3505

> <Gold.PLP.part.metal>
0.0000

> <Gold.PLP.part.buried>
-4.1075

> <Gold.PLP.part.nonpolar>
-28.2215

> <Gold.PLP.part.repulsive>
0.7191

> <Gold.PLP.ligand.clash>
0.0000

> <Gold.PLP.ligand.torsion>
1.4572

> <Gold.PLP.Chemscore.Hbond>
3.6480

> <Gold.PLP.Chemscore.CHOScore>
0.0000

> <Gold.PLP.Chemscore.Metal>
0.0000

> <Gold.Chemscore.Hbonds>
donor molecule, donor type, donor heavy atom, donor atom, acceptor molecule, acceptor atom, score
      L1  H    14    47       P1 10175  2.00
      P1  H  7997  8009       L1    23  0.94
      P1  H  8011  8017       L1     9  0.63

> <Gold.PLP.Chemscore.Internal.Correction>
0.2609

> <Gold.Rescore>
     Score         DG    S(hbond)    S(metal)    S(lipo)     H(rot)  DE(clash)    DE(int)     intcor
     14.15     -15.55       2.20        0.00      68.47       2.07       0.01       1.38       ----

> <Gold.Chemscore.Fitness>
14.1547

> <Gold.Chemscore.DG>
-15.5500

> <Gold.Chemscore.ZeroCoef>
-5.4800

> <Gold.Chemscore.Hbond>
2.2011

> <Gold.Chemscore.Metal>
0.0000

> <Gold.Chemscore.Lipo>
68.4668

> <Gold.Chemscore.Internal_Hbond>
0.0000

> <Gold.Chemscore.DEClash>
0.0110

> <Gold.Chemscore.DEInternal>
1.3844

> <Gold.Chemscore.Rot>
2.0673

> <Gold.Chemscore.Internal.Correction>
   9.000000E+99

> <Gold.Chemscore.Hbonds>
donor molecule, donor type, donor heavy atom, donor atom, acceptor molecule, acceptor atom, score
      L1  H    14    47       P1 10175  1.00
      P1  H  7997  8009       L1    23  0.20
      P1  H  8011  8017       L1     9  0.59

> <Gold.Chemscore.Hbond.Weighted>
-7.3518

> <Gold.Chemscore.Metal.Weighted>
-0.0000

> <Gold.Chemscore.Lipo.Weighted>
-8.0106

> <Gold.Chemscore.Internal_Hbond.Weighted>
0.0000

> <Gold.Chemscore.DEClash.Weighted>
0.0110

> <Gold.Chemscore.DEInternal.Weighted>
1.3844

> <Gold.Chemscore.Rot.Weighted>
5.2923

> <Gold.Chemscore.Internal.Correction.Weighted>
   9.000000E+99

> <Gold.Protein.RotatedTorsions>
[ 6907 6896 6895 6894 ] final  -86.19 input  -60.11 | X-H torsion
[ 7974 7965 7964 7962 ] final  167.28 input  175.53 | X-H torsion
[ 8008 7997 7996 7995 ] final -174.79 input   59.86 | X-H torsion
[ 10167 10162 10161 10158 ] final -104.56 input  -65.29 | X-H torsion
[ 10718 10713 10712 10709 ] final   51.73 input   66.30 | X-H torsion
[ 10763 10752 10751 10750 ] final -148.41 input  -60.55 | X-H torsion
[ 11005 11000 10999 10996 ] final   41.57 input  -57.11 | X-H torsion

> <Gold.Protein.ActiveResidues>
 VAL166  LYS551  ARG553  GLY616  TRP617  ASP618  TYR619  PRO620  LYS621  CYS622 
 ASP623  PHE694  ASN695  SER759  ASP760  ASP761  ALA762  ILE779  LEU786  VAL792 
 PHE793  MET794  SER795  GLU796  ALA797  LYS798  CYS799  TRP800  GLU811  SER814 

> <Gold.Protein.RotatedAtoms>
  150.6867  134.3089  159.4737 H   0  0  0  0  0  0  0  0  0  0  0  0  # atno 6907 bound_to 6896
  152.0977  134.9361  160.0579 H   0  0  0  0  0  0  0  0  0  0  0  0  # atno 6908 bound_to 6896
  152.0652  133.4046  159.4472 H   0  0  0  0  0  0  0  0  0  0  0  0  # atno 6909 bound_to 6896
  144.7430  139.8738  143.6391 H   0  0  0  0  0  0  0  0  0  0  0  0  # atno 7974 bound_to 7965
  155.9746  140.1169  157.0782 H   0  0  0  0  0  0  0  0  0  0  0  0  # atno 8008 bound_to 7997
  154.4165  140.1156  156.5420 H   0  0  0  0  0  0  0  0  0  0  0  0  # atno 8009 bound_to 7997
  155.6552  140.3473  155.4765 H   0  0  0  0  0  0  0  0  0  0  0  0  # atno 8010 bound_to 7997
  140.2080  143.3768  152.1074 H   0  0  0  0  0  0  0  0  0  0  0  0  # atno 10167 bound_to 10162
  157.5009  130.8437  149.8315 H   0  0  0  0  0  0  0  0  0  0  0  0  # atno 10718 bound_to 10713
  154.8234  135.3335  154.6969 H   0  0  0  0  0  0  0  0  0  0  0  0  # atno 10763 bound_to 10752
  153.7599  135.6933  153.4932 H   0  0  0  0  0  0  0  0  0  0  0  0  # atno 10764 bound_to 10752
  153.2118  135.4479  155.0337 H   0  0  0  0  0  0  0  0  0  0  0  0  # atno 10765 bound_to 10752
  140.1821  134.4091  155.8194 H   0  0  0  0  0  0  0  0  0  0  0  0  # atno 11005 bound_to 11000
  146.1261  139.4287  143.0198 LP  0  0  0  0  0  0  0  0  0  0  0  0  # atno 17320 bound_to 7965
  145.7233  141.0067  143.1391 LP  0  0  0  0  0  0  0  0  0  0  0  0  # atno 17321 bound_to 7965
  139.5191  144.7015  151.5480 LP  0  0  0  0  0  0  0  0  0  0  0  0  # atno 17342 bound_to 10162
  140.6344  143.9014  150.6634 LP  0  0  0  0  0  0  0  0  0  0  0  0  # atno 17343 bound_to 10162
  156.0228  130.3789  150.1910 LP  0  0  0  0  0  0  0  0  0  0  0  0  # atno 17370 bound_to 10713
  157.0100  130.9948  151.3368 LP  0  0  0  0  0  0  0  0  0  0  0  0  # atno 17371 bound_to 10713
  141.2223  133.7005  156.7949 LP  0  0  0  0  0  0  0  0  0  0  0  0  # atno 17394 bound_to 11000
  140.2255  134.8725  157.3422 LP  0  0  0  0  0  0  0  0  0  0  0  0  # atno 17395 bound_to 11000

$$$$
