AV-unprocessed.smi:1401|AV-procd|sdf|5692|dock5
  -GOLD-   22720 5323D 1   1.00000     0.00000
 Structure written by MMmdl.
 48 50  0  0  0  0  0  0  0  0  1 V2000
  151.0511  145.1123  160.1895 C   0  0  0  0  0  0  0  0  0  0  0  0
  151.5319  143.8151  159.5966 C   0  0  0  0  0  0  0  0  0  0  0  0
  151.1518  143.5541  158.3893 N   0  0  0  0  0  0  0  0  0  0  0  0
  151.5373  142.3925  157.7484 N   0  0  0  0  0  0  0  0  0  0  0  0
  150.9961  142.2517  156.3884 C   0  0  0  0  0  0  0  0  0  0  0  0
  150.4747  140.8409  156.0759 C   0  0  0  0  0  0  0  0  0  0  0  0
  151.0773  140.1004  155.2973 O   0  0  0  0  0  0  0  0  0  0  0  0
  149.3480  140.4826  156.7111 N   0  0  0  0  0  0  0  0  0  0  0  0
  148.6629  139.1978  156.5761 C   0  0  2  0  0  0  0  0  0  0  0  0
  147.2517  139.4517  156.0169 C   0  0  0  0  0  0  0  0  0  0  0  0
  148.6485  138.4705  157.9438 C   0  0  2  0  0  0  0  0  0  0  0  0
  150.0575  138.2773  158.5605 C   0  0  0  0  0  0  0  0  0  0  0  0
  150.1174  136.7671  158.8480 C   0  0  1  0  0  0  0  0  0  0  0  0
  149.1532  136.4208  159.9968 C   0  0  0  0  0  0  0  0  0  0  0  0
  147.7717  136.5631  159.3316 C   0  0  0  0  0  0  0  0  0  0  0  0
  148.1270  137.0111  157.9005 C   0  0  2  0  0  0  0  0  0  0  0  0
  149.3911  136.1986  157.6371 C   0  0  0  0  0  0  0  0  0  0  0  0
  152.3441  141.4362  158.2928 C   0  0  0  0  0  0  0  0  0  0  0  0
  152.6744  140.4202  157.6793 O   0  0  0  0  0  0  0  0  0  0  0  0
  152.7681  141.7368  159.6621 C   0  0  0  0  0  0  0  0  0  0  0  0
  153.6129  140.7607  160.2710 C   0  0  0  0  0  0  0  0  0  0  0  0
  154.3150  139.9786  160.7568 N   0  0  0  0  0  0  0  0  0  0  0  0
  152.3850  142.8671  160.3068 C   0  0  0  0  0  0  0  0  0  0  0  0
  152.8013  143.2229  161.7274 C   0  0  0  0  0  0  0  0  0  0  0  0
  151.8853  145.6936  160.5831 H   0  0  0  0  0  0  0  0  0  0  0  0
  150.3516  144.9276  161.0053 H   0  0  0  0  0  0  0  0  0  0  0  0
  150.5406  145.7322  159.4507 H   0  0  0  0  0  0  0  0  0  0  0  0
  150.1766  142.9563  156.2346 H   0  0  0  0  0  0  0  0  0  0  0  0
  151.7566  142.5254  155.6546 H   0  0  0  0  0  0  0  0  0  0  0  0
  148.9267  141.1549  157.3356 H   0  0  0  0  0  0  0  0  0  0  0  0
  149.2030  138.5728  155.8632 H   0  0  0  0  0  0  0  0  0  0  0  0
  146.7213  138.5226  155.8126 H   0  0  0  0  0  0  0  0  0  0  0  0
  147.2972  140.0041  155.0777 H   0  0  0  0  0  0  0  0  0  0  0  0
  146.6477  140.0340  156.7135 H   0  0  0  0  0  0  0  0  0  0  0  0
  148.0315  139.0556  158.6279 H   0  0  0  0  0  0  0  0  0  0  0  0
  150.8448  138.5469  157.8552 H   0  0  0  0  0  0  0  0  0  0  0  0
  150.2023  138.8775  159.4595 H   0  0  0  0  0  0  0  0  0  0  0  0
  151.1296  136.3901  158.9969 H   0  0  0  0  0  0  0  0  0  0  0  0
  149.3087  135.3981  160.3424 H   0  0  0  0  0  0  0  0  0  0  0  0
  149.2752  137.0865  160.8520 H   0  0  0  0  0  0  0  0  0  0  0  0
  147.2545  135.6028  159.3173 H   0  0  0  0  0  0  0  0  0  0  0  0
  147.1302  137.2780  159.8479 H   0  0  0  0  0  0  0  0  0  0  0  0
  147.3182  136.8338  157.1930 H   0  0  0  0  0  0  0  0  0  0  0  0
  149.8759  136.4367  156.6890 H   0  0  0  0  0  0  0  0  0  0  0  0
  149.2329  135.1203  157.6954 H   0  0  0  0  0  0  0  0  0  0  0  0
  153.2676  142.3817  162.2395 H   0  0  0  0  0  0  0  0  0  0  0  0
  151.9398  143.5235  162.3244 H   0  0  0  0  0  0  0  0  0  0  0  0
  153.5176  144.0449  161.7161 H   0  0  0  0  0  0  0  0  0  0  0  0
  1  2  1  0  0  0  0
  1 25  1  0  0  0  0
  1 26  1  0  0  0  0
  1 27  1  0  0  0  0
  2 23  1  0  0  0  0
  2  3  2  0  0  0  0
  3  4  1  0  0  0  0
  4  5  1  0  0  0  0
  4 18  1  0  0  0  0
  5  6  1  0  0  0  0
  5 28  1  0  0  0  0
  5 29  1  0  0  0  0
  6  7  2  0  0  0  0
  6  8  1  0  0  0  0
  8  9  1  0  0  0  0
  8 30  1  0  0  0  0
  9 10  1  0  0  0  0
  9 11  1  0  0  0  0
  9 31  1  0  0  0  0
 10 32  1  0  0  0  0
 10 33  1  0  0  0  0
 10 34  1  0  0  0  0
 11 16  1  0  0  0  0
 11 12  1  0  0  0  0
 11 35  1  0  0  0  0
 12 13  1  0  0  0  0
 12 36  1  0  0  0  0
 12 37  1  0  0  0  0
 13 17  1  0  0  0  0
 13 14  1  0  0  0  0
 13 38  1  0  0  0  0
 14 15  1  0  0  0  0
 14 39  1  0  0  0  0
 14 40  1  0  0  0  0
 15 16  1  0  0  0  0
 15 41  1  0  0  0  0
 15 42  1  0  0  0  0
 16 17  1  0  0  0  0
 16 43  1  0  0  0  0
 17 44  1  0  0  0  0
 17 45  1  0  0  0  0
 18 19  2  0  0  0  0
 18 20  1  0  0  0  0
 20 21  1  0  0  0  0
 20 23  2  0  0  0  0
 21 22  3  0  0  0  0
 23 24  1  0  0  0  0
 24 46  1  0  0  0  0
 24 47  1  0  0  0  0
 24 48  1  0  0  0  0
M  END
> <s_m_source_file>
AV-unprocessed.smi

> <i_m_source_file_index>
1401

> <i_lp_mmshare_version>
43012

> <i_f3d_flags>
0

> <s_epik_input>
TiNDYyhjMVtDSDNdKWMoPU8pbihuYzFbQ0gzXSlbQ0gyXUMoPU8pW05IXVtDQEhdKFtDSDNdKVtDQEhdKFtDSDJdW0NASF0yMylbQ0BIXShbQ0gyXTMpW0NIMl1bQ0gyXTI=

> <s_epik_cmdline>
J2VwaWtfcHl0aG9uJywgJy1waCcsICc3LjAnLCAnLXRuJywgJzgnLCAnLW1hJywgJzIwMCcsICctbWV0YWxfYmluZGluZycsICctaW1hZScsICc8aW5maWxlLm1hZT4nLCAnLW9tYWUnLCAnPG91dGZpbGUubWFlPic=

> <r_lp_tautomer_probability>
1

> <r_epik_Ionization_Penalty>
2.16501e-08

> <r_epik_Ionization_Penalty_Charging>
2.29436e-11

> <r_epik_Ionization_Penalty_Neutral>
2.16271e-08

> <r_epik_State_Penalty>
-0

> <r_epik_Charging_Adjusted_Penalty>
2.29436e-11

> <i_epik_Tot_Q>
0

> <i_epik_Tot_abs_Q>
0

> <r_epik_Metal_State_Penalty>
-0

> <b_epik_Metal_Only>
0

> <s_lp_Force_Field>
OPLS_2005

> <r_lp_Energy>
66.5869

> <b_lp_Chiralities_Consistent>
1

> <s_lp_Variant>
AV-unprocessed.smi:1401-5

> <Gold.Version>
5.8.1

> <Gold.Id.Protein>
6NUR|6NUR_protein|mol2

> <Gold.PLP.Fitness>
44.6071

> <Gold.PLP.PLP>
-39.6020

> <Gold.PLP.part.hbond>
-2.0000

> <Gold.PLP.part.metal>
0.0000

> <Gold.PLP.part.buried>
-6.7648

> <Gold.PLP.part.nonpolar>
-29.6271

> <Gold.PLP.part.repulsive>
0.1588

> <Gold.PLP.ligand.clash>
0.0000

> <Gold.PLP.ligand.torsion>
0.3667

> <Gold.PLP.Chemscore.Hbond>
1.9040

> <Gold.PLP.Chemscore.CHOScore>
0.0000

> <Gold.PLP.Chemscore.Metal>
0.0000

> <Gold.Chemscore.Hbonds>
donor molecule, donor type, donor heavy atom, donor atom, acceptor molecule, acceptor atom, score
      P1  H  7989  7998       L1     7  0.99
      P1  H  7997  8008       L1    19  0.90

> <Gold.PLP.Chemscore.Internal.Correction>
0.0265

> <Gold.Rescore>
     Score         DG    S(hbond)    S(metal)    S(lipo)     H(rot)  DE(clash)    DE(int)     intcor
     14.22     -17.15       1.87        0.00      81.97       1.63       0.01       2.93       ----

> <Gold.Chemscore.Fitness>
14.2164

> <Gold.Chemscore.DG>
-17.1495

> <Gold.Chemscore.ZeroCoef>
-5.4800

> <Gold.Chemscore.Hbond>
1.8703

> <Gold.Chemscore.Metal>
0.0000

> <Gold.Chemscore.Lipo>
81.9692

> <Gold.Chemscore.Internal_Hbond>
0.0000

> <Gold.Chemscore.DEClash>
0.0075

> <Gold.Chemscore.DEInternal>
2.9257

> <Gold.Chemscore.Rot>
1.6281

> <Gold.Chemscore.Internal.Correction>
   9.000000E+99

> <Gold.Chemscore.Hbonds>
donor molecule, donor type, donor heavy atom, donor atom, acceptor molecule, acceptor atom, score
      P1  H  7989  7998       L1     7  0.87
      P1  H  7997  8008       L1    19  0.85

> <Gold.Chemscore.Hbond.Weighted>
-6.2469

> <Gold.Chemscore.Metal.Weighted>
-0.0000

> <Gold.Chemscore.Lipo.Weighted>
-9.5904

> <Gold.Chemscore.Internal_Hbond.Weighted>
0.0000

> <Gold.Chemscore.DEClash.Weighted>
0.0075

> <Gold.Chemscore.DEInternal.Weighted>
2.9257

> <Gold.Chemscore.Rot.Weighted>
4.1678

> <Gold.Chemscore.Internal.Correction.Weighted>
   9.000000E+99

> <Gold.Protein.RotatedTorsions>
[ 6907 6896 6895 6894 ] final   36.88 input  -60.11 | X-H torsion
[ 7974 7965 7964 7962 ] final -177.75 input  175.53 | X-H torsion
[ 8008 7997 7996 7995 ] final  -70.23 input   59.86 | X-H torsion
[ 10167 10162 10161 10158 ] final  143.93 input  -65.29 | X-H torsion
[ 10718 10713 10712 10709 ] final  -79.90 input   66.30 | X-H torsion
[ 10763 10752 10751 10750 ] final -163.18 input  -60.55 | X-H torsion
[ 11005 11000 10999 10996 ] final   83.94 input  -57.11 | X-H torsion

> <Gold.Protein.ActiveResidues>
 VAL166  LYS551  ARG553  GLY616  TRP617  ASP618  TYR619  PRO620  LYS621  CYS622 
 ASP623  PHE694  ASN695  SER759  ASP760  ASP761  ALA762  ILE779  LEU786  VAL792 
 PHE793  MET794  SER795  GLU796  ALA797  LYS798  CYS799  TRP800  GLU811  SER814 

> <Gold.Protein.RotatedAtoms>
  152.1357  134.9101  160.0556 H   0  0  0  0  0  0  0  0  0  0  0  0  # atno 6907 bound_to 6896
  152.0189  133.3885  159.4258 H   0  0  0  0  0  0  0  0  0  0  0  0  # atno 6908 bound_to 6896
  150.6860  134.3570  159.4977 H   0  0  0  0  0  0  0  0  0  0  0  0  # atno 6909 bound_to 6896
  144.7128  140.0972  143.6418 H   0  0  0  0  0  0  0  0  0  0  0  0  # atno 7974 bound_to 7965
  154.4996  140.0838  156.7770 H   0  0  0  0  0  0  0  0  0  0  0  0  # atno 8008 bound_to 7997
  155.4034  140.3438  155.4240 H   0  0  0  0  0  0  0  0  0  0  0  0  # atno 8009 bound_to 7997
  156.1439  140.1538  156.8864 H   0  0  0  0  0  0  0  0  0  0  0  0  # atno 8010 bound_to 7997
  139.4958  144.6007  151.6488 H   0  0  0  0  0  0  0  0  0  0  0  0  # atno 10167 bound_to 10162
  156.0082  130.4559  150.3719 H   0  0  0  0  0  0  0  0  0  0  0  0  # atno 10718 bound_to 10713
  154.7146  135.3013  154.9143 H   0  0  0  0  0  0  0  0  0  0  0  0  # atno 10763 bound_to 10752
  154.0034  135.6704  153.4764 H   0  0  0  0  0  0  0  0  0  0  0  0  # atno 10764 bound_to 10752
  153.0783  135.5022  154.8365 H   0  0  0  0  0  0  0  0  0  0  0  0  # atno 10765 bound_to 10752
  139.9015  134.8180  156.2377 H   0  0  0  0  0  0  0  0  0  0  0  0  # atno 11005 bound_to 11000
  145.9569  139.2773  143.1178 LP  0  0  0  0  0  0  0  0  0  0  0  0  # atno 17320 bound_to 7965
  145.9262  140.9080  143.0379 LP  0  0  0  0  0  0  0  0  0  0  0  0  # atno 17321 bound_to 7965
  140.5655  144.0196  150.6190 LP  0  0  0  0  0  0  0  0  0  0  0  0  # atno 17342 bound_to 10162
  140.3297  143.3085  152.0700 LP  0  0  0  0  0  0  0  0  0  0  0  0  # atno 17343 bound_to 10162
  157.1803  131.0390  151.2752 LP  0  0  0  0  0  0  0  0  0  0  0  0  # atno 17370 bound_to 10713
  157.4152  130.7407  149.6870 LP  0  0  0  0  0  0  0  0  0  0  0  0  # atno 17371 bound_to 10713
  141.0305  133.6991  156.1422 LP  0  0  0  0  0  0  0  0  0  0  0  0  # atno 17394 bound_to 11000
  140.7103  134.4468  157.5582 LP  0  0  0  0  0  0  0  0  0  0  0  0  # atno 17395 bound_to 11000

$$$$
