#       Name:                AV-unprocessed.smi:1323
#       Creating user name   scv26
#       Creation time:       Fri Mar 27 05:03:37 2020


#       File generated by GOLD software.
#

@<TRIPOS>MOLECULE
AV-unprocessed.smi:1323
    51    52     1
SMALL
NO_CHARGES


@<TRIPOS>ATOM
      1 ****        -0.8441   0.0274   3.2700 C.3            1 S1                 0.0000
      2 ****        -1.5432   0.7792   2.1262 C.3            1 S1                 0.0000
      3 ****        -0.5374   1.5750   1.2671 C.3            1 S1                 0.0000
      4 ****        -1.2440   2.3597   0.1497 C.3            1 S1                 0.0000
      5 ****        -2.1229   1.4424  -0.7153 C.3            1 S1                 0.0000
      6 ****        -3.1179   0.6494   0.1458 C.3            1 S1                 0.0000
      7 ****        -2.3947  -0.1615   1.2438 C.3            1 S1                 0.0000
      8 ****        -1.5106  -1.1343   0.6996 O.3            1 S1                 0.0000
      9 ****        -2.1044  -2.2083  -0.0123 C.3            1 S1                 0.0000
     10 ****        -1.0147  -3.2403  -0.3426 C.3            1 S1                 0.0000
     11 ****         0.0115  -2.6811  -1.2188 N.am           1 S1                 0.0000
     12 ****         1.1005  -2.0163  -0.8004 C.2            1 S1                 0.0000
     13 ****         1.3679  -1.8417   0.3893 O.2            1 S1                 0.0000
     14 ****         2.0419  -1.4871  -1.8905 C.3            1 S1                 0.0000
     15 ****         2.6246  -0.1817  -1.5382 N.am           1 S1                 0.0000
     16 ****         3.8724  -0.1903  -0.8829 C.2            1 S1                 0.0000
     17 ****         4.4760   0.9425  -0.4899 C.2            1 S1                 0.0000
     18 ****         3.8115   2.1969  -0.7536 C.2            1 S1                 0.0000
     19 ****         2.6197   2.2167  -1.3830 C.2            1 S1                 0.0000
     20 ****         1.9607   0.9812  -1.8215 C.2            1 S1                 0.0000
     21 ****         0.8785   0.9921  -2.4078 O.2            1 S1                 0.0000
     22 ****        -0.1196  -0.6944   2.8913 H              1 S1                 0.0000
     23 ****        -1.5654  -0.5142   3.8824 H              1 S1                 0.0000
     24 ****        -0.3107   0.7184   3.9232 H              1 S1                 0.0000
     25 ****        -2.2211   1.4982   2.5886 H              1 S1                 0.0000
     26 ****         0.0261   2.2661   1.8948 H              1 S1                 0.0000
     27 ****         0.1952   0.8964   0.8279 H              1 S1                 0.0000
     28 ****        -1.8610   3.1435   0.5910 H              1 S1                 0.0000
     29 ****        -0.5056   2.8634  -0.4748 H              1 S1                 0.0000
     30 ****        -2.6598   2.0343  -1.4568 H              1 S1                 0.0000
     31 ****        -1.4958   0.7460  -1.2719 H              1 S1                 0.0000
     32 ****        -3.8148   1.3442   0.6162 H              1 S1                 0.0000
     33 ****        -3.7302   0.0047  -0.4836 H              1 S1                 0.0000
     34 ****        -3.1339  -0.6653   1.8686 H              1 S1                 0.0000
     35 ****        -2.8812  -2.6748   0.5949 H              1 S1                 0.0000
     36 ****        -2.5695  -1.8562  -0.9329 H              1 S1                 0.0000
     37 ****        -0.5694  -3.6309   0.5740 H              1 S1                 0.0000
     38 ****        -1.4633  -4.0927  -0.8527 H              1 S1                 0.0000
     39 ****        -0.1287  -2.7869  -2.2131 H              1 S1                 0.0000
     40 ****         2.8307  -2.2243  -2.0461 H              1 S1                 0.0000
     41 ****         1.5135  -1.4290  -2.8442 H              1 S1                 0.0000
     42 ****         4.2961  -1.1698  -0.7146 H              1 S1                 0.0000
     43 ****         5.4298   0.9161   0.0164 H              1 S1                 0.0000
     44 ****         4.2704   3.1237  -0.4422 H              1 S1                 0.0000
     45 ****         2.1357   3.1642  -1.5695 H              1 S1                 0.0000
     46 ****        -0.9873  -1.5253   1.4567 LP             1 S1                 0.0000
     47 ****        -0.8894  -0.6627   0.0737 LP             1 S1                 0.0000
     48 ****         0.7602  -2.2029   1.0966 LP             1 S1                 0.0000
     49 ****         2.1927  -1.3388   0.6478 LP             1 S1                 0.0000
     50 ****         0.4561   0.1320  -2.6938 LP             1 S1                 0.0000
     51 ****         0.4217   1.8610  -2.5982 LP             1 S1                 0.0000
@<TRIPOS>BOND
    1    1    2 1     
    2    1   22 1     
    3    1   23 1     
    4    1   24 1     
    5    2    7 1     
    6    2    3 1     
    7    2   25 1     
    8    3    4 1     
    9    3   26 1     
   10    3   27 1     
   11    4    5 1     
   12    4   28 1     
   13    4   29 1     
   14    5    6 1     
   15    5   30 1     
   16    5   31 1     
   17    6    7 1     
   18    6   32 1     
   19    6   33 1     
   20    7    8 1     
   21    7   34 1     
   22    8    9 1     
   23    9   10 1     
   24    9   35 1     
   25    9   36 1     
   26   10   11 1     
   27   10   37 1     
   28   10   38 1     
   29   11   12 am    
   30   11   39 1     
   31   12   13 2     
   32   12   14 1     
   33   14   15 1     
   34   14   40 1     
   35   14   41 1     
   36   15   20 am    
   37   15   16 1     
   38   16   17 2     
   39   16   42 1     
   40   17   18 1     
   41   17   43 1     
   42   18   19 2     
   43   18   44 1     
   44   19   20 1     
   45   19   45 1     
   46   20   21 2     
   47    8   46 1     
   48    8   47 1     
   49   13   48 1     
   50   13   49 1     
   51   21   50 1     
   52   21   51 1     
@<TRIPOS>SUBSTRUCTURE
      1 S1             1
@<TRIPOS>SET
LONE_PAIRS      STATIC     ATOMS    <user>   **** ""
6 46 47 48 49 50 51
DONOR_HYDROGENS      STATIC     ATOMS    <user>   **** ""
1 39
ATOM$BLUE        STATIC     ATOMS    COLORGROUP SYSTEM
6 46 47 48 49 50 51
ATOM$RED        STATIC     ATOMS    COLORGROUP SYSTEM
1 39
