#       Name:                AV-unprocessed.smi:2237
#       Creating user name   scv26
#       Creation time:       Fri Mar 27 12:25:57 2020


#       File generated by GOLD software.
#

@<TRIPOS>MOLECULE
AV-unprocessed.smi:2237
    58    60     1
SMALL
NO_CHARGES


@<TRIPOS>ATOM
      1 ****        -4.8077   6.5161   0.8769 C.3            1 S1                 0.0000
      2 ****        -5.0616   5.0860   0.4491 C.ar           1 S1                 0.0000
      3 ****        -6.3720   4.6130   0.2409 C.ar           1 S1                 0.0000
      4 ****        -6.5375   3.2750  -0.1593 C.ar           1 S1                 0.0000
      5 ****        -5.3944   2.4710  -0.3341 C.ar           1 S1                 0.0000
      6 ****        -4.1148   3.0220  -0.0990 C.ar           1 S1                 0.0000
      7 ****        -3.0265   2.1335  -0.3089 N.am           1 S1                 0.0000
      8 ****        -1.7237   2.3445  -0.0508 C.2            1 S1                 0.0000
      9 ****        -1.2585   3.3495   0.4877 O.2            1 S1                 0.0000
     10 ****        -0.9739   1.3031  -0.4415 N.am           1 S1                 0.0000
     11 ****         0.4741   1.2045  -0.2798 C.3            1 S1                 0.0000
     12 ****         1.0862   0.4363  -1.4641 C.3            1 S1                 0.0000
     13 ****         2.5940   0.2099  -1.2455 C.3            1 S1                 0.0000
     14 ****         2.8614  -0.5359   0.0177 N.4            1 S1                 1.0000
     15 ****         2.4773  -1.9883   0.0089 C.3            1 S1                 0.0000
     16 ****         3.0219  -2.7333   1.2509 C.3            1 S1                 0.0000
     17 ****         2.7284  -4.2424   1.1983 C.3            1 S1                 0.0000
     18 ****         3.3229  -4.8270  -0.0001 N.3            1 S1                 0.0000
     19 ****         3.0985  -6.2657   0.0023 C.3            1 S1                 0.0000
     20 ****         2.7005  -4.2443  -1.1850 C.3            1 S1                 0.0000
     21 ****         2.9906  -2.7353  -1.2462 C.3            1 S1                 0.0000
     22 ****         2.3343   0.2477   1.1724 C.3            1 S1                 0.0000
     23 ****         0.8197   0.5101   1.0519 C.3            1 S1                 0.0000
     24 ****        -3.9655   4.3139   0.2865 N.ar           1 S1                 0.0000
     25 ****        -5.7145   7.1172   0.8045 H              1 S1                 0.0000
     26 ****        -4.0464   6.9741   0.2445 H              1 S1                 0.0000
     27 ****        -4.4593   6.5444   1.9095 H              1 S1                 0.0000
     28 ****        -7.2286   5.2559   0.3824 H              1 S1                 0.0000
     29 ****        -7.5243   2.8709  -0.3302 H              1 S1                 0.0000
     30 ****        -5.5050   1.4415  -0.6425 H              1 S1                 0.0000
     31 ****        -3.2687   1.2384  -0.7073 H              1 S1                 0.0000
     32 ****        -1.4398   0.5187  -0.8741 H              1 S1                 0.0000
     33 ****         0.9123   2.2046  -0.2741 H              1 S1                 0.0000
     34 ****         0.5805  -0.5204  -1.5996 H              1 S1                 0.0000
     35 ****         0.9308   0.9966  -2.3868 H              1 S1                 0.0000
     36 ****         3.0511  -0.2664  -2.1105 H              1 S1                 0.0000
     37 ****         3.0892   1.1796  -1.1772 H              1 S1                 0.0000
     38 ****         1.3901  -2.0667   0.0149 H              1 S1                 0.0000
     39 ****         4.0980  -2.5749   1.3383 H              1 S1                 0.0000
     40 ****         2.5751  -2.3507   2.1668 H              1 S1                 0.0000
     41 ****         3.1474  -4.7233   2.0833 H              1 S1                 0.0000
     42 ****         1.6521  -4.4224   1.2158 H              1 S1                 0.0000
     43 ****         3.5470  -6.7237  -0.8800 H              1 S1                 0.0000
     44 ****         2.0339  -6.5046   0.0078 H              1 S1                 0.0000
     45 ****         3.5560  -6.7229   0.8804 H              1 S1                 0.0000
     46 ****         3.0986  -4.7259  -2.0791 H              1 S1                 0.0000
     47 ****         1.6241  -4.4250  -1.1768 H              1 S1                 0.0000
     48 ****         2.5113  -2.3554  -2.1477 H              1 S1                 0.0000
     49 ****         4.0632  -2.5752  -1.3657 H              1 S1                 0.0000
     50 ****         2.5686  -0.2184   2.1270 H              1 S1                 0.0000
     51 ****         2.8559   1.2056   1.1966 H              1 S1                 0.0000
     52 ****         0.4910   1.1305   1.8867 H              1 S1                 0.0000
     53 ****         0.2706  -0.4278   1.1413 H              1 S1                 0.0000
     54 ****         3.8664  -0.5360   0.1211 H              1 S1                 0.0000
     55 ****        -1.8660   4.0916   0.7709 LP             1 S1                 0.0000
     56 ****        -0.2732   3.4235   0.6418 LP             1 S1                 0.0000
     57 ****         4.3051  -4.6396  -0.0108 LP             1 S1                 0.0000
     58 ****        -3.0535   4.6906   0.4486 LP             1 S1                 0.0000
@<TRIPOS>BOND
    1    1    2 1     
    2    1   25 1     
    3    1   26 1     
    4    1   27 1     
    5    2   24 ar    
    6    2    3 ar    
    7    3    4 ar    
    8    3   28 1     
    9    4    5 ar    
   10    4   29 1     
   11    5    6 ar    
   12    5   30 1     
   13    6    7 1     
   14    6   24 ar    
   15    7    8 am    
   16    7   31 1     
   17    8    9 2     
   18    8   10 am    
   19   10   11 1     
   20   10   32 1     
   21   11   23 1     
   22   11   12 1     
   23   11   33 1     
   24   12   13 1     
   25   12   34 1     
   26   12   35 1     
   27   13   14 1     
   28   13   36 1     
   29   13   37 1     
   30   14   15 1     
   31   14   22 1     
   32   14   54 1     
   33   15   21 1     
   34   15   16 1     
   35   15   38 1     
   36   16   17 1     
   37   16   39 1     
   38   16   40 1     
   39   17   18 1     
   40   17   41 1     
   41   17   42 1     
   42   18   19 1     
   43   18   20 1     
   44   19   43 1     
   45   19   44 1     
   46   19   45 1     
   47   20   21 1     
   48   20   46 1     
   49   20   47 1     
   50   21   48 1     
   51   21   49 1     
   52   22   23 1     
   53   22   50 1     
   54   22   51 1     
   55   23   52 1     
   56   23   53 1     
   57    9   55 1     
   58    9   56 1     
   59   18   57 1     
   60   24   58 1     
@<TRIPOS>SUBSTRUCTURE
      1 S1             1
@<TRIPOS>SET
LONE_PAIRS      STATIC     ATOMS    <user>   **** ""
4 55 56 57 58
DONOR_HYDROGENS      STATIC     ATOMS    <user>   **** ""
3 31 32 54
ATOM$BLUE        STATIC     ATOMS    COLORGROUP SYSTEM
4 55 56 57 58
ATOM$RED        STATIC     ATOMS    COLORGROUP SYSTEM
3 31 32 54
