AV-unprocessed.smi:260|AV-procd|sdf|1982|dock2
  -GOLD-   2262021153D 1   1.00000     0.00000
 Structure written by MMmdl.
 53 56  0  0  0  0  0  0  0  0  1 V2000
  152.2886  130.2181  156.1694 C   0  0  0  0  0  0  0  0  0  0  0  0
  151.1202  131.0439  155.9073 N   0  0  0  0  0  0  0  0  0  0  0  0
  150.7410  132.0859  156.6645 C   0  0  0  0  0  0  0  0  0  0  0  0
  151.3658  132.4215  157.6717 O   0  0  0  0  0  0  0  0  0  0  0  0
  149.4756  132.8830  156.2513 C   0  0  2  0  0  0  0  0  0  0  0  0
  148.2759  131.9182  156.1793 C   0  0  0  0  0  0  0  0  0  0  0  0
  149.6375  133.7018  154.9493 C   0  0  0  0  0  0  0  0  0  0  0  0
  150.3265  135.0029  155.3824 C   0  0  0  0  0  0  0  0  0  0  0  0
  150.0473  135.1318  156.8050 N   0  0  0  0  0  0  0  0  0  0  0  0
  150.0294  136.3407  157.4228 C   0  0  0  0  0  0  0  0  0  0  0  0
  148.8944  136.7294  158.0622 N   0  0  0  0  0  0  0  0  0  0  0  0
  148.8364  137.9086  158.6871 C   0  0  0  0  0  0  0  0  0  0  0  0
  149.7846  138.8394  158.8011 N   0  0  0  0  0  0  0  0  0  0  0  0
  150.9310  138.4537  158.1723 C   0  0  0  0  0  0  0  0  0  0  0  0
  151.1403  137.2344  157.4655 C   0  0  0  0  0  0  0  0  0  0  0  0
  152.4413  137.1994  156.9733 N   0  0  0  0  0  0  0  0  0  0  0  0
  152.9652  138.3298  157.3607 C   0  0  0  0  0  0  0  0  0  0  0  0
  152.1274  139.1421  158.0886 N   0  0  0  0  0  0  0  0  0  0  0  0
  152.4452  140.4425  158.6510 C   0  0  0  0  0  0  0  0  0  0  0  0
  153.4362  140.3443  159.8272 C   0  0  1  0  0  0  0  0  0  0  0  0
  154.6758  139.8183  159.3922 O   0  0  0  0  0  0  0  0  0  0  0  0
  153.6438  141.6911  160.5485 C   0  0  1  0  0  0  0  0  0  0  0  0
  152.3974  142.5576  160.7468 C   0  0  0  0  0  0  0  0  0  0  0  0
  152.8227  143.4206  161.9137 C   0  0  0  0  0  0  0  0  0  0  0  0
  153.6182  142.4302  162.7610 C   0  0  0  0  0  0  0  0  0  0  0  0
  154.2180  141.5200  161.8423 O   0  0  0  0  0  0  0  0  0  0  0  0
  149.2245  134.0187  157.2614 C   0  0  0  0  0  0  0  0  0  0  0  0
  152.3789  129.4482  155.4031 H   0  0  0  0  0  0  0  0  0  0  0  0
  152.2072  129.7265  157.1398 H   0  0  0  0  0  0  0  0  0  0  0  0
  153.1988  130.8194  156.1581 H   0  0  0  0  0  0  0  0  0  0  0  0
  150.5681  130.8183  155.0926 H   0  0  0  0  0  0  0  0  0  0  0  0
  147.3556  132.4467  155.9290 H   0  0  0  0  0  0  0  0  0  0  0  0
  148.1067  131.4120  157.1308 H   0  0  0  0  0  0  0  0  0  0  0  0
  148.4292  131.1524  155.4178 H   0  0  0  0  0  0  0  0  0  0  0  0
  150.1699  133.1877  154.1487 H   0  0  0  0  0  0  0  0  0  0  0  0
  148.6518  133.9470  154.5508 H   0  0  0  0  0  0  0  0  0  0  0  0
  151.4052  134.9372  155.2373 H   0  0  0  0  0  0  0  0  0  0  0  0
  149.9526  135.8529  154.8103 H   0  0  0  0  0  0  0  0  0  0  0  0
  147.8956  138.1379  159.1654 H   0  0  0  0  0  0  0  0  0  0  0  0
  153.9855  138.6006  157.1308 H   0  0  0  0  0  0  0  0  0  0  0  0
  152.8487  141.0742  157.8588 H   0  0  0  0  0  0  0  0  0  0  0  0
  151.5152  140.9085  158.9790 H   0  0  0  0  0  0  0  0  0  0  0  0
  153.0385  139.6359  160.5551 H   0  0  0  0  0  0  0  0  0  0  0  0
  155.0697  139.3515  160.1134 H   0  0  0  0  0  0  0  0  0  0  0  0
  154.3664  142.2770  159.9777 H   0  0  0  0  0  0  0  0  0  0  0  0
  152.1352  143.1348  159.8597 H   0  0  0  0  0  0  0  0  0  0  0  0
  151.5315  141.9599  161.0329 H   0  0  0  0  0  0  0  0  0  0  0  0
  153.4716  144.2263  161.5675 H   0  0  0  0  0  0  0  0  0  0  0  0
  151.9827  143.8627  162.4503 H   0  0  0  0  0  0  0  0  0  0  0  0
  154.3670  142.9209  163.3831 H   0  0  0  0  0  0  0  0  0  0  0  0
  152.9498  141.8690  163.4153 H   0  0  0  0  0  0  0  0  0  0  0  0
  148.1753  134.3186  157.2565 H   0  0  0  0  0  0  0  0  0  0  0  0
  149.4833  133.7350  158.2828 H   0  0  0  0  0  0  0  0  0  0  0  0
  1  2  1  0  0  0  0
  1 28  1  0  0  0  0
  1 29  1  0  0  0  0
  1 30  1  0  0  0  0
  2  3  1  0  0  0  0
  2 31  1  0  0  0  0
  3  4  2  0  0  0  0
  3  5  1  0  0  0  0
  5 27  1  0  0  0  0
  5  6  1  0  0  0  0
  5  7  1  0  0  0  0
  6 32  1  0  0  0  0
  6 33  1  0  0  0  0
  6 34  1  0  0  0  0
  7  8  1  0  0  0  0
  7 35  1  0  0  0  0
  7 36  1  0  0  0  0
  8  9  1  0  0  0  0
  8 37  1  0  0  0  0
  8 38  1  0  0  0  0
  9 10  1  0  0  0  0
  9 27  1  0  0  0  0
 10 15  1  0  0  0  0
 10 11  2  0  0  0  0
 11 12  1  0  0  0  0
 12 13  2  0  0  0  0
 12 39  1  0  0  0  0
 13 14  1  0  0  0  0
 14 18  1  0  0  0  0
 14 15  2  0  0  0  0
 15 16  1  0  0  0  0
 16 17  2  0  0  0  0
 17 18  1  0  0  0  0
 17 40  1  0  0  0  0
 18 19  1  0  0  0  0
 19 20  1  0  0  0  0
 19 41  1  0  0  0  0
 19 42  1  0  0  0  0
 20 21  1  0  0  0  0
 20 22  1  0  0  0  0
 20 43  1  0  0  0  0
 21 44  1  0  0  0  0
 22 26  1  0  0  0  0
 22 23  1  0  0  0  0
 22 45  1  0  0  0  0
 23 24  1  0  0  0  0
 23 46  1  0  0  0  0
 23 47  1  0  0  0  0
 24 25  1  0  0  0  0
 24 48  1  0  0  0  0
 24 49  1  0  0  0  0
 25 26  1  0  0  0  0
 25 50  1  0  0  0  0
 25 51  1  0  0  0  0
 27 52  1  0  0  0  0
 27 53  1  0  0  0  0
M  END
> <s_m_source_file>
AV-unprocessed.smi

> <i_m_source_file_index>
260

> <i_lp_mmshare_version>
43012

> <i_f3d_flags>
0

> <s_epik_input>
W0NIM11bTkhdQyg9TylbQ0BAXTEoW0NIM10pW0NIMl1bQ0gyXU4oW0NIMl0xKWMobltjSF1uMiljKGMyMyluW2NIXW4zW0NIMl1bQ0BIXShbT0hdKVtDQEBIXTRbQ0gyXVtDSDJdW0NIMl1PNA==

> <s_epik_cmdline>
J2VwaWtfcHl0aG9uJywgJy1waCcsICc3LjAnLCAnLXRuJywgJzgnLCAnLW1hJywgJzIwMCcsICctbWV0YWxfYmluZGluZycsICctaW1hZScsICc8aW5maWxlLm1hZT4nLCAnLW9tYWUnLCAnPG91dGZpbGUubWFlPic=

> <r_lp_tautomer_probability>
1

> <r_epik_Ionization_Penalty>
0.00115068

> <r_epik_Ionization_Penalty_Charging>
0

> <r_epik_Ionization_Penalty_Neutral>
0.00115068

> <r_epik_State_Penalty>
0.000668876

> <r_epik_Charging_Adjusted_Penalty>
0.000668876

> <i_epik_Tot_Q>
0

> <i_epik_Tot_abs_Q>
0

> <r_epik_Metal_State_Penalty>
-0

> <b_epik_Metal_Only>
0

> <s_lp_Force_Field>
OPLS_2005

> <r_lp_Energy>
50.4325

> <b_lp_Chiralities_Consistent>
1

> <s_lp_Variant>
AV-unprocessed.smi:260-8

> <Gold.Version>
5.8.1

> <Gold.Id.Protein>
6NUR|6NUR_protein|mol2

> <Gold.PLP.Fitness>
44.6364

> <Gold.PLP.PLP>
-40.7334

> <Gold.PLP.part.hbond>
-3.6501

> <Gold.PLP.part.metal>
0.0000

> <Gold.PLP.part.buried>
-5.1868

> <Gold.PLP.part.nonpolar>
-31.6090

> <Gold.PLP.part.repulsive>
0.0061

> <Gold.PLP.ligand.clash>
0.0000

> <Gold.PLP.ligand.torsion>
1.1897

> <Gold.PLP.Chemscore.Hbond>
1.9833

> <Gold.PLP.Chemscore.CHOScore>
0.0000

> <Gold.PLP.Chemscore.Metal>
0.0000

> <Gold.Chemscore.Hbonds>
donor molecule, donor type, donor heavy atom, donor atom, acceptor molecule, acceptor atom, score
      P1  H  6896  6909       L1     4  1.00
      P1  H  7997  8008       L1    21  0.73

> <Gold.PLP.Chemscore.Internal.Correction>
0.3328

> <Gold.Rescore>
     Score         DG    S(hbond)    S(metal)    S(lipo)     H(rot)  DE(clash)    DE(int)     intcor
     14.61     -15.90       1.92        0.00      89.50       2.53       0.02       1.26       ----

> <Gold.Chemscore.Fitness>
14.6143

> <Gold.Chemscore.DG>
-15.8978

> <Gold.Chemscore.ZeroCoef>
-5.4800

> <Gold.Chemscore.Hbond>
1.9198

> <Gold.Chemscore.Metal>
0.0000

> <Gold.Chemscore.Lipo>
89.5032

> <Gold.Chemscore.Internal_Hbond>
0.0000

> <Gold.Chemscore.DEClash>
0.0248

> <Gold.Chemscore.DEInternal>
1.2588

> <Gold.Chemscore.Rot>
2.5259

> <Gold.Chemscore.Internal.Correction>
   9.000000E+99

> <Gold.Chemscore.Hbonds>
donor molecule, donor type, donor heavy atom, donor atom, acceptor molecule, acceptor atom, score
      P1  H  6896  6909       L1     4  1.00
      P1  H  7997  8008       L1    21  0.68

> <Gold.Chemscore.Hbond.Weighted>
-6.4123

> <Gold.Chemscore.Metal.Weighted>
-0.0000

> <Gold.Chemscore.Lipo.Weighted>
-10.4719

> <Gold.Chemscore.Internal_Hbond.Weighted>
0.0000

> <Gold.Chemscore.DEClash.Weighted>
0.0248

> <Gold.Chemscore.DEInternal.Weighted>
1.2588

> <Gold.Chemscore.Rot.Weighted>
6.4663

> <Gold.Chemscore.Internal.Correction.Weighted>
   9.000000E+99

> <Gold.Protein.RotatedTorsions>
[ 6907 6896 6895 6894 ] final  -53.23 input  -60.11 | X-H torsion
[ 7974 7965 7964 7962 ] final  -23.81 input  175.53 | X-H torsion
[ 8008 7997 7996 7995 ] final -133.77 input   59.86 | X-H torsion
[ 10167 10162 10161 10158 ] final  140.15 input  -65.29 | X-H torsion
[ 10718 10713 10712 10709 ] final -127.47 input   66.30 | X-H torsion
[ 10763 10752 10751 10750 ] final  -61.22 input  -60.55 | X-H torsion
[ 11005 11000 10999 10996 ] final  135.00 input  -57.11 | X-H torsion

> <Gold.Protein.ActiveResidues>
 VAL166  LYS551  ARG553  GLY616  TRP617  ASP618  TYR619  PRO620  LYS621  CYS622 
 ASP623  PHE694  ASN695  SER759  ASP760  ASP761  ALA762  ILE779  LEU786  VAL792 
 PHE793  MET794  SER795  GLU796  ALA797  LYS798  CYS799  TRP800  GLU811  SER814 

> <Gold.Protein.RotatedAtoms>
  150.8446  134.7750  159.6959 H   0  0  0  0  0  0  0  0  0  0  0  0  # atno 6907 bound_to 6896
  152.4526  134.5358  159.9834 H   0  0  0  0  0  0  0  0  0  0  0  0  # atno 6908 bound_to 6896
  151.5491  133.3382  159.2985 H   0  0  0  0  0  0  0  0  0  0  0  0  # atno 6909 bound_to 6896
  146.1593  140.4667  142.8578 H   0  0  0  0  0  0  0  0  0  0  0  0  # atno 7974 bound_to 7965
  155.3510  140.0477  157.3046 H   0  0  0  0  0  0  0  0  0  0  0  0  # atno 8008 bound_to 7997
  154.5227  140.2230  155.8910 H   0  0  0  0  0  0  0  0  0  0  0  0  # atno 8009 bound_to 7997
  156.1707  140.3096  155.8974 H   0  0  0  0  0  0  0  0  0  0  0  0  # atno 8010 bound_to 7997
  139.5057  144.6251  151.5956 H   0  0  0  0  0  0  0  0  0  0  0  0  # atno 10167 bound_to 10162
  156.1860  130.6764  151.0365 H   0  0  0  0  0  0  0  0  0  0  0  0  # atno 10718 bound_to 10713
  154.2812  135.6271  153.5348 H   0  0  0  0  0  0  0  0  0  0  0  0  # atno 10763 bound_to 10752
  152.9865  135.5633  154.5493 H   0  0  0  0  0  0  0  0  0  0  0  0  # atno 10764 bound_to 10752
  154.5084  135.2875  155.1339 H   0  0  0  0  0  0  0  0  0  0  0  0  # atno 10765 bound_to 10752
  139.9951  134.9500  156.9946 H   0  0  0  0  0  0  0  0  0  0  0  0  # atno 11005 bound_to 11000
  144.8005  140.6204  143.6481 LP  0  0  0  0  0  0  0  0  0  0  0  0  # atno 17320 bound_to 7965
  145.4629  139.1511  143.3856 LP  0  0  0  0  0  0  0  0  0  0  0  0  # atno 17321 bound_to 7965
  140.5966  143.9685  150.6358 LP  0  0  0  0  0  0  0  0  0  0  0  0  # atno 17342 bound_to 10162
  140.2883  143.3342  152.1086 LP  0  0  0  0  0  0  0  0  0  0  0  0  # atno 17343 bound_to 10162
  157.6899  131.0813  150.7137 LP  0  0  0  0  0  0  0  0  0  0  0  0  # atno 17370 bound_to 10713
  156.7194  130.4676  149.5527 LP  0  0  0  0  0  0  0  0  0  0  0  0  # atno 17371 bound_to 10713
  140.4833  134.1267  155.7220 LP  0  0  0  0  0  0  0  0  0  0  0  0  # atno 17394 bound_to 11000
  141.1598  133.8815  157.1879 LP  0  0  0  0  0  0  0  0  0  0  0  0  # atno 17395 bound_to 11000

$$$$
