AV-unprocessed.smi:34|AV-procd|sdf|229|dock10
  -GOLD-   2262015563D 1   1.00000     0.00000
 Structure written by MMmdl.
 55 59  0  0  0  0  0  0  0  0  1 V2000
  150.6321  142.1994  155.8987 O   0  0  0  0  0  0  0  0  0  0  0  0
  151.1936  141.7251  156.8868 C   0  0  0  0  0  0  0  0  0  0  0  0
  151.3969  140.2966  157.0501 N   0  0  0  0  0  0  0  0  0  0  0  0
  151.0895  139.3046  156.1821 C   0  0  0  0  0  0  0  0  0  0  0  0
  151.0916  139.4879  154.8355 N   0  0  0  0  0  0  0  0  0  0  0  0
  150.7771  138.4781  154.0197 C   0  0  0  0  0  0  0  0  0  0  0  0
  150.4376  137.2277  154.3370 N   0  0  0  0  0  0  0  0  0  0  0  0
  150.4384  137.0306  155.6864 C   0  0  0  0  0  0  0  0  0  0  0  0
  150.7546  138.0130  156.6661 C   0  0  0  0  0  0  0  0  0  0  0  0
  150.6537  137.4606  157.9361 N   0  0  0  0  0  0  0  0  0  0  0  0
  150.2933  136.2252  157.7152 C   0  0  0  0  0  0  0  0  0  0  0  0
  150.1341  135.8815  156.3911 N   0  0  0  0  0  0  0  0  0  0  0  0
  149.7138  134.5487  155.8499 C   0  0  2  0  0  0  0  0  0  0  0  0
  148.6279  134.0552  156.5789 O   0  0  0  0  0  0  0  0  0  0  0  0
  148.7772  132.6560  156.8416 C   0  0  2  0  0  0  0  0  0  0  0  0
  148.9729  132.4523  158.3526 C   0  0  0  0  0  0  0  0  0  0  0  0
  148.0980  133.3236  159.0510 O   0  0  0  0  0  0  0  0  0  0  0  0
  147.9312  133.1952  160.3820 C   0  0  0  0  0  0  0  0  0  0  0  0
  148.0286  132.1234  160.9833 O   0  0  0  0  0  0  0  0  0  0  0  0
  147.6291  134.4909  161.0553 C   0  0  0  0  0  0  0  0  0  0  0  0
  147.5440  134.5355  162.4665 C   0  0  0  0  0  0  0  0  0  0  0  0
  147.2654  135.7461  163.1303 C   0  0  0  0  0  0  0  0  0  0  0  0
  147.0684  136.9268  162.3911 C   0  0  0  0  0  0  0  0  0  0  0  0
  147.1501  136.8955  160.9870 C   0  0  0  0  0  0  0  0  0  0  0  0
  147.4293  135.6860  160.3214 C   0  0  0  0  0  0  0  0  0  0  0  0
  149.9876  132.2370  155.9998 C   0  0  2  0  0  0  0  0  0  0  0  0
  150.6548  131.1750  156.4551 F   0  0  0  0  0  0  0  0  0  0  0  0
  150.8281  133.4963  155.9105 C   0  0  2  0  0  0  0  0  0  0  0  0
  151.6944  133.6554  157.0209 O   0  0  0  0  0  0  0  0  0  0  0  0
  151.6259  142.5856  158.0376 C   0  0  0  0  0  0  0  0  0  0  0  0
  152.1219  141.9888  159.2183 C   0  0  0  0  0  0  0  0  0  0  0  0
  152.5198  142.7875  160.3080 C   0  0  0  0  0  0  0  0  0  0  0  0
  152.4159  144.1891  160.2295 C   0  0  0  0  0  0  0  0  0  0  0  0
  151.9105  144.7914  159.0619 C   0  0  0  0  0  0  0  0  0  0  0  0
  151.5136  143.9938  157.9707 C   0  0  0  0  0  0  0  0  0  0  0  0
  151.8136  140.0075  157.9229 H   0  0  0  0  0  0  0  0  0  0  0  0
  150.7985  138.7036  152.9635 H   0  0  0  0  0  0  0  0  0  0  0  0
  150.1252  135.5252  158.5209 H   0  0  0  0  0  0  0  0  0  0  0  0
  149.3873  134.7519  154.8291 H   0  0  0  0  0  0  0  0  0  0  0  0
  147.8874  132.1169  156.5140 H   0  0  0  0  0  0  0  0  0  0  0  0
  148.7367  131.4249  158.6312 H   0  0  0  0  0  0  0  0  0  0  0  0
  150.0107  132.6330  158.6320 H   0  0  0  0  0  0  0  0  0  0  0  0
  147.6935  133.6419  163.0550 H   0  0  0  0  0  0  0  0  0  0  0  0
  147.2040  135.7681  164.2084 H   0  0  0  0  0  0  0  0  0  0  0  0
  146.8551  137.8553  162.9000 H   0  0  0  0  0  0  0  0  0  0  0  0
  146.9994  137.8011  160.4182 H   0  0  0  0  0  0  0  0  0  0  0  0
  147.4861  135.6973  159.2429 H   0  0  0  0  0  0  0  0  0  0  0  0
  149.6437  131.9728  154.9986 H   0  0  0  0  0  0  0  0  0  0  0  0
  151.4219  133.5330  154.9967 H   0  0  0  0  0  0  0  0  0  0  0  0
  152.5792  133.4808  156.7386 H   0  0  0  0  0  0  0  0  0  0  0  0
  152.2069  140.9144  159.2942 H   0  0  0  0  0  0  0  0  0  0  0  0
  152.9043  142.3237  161.2042 H   0  0  0  0  0  0  0  0  0  0  0  0
  152.7203  144.8013  161.0657 H   0  0  0  0  0  0  0  0  0  0  0  0
  151.8245  145.8664  159.0034 H   0  0  0  0  0  0  0  0  0  0  0  0
  151.1204  144.4753  157.0870 H   0  0  0  0  0  0  0  0  0  0  0  0
  1  2  2  0  0  0  0
  2  3  1  0  0  0  0
  2 30  1  0  0  0  0
  3  4  1  0  0  0  0
  3 36  1  0  0  0  0
  4  9  1  0  0  0  0
  4  5  2  0  0  0  0
  5  6  1  0  0  0  0
  6  7  2  0  0  0  0
  6 37  1  0  0  0  0
  7  8  1  0  0  0  0
  8 12  1  0  0  0  0
  8  9  2  0  0  0  0
  9 10  1  0  0  0  0
 10 11  2  0  0  0  0
 11 12  1  0  0  0  0
 11 38  1  0  0  0  0
 12 13  1  0  0  0  0
 13 28  1  0  0  0  0
 13 14  1  0  0  0  0
 13 39  1  0  0  0  0
 14 15  1  0  0  0  0
 15 16  1  0  0  0  0
 15 26  1  0  0  0  0
 15 40  1  0  0  0  0
 16 17  1  0  0  0  0
 16 41  1  0  0  0  0
 16 42  1  0  0  0  0
 17 18  1  0  0  0  0
 18 19  2  0  0  0  0
 18 20  1  0  0  0  0
 20 25  1  0  0  0  0
 20 21  2  0  0  0  0
 21 22  1  0  0  0  0
 21 43  1  0  0  0  0
 22 23  2  0  0  0  0
 22 44  1  0  0  0  0
 23 24  1  0  0  0  0
 23 45  1  0  0  0  0
 24 25  2  0  0  0  0
 24 46  1  0  0  0  0
 25 47  1  0  0  0  0
 26 27  1  0  0  0  0
 26 28  1  0  0  0  0
 26 48  1  0  0  0  0
 28 29  1  0  0  0  0
 28 49  1  0  0  0  0
 29 50  1  0  0  0  0
 30 35  1  0  0  0  0
 30 31  2  0  0  0  0
 31 32  1  0  0  0  0
 31 51  1  0  0  0  0
 32 33  2  0  0  0  0
 32 52  1  0  0  0  0
 33 34  1  0  0  0  0
 33 53  1  0  0  0  0
 34 35  2  0  0  0  0
 34 54  1  0  0  0  0
 35 55  1  0  0  0  0
M  END
> <s_m_source_file>
AV-unprocessed.smi

> <i_m_source_file_index>
34

> <i_lp_mmshare_version>
43012

> <i_f3d_flags>
0

> <s_epik_input>
W2NIXTFbY0hdW2NIXVtjSF1bY0hdYzFDKD1PKVtOSF1jKG5bY0hdbjIpYyhjMjMpbltjSF1uM1tDQEBIXTRPW0NASF0oW0NAQEhdKEYpW0NASF00W09IXSlbQ0gyXU9DKD1PKWM1W2NIXVtjSF1bY0hdW2NIXVtjSF01

> <s_epik_cmdline>
J2VwaWtfcHl0aG9uJywgJy1waCcsICc3LjAnLCAnLXRuJywgJzgnLCAnLW1hJywgJzIwMCcsICctbWV0YWxfYmluZGluZycsICctaW1hZScsICc8aW5maWxlLm1hZT4nLCAnLW9tYWUnLCAnPG91dGZpbGUubWFlPic=

> <r_lp_tautomer_probability>
1

> <r_epik_Ionization_Penalty>
0.00257489

> <r_epik_Ionization_Penalty_Charging>
0

> <r_epik_Ionization_Penalty_Neutral>
0.00257489

> <r_epik_State_Penalty>
0.00519398

> <r_epik_Charging_Adjusted_Penalty>
0.00519398

> <i_epik_Tot_Q>
0

> <i_epik_Tot_abs_Q>
0

> <r_epik_Metal_State_Penalty>
0.335891

> <b_epik_Metal_Only>
0

> <s_epik_Chemistry_Notes>
This compound has an ester and may undergo hydrolysis at high or low pH. This compound contains an acetal/aminal-like group ( X-CH(R)-Y where X, Y are N, S, or O) that may be acid/base labile, releasing an aldehyde.

> <s_lp_Force_Field>
OPLS_2005

> <r_lp_Energy>
55.6649

> <b_lp_Chiralities_Consistent>
1

> <s_lp_Variant>
AV-unprocessed.smi:34-15

> <Gold.Version>
5.8.1

> <Gold.Id.Protein>
6NUR|6NUR_protein|mol2

> <Gold.PLP.Fitness>
58.5332

> <Gold.PLP.PLP>
-53.9995

> <Gold.PLP.part.hbond>
-2.0000

> <Gold.PLP.part.metal>
0.0000

> <Gold.PLP.part.buried>
-7.4100

> <Gold.PLP.part.nonpolar>
-47.6515

> <Gold.PLP.part.repulsive>
2.1892

> <Gold.PLP.ligand.clash>
0.0000

> <Gold.PLP.ligand.torsion>
1.1949

> <Gold.PLP.Chemscore.Hbond>
1.2330

> <Gold.PLP.Chemscore.CHOScore>
0.9992

> <Gold.PLP.Chemscore.Metal>
0.0000

> <Gold.Chemscore.Hbonds>
donor molecule, donor type, donor heavy atom, donor atom, acceptor molecule, acceptor atom, score
      P1  H  6896  6907       L1    29  0.26
      P1  H  7989  7998       L1     5  1.00
      L1  C     6    37       P1  7957  0.88

> <Gold.PLP.Chemscore.Internal.Correction>
0.2271

> <Gold.Rescore>
     Score         DG    S(hbond)    S(metal)    S(lipo)     H(rot)  DE(clash)    DE(int)     intcor
     11.37     -15.51       0.55        0.00     129.61       2.72       0.86       3.28       ----

> <Gold.Chemscore.Fitness>
11.3705

> <Gold.Chemscore.DG>
-15.5126

> <Gold.Chemscore.ZeroCoef>
-5.4800

> <Gold.Chemscore.Hbond>
0.5495

> <Gold.Chemscore.Metal>
0.0000

> <Gold.Chemscore.Lipo>
129.6080

> <Gold.Chemscore.Internal_Hbond>
0.0000

> <Gold.Chemscore.DEClash>
0.8591

> <Gold.Chemscore.DEInternal>
3.2829

> <Gold.Chemscore.Rot>
2.7215

> <Gold.Chemscore.Internal.Correction>
   9.000000E+99

> <Gold.Chemscore.Hbonds>
donor molecule, donor type, donor heavy atom, donor atom, acceptor molecule, acceptor atom, score
      P1  H  6896  6907       L1    29  0.24
      P1  H  7989  7998       L1     5  0.25

> <Gold.Chemscore.Hbond.Weighted>
-1.8355

> <Gold.Chemscore.Metal.Weighted>
-0.0000

> <Gold.Chemscore.Lipo.Weighted>
-15.1641

> <Gold.Chemscore.Internal_Hbond.Weighted>
0.0000

> <Gold.Chemscore.DEClash.Weighted>
0.8591

> <Gold.Chemscore.DEInternal.Weighted>
3.2829

> <Gold.Chemscore.Rot.Weighted>
6.9670

> <Gold.Chemscore.Internal.Correction.Weighted>
   9.000000E+99

> <Gold.Protein.RotatedTorsions>
[ 6907 6896 6895 6894 ] final -157.87 input  -60.11 | X-H torsion
[ 7974 7965 7964 7962 ] final -114.85 input  175.53 | X-H torsion
[ 8008 7997 7996 7995 ] final  109.18 input   59.86 | X-H torsion
[ 10167 10162 10161 10158 ] final   79.41 input  -65.29 | X-H torsion
[ 10718 10713 10712 10709 ] final   68.25 input   66.30 | X-H torsion
[ 10763 10752 10751 10750 ] final -126.83 input  -60.55 | X-H torsion
[ 11005 11000 10999 10996 ] final  176.73 input  -57.11 | X-H torsion

> <Gold.Protein.ActiveResidues>
 VAL166  LYS551  ARG553  GLY616  TRP617  ASP618  TYR619  PRO620  LYS621  CYS622 
 ASP623  PHE694  ASN695  SER759  ASP760  ASP761  ALA762  ILE779  LEU786  VAL792 
 PHE793  MET794  SER795  GLU796  ALA797  LYS798  CYS799  TRP800  GLU811  SER814 

> <Gold.Protein.RotatedAtoms>
  151.3095  133.4086  159.2645 H   0  0  0  0  0  0  0  0  0  0  0  0  # atno 6907 bound_to 6896
  151.0126  134.9409  159.8026 H   0  0  0  0  0  0  0  0  0  0  0  0  # atno 6908 bound_to 6896
  152.5304  134.3060  159.9148 H   0  0  0  0  0  0  0  0  0  0  0  0  # atno 6909 bound_to 6896
  145.1154  140.8637  143.3845 H   0  0  0  0  0  0  0  0  0  0  0  0  # atno 7974 bound_to 7965
  156.1959  140.3062  155.9427 H   0  0  0  0  0  0  0  0  0  0  0  0  # atno 8008 bound_to 7997
  155.3066  140.0449  157.3049 H   0  0  0  0  0  0  0  0  0  0  0  0  # atno 8009 bound_to 7997
  154.5509  140.2291  155.8495 H   0  0  0  0  0  0  0  0  0  0  0  0  # atno 8010 bound_to 7997
  139.9606  144.5964  150.8076 H   0  0  0  0  0  0  0  0  0  0  0  0  # atno 10167 bound_to 10162
  157.6278  130.9363  150.0352 H   0  0  0  0  0  0  0  0  0  0  0  0  # atno 10718 bound_to 10713
  154.8748  135.3982  154.3494 H   0  0  0  0  0  0  0  0  0  0  0  0  # atno 10763 bound_to 10752
  153.4282  135.7024  153.6253 H   0  0  0  0  0  0  0  0  0  0  0  0  # atno 10764 bound_to 10752
  153.4886  135.3753  155.2450 H   0  0  0  0  0  0  0  0  0  0  0  0  # atno 10765 bound_to 10752
  140.3763  134.6986  157.4423 H   0  0  0  0  0  0  0  0  0  0  0  0  # atno 11005 bound_to 11000
  145.0800  139.2967  143.5788 LP  0  0  0  0  0  0  0  0  0  0  0  0  # atno 17320 bound_to 7965
  146.3524  140.0304  142.8651 LP  0  0  0  0  0  0  0  0  0  0  0  0  # atno 17321 bound_to 7965
  140.7554  143.3046  151.2994 LP  0  0  0  0  0  0  0  0  0  0  0  0  # atno 17342 bound_to 10162
  139.6557  144.0280  152.2658 LP  0  0  0  0  0  0  0  0  0  0  0  0  # atno 17343 bound_to 10162
  156.1461  130.3642  149.9508 LP  0  0  0  0  0  0  0  0  0  0  0  0  # atno 17370 bound_to 10713
  156.7538  130.9125  151.3638 LP  0  0  0  0  0  0  0  0  0  0  0  0  # atno 17371 bound_to 10713
  140.0513  134.6127  155.8859 LP  0  0  0  0  0  0  0  0  0  0  0  0  # atno 17394 bound_to 11000
  141.1938  133.6580  156.5566 LP  0  0  0  0  0  0  0  0  0  0  0  0  # atno 17395 bound_to 11000

$$$$
