#       Name:                AV-unprocessed.smi:1529
#       Creating user name   scv26
#       Creation time:       Fri Mar 27 06:30:16 2020


#       File generated by GOLD software.
#

@<TRIPOS>MOLECULE
AV-unprocessed.smi:1529
    58    59     1
SMALL
NO_CHARGES


@<TRIPOS>ATOM
      1 ****        -7.5668   4.3612   0.0454 C.3            1 S1                 0.0000
      2 ****        -6.9600   3.0510   0.5363 C.2            1 S1                 0.0000
      3 ****        -6.5411   2.9578   1.6897 O.2            1 S1                 0.0000
      4 ****        -6.9196   2.0464  -0.3519 N.am           1 S1                 0.0000
      5 ****        -6.3870   0.7143  -0.0885 C.3            1 S1                 0.0000
      6 ****        -4.8529   0.6850  -0.1831 C.3            1 S1                 0.0000
      7 ****        -4.2822  -0.7228   0.0521 C.3            1 S1                 0.0000
      8 ****        -2.8276  -0.7402  -0.0513 N.am           1 S1                 0.0000
      9 ****        -1.9813  -0.3681   0.9232 C.2            1 S1                 0.0000
     10 ****        -2.3503   0.0219   2.0311 O.2            1 S1                 0.0000
     11 ****        -0.5210  -0.5214   0.6098 C.ar           1 S1                 0.0000
     12 ****        -0.0205  -0.3667  -0.7015 C.ar           1 S1                 0.0000
     13 ****         1.3626  -0.5037  -0.9281 C.ar           1 S1                 0.0000
     14 ****         2.2170  -0.7850   0.1636 C.ar           1 S1                 0.0000
     15 ****         3.6054  -0.9299  -0.0434 N.3            1 S1                 0.0000
     16 ****         3.9905  -1.9054  -1.0595 C.3            1 S1                 0.0000
     17 ****         5.4772  -1.7548  -1.4361 C.3            1 S1                 0.0000
     18 ****         5.7607  -0.5369  -2.3336 C.3            1 S1                 0.0000
     19 ****         6.2888  -1.7599  -0.2596 O.3            1 S1                 0.0000
     20 ****         5.9454  -0.7689   0.7079 C.3            1 S1                 0.0000
     21 ****         6.9011  -0.9149   1.8965 C.3            1 S1                 0.0000
     22 ****         4.4761  -0.9469   1.1288 C.3            1 S1                 0.0000
     23 ****         1.7369  -0.9142   1.4247 N.ar           1 S1                 0.0000
     24 ****         0.4104  -0.7824   1.6373 C.ar           1 S1                 0.0000
     25 ****        -7.0613   4.7010  -0.8591 H              1 S1                 0.0000
     26 ****        -7.4710   5.1406   0.8021 H              1 S1                 0.0000
     27 ****        -8.6261   4.2298  -0.1777 H              1 S1                 0.0000
     28 ****        -7.2885   2.2161  -1.2765 H              1 S1                 0.0000
     29 ****        -6.7165   0.3662   0.8921 H              1 S1                 0.0000
     30 ****        -6.8165   0.0299  -0.8204 H              1 S1                 0.0000
     31 ****        -4.5408   1.0446  -1.1646 H              1 S1                 0.0000
     32 ****        -4.4304   1.3763   0.5475 H              1 S1                 0.0000
     33 ****        -4.5920  -1.1034   1.0269 H              1 S1                 0.0000
     34 ****        -4.6813  -1.4137  -0.6910 H              1 S1                 0.0000
     35 ****        -2.4354  -1.0698  -0.9213 H              1 S1                 0.0000
     36 ****        -0.6765  -0.1404  -1.5294 H              1 S1                 0.0000
     37 ****         1.7525  -0.3756  -1.9270 H              1 S1                 0.0000
     38 ****         3.8170  -2.9030  -0.6537 H              1 S1                 0.0000
     39 ****         3.3796  -1.8254  -1.9578 H              1 S1                 0.0000
     40 ****         5.7648  -2.6389  -2.0060 H              1 S1                 0.0000
     41 ****         5.2356  -0.6288  -3.2845 H              1 S1                 0.0000
     42 ****         6.8258  -0.4542  -2.5517 H              1 S1                 0.0000
     43 ****         5.4378   0.3987  -1.8773 H              1 S1                 0.0000
     44 ****         6.0864   0.2247   0.2822 H              1 S1                 0.0000
     45 ****         6.6872  -0.1725   2.6657 H              1 S1                 0.0000
     46 ****         7.9365  -0.7796   1.5828 H              1 S1                 0.0000
     47 ****         6.8169  -1.9023   2.3510 H              1 S1                 0.0000
     48 ****         4.1985  -0.1465   1.8160 H              1 S1                 0.0000
     49 ****         4.3466  -1.8918   1.6587 H              1 S1                 0.0000
     50 ****         0.0894  -0.8957   2.6627 H              1 S1                 0.0000
     51 ****        -6.5982   3.7422   2.3073 LP             1 S1                 0.0000
     52 ****        -6.1436   2.0976   2.0093 LP             1 S1                 0.0000
     53 ****        -3.3261   0.0741   2.2433 LP             1 S1                 0.0000
     54 ****        -1.6742   0.2864   2.7188 LP             1 S1                 0.0000
     55 ****         3.7982  -0.0316  -0.4382 LP             1 S1                 0.0000
     56 ****         7.2381  -1.6095  -0.5357 LP             1 S1                 0.0000
     57 ****         6.2056  -2.6582   0.1720 LP             1 S1                 0.0000
     58 ****         2.3563  -1.1044   2.1864 LP             1 S1                 0.0000
@<TRIPOS>BOND
    1    1    2 1     
    2    1   25 1     
    3    1   26 1     
    4    1   27 1     
    5    2    3 2     
    6    2    4 am    
    7    4    5 1     
    8    4   28 1     
    9    5    6 1     
   10    5   29 1     
   11    5   30 1     
   12    6    7 1     
   13    6   31 1     
   14    6   32 1     
   15    7    8 1     
   16    7   33 1     
   17    7   34 1     
   18    8    9 am    
   19    8   35 1     
   20    9   10 2     
   21    9   11 1     
   22   11   24 ar    
   23   11   12 ar    
   24   12   13 ar    
   25   12   36 1     
   26   13   14 ar    
   27   13   37 1     
   28   14   15 1     
   29   14   23 ar    
   30   15   22 1     
   31   15   16 1     
   32   16   17 1     
   33   16   38 1     
   34   16   39 1     
   35   17   18 1     
   36   17   19 1     
   37   17   40 1     
   38   18   41 1     
   39   18   42 1     
   40   18   43 1     
   41   19   20 1     
   42   20   21 1     
   43   20   22 1     
   44   20   44 1     
   45   21   45 1     
   46   21   46 1     
   47   21   47 1     
   48   22   48 1     
   49   22   49 1     
   50   23   24 ar    
   51   24   50 1     
   52    3   51 1     
   53    3   52 1     
   54   10   53 1     
   55   10   54 1     
   56   15   55 1     
   57   19   56 1     
   58   19   57 1     
   59   23   58 1     
@<TRIPOS>SUBSTRUCTURE
      1 S1             1
@<TRIPOS>SET
LONE_PAIRS      STATIC     ATOMS    <user>   **** ""
8 51 52 53 54 55 56 57 58
DONOR_HYDROGENS      STATIC     ATOMS    <user>   **** ""
2 28 35
ATOM$BLUE        STATIC     ATOMS    COLORGROUP SYSTEM
8 51 52 53 54 55 56 57 58
ATOM$RED        STATIC     ATOMS    COLORGROUP SYSTEM
2 28 35
