#       Name:                AV-unprocessed.smi:213
#       Creating user name   scv26
#       Creation time:       Thu Mar 26 20:01:15 2020


#       File generated by GOLD software.
#

@<TRIPOS>MOLECULE
AV-unprocessed.smi:213
    68    71     1
SMALL
NO_CHARGES


@<TRIPOS>ATOM
      1 ****        -4.1566   0.5677   2.3187 C.3            1 S1                 0.0000
      2 ****        -3.1119   0.4753   1.1914 C.3            1 S1                 0.0000
      3 ****        -3.6737   0.0786  -0.1959 C.3            1 S1                 0.0000
      4 ****        -4.0124  -1.3352  -0.3822 N.3            1 S1                 0.0000
      5 ****        -3.9223  -1.7085  -1.7915 C.3            1 S1                 0.0000
      6 ****        -4.2676  -3.1899  -2.0221 C.3            1 S1                 0.0000
      7 ****        -5.5739  -3.4571  -1.5247 O.3            1 S1                 0.0000
      8 ****        -5.7050  -3.1456  -0.1423 C.3            1 S1                 0.0000
      9 ****        -5.3574  -1.6644   0.0894 C.3            1 S1                 0.0000
     10 ****        -2.3875   1.7449   1.0908 N.pl3          1 S1                 0.0000
     11 ****        -3.0915   3.0059   0.8730 C.3            1 S1                 0.0000
     12 ****        -1.0464   1.7819   1.2981 C.ar           1 S1                 0.0000
     13 ****        -0.5307   2.8252   2.0005 N.ar           1 S1                 0.0000
     14 ****         0.7818   2.8983   2.2388 C.ar           1 S1                 0.0000
     15 ****         1.7458   2.0556   1.8644 N.ar           1 S1                 0.0000
     16 ****         1.2390   1.0161   1.1425 C.ar           1 S1                 0.0000
     17 ****        -0.1305   0.8012   0.8154 C.ar           1 S1                 0.0000
     18 ****        -0.2525  -0.3561   0.0527 N.2            1 S1                 0.0000
     19 ****         0.9690  -0.8018  -0.0558 C.2            1 S1                 0.0000
     20 ****         1.9274  -0.0372   0.5684 N.pl3          1 S1                 0.0000
     21 ****         3.3570  -0.2888   0.6058 C.3            1 S1                 0.0000
     22 ****         4.1388   0.6301  -0.3531 C.3            1 S1                 0.0000
     23 ****         3.6927   0.4563  -1.6848 O.3            1 S1                 0.0000
     24 ****         5.6646   0.4282  -0.2642 C.3            1 S1                 0.0000
     25 ****         6.5190   1.2749  -1.2120 C.3            1 S1                 0.0000
     26 ****         7.7735   0.4363  -1.3096 C.3            1 S1                 0.0000
     27 ****         7.2004  -0.9785  -1.3143 C.3            1 S1                 0.0000
     28 ****         6.0357  -0.9294  -0.4945 O.3            1 S1                 0.0000
     29 ****        -4.4862  -0.4153   2.6477 H              1 S1                 0.0000
     30 ****        -5.0318   1.1422   2.0148 H              1 S1                 0.0000
     31 ****        -3.7322   1.0510   3.1995 H              1 S1                 0.0000
     32 ****        -2.4073  -0.2959   1.5008 H              1 S1                 0.0000
     33 ****        -4.5207   0.7101  -0.4665 H              1 S1                 0.0000
     34 ****        -2.8941   0.3312  -0.9164 H              1 S1                 0.0000
     35 ****        -4.5927  -1.0840  -2.3842 H              1 S1                 0.0000
     36 ****        -2.9135  -1.5198  -2.1607 H              1 S1                 0.0000
     37 ****        -4.2359  -3.4266  -3.0857 H              1 S1                 0.0000
     38 ****        -3.5422  -3.8372  -1.5268 H              1 S1                 0.0000
     39 ****        -6.7287  -3.3485   0.1729 H              1 S1                 0.0000
     40 ****        -5.0531  -3.7921   0.4475 H              1 S1                 0.0000
     41 ****        -5.4623  -1.4537   1.1485 H              1 S1                 0.0000
     42 ****        -6.0919  -1.0411  -0.4231 H              1 S1                 0.0000
     43 ****        -2.5138   3.6660   0.2249 H              1 S1                 0.0000
     44 ****        -3.2625   3.5159   1.8214 H              1 S1                 0.0000
     45 ****        -4.0588   2.8392   0.3995 H              1 S1                 0.0000
     46 ****         1.1054   3.7546   2.8120 H              1 S1                 0.0000
     47 ****         1.2063  -1.7024  -0.6031 H              1 S1                 0.0000
     48 ****         3.7006  -0.1443   1.6308 H              1 S1                 0.0000
     49 ****         3.5322  -1.3375   0.3625 H              1 S1                 0.0000
     50 ****         3.9257   1.6665  -0.0888 H              1 S1                 0.0000
     51 ****         3.9086  -0.4224  -1.9576 H              1 S1                 0.0000
     52 ****         5.9805   0.6533   0.7558 H              1 S1                 0.0000
     53 ****         6.0622   1.3622  -2.1982 H              1 S1                 0.0000
     54 ****         6.7039   2.2803  -0.8329 H              1 S1                 0.0000
     55 ****         8.3710   0.6580  -2.1942 H              1 S1                 0.0000
     56 ****         8.3966   0.5881  -0.4272 H              1 S1                 0.0000
     57 ****         6.8997  -1.2617  -2.3238 H              1 S1                 0.0000
     58 ****         7.9128  -1.7203  -0.9529 H              1 S1                 0.0000
     59 ****        -3.3491  -1.8475   0.1633 LP             1 S1                 0.0000
     60 ****        -5.7743  -4.4281  -1.6550 LP             1 S1                 0.0000
     61 ****        -6.2320  -2.9088  -2.0408 LP             1 S1                 0.0000
     62 ****        -1.1380   3.5430   2.3412 LP             1 S1                 0.0000
     63 ****         2.7143   2.1714   2.0847 LP             1 S1                 0.0000
     64 ****        -1.0872  -0.7557  -0.3264 LP             1 S1                 0.0000
     65 ****         4.1466   1.1171  -2.2825 LP             1 S1                 0.0000
     66 ****         2.7028   0.5909  -1.7301 LP             1 S1                 0.0000
     67 ****         5.2858  -1.4053  -0.9541 LP             1 S1                 0.0000
     68 ****         6.2264  -1.3745   0.3804 LP             1 S1                 0.0000
@<TRIPOS>BOND
    1    1    2 1     
    2    1   29 1     
    3    1   30 1     
    4    1   31 1     
    5    2    3 1     
    6    2   10 1     
    7    2   32 1     
    8    3    4 1     
    9    3   33 1     
   10    3   34 1     
   11    4    9 1     
   12    4    5 1     
   13    5    6 1     
   14    5   35 1     
   15    5   36 1     
   16    6    7 1     
   17    6   37 1     
   18    6   38 1     
   19    7    8 1     
   20    8    9 1     
   21    8   39 1     
   22    8   40 1     
   23    9   41 1     
   24    9   42 1     
   25   10   11 1     
   26   10   12 1     
   27   11   43 1     
   28   11   44 1     
   29   11   45 1     
   30   12   17 ar    
   31   12   13 ar    
   32   13   14 ar    
   33   14   15 ar    
   34   14   46 1     
   35   15   16 ar    
   36   16   20 1     
   37   16   17 ar    
   38   17   18 1     
   39   18   19 2     
   40   19   20 1     
   41   19   47 1     
   42   20   21 1     
   43   21   22 1     
   44   21   48 1     
   45   21   49 1     
   46   22   23 1     
   47   22   24 1     
   48   22   50 1     
   49   23   51 1     
   50   24   28 1     
   51   24   25 1     
   52   24   52 1     
   53   25   26 1     
   54   25   53 1     
   55   25   54 1     
   56   26   27 1     
   57   26   55 1     
   58   26   56 1     
   59   27   28 1     
   60   27   57 1     
   61   27   58 1     
   62    4   59 1     
   63    7   60 1     
   64    7   61 1     
   65   13   62 1     
   66   15   63 1     
   67   18   64 1     
   68   23   65 1     
   69   23   66 1     
   70   28   67 1     
   71   28   68 1     
@<TRIPOS>SUBSTRUCTURE
      1 S1             1
@<TRIPOS>SET
LONE_PAIRS      STATIC     ATOMS    <user>   **** ""
10 59 60 61 62 63 64 65 66 67 68
DONOR_HYDROGENS      STATIC     ATOMS    <user>   **** ""
1 51
ATOM$BLUE        STATIC     ATOMS    COLORGROUP SYSTEM
10 59 60 61 62 63 64 65 66 67 68
ATOM$RED        STATIC     ATOMS    COLORGROUP SYSTEM
1 51
