AV-unprocessed.smi:2771|AV-procd|sdf|10662|dock9
  -GOLD-   2272015113D 1   1.00000     0.00000
 Structure written by MMmdl.
 43 44  0  0  0  0  0  0  0  0  1 V2000
  153.5276  141.2812  160.6393 C   0  0  0  0  0  0  0  0  0  0  0  0
  152.7581  142.4413  160.0435 C   0  0  0  0  0  0  0  0  0  0  0  0
  152.7878  143.7155  160.6431 C   0  0  0  0  0  0  0  0  0  0  0  0
  152.0505  144.7496  160.0388 C   0  0  0  0  0  0  0  0  0  0  0  0
  151.3185  144.4685  158.8687 C   0  0  0  0  0  0  0  0  0  0  0  0
  151.3405  143.1614  158.3321 C   0  0  0  0  0  0  0  0  0  0  0  0
  150.5708  142.9804  157.1521 N   0  0  0  0  0  0  0  0  0  0  0  0
  150.4080  141.8571  156.4312 C   0  0  0  0  0  0  0  0  0  0  0  0
  150.9131  140.7644  156.6903 O   0  0  0  0  0  0  0  0  0  0  0  0
  149.6069  142.0686  155.3771 N   0  0  0  0  0  0  0  0  0  0  0  0
  149.2159  141.0579  154.3989 C   0  0  0  0  0  0  0  0  0  0  0  0
  148.0211  141.5328  153.5386 C   0  0  2  0  0  0  0  0  0  0  0  0
  147.3686  142.5403  154.2891 O   0  0  0  0  0  0  0  0  0  0  0  0
  146.9745  140.4299  153.2132 C   0  0  0  0  0  0  0  0  0  0  0  0
  146.6239  139.5522  154.4414 C   0  0  0  0  0  0  0  0  0  0  0  0
  145.6113  138.4459  154.1014 C   0  0  0  0  0  0  0  0  0  0  0  0
  146.1113  137.5600  152.9541 C   0  0  0  0  0  0  0  0  0  0  0  0
  146.4430  138.4098  151.7216 C   0  0  0  0  0  0  0  0  0  0  0  0
  147.4600  139.5100  152.0631 C   0  0  0  0  0  0  0  0  0  0  0  0
  152.0548  142.1713  158.9229 N   0  0  0  0  0  0  0  0  0  0  0  0
  154.2361  141.6239  161.3937 H   0  0  0  0  0  0  0  0  0  0  0  0
  154.0863  140.7546  159.8650 H   0  0  0  0  0  0  0  0  0  0  0  0
  152.8419  140.5755  161.1086 H   0  0  0  0  0  0  0  0  0  0  0  0
  153.3591  143.8982  161.5413 H   0  0  0  0  0  0  0  0  0  0  0  0
  152.0451  145.7419  160.4648 H   0  0  0  0  0  0  0  0  0  0  0  0
  150.7470  145.2518  158.3923 H   0  0  0  0  0  0  0  0  0  0  0  0
  150.0862  143.8010  156.8199 H   0  0  0  0  0  0  0  0  0  0  0  0
  149.2350  142.9972  155.2414 H   0  0  0  0  0  0  0  0  0  0  0  0
  150.1033  140.9092  153.7889 H   0  0  0  0  0  0  0  0  0  0  0  0
  149.0132  140.0932  154.8682 H   0  0  0  0  0  0  0  0  0  0  0  0
  148.3834  141.9676  152.6058 H   0  0  0  0  0  0  0  0  0  0  0  0
  148.0196  143.1501  154.6028 H   0  0  0  0  0  0  0  0  0  0  0  0
  146.0582  140.9228  152.8838 H   0  0  0  0  0  0  0  0  0  0  0  0
  147.5330  139.1031  154.8436 H   0  0  0  0  0  0  0  0  0  0  0  0
  146.1958  140.1515  155.2425 H   0  0  0  0  0  0  0  0  0  0  0  0
  145.4192  137.8352  154.9841 H   0  0  0  0  0  0  0  0  0  0  0  0
  144.6576  138.8973  153.8250 H   0  0  0  0  0  0  0  0  0  0  0  0
  146.9984  137.0109  153.2729 H   0  0  0  0  0  0  0  0  0  0  0  0
  145.3572  136.8140  152.7015 H   0  0  0  0  0  0  0  0  0  0  0  0
  146.8365  137.7741  150.9277 H   0  0  0  0  0  0  0  0  0  0  0  0
  145.5311  138.8630  151.3311 H   0  0  0  0  0  0  0  0  0  0  0  0
  147.6525  140.0887  151.1596 H   0  0  0  0  0  0  0  0  0  0  0  0
  148.4105  139.0507  152.3387 H   0  0  0  0  0  0  0  0  0  0  0  0
  1  2  1  0  0  0  0
  1 21  1  0  0  0  0
  1 22  1  0  0  0  0
  1 23  1  0  0  0  0
  2 20  1  0  0  0  0
  2  3  2  0  0  0  0
  3  4  1  0  0  0  0
  3 24  1  0  0  0  0
  4  5  2  0  0  0  0
  4 25  1  0  0  0  0
  5  6  1  0  0  0  0
  5 26  1  0  0  0  0
  6  7  1  0  0  0  0
  6 20  2  0  0  0  0
  7  8  1  0  0  0  0
  7 27  1  0  0  0  0
  8  9  2  0  0  0  0
  8 10  1  0  0  0  0
 10 11  1  0  0  0  0
 10 28  1  0  0  0  0
 11 12  1  0  0  0  0
 11 29  1  0  0  0  0
 11 30  1  0  0  0  0
 12 13  1  0  0  0  0
 12 14  1  0  0  0  0
 12 31  1  0  0  0  0
 13 32  1  0  0  0  0
 14 19  1  0  0  0  0
 14 15  1  0  0  0  0
 14 33  1  0  0  0  0
 15 16  1  0  0  0  0
 15 34  1  0  0  0  0
 15 35  1  0  0  0  0
 16 17  1  0  0  0  0
 16 36  1  0  0  0  0
 16 37  1  0  0  0  0
 17 18  1  0  0  0  0
 17 38  1  0  0  0  0
 17 39  1  0  0  0  0
 18 19  1  0  0  0  0
 18 40  1  0  0  0  0
 18 41  1  0  0  0  0
 19 42  1  0  0  0  0
 19 43  1  0  0  0  0
M  END
> <s_m_source_file>
AV-unprocessed.smi

> <i_m_source_file_index>
2771

> <i_lp_mmshare_version>
43012

> <i_f3d_flags>
0

> <s_epik_input>
W0NIM11jMVtjSF1bY0hdW2NIXWMobjEpW05IXUMoPU8pW05IXVtDSDJdW0NASF0oW09IXSlbQ0hdMltDSDJdW0NIMl1bQ0gyXVtDSDJdW0NIMl0y

> <s_epik_cmdline>
J2VwaWtfcHl0aG9uJywgJy1waCcsICc3LjAnLCAnLXRuJywgJzgnLCAnLW1hJywgJzIwMCcsICctbWV0YWxfYmluZGluZycsICctaW1hZScsICc8aW5maWxlLm1hZT4nLCAnLW9tYWUnLCAnPG91dGZpbGUubWFlPic=

> <r_lp_tautomer_probability>
1

> <r_epik_Ionization_Penalty>
8.92802e-05

> <r_epik_Ionization_Penalty_Charging>
0

> <r_epik_Ionization_Penalty_Neutral>
8.92802e-05

> <r_epik_State_Penalty>
-0

> <r_epik_Charging_Adjusted_Penalty>
0

> <i_epik_Tot_Q>
0

> <i_epik_Tot_abs_Q>
0

> <r_epik_Metal_State_Penalty>
-0

> <b_epik_Metal_Only>
0

> <s_lp_Force_Field>
OPLS_2005

> <r_lp_Energy>
16.1378

> <b_lp_Chiralities_Consistent>
1

> <s_lp_Variant>
AV-unprocessed.smi:2771-1

> <Gold.Version>
5.8.1

> <Gold.Id.Protein>
6NUR|6NUR_protein|mol2

> <Gold.PLP.Fitness>
47.9931

> <Gold.PLP.PLP>
-40.8204

> <Gold.PLP.part.hbond>
-3.0000

> <Gold.PLP.part.metal>
0.0000

> <Gold.PLP.part.buried>
0.4470

> <Gold.PLP.part.nonpolar>
-38.4227

> <Gold.PLP.part.repulsive>
0.2136

> <Gold.PLP.ligand.clash>
0.0000

> <Gold.PLP.ligand.torsion>
0.8862

> <Gold.PLP.Chemscore.Hbond>
2.9750

> <Gold.PLP.Chemscore.CHOScore>
0.0000

> <Gold.PLP.Chemscore.Metal>
0.0000

> <Gold.Chemscore.Hbonds>
donor molecule, donor type, donor heavy atom, donor atom, acceptor molecule, acceptor atom, score
      L1  H     7    27       P1  8028  1.00
      L1  H    10    28       P1  8028  1.00
      L1  H    13    32       P1  8028  0.98

> <Gold.PLP.Chemscore.Internal.Correction>
0.0202

> <Gold.Rescore>
     Score         DG    S(hbond)    S(metal)    S(lipo)     H(rot)  DE(clash)    DE(int)     intcor
     19.07     -23.06       2.83        0.00     112.13       1.95       1.82       2.17       ----

> <Gold.Chemscore.Fitness>
19.0698

> <Gold.Chemscore.DG>
-23.0579

> <Gold.Chemscore.ZeroCoef>
-5.4800

> <Gold.Chemscore.Hbond>
2.8325

> <Gold.Chemscore.Metal>
0.0000

> <Gold.Chemscore.Lipo>
112.1262

> <Gold.Chemscore.Internal_Hbond>
0.0000

> <Gold.Chemscore.DEClash>
1.8165

> <Gold.Chemscore.DEInternal>
2.1716

> <Gold.Chemscore.Rot>
1.9536

> <Gold.Chemscore.Internal.Correction>
   9.000000E+99

> <Gold.Chemscore.Hbonds>
donor molecule, donor type, donor heavy atom, donor atom, acceptor molecule, acceptor atom, score
      L1  H     7    27       P1  8028  0.98
      L1  H    10    28       P1  8028  0.99
      L1  H    13    32       P1  8028  0.84

> <Gold.Chemscore.Hbond.Weighted>
-9.4604

> <Gold.Chemscore.Metal.Weighted>
-0.0000

> <Gold.Chemscore.Lipo.Weighted>
-13.1188

> <Gold.Chemscore.Internal_Hbond.Weighted>
0.0000

> <Gold.Chemscore.DEClash.Weighted>
1.8165

> <Gold.Chemscore.DEInternal.Weighted>
2.1716

> <Gold.Chemscore.Rot.Weighted>
5.0013

> <Gold.Chemscore.Internal.Correction.Weighted>
   9.000000E+99

> <Gold.Protein.RotatedTorsions>
[ 6907 6896 6895 6894 ] final  -41.62 input  -60.11 | X-H torsion
[ 7974 7965 7964 7962 ] final  -89.39 input  175.53 | X-H torsion
[ 8008 7997 7996 7995 ] final  135.63 input   59.86 | X-H torsion
[ 10167 10162 10161 10158 ] final -124.43 input  -65.29 | X-H torsion
[ 10718 10713 10712 10709 ] final   48.94 input   66.30 | X-H torsion
[ 10763 10752 10751 10750 ] final   37.84 input  -60.55 | X-H torsion
[ 11005 11000 10999 10996 ] final -115.20 input  -57.11 | X-H torsion

> <Gold.Protein.ActiveResidues>
 VAL166  LYS551  ARG553  GLY616  TRP617  ASP618  TYR619  PRO620  LYS621  CYS622 
 ASP623  PHE694  ASN695  SER759  ASP760  ASP761  ALA762  ILE779  LEU786  VAL792 
 PHE793  MET794  SER795  GLU796  ALA797  LYS798  CYS799  TRP800  GLU811  SER814 

> <Gold.Protein.RotatedAtoms>
  150.9646  134.9028  159.7750 H   0  0  0  0  0  0  0  0  0  0  0  0  # atno 6907 bound_to 6896
  152.5168  134.3625  159.9300 H   0  0  0  0  0  0  0  0  0  0  0  0  # atno 6908 bound_to 6896
  151.3636  133.3840  159.2727 H   0  0  0  0  0  0  0  0  0  0  0  0  # atno 6909 bound_to 6896
  145.4405  140.9559  143.2078 H   0  0  0  0  0  0  0  0  0  0  0  0  # atno 7974 bound_to 7965
  156.3003  140.2465  156.3614 H   0  0  0  0  0  0  0  0  0  0  0  0  # atno 8008 bound_to 7997
  154.8874  140.0410  157.1838 H   0  0  0  0  0  0  0  0  0  0  0  0  # atno 8009 bound_to 7997
  154.8633  140.2924  155.5530 H   0  0  0  0  0  0  0  0  0  0  0  0  # atno 8010 bound_to 7997
  139.9928  143.5622  152.2335 H   0  0  0  0  0  0  0  0  0  0  0  0  # atno 10167 bound_to 10162
  157.4737  130.8271  149.8016 H   0  0  0  0  0  0  0  0  0  0  0  0  # atno 10718 bound_to 10713
  153.0022  135.6266  154.2209 H   0  0  0  0  0  0  0  0  0  0  0  0  # atno 10763 bound_to 10752
  154.1952  135.2807  155.3010 H   0  0  0  0  0  0  0  0  0  0  0  0  # atno 10764 bound_to 10752
  154.5728  135.5671  153.7170 H   0  0  0  0  0  0  0  0  0  0  0  0  # atno 10765 bound_to 10752
  141.0503  133.9697  157.2847 H   0  0  0  0  0  0  0  0  0  0  0  0  # atno 11005 bound_to 11000
  144.8125  139.5937  143.7023 LP  0  0  0  0  0  0  0  0  0  0  0  0  # atno 17320 bound_to 7965
  146.2559  139.6301  142.9395 LP  0  0  0  0  0  0  0  0  0  0  0  0  # atno 17321 bound_to 7965
  139.6327  144.7646  151.2502 LP  0  0  0  0  0  0  0  0  0  0  0  0  # atno 17342 bound_to 10162
  140.7448  143.6451  150.8299 LP  0  0  0  0  0  0  0  0  0  0  0  0  # atno 17343 bound_to 10162
  156.0086  130.3843  150.2342 LP  0  0  0  0  0  0  0  0  0  0  0  0  # atno 17370 bound_to 10713
  157.0526  131.0067  151.3249 LP  0  0  0  0  0  0  0  0  0  0  0  0  # atno 17371 bound_to 10713
  139.9345  135.0197  156.8511 LP  0  0  0  0  0  0  0  0  0  0  0  0  # atno 17394 bound_to 11000
  140.6067  134.0120  155.7560 LP  0  0  0  0  0  0  0  0  0  0  0  0  # atno 17395 bound_to 11000

$$$$
