AV-unprocessed.smi:876|AV-procd|sdf|4020|dock2
  -GOLD-   22720 1503D 1   1.00000     0.00000
 Structure written by MMmdl.
 41 42  0  0  0  0  0  0  0  0  2 V2000
  146.1612  138.6380  150.9386 C   0  0  0  0  0  0  0  0  0  0  0  0
  146.2635  138.3720  152.3676 N   0  0  0  0  0  0  0  0  0  0  0  0
  145.5384  137.2547  152.9623 C   0  0  0  0  0  0  0  0  0  0  0  0
  147.0178  139.2368  153.1900 C   0  0  0  0  0  0  0  0  0  0  0  0
  148.2881  138.8947  153.7148 C   0  0  0  0  0  0  0  0  0  0  0  0
  148.9859  139.8121  154.5268 C   0  0  0  0  0  0  0  0  0  0  0  0
  148.4125  141.0771  154.8053 C   0  0  0  0  0  0  0  0  0  0  0  0
  149.0235  142.0700  155.6189 N   0  0  0  0  0  0  0  0  0  0  0  0
  150.1680  141.9907  156.3200 C   0  0  0  0  0  0  0  0  0  0  0  0
  150.9088  141.0089  156.3645 O   0  0  0  0  0  0  0  0  0  0  0  0
  150.4231  143.1365  156.9675 N   0  0  0  0  0  0  0  0  0  0  0  0
  151.5901  143.3713  157.8108 C   0  0  1  0  0  0  0  0  0  0  0  0
  151.6580  144.8122  158.2365 C   0  0  0  0  0  0  0  0  0  0  0  0
  151.6653  144.9578  159.5595 C   0  0  0  0  0  0  0  0  0  0  0  0
  151.5775  143.6444  160.2945 C   0  0  2  0  0  0  0  0  0  0  0  0
  152.7496  143.4254  161.2671 C   0  0  0  0  0  0  0  0  0  0  0  0
  152.5368  144.1315  162.4718 O   0  0  0  0  0  0  0  0  0  0  0  0
  151.5290  142.5959  159.1536 C   0  0  0  0  0  0  0  0  0  0  0  0
  147.1389  141.3612  154.2730 C   0  0  0  0  0  0  0  0  0  0  0  0
  146.5056  140.4530  153.4999 N   0  3  0  0  0  0  0  0  0  0  0  0
  152.5047  143.1316  157.2657 H   0  0  0  0  0  0  0  0  0  0  0  0
  150.6354  143.6269  160.8445 H   0  0  0  0  0  0  0  0  0  0  0  0
  147.1463  138.6092  150.4719 H   0  0  0  0  0  0  0  0  0  0  0  0
  145.7194  139.6193  150.7614 H   0  0  0  0  0  0  0  0  0  0  0  0
  145.5359  137.8968  150.4405 H   0  0  0  0  0  0  0  0  0  0  0  0
  144.8190  137.6129  153.6993 H   0  0  0  0  0  0  0  0  0  0  0  0
  146.2286  136.5688  153.4547 H   0  0  0  0  0  0  0  0  0  0  0  0
  144.9894  136.6905  152.2078 H   0  0  0  0  0  0  0  0  0  0  0  0
  148.7425  137.9367  153.5113 H   0  0  0  0  0  0  0  0  0  0  0  0
  149.9431  139.5176  154.9283 H   0  0  0  0  0  0  0  0  0  0  0  0
  148.5647  142.9692  155.6229 H   0  0  0  0  0  0  0  0  0  0  0  0
  149.7667  143.8979  156.8758 H   0  0  0  0  0  0  0  0  0  0  0  0
  151.7103  145.6216  157.5232 H   0  0  0  0  0  0  0  0  0  0  0  0
  151.7134  145.9038  160.0786 H   0  0  0  0  0  0  0  0  0  0  0  0
  152.8516  142.3657  161.5028 H   0  0  0  0  0  0  0  0  0  0  0  0
  153.6909  143.7497  160.8218 H   0  0  0  0  0  0  0  0  0  0  0  0
  152.9988  144.9544  162.4231 H   0  0  0  0  0  0  0  0  0  0  0  0
  150.6208  141.9969  159.2349 H   0  0  0  0  0  0  0  0  0  0  0  0
  152.3658  141.8992  159.2180 H   0  0  0  0  0  0  0  0  0  0  0  0
  146.6085  142.2886  154.4346 H   0  0  0  0  0  0  0  0  0  0  0  0
  145.5880  140.6979  153.1272 H   0  0  0  0  0  0  0  0  0  0  0  0
  1  2  1  0  0  0  0
  1 23  1  0  0  0  0
  1 24  1  0  0  0  0
  1 25  1  0  0  0  0
  2  3  1  0  0  0  0
  2  4  1  0  0  0  0
  3 26  1  0  0  0  0
  3 27  1  0  0  0  0
  3 28  1  0  0  0  0
  4 20  1  0  0  0  0
  4  5  2  0  0  0  0
  5  6  1  0  0  0  0
  5 29  1  0  0  0  0
  6  7  2  0  0  0  0
  6 30  1  0  0  0  0
  7  8  1  0  0  0  0
  7 19  1  0  0  0  0
  8  9  1  0  0  0  0
  8 31  1  0  0  0  0
  9 10  2  0  0  0  0
  9 11  1  0  0  0  0
 11 12  1  0  0  0  0
 11 32  1  0  0  0  0
 12 21  1  0  0  0  0
 12 18  1  0  0  0  0
 12 13  1  0  0  0  0
 13 14  2  0  0  0  0
 13 33  1  0  0  0  0
 14 15  1  0  0  0  0
 14 34  1  0  0  0  0
 15 22  1  0  0  0  0
 15 16  1  0  0  0  0
 15 18  1  0  0  0  0
 16 17  1  0  0  0  0
 16 35  1  0  0  0  0
 16 36  1  0  0  0  0
 17 37  1  0  0  0  0
 18 38  1  0  0  0  0
 18 39  1  0  0  0  0
 19 20  2  0  0  0  0
 19 40  1  0  0  0  0
 20 41  1  0  0  0  0
M  CHG  1  20   1
M  END
> <s_m_source_file>
AV-unprocessed.smi

> <i_m_source_file_index>
876

> <i_lp_mmshare_version>
43012

> <i_f3d_flags>
0

> <s_epik_input>
W0NIM11OKFtDSDNdKWMxW2NIXVtjSF1jKFtjSF1uMSlbTkhdQyg9TylbTkhdW0NAQEhdMltDSF09W0NIXVtDQEBIXShbQ0gyXTIpW0NIMl1bT0hd

> <s_epik_cmdline>
J2VwaWtfcHl0aG9uJywgJy1waCcsICc3LjAnLCAnLXRuJywgJzgnLCAnLW1hJywgJzIwMCcsICctbWV0YWxfYmluZGluZycsICctaW1hZScsICc8aW5maWxlLm1hZT4nLCAnLW9tYWUnLCAnPG91dGZpbGUubWFlPic=

> <r_lp_tautomer_probability>
0.999994

> <r_epik_Ionization_Penalty>
0.257994

> <r_epik_Ionization_Penalty_Charging>
0.257974

> <r_epik_Ionization_Penalty_Neutral>
1.95938e-05

> <r_epik_State_Penalty>
0.249586

> <r_epik_Charging_Adjusted_Penalty>
0.50756

> <i_epik_Tot_Q>
1

> <i_epik_Tot_abs_Q>
1

> <r_epik_Metal_State_Penalty>
0.538508

> <b_epik_Metal_Only>
0

> <s_lp_Force_Field>
OPLS_2005

> <r_lp_Energy>
26.3189

> <b_lp_Chiralities_Consistent>
1

> <s_lp_Variant>
AV-unprocessed.smi:876-2

> <Gold.Version>
5.8.1

> <Gold.Id.Protein>
6NUR|6NUR_protein|mol2

> <Gold.PLP.Fitness>
49.3333

> <Gold.PLP.PLP>
-41.7073

> <Gold.PLP.part.hbond>
-4.1847

> <Gold.PLP.part.metal>
0.0000

> <Gold.PLP.part.buried>
1.5691

> <Gold.PLP.part.nonpolar>
-40.1711

> <Gold.PLP.part.repulsive>
0.2149

> <Gold.PLP.ligand.clash>
0.0000

> <Gold.PLP.ligand.torsion>
1.6672

> <Gold.PLP.Chemscore.Hbond>
3.6460

> <Gold.PLP.Chemscore.CHOScore>
0.0000

> <Gold.PLP.Chemscore.Metal>
0.0000

> <Gold.Chemscore.Hbonds>
donor molecule, donor type, donor heavy atom, donor atom, acceptor molecule, acceptor atom, score
      L1  H     8    31       P1  8028  0.88
      L1  H    11    32       P1  8028  0.82
      L1  H    20    41       P1 10175  2.00

> <Gold.PLP.Chemscore.Internal.Correction>
0.0224

> <Gold.Rescore>
     Score         DG    S(hbond)    S(metal)    S(lipo)     H(rot)  DE(clash)    DE(int)     intcor
     17.71     -22.39       2.70        0.00     107.40       1.82       1.79       2.89       ----

> <Gold.Chemscore.Fitness>
17.7092

> <Gold.Chemscore.DG>
-22.3950

> <Gold.Chemscore.ZeroCoef>
-5.4800

> <Gold.Chemscore.Hbond>
2.6969

> <Gold.Chemscore.Metal>
0.0000

> <Gold.Chemscore.Lipo>
107.4002

> <Gold.Chemscore.Internal_Hbond>
0.0000

> <Gold.Chemscore.DEClash>
1.7928

> <Gold.Chemscore.DEInternal>
2.8930

> <Gold.Chemscore.Rot>
1.8197

> <Gold.Chemscore.Internal.Correction>
   9.000000E+99

> <Gold.Chemscore.Hbonds>
donor molecule, donor type, donor heavy atom, donor atom, acceptor molecule, acceptor atom, score
      L1  H     8    31       P1  8028  0.86
      L1  H    11    32       P1  8028  0.78
      L1  H    20    41       P1 10175  0.70

> <Gold.Chemscore.Hbond.Weighted>
-9.0076

> <Gold.Chemscore.Metal.Weighted>
-0.0000

> <Gold.Chemscore.Lipo.Weighted>
-12.5658

> <Gold.Chemscore.Internal_Hbond.Weighted>
0.0000

> <Gold.Chemscore.DEClash.Weighted>
1.7928

> <Gold.Chemscore.DEInternal.Weighted>
2.8930

> <Gold.Chemscore.Rot.Weighted>
4.6585

> <Gold.Chemscore.Internal.Correction.Weighted>
   9.000000E+99

> <Gold.Protein.RotatedTorsions>
[ 6907 6896 6895 6894 ] final   14.17 input  -60.11 | X-H torsion
[ 7974 7965 7964 7962 ] final   86.92 input  175.53 | X-H torsion
[ 8008 7997 7996 7995 ] final  106.59 input   59.86 | X-H torsion
[ 10167 10162 10161 10158 ] final  119.58 input  -65.29 | X-H torsion
[ 10718 10713 10712 10709 ] final -162.32 input   66.30 | X-H torsion
[ 10763 10752 10751 10750 ] final   89.19 input  -60.55 | X-H torsion
[ 11005 11000 10999 10996 ] final -147.92 input  -57.11 | X-H torsion

> <Gold.Protein.ActiveResidues>
 VAL166  LYS551  ARG553  GLY616  TRP617  ASP618  TYR619  PRO620  LYS621  CYS622 
 ASP623  PHE694  ASN695  SER759  ASP760  ASP761  ALA762  ILE779  LEU786  VAL792 
 PHE793  MET794  SER795  GLU796  ALA797  LYS798  CYS799  TRP800  GLU811  SER814 

> <Gold.Protein.RotatedAtoms>
  151.7980  135.0717  160.0396 H   0  0  0  0  0  0  0  0  0  0  0  0  # atno 6907 bound_to 6896
  152.3109  133.5748  159.5689 H   0  0  0  0  0  0  0  0  0  0  0  0  # atno 6908 bound_to 6896
  150.7319  134.0069  159.3699 H   0  0  0  0  0  0  0  0  0  0  0  0  # atno 6909 bound_to 6896
  145.5659  139.2308  143.2433 H   0  0  0  0  0  0  0  0  0  0  0  0  # atno 7974 bound_to 7965
  156.1756  140.3110  155.9052 H   0  0  0  0  0  0  0  0  0  0  0  0  # atno 8008 bound_to 7997
  155.3495  140.0470  157.3063 H   0  0  0  0  0  0  0  0  0  0  0  0  # atno 8009 bound_to 7997
  154.5286  140.2223  155.8855 H   0  0  0  0  0  0  0  0  0  0  0  0  # atno 8010 bound_to 7997
  139.6037  144.7064  151.3003 H   0  0  0  0  0  0  0  0  0  0  0  0  # atno 10167 bound_to 10162
  156.6088  130.8842  151.2931 H   0  0  0  0  0  0  0  0  0  0  0  0  # atno 10718 bound_to 10713
  153.1845  135.4479  155.0071 H   0  0  0  0  0  0  0  0  0  0  0  0  # atno 10763 bound_to 10752
  154.8051  135.3271  154.7453 H   0  0  0  0  0  0  0  0  0  0  0  0  # atno 10764 bound_to 10752
  153.7914  135.6970  153.4926 H   0  0  0  0  0  0  0  0  0  0  0  0  # atno 10765 bound_to 10752
  140.7666  134.3237  157.5087 H   0  0  0  0  0  0  0  0  0  0  0  0  # atno 11005 bound_to 11000
  146.1818  140.6485  142.9185 LP  0  0  0  0  0  0  0  0  0  0  0  0  # atno 17320 bound_to 7965
  144.7461  140.5070  143.6835 LP  0  0  0  0  0  0  0  0  0  0  0  0  # atno 17321 bound_to 7965
  140.7269  143.6978  150.7869 LP  0  0  0  0  0  0  0  0  0  0  0  0  # atno 17342 bound_to 10162
  140.0560  143.5202  152.2651 LP  0  0  0  0  0  0  0  0  0  0  0  0  # atno 17343 bound_to 10162
  157.7260  130.9623  150.1637 LP  0  0  0  0  0  0  0  0  0  0  0  0  # atno 17370 bound_to 10713
  156.2407  130.3690  149.8340 LP  0  0  0  0  0  0  0  0  0  0  0  0  # atno 17371 bound_to 10713
  139.8762  134.9235  156.3327 LP  0  0  0  0  0  0  0  0  0  0  0  0  # atno 17394 bound_to 11000
  140.9613  133.7387  156.0405 LP  0  0  0  0  0  0  0  0  0  0  0  0  # atno 17395 bound_to 11000

$$$$
