#       Name:                AV-unprocessed.smi:507
#       Creating user name   scv26
#       Creation time:       Thu Mar 26 23:22:18 2020


#       File generated by GOLD software.
#

@<TRIPOS>MOLECULE
AV-unprocessed.smi:507
    37    38     1
SMALL
NO_CHARGES


@<TRIPOS>ATOM
      1 ****        -1.8513   3.5992  -2.2658 C.3            1 S1                 0.0000
      2 ****        -1.4713   2.4593  -1.3369 C.ar           1 S1                 0.0000
      3 ****        -1.6593   2.6149   0.0551 C.ar           1 S1                 0.0000
      4 ****        -1.3176   1.5795   0.9523 C.ar           1 S1                 0.0000
      5 ****        -1.4142   1.5163   2.3321 N.2            1 S1                 0.0000
      6 ****        -0.9424   0.2974   2.5785 C.2            1 S1                 0.0000
      7 ****        -0.5464  -0.4356   1.5200 N.pl3          1 S1                 0.0000
      8 ****        -0.0022  -1.7821   1.5374 C.3            1 S1                 0.0000
      9 ****         1.5228  -1.8066   1.3164 C.3            1 S1                 0.0000
     10 ****         2.1436  -1.0734   2.3544 O.3            1 S1                 0.0000
     11 ****         2.0783  -3.2406   1.3352 C.3            1 S1                 0.0000
     12 ****         3.3306  -3.3702   0.5760 N.3            1 S1                 0.0000
     13 ****        -0.7794   0.3741   0.4142 C.ar           1 S1                 0.0000
     14 ****        -0.5882   0.2068  -0.9685 C.ar           1 S1                 0.0000
     15 ****        -0.9334   1.2519  -1.8507 C.ar           1 S1                 0.0000
     16 ****        -0.7190   1.0633  -3.3419 C.3            1 S1                 0.0000
     17 ****        -2.2453   4.4511  -1.7108 H              1 S1                 0.0000
     18 ****        -2.6170   3.2776  -2.9720 H              1 S1                 0.0000
     19 ****        -0.9818   3.9400  -2.8282 H              1 S1                 0.0000
     20 ****        -2.0686   3.5344   0.4469 H              1 S1                 0.0000
     21 ****        -0.8775  -0.0839   3.5872 H              1 S1                 0.0000
     22 ****        -0.2588  -2.2522   2.4881 H              1 S1                 0.0000
     23 ****        -0.5046  -2.3580   0.7593 H              1 S1                 0.0000
     24 ****         1.7504  -1.3305   0.3615 H              1 S1                 0.0000
     25 ****         1.8363  -0.1804   2.3143 H              1 S1                 0.0000
     26 ****         2.2127  -3.5849   2.3614 H              1 S1                 0.0000
     27 ****         1.3426  -3.9112   0.8901 H              1 S1                 0.0000
     28 ****         4.0467  -2.7630   0.9726 H              1 S1                 0.0000
     29 ****         3.6844  -4.3240   0.6343 H              1 S1                 0.0000
     30 ****        -0.1768  -0.7180  -1.3453 H              1 S1                 0.0000
     31 ****        -0.3181   0.0739  -3.5641 H              1 S1                 0.0000
     32 ****        -0.0147   1.8032  -3.7223 H              1 S1                 0.0000
     33 ****        -1.6605   1.1708  -3.8808 H              1 S1                 0.0000
     34 ****        -1.7501   2.2055   2.9741 LP             1 S1                 0.0000
     35 ****         3.1363  -1.0945   2.2357 LP             1 S1                 0.0000
     36 ****         1.9051  -1.4731   3.2395 LP             1 S1                 0.0000
     37 ****         3.1355  -3.1217  -0.3728 LP             1 S1                 0.0000
@<TRIPOS>BOND
    1    1    2 1     
    2    1   17 1     
    3    1   18 1     
    4    1   19 1     
    5    2   15 ar    
    6    2    3 ar    
    7    3    4 ar    
    8    3   20 1     
    9    4   13 ar    
   10    4    5 1     
   11    5    6 2     
   12    6    7 1     
   13    6   21 1     
   14    7    8 1     
   15    7   13 1     
   16    8    9 1     
   17    8   22 1     
   18    8   23 1     
   19    9   10 1     
   20    9   11 1     
   21    9   24 1     
   22   10   25 1     
   23   11   12 1     
   24   11   26 1     
   25   11   27 1     
   26   12   28 1     
   27   12   29 1     
   28   13   14 ar    
   29   14   15 ar    
   30   14   30 1     
   31   15   16 1     
   32   16   31 1     
   33   16   32 1     
   34   16   33 1     
   35    5   34 1     
   36   10   35 1     
   37   10   36 1     
   38   12   37 1     
@<TRIPOS>SUBSTRUCTURE
      1 S1             1
@<TRIPOS>SET
LONE_PAIRS      STATIC     ATOMS    <user>   **** ""
4 34 35 36 37
DONOR_HYDROGENS      STATIC     ATOMS    <user>   **** ""
3 25 28 29
ATOM$BLUE        STATIC     ATOMS    COLORGROUP SYSTEM
4 34 35 36 37
ATOM$RED        STATIC     ATOMS    COLORGROUP SYSTEM
3 25 28 29
