#       Name:                AV-unprocessed.smi:1990
#       Creating user name   scv26
#       Creation time:       Fri Mar 27 10:27:11 2020


#       File generated by GOLD software.
#

@<TRIPOS>MOLECULE
AV-unprocessed.smi:1990
    52    53     1
SMALL
NO_CHARGES


@<TRIPOS>ATOM
      1 ****        -5.4806   1.4485  -2.2369 C.3            1 S1                 0.0000
      2 ****        -4.7688   0.8895  -1.0005 C.3            1 S1                 0.0000
      3 ****        -3.2412   1.0590  -1.0927 C.3            1 S1                 0.0000
      4 ****        -2.6075   0.6451   0.1544 N.3            1 S1                 0.0000
      5 ****        -1.2120   0.4474   0.0910 C.ar           1 S1                 0.0000
      6 ****        -0.6654  -0.4458  -0.8595 C.ar           1 S1                 0.0000
      7 ****         0.7293  -0.6352  -0.9067 C.ar           1 S1                 0.0000
      8 ****         1.5493   0.0816  -0.0034 C.ar           1 S1                 0.0000
      9 ****         2.9655  -0.0210   0.0726 N.am           1 S1                 0.0000
     10 ****         3.8289  -0.6246  -0.7662 C.2            1 S1                 0.0000
     11 ****         3.5137  -1.1696  -1.8232 O.2            1 S1                 0.0000
     12 ****         5.3035  -0.5799  -0.3403 C.3            1 S1                 0.0000
     13 ****         6.2396  -0.3139  -1.5308 C.3            1 S1                 0.0000
     14 ****         5.7739  -2.1710   0.4880 S.o2           1 S1                 0.0000
     15 ****         4.6685  -2.2219   1.9615 C.3            1 S1                 0.0000
     16 ****         5.4125  -3.2936  -0.3914 O.2            1 S1                 0.0000
     17 ****         7.1612  -2.0438   0.9600 O.2            1 S1                 0.0000
     18 ****         0.9103   0.9410   0.9124 C.ar           1 S1                 0.0000
     19 ****        -0.4253   1.1224   0.9637 N.ar           1 S1                 0.0000
     20 ****        -3.1517   1.3215   1.3294 C.3            1 S1                 0.0000
     21 ****        -4.6851   1.1804   1.3867 C.3            1 S1                 0.0000
     22 ****        -5.1565  -0.2199   1.8189 C.3            1 S1                 0.0000
     23 ****        -5.2627   1.5854   0.1437 O.3            1 S1                 0.0000
     24 ****        -5.1519   0.9388  -3.1427 H              1 S1                 0.0000
     25 ****        -5.2804   2.5133  -2.3601 H              1 S1                 0.0000
     26 ****        -6.5602   1.3198  -2.1560 H              1 S1                 0.0000
     27 ****        -5.0153  -0.1694  -0.9209 H              1 S1                 0.0000
     28 ****        -2.8671   0.4876  -1.9416 H              1 S1                 0.0000
     29 ****        -2.9900   2.1037  -1.2807 H              1 S1                 0.0000
     30 ****        -1.2994  -0.9991  -1.5365 H              1 S1                 0.0000
     31 ****         1.1280  -1.3338  -1.6242 H              1 S1                 0.0000
     32 ****         3.3813   0.4385   0.8697 H              1 S1                 0.0000
     33 ****         5.4427   0.2163   0.3921 H              1 S1                 0.0000
     34 ****         5.9629   0.5997  -2.0581 H              1 S1                 0.0000
     35 ****         6.2194  -1.1351  -2.2483 H              1 S1                 0.0000
     36 ****         7.2703  -0.1985  -1.1948 H              1 S1                 0.0000
     37 ****         4.9406  -3.0732   2.5849 H              1 S1                 0.0000
     38 ****         3.6316  -2.3325   1.6455 H              1 S1                 0.0000
     39 ****         4.7813  -1.3037   2.5372 H              1 S1                 0.0000
     40 ****         1.4887   1.5032   1.6313 H              1 S1                 0.0000
     41 ****        -2.7116   0.9177   2.2423 H              1 S1                 0.0000
     42 ****        -2.8824   2.3776   1.2814 H              1 S1                 0.0000
     43 ****        -5.0538   1.8813   2.1361 H              1 S1                 0.0000
     44 ****        -4.8109  -0.4484   2.8271 H              1 S1                 0.0000
     45 ****        -4.7793  -1.0050   1.1641 H              1 S1                 0.0000
     46 ****        -6.2449  -0.2799   1.8223 H              1 S1                 0.0000
     47 ****        -2.8920  -0.3019   0.3035 LP             1 S1                 0.0000
     48 ****         2.5564  -1.1846  -2.1120 LP             1 S1                 0.0000
     49 ****         4.2148  -1.5976  -2.3936 LP             1 S1                 0.0000
     50 ****        -0.8283   1.7448   1.6347 LP             1 S1                 0.0000
     51 ****        -6.2501   1.4364   0.1962 LP             1 S1                 0.0000
     52 ****        -5.0789   2.5603   0.0182 LP             1 S1                 0.0000
@<TRIPOS>BOND
    1    1    2 1     
    2    1   24 1     
    3    1   25 1     
    4    1   26 1     
    5    2   23 1     
    6    2    3 1     
    7    2   27 1     
    8    3    4 1     
    9    3   28 1     
   10    3   29 1     
   11    4    5 1     
   12    4   20 1     
   13    5   19 ar    
   14    5    6 ar    
   15    6    7 ar    
   16    6   30 1     
   17    7    8 ar    
   18    7   31 1     
   19    8    9 1     
   20    8   18 ar    
   21    9   10 am    
   22    9   32 1     
   23   10   11 2     
   24   10   12 1     
   25   12   13 1     
   26   12   14 1     
   27   12   33 1     
   28   13   34 1     
   29   13   35 1     
   30   13   36 1     
   31   14   15 1     
   32   14   16 2     
   33   14   17 2     
   34   15   37 1     
   35   15   38 1     
   36   15   39 1     
   37   18   19 ar    
   38   18   40 1     
   39   20   21 1     
   40   20   41 1     
   41   20   42 1     
   42   21   22 1     
   43   21   23 1     
   44   21   43 1     
   45   22   44 1     
   46   22   45 1     
   47   22   46 1     
   48    4   47 1     
   49   11   48 1     
   50   11   49 1     
   51   19   50 1     
   52   23   51 1     
   53   23   52 1     
@<TRIPOS>SUBSTRUCTURE
      1 S1             1
@<TRIPOS>SET
LONE_PAIRS      STATIC     ATOMS    <user>   **** ""
8 47 48 49 16 17 50 51 52
DONOR_HYDROGENS      STATIC     ATOMS    <user>   **** ""
1 32
ATOM$BLUE        STATIC     ATOMS    COLORGROUP SYSTEM
8 47 48 49 16 17 50 51 52
ATOM$RED        STATIC     ATOMS    COLORGROUP SYSTEM
1 32
