AV-unprocessed.smi:1400|AV-procd|sdf|5686|dock3
  -GOLD-   22720 5313D 1   1.00000     0.00000
 Structure written by MMmdl.
 34 35  0  0  0  0  0  0  0  0  1 V2000
  149.5882  140.7285  156.1835 C   0  0  0  0  0  0  0  0  0  0  0  0
  148.8929  141.1289  154.8801 C   0  0  0  0  0  0  0  0  0  0  0  0
  149.4712  141.9207  154.1357 O   0  0  0  0  0  0  0  0  0  0  0  0
  147.6806  140.5998  154.5865 N   0  0  0  0  0  0  0  0  0  0  0  0
  146.9896  140.8536  153.3168 C   0  0  0  0  0  0  0  0  0  0  0  0
  147.0069  139.5645  152.4748 C   0  0  0  0  0  0  0  0  0  0  0  0
  146.3922  138.3784  153.2494 C   0  0  0  0  0  0  0  0  0  0  0  0
  146.6120  137.1365  152.5125 N   0  0  0  0  0  0  0  0  0  0  0  0
  145.6595  136.2838  152.1067 C   0  0  0  0  0  0  0  0  0  0  0  0
  144.4572  136.4538  152.3119 O   0  0  0  0  0  0  0  0  0  0  0  0
  146.1947  135.2351  151.4570 N   0  0  0  0  0  0  0  0  0  0  0  0
  145.5258  134.1206  150.8856 C   0  0  0  0  0  0  0  0  0  0  0  0
  144.1957  134.0004  150.8005 N   0  0  0  0  0  0  0  0  0  0  0  0
  143.8154  132.8008  150.1933 C   0  0  0  0  0  0  0  0  0  0  0  0
  144.8764  132.0139  149.8199 C   0  0  0  0  0  0  0  0  0  0  0  0
  146.4046  132.7528  150.2178 S   0  0  0  0  0  0  0  0  0  0  0  0
  146.9906  138.2557  154.6672 C   0  0  0  0  0  0  0  0  0  0  0  0
  146.9665  139.6085  155.4007 C   0  0  0  0  0  0  0  0  0  0  0  0
  149.7348  139.6489  156.2287 H   0  0  0  0  0  0  0  0  0  0  0  0
  149.0027  141.0444  157.0472 H   0  0  0  0  0  0  0  0  0  0  0  0
  150.5691  141.1995  156.2552 H   0  0  0  0  0  0  0  0  0  0  0  0
  145.9613  141.1565  153.5186 H   0  0  0  0  0  0  0  0  0  0  0  0
  147.4338  141.6727  152.7499 H   0  0  0  0  0  0  0  0  0  0  0  0
  146.4664  139.7223  151.5408 H   0  0  0  0  0  0  0  0  0  0  0  0
  148.0374  139.3331  152.2005 H   0  0  0  0  0  0  0  0  0  0  0  0
  145.3241  138.5738  153.3609 H   0  0  0  0  0  0  0  0  0  0  0  0
  147.5709  136.9093  152.2931 H   0  0  0  0  0  0  0  0  0  0  0  0
  147.1996  135.2314  151.3629 H   0  0  0  0  0  0  0  0  0  0  0  0
  142.7644  132.5870  150.0668 H   0  0  0  0  0  0  0  0  0  0  0  0
  144.8511  131.0484  149.3370 H   0  0  0  0  0  0  0  0  0  0  0  0
  146.4400  137.5101  155.2421 H   0  0  0  0  0  0  0  0  0  0  0  0
  148.0208  137.9011  154.6069 H   0  0  0  0  0  0  0  0  0  0  0  0
  147.3711  139.4943  156.4052 H   0  0  0  0  0  0  0  0  0  0  0  0
  145.9353  139.9364  155.5401 H   0  0  0  0  0  0  0  0  0  0  0  0
  1  2  1  0  0  0  0
  1 19  1  0  0  0  0
  1 20  1  0  0  0  0
  1 21  1  0  0  0  0
  2  3  2  0  0  0  0
  2  4  1  0  0  0  0
  4 18  1  0  0  0  0
  4  5  1  0  0  0  0
  5  6  1  0  0  0  0
  5 22  1  0  0  0  0
  5 23  1  0  0  0  0
  6  7  1  0  0  0  0
  6 24  1  0  0  0  0
  6 25  1  0  0  0  0
  7  8  1  0  0  0  0
  7 17  1  0  0  0  0
  7 26  1  0  0  0  0
  8  9  1  0  0  0  0
  8 27  1  0  0  0  0
  9 10  2  0  0  0  0
  9 11  1  0  0  0  0
 11 12  1  0  0  0  0
 11 28  1  0  0  0  0
 12 16  1  0  0  0  0
 12 13  2  0  0  0  0
 13 14  1  0  0  0  0
 14 15  2  0  0  0  0
 14 29  1  0  0  0  0
 15 16  1  0  0  0  0
 15 30  1  0  0  0  0
 17 18  1  0  0  0  0
 17 31  1  0  0  0  0
 17 32  1  0  0  0  0
 18 33  1  0  0  0  0
 18 34  1  0  0  0  0
M  END
> <s_m_source_file>
AV-unprocessed.smi

> <i_m_source_file_index>
1400

> <i_lp_mmshare_version>
43012

> <i_f3d_flags>
0

> <s_epik_input>
W0NIM11DKD1PKU4xW0NIMl1bQ0gyXVtDSF0oW0NIMl1bQ0gyXTEpW05IXUMoPU8pW05IXWMybltjSF1bY0hdczI=

> <s_epik_cmdline>
J2VwaWtfcHl0aG9uJywgJy1waCcsICc3LjAnLCAnLXRuJywgJzgnLCAnLW1hJywgJzIwMCcsICctbWV0YWxfYmluZGluZycsICctaW1hZScsICc8aW5maWxlLm1hZT4nLCAnLW9tYWUnLCAnPG91dGZpbGUubWFlPic=

> <r_lp_tautomer_probability>
1

> <r_epik_Ionization_Penalty>
0.000151384

> <r_epik_Ionization_Penalty_Charging>
0

> <r_epik_Ionization_Penalty_Neutral>
0.000151384

> <r_epik_State_Penalty>
-0

> <r_epik_Charging_Adjusted_Penalty>
0

> <i_epik_Tot_Q>
0

> <i_epik_Tot_abs_Q>
0

> <r_epik_Metal_State_Penalty>
0.0312905

> <b_epik_Metal_Only>
0

> <s_lp_Force_Field>
OPLS_2005

> <r_lp_Energy>
21.754

> <b_lp_Chiralities_Consistent>
1

> <s_lp_Variant>
AV-unprocessed.smi:1400-1

> <Gold.Version>
5.8.1

> <Gold.Id.Protein>
6NUR|6NUR_protein|mol2

> <Gold.PLP.Fitness>
36.7860

> <Gold.PLP.PLP>
-26.9804

> <Gold.PLP.part.hbond>
-4.0000

> <Gold.PLP.part.metal>
0.0000

> <Gold.PLP.part.buried>
1.0746

> <Gold.PLP.part.nonpolar>
-24.0510

> <Gold.PLP.part.repulsive>
0.7075

> <Gold.PLP.ligand.clash>
0.0000

> <Gold.PLP.ligand.torsion>
0.0423

> <Gold.PLP.Chemscore.Hbond>
2.3662

> <Gold.PLP.Chemscore.CHOScore>
0.9250

> <Gold.PLP.Chemscore.Metal>
0.0000

> <Gold.Chemscore.Hbonds>
donor molecule, donor type, donor heavy atom, donor atom, acceptor molecule, acceptor atom, score
      L1  H     8    27       P1  7948  1.00
      L1  H    11    28       P1  7948  0.93
      P1  H  8011  8017       L1     3  0.42
      L1  C    14    29       P1 10186  0.74

> <Gold.PLP.Chemscore.Internal.Correction>
0.0165

> <Gold.Rescore>
     Score         DG    S(hbond)    S(metal)    S(lipo)     H(rot)  DE(clash)    DE(int)     intcor
     14.84     -16.44       2.07        0.00      56.45       1.00       0.30       1.30       ----

> <Gold.Chemscore.Fitness>
14.8382

> <Gold.Chemscore.DG>
-16.4385

> <Gold.Chemscore.ZeroCoef>
-5.4800

> <Gold.Chemscore.Hbond>
2.0700

> <Gold.Chemscore.Metal>
0.0000

> <Gold.Chemscore.Lipo>
56.4521

> <Gold.Chemscore.Internal_Hbond>
0.0000

> <Gold.Chemscore.DEClash>
0.3039

> <Gold.Chemscore.DEInternal>
1.2965

> <Gold.Chemscore.Rot>
1.0000

> <Gold.Chemscore.Internal.Correction>
   9.000000E+99

> <Gold.Chemscore.Hbonds>
donor molecule, donor type, donor heavy atom, donor atom, acceptor molecule, acceptor atom, score
      L1  H     8    27       P1  7948  0.98
      L1  H    11    28       P1  7948  0.69
      P1  H  8011  8017       L1     3  0.42

> <Gold.Chemscore.Hbond.Weighted>
-6.9137

> <Gold.Chemscore.Metal.Weighted>
-0.0000

> <Gold.Chemscore.Lipo.Weighted>
-6.6049

> <Gold.Chemscore.Internal_Hbond.Weighted>
0.0000

> <Gold.Chemscore.DEClash.Weighted>
0.3039

> <Gold.Chemscore.DEInternal.Weighted>
1.2965

> <Gold.Chemscore.Rot.Weighted>
2.5600

> <Gold.Chemscore.Internal.Correction.Weighted>
   9.000000E+99

> <Gold.Protein.RotatedTorsions>
[ 6907 6896 6895 6894 ] final -115.00 input  -60.11 | X-H torsion
[ 7974 7965 7964 7962 ] final   18.22 input  175.53 | X-H torsion
[ 8008 7997 7996 7995 ] final   89.09 input   59.86 | X-H torsion
[ 10167 10162 10161 10158 ] final -133.50 input  -65.29 | X-H torsion
[ 10718 10713 10712 10709 ] final   20.57 input   66.30 | X-H torsion
[ 10763 10752 10751 10750 ] final   76.39 input  -60.55 | X-H torsion
[ 11005 11000 10999 10996 ] final    3.14 input  -57.11 | X-H torsion

> <Gold.Protein.ActiveResidues>
 VAL166  LYS551  ARG553  GLY616  TRP617  ASP618  TYR619  PRO620  LYS621  CYS622 
 ASP623  PHE694  ASN695  SER759  ASP760  ASP761  ALA762  ILE779  LEU786  VAL792 
 PHE793  MET794  SER795  GLU796  ALA797  LYS798  CYS799  TRP800  GLU811  SER814 

> <Gold.Protein.RotatedAtoms>
  150.7944  133.8721  159.3261 H   0  0  0  0  0  0  0  0  0  0  0  0  # atno 6907 bound_to 6896
  151.6550  135.0995  160.0178 H   0  0  0  0  0  0  0  0  0  0  0  0  # atno 6908 bound_to 6896
  152.4024  133.6798  159.6362 H   0  0  0  0  0  0  0  0  0  0  0  0  # atno 6909 bound_to 6896
  146.2192  139.8489  142.8626 H   0  0  0  0  0  0  0  0  0  0  0  0  # atno 7974 bound_to 7965
  155.9957  140.3364  155.6796 H   0  0  0  0  0  0  0  0  0  0  0  0  # atno 8008 bound_to 7997
  155.6359  140.0690  157.2652 H   0  0  0  0  0  0  0  0  0  0  0  0  # atno 8009 bound_to 7997
  154.4233  140.1751  156.1509 H   0  0  0  0  0  0  0  0  0  0  0  0  # atno 8010 bound_to 7997
  139.8977  143.6646  152.2601 H   0  0  0  0  0  0  0  0  0  0  0  0  # atno 10167 bound_to 10162
  157.1263  130.6571  149.5938 H   0  0  0  0  0  0  0  0  0  0  0  0  # atno 10718 bound_to 10713
  153.0722  135.4953  154.8329 H   0  0  0  0  0  0  0  0  0  0  0  0  # atno 10763 bound_to 10752
  154.7038  135.3007  154.9303 H   0  0  0  0  0  0  0  0  0  0  0  0  # atno 10764 bound_to 10752
  154.0018  135.6765  153.4812 H   0  0  0  0  0  0  0  0  0  0  0  0  # atno 10765 bound_to 10752
  140.5964  133.9876  155.8112 H   0  0  0  0  0  0  0  0  0  0  0  0  # atno 11005 bound_to 11000
  145.2821  141.0142  143.3711 LP  0  0  0  0  0  0  0  0  0  0  0  0  # atno 17320 bound_to 7965
  144.9141  139.4491  143.6572 LP  0  0  0  0  0  0  0  0  0  0  0  0  # atno 17321 bound_to 7965
  139.7053  144.7629  151.1203 LP  0  0  0  0  0  0  0  0  0  0  0  0  # atno 17342 bound_to 10162
  140.7713  143.5403  150.9321 LP  0  0  0  0  0  0  0  0  0  0  0  0  # atno 17343 bound_to 10162
  155.9817  130.4827  150.6844 LP  0  0  0  0  0  0  0  0  0  0  0  0  # atno 17370 bound_to 10713
  157.4432  131.0864  151.0922 LP  0  0  0  0  0  0  0  0  0  0  0  0  # atno 17371 bound_to 10713
  141.0901  133.9930  157.3251 LP  0  0  0  0  0  0  0  0  0  0  0  0  # atno 17394 bound_to 11000
  139.9251  135.0201  156.8206 LP  0  0  0  0  0  0  0  0  0  0  0  0  # atno 17395 bound_to 11000

$$$$
