AV-unprocessed.smi:440|AV-procd|sdf|2581|dock7
  -GOLD-   2262022573D 1   1.00000     0.00000
 Structure written by MMmdl.
 41 42  0  0  0  0  0  0  0  0  1 V2000
  152.8105  138.4219  156.7883 C   0  0  0  0  0  0  0  0  0  0  0  0
  151.9089  139.5982  156.5437 C   0  0  0  0  0  0  0  0  0  0  0  0
  152.0215  140.6703  157.3085 N   0  0  0  0  0  0  0  0  0  0  0  0
  151.0905  141.5288  156.8434 N   0  0  0  0  0  0  0  0  0  0  0  0
  150.9446  142.8284  157.4820 C   0  0  0  0  0  0  0  0  0  0  0  0
  152.1527  143.2154  158.3625 C   0  0  0  0  0  0  0  0  0  0  0  0
  152.2210  142.3229  159.6103 C   0  0  0  0  0  0  0  0  0  0  0  0
  152.1610  144.7037  158.7533 C   0  0  0  0  0  0  0  0  0  0  0  0
  150.3952  140.9981  155.7718 C   0  0  0  0  0  0  0  0  0  0  0  0
  149.3145  141.7486  155.0611 C   0  0  0  0  0  0  0  0  0  0  0  0
  150.8970  139.7432  155.5498 C   0  0  0  0  0  0  0  0  0  0  0  0
  150.4900  138.7386  154.5016 C   0  0  0  0  0  0  0  0  0  0  0  0
  148.9652  138.6474  154.4393 C   0  0  0  0  0  0  0  0  0  0  0  0
  148.3432  138.1114  155.3564 O   0  0  0  0  0  0  0  0  0  0  0  0
  148.3816  139.1791  153.3548 N   0  0  0  0  0  0  0  0  0  0  0  0
  146.9779  139.2307  153.1069 C   0  0  0  0  0  0  0  0  0  0  0  0
  146.2123  137.9254  153.1193 C   0  0  0  0  0  0  0  0  0  0  0  0
  146.4759  138.6246  151.8141 C   0  0  0  0  0  0  0  0  0  0  0  0
  152.2337  137.5019  156.8852 H   0  0  0  0  0  0  0  0  0  0  0  0
  153.3939  138.5421  157.7020 H   0  0  0  0  0  0  0  0  0  0  0  0
  153.5110  138.2904  155.9637 H   0  0  0  0  0  0  0  0  0  0  0  0
  150.7910  143.5828  156.7084 H   0  0  0  0  0  0  0  0  0  0  0  0
  150.0314  142.8172  158.0776 H   0  0  0  0  0  0  0  0  0  0  0  0
  153.0593  143.0291  157.7863 H   0  0  0  0  0  0  0  0  0  0  0  0
  151.3422  142.4572  160.2417 H   0  0  0  0  0  0  0  0  0  0  0  0
  153.1012  142.5522  160.2115 H   0  0  0  0  0  0  0  0  0  0  0  0
  152.2767  141.2687  159.3369 H   0  0  0  0  0  0  0  0  0  0  0  0
  151.2531  144.9750  159.2928 H   0  0  0  0  0  0  0  0  0  0  0  0
  152.2351  145.3495  157.8783 H   0  0  0  0  0  0  0  0  0  0  0  0
  153.0110  144.9355  159.3955 H   0  0  0  0  0  0  0  0  0  0  0  0
  149.0006  141.2264  154.1573 H   0  0  0  0  0  0  0  0  0  0  0  0
  149.6558  142.7403  154.7645 H   0  0  0  0  0  0  0  0  0  0  0  0
  148.4387  141.8654  155.6988 H   0  0  0  0  0  0  0  0  0  0  0  0
  150.8722  139.0100  153.5169 H   0  0  0  0  0  0  0  0  0  0  0  0
  150.8981  137.7506  154.7175 H   0  0  0  0  0  0  0  0  0  0  0  0
  148.9798  139.5985  152.6580 H   0  0  0  0  0  0  0  0  0  0  0  0
  146.4382  140.1067  153.4642 H   0  0  0  0  0  0  0  0  0  0  0  0
  146.7675  137.0111  153.3207 H   0  0  0  0  0  0  0  0  0  0  0  0
  145.1942  137.9454  153.5027 H   0  0  0  0  0  0  0  0  0  0  0  0
  145.6342  139.1119  151.3261 H   0  0  0  0  0  0  0  0  0  0  0  0
  147.2070  138.1761  151.1436 H   0  0  0  0  0  0  0  0  0  0  0  0
  1  2  1  0  0  0  0
  1 19  1  0  0  0  0
  1 20  1  0  0  0  0
  1 21  1  0  0  0  0
  2 11  1  0  0  0  0
  2  3  2  0  0  0  0
  3  4  1  0  0  0  0
  4  5  1  0  0  0  0
  4  9  1  0  0  0  0
  5  6  1  0  0  0  0
  5 22  1  0  0  0  0
  5 23  1  0  0  0  0
  6  7  1  0  0  0  0
  6  8  1  0  0  0  0
  6 24  1  0  0  0  0
  7 25  1  0  0  0  0
  7 26  1  0  0  0  0
  7 27  1  0  0  0  0
  8 28  1  0  0  0  0
  8 29  1  0  0  0  0
  8 30  1  0  0  0  0
  9 10  1  0  0  0  0
  9 11  2  0  0  0  0
 10 31  1  0  0  0  0
 10 32  1  0  0  0  0
 10 33  1  0  0  0  0
 11 12  1  0  0  0  0
 12 13  1  0  0  0  0
 12 34  1  0  0  0  0
 12 35  1  0  0  0  0
 13 14  2  0  0  0  0
 13 15  1  0  0  0  0
 15 16  1  0  0  0  0
 15 36  1  0  0  0  0
 16 18  1  0  0  0  0
 16 17  1  0  0  0  0
 16 37  1  0  0  0  0
 17 18  1  0  0  0  0
 17 38  1  0  0  0  0
 17 39  1  0  0  0  0
 18 40  1  0  0  0  0
 18 41  1  0  0  0  0
M  END
> <s_m_source_file>
AV-unprocessed.smi

> <i_m_source_file_index>
440

> <i_lp_mmshare_version>
43012

> <i_f3d_flags>
0

> <s_epik_input>
W0NIM11jMW5uKFtDSDJdW0NIXShbQ0gzXSlbQ0gzXSljKFtDSDNdKWMxW0NIMl1DKD1PKVtOSF1bQ0hdMltDSDJdW0NIMl0y

> <s_epik_cmdline>
J2VwaWtfcHl0aG9uJywgJy1waCcsICc3LjAnLCAnLXRuJywgJzgnLCAnLW1hJywgJzIwMCcsICctbWV0YWxfYmluZGluZycsICctaW1hZScsICc8aW5maWxlLm1hZT4nLCAnLW9tYWUnLCAnPG91dGZpbGUubWFlPic=

> <r_lp_tautomer_probability>
1

> <r_epik_Ionization_Penalty>
0.00313774

> <r_epik_Ionization_Penalty_Charging>
0

> <r_epik_Ionization_Penalty_Neutral>
0.00313774

> <r_epik_State_Penalty>
0.00220979

> <r_epik_Charging_Adjusted_Penalty>
0.00220979

> <i_epik_Tot_Q>
0

> <i_epik_Tot_abs_Q>
0

> <r_epik_Metal_State_Penalty>
-0

> <b_epik_Metal_Only>
0

> <s_lp_Force_Field>
OPLS_2005

> <r_lp_Energy>
13.2521

> <b_lp_Chiralities_Consistent>
1

> <s_lp_Variant>
AV-unprocessed.smi:440-1

> <Gold.Version>
5.8.1

> <Gold.Id.Protein>
6NUR|6NUR_protein|mol2

> <Gold.PLP.Fitness>
42.6360

> <Gold.PLP.PLP>
-40.8093

> <Gold.PLP.part.hbond>
-1.0700

> <Gold.PLP.part.metal>
0.0000

> <Gold.PLP.part.buried>
-1.1121

> <Gold.PLP.part.nonpolar>
-39.4756

> <Gold.PLP.part.repulsive>
0.1652

> <Gold.PLP.ligand.clash>
0.0000

> <Gold.PLP.ligand.torsion>
0.6057

> <Gold.PLP.Chemscore.Hbond>
0.9913

> <Gold.PLP.Chemscore.CHOScore>
0.0000

> <Gold.PLP.Chemscore.Metal>
0.0000

> <Gold.Chemscore.Hbonds>
donor molecule, donor type, donor heavy atom, donor atom, acceptor molecule, acceptor atom, score
      L1  H    15    36       P1  7957  1.00

> <Gold.PLP.Chemscore.Internal.Correction>
0.0644

> <Gold.Rescore>
     Score         DG    S(hbond)    S(metal)    S(lipo)     H(rot)  DE(clash)    DE(int)     intcor
     16.14     -17.65       0.99        0.00     109.36       1.53       0.10       1.41       ----

> <Gold.Chemscore.Fitness>
16.1402

> <Gold.Chemscore.DG>
-17.6503

> <Gold.Chemscore.ZeroCoef>
-5.4800

> <Gold.Chemscore.Hbond>
0.9888

> <Gold.Chemscore.Metal>
0.0000

> <Gold.Chemscore.Lipo>
109.3623

> <Gold.Chemscore.Internal_Hbond>
0.0000

> <Gold.Chemscore.DEClash>
0.0978

> <Gold.Chemscore.DEInternal>
1.4123

> <Gold.Chemscore.Rot>
1.5342

> <Gold.Chemscore.Internal.Correction>
   9.000000E+99

> <Gold.Chemscore.Hbonds>
donor molecule, donor type, donor heavy atom, donor atom, acceptor molecule, acceptor atom, score
      L1  H    15    36       P1  7957  0.99

> <Gold.Chemscore.Hbond.Weighted>
-3.3025

> <Gold.Chemscore.Metal.Weighted>
-0.0000

> <Gold.Chemscore.Lipo.Weighted>
-12.7954

> <Gold.Chemscore.Internal_Hbond.Weighted>
0.0000

> <Gold.Chemscore.DEClash.Weighted>
0.0978

> <Gold.Chemscore.DEInternal.Weighted>
1.4123

> <Gold.Chemscore.Rot.Weighted>
3.9276

> <Gold.Chemscore.Internal.Correction.Weighted>
   9.000000E+99

> <Gold.Protein.RotatedTorsions>
[ 6907 6896 6895 6894 ] final  -32.60 input  -60.11 | X-H torsion
[ 7974 7965 7964 7962 ] final  177.66 input  175.53 | X-H torsion
[ 8008 7997 7996 7995 ] final  -72.46 input   59.86 | X-H torsion
[ 10167 10162 10161 10158 ] final   78.20 input  -65.29 | X-H torsion
[ 10718 10713 10712 10709 ] final -125.10 input   66.30 | X-H torsion
[ 10763 10752 10751 10750 ] final  -96.48 input  -60.55 | X-H torsion
[ 11005 11000 10999 10996 ] final  -29.16 input  -57.11 | X-H torsion

> <Gold.Protein.ActiveResidues>
 VAL166  LYS551  ARG553  GLY616  TRP617  ASP618  TYR619  PRO620  LYS621  CYS622 
 ASP623  PHE694  ASN695  SER759  ASP760  ASP761  ALA762  ILE779  LEU786  VAL792 
 PHE793  MET794  SER795  GLU796  ALA797  LYS798  CYS799  TRP800  GLU811  SER814 

> <Gold.Protein.RotatedAtoms>
  151.0766  134.9832  159.8335 H   0  0  0  0  0  0  0  0  0  0  0  0  # atno 6907 bound_to 6896
  152.5415  134.2233  159.8806 H   0  0  0  0  0  0  0  0  0  0  0  0  # atno 6908 bound_to 6896
  151.2261  133.4432  159.2636 H   0  0  0  0  0  0  0  0  0  0  0  0  # atno 6909 bound_to 6896
  144.7166  140.0281  143.6439 H   0  0  0  0  0  0  0  0  0  0  0  0  # atno 7974 bound_to 7965
  154.5168  140.0797  156.8097 H   0  0  0  0  0  0  0  0  0  0  0  0  # atno 8008 bound_to 7997
  155.3662  140.3420  155.4224 H   0  0  0  0  0  0  0  0  0  0  0  0  # atno 8009 bound_to 7997
  156.1637  140.1597  156.8556 H   0  0  0  0  0  0  0  0  0  0  0  0  # atno 8010 bound_to 7997
  139.9735  144.5877  150.7964 H   0  0  0  0  0  0  0  0  0  0  0  0  # atno 10167 bound_to 10162
  156.1646  130.6625  151.0096 H   0  0  0  0  0  0  0  0  0  0  0  0  # atno 10718 bound_to 10713
  154.7243  135.5082  153.8861 H   0  0  0  0  0  0  0  0  0  0  0  0  # atno 10763 bound_to 10752
  153.0890  135.6654  153.9900 H   0  0  0  0  0  0  0  0  0  0  0  0  # atno 10764 bound_to 10752
  153.9716  135.3038  155.3406 H   0  0  0  0  0  0  0  0  0  0  0  0  # atno 10765 bound_to 10752
  140.9272  133.7361  156.0884 H   0  0  0  0  0  0  0  0  0  0  0  0  # atno 11005 bound_to 11000
  146.0125  139.3182  143.0862 LP  0  0  0  0  0  0  0  0  0  0  0  0  # atno 17320 bound_to 7965
  145.8665  140.9445  143.0673 LP  0  0  0  0  0  0  0  0  0  0  0  0  # atno 17321 bound_to 7965
  140.7514  143.2971  151.3175 LP  0  0  0  0  0  0  0  0  0  0  0  0  # atno 17342 bound_to 10162
  139.6463  144.0445  152.2593 LP  0  0  0  0  0  0  0  0  0  0  0  0  # atno 17343 bound_to 10162
  157.6758  131.0851  150.7498 LP  0  0  0  0  0  0  0  0  0  0  0  0  # atno 17370 bound_to 10713
  156.7560  130.4783  149.5447 LP  0  0  0  0  0  0  0  0  0  0  0  0  # atno 17371 bound_to 10713
  140.7911  134.3617  157.5464 LP  0  0  0  0  0  0  0  0  0  0  0  0  # atno 17394 bound_to 11000
  139.8788  134.9140  156.3098 LP  0  0  0  0  0  0  0  0  0  0  0  0  # atno 17395 bound_to 11000

$$$$
