AV-unprocessed.smi:672|AV-procd|sdf|3290|dock9
  -GOLD-   22720 0253D 1   1.00000     0.00000
 Structure written by MMmdl.
 36 37  0  0  0  0  0  0  0  0  1 V2000
  150.1192  142.3546  157.7976 C   0  0  0  0  0  0  0  0  0  0  0  0
  150.9965  142.3259  156.5416 C   0  0  0  0  0  0  0  0  0  0  0  0
  150.6446  141.2046  155.6218 C   0  0  0  0  0  0  0  0  0  0  0  0
  151.5217  140.2571  155.2675 N   0  0  0  0  0  0  0  0  0  0  0  0
  150.9585  139.3056  154.4290 N   0  0  0  0  0  0  0  0  0  0  0  0
  149.6645  139.5559  154.1868 C   0  0  0  0  0  0  0  0  0  0  0  0
  148.8436  138.7411  153.3632 N   0  0  0  0  0  0  0  0  0  0  0  0
  147.5309  138.8732  153.1037 C   0  0  0  0  0  0  0  0  0  0  0  0
  146.8009  139.7580  153.5516 O   0  0  0  0  0  0  0  0  0  0  0  0
  147.1006  137.9085  152.2781 N   0  0  0  0  0  0  0  0  0  0  0  0
  145.7281  137.7640  151.7992 C   0  0  1  0  0  0  0  0  0  0  0  0
  145.5873  136.5663  150.8386 C   0  0  0  0  0  0  0  0  0  0  0  0
  144.7969  135.5041  151.6027 C   0  0  0  0  0  0  0  0  0  0  0  0
  143.8899  136.3106  152.5303 C   0  0  1  0  0  0  0  0  0  0  0  0
  143.2628  135.3462  153.9359 S   0  0  0  0  0  0  0  0  0  0  0  0
  141.8430  134.5297  153.1599 C   0  0  0  0  0  0  0  0  0  0  0  0
  144.7657  137.4875  152.9699 C   0  0  0  0  0  0  0  0  0  0  0  0
  149.0235  140.9889  154.9718 S   0  0  0  0  0  0  0  0  0  0  0  0
  150.3980  143.1843  158.4472 H   0  0  0  0  0  0  0  0  0  0  0  0
  150.2231  141.4329  158.3710 H   0  0  0  0  0  0  0  0  0  0  0  0
  149.0664  142.4722  157.5393 H   0  0  0  0  0  0  0  0  0  0  0  0
  150.8987  143.2666  155.9991 H   0  0  0  0  0  0  0  0  0  0  0  0
  152.0464  142.2365  156.8229 H   0  0  0  0  0  0  0  0  0  0  0  0
  149.3120  137.9656  152.9181 H   0  0  0  0  0  0  0  0  0  0  0  0
  147.7681  137.2230  151.9563 H   0  0  0  0  0  0  0  0  0  0  0  0
  145.4211  138.6780  151.2871 H   0  0  0  0  0  0  0  0  0  0  0  0
  145.0170  136.8766  149.9621 H   0  0  0  0  0  0  0  0  0  0  0  0
  146.5419  136.1816  150.4771 H   0  0  0  0  0  0  0  0  0  0  0  0
  144.2414  134.8430  150.9373 H   0  0  0  0  0  0  0  0  0  0  0  0
  145.4822  134.8903  152.1891 H   0  0  0  0  0  0  0  0  0  0  0  0
  143.0434  136.6962  151.9602 H   0  0  0  0  0  0  0  0  0  0  0  0
  141.3137  133.9220  153.8939 H   0  0  0  0  0  0  0  0  0  0  0  0
  142.1693  133.8800  152.3480 H   0  0  0  0  0  0  0  0  0  0  0  0
  141.1497  135.2691  152.7590 H   0  0  0  0  0  0  0  0  0  0  0  0
  145.3262  137.2097  153.8643 H   0  0  0  0  0  0  0  0  0  0  0  0
  144.1695  138.3638  153.2261 H   0  0  0  0  0  0  0  0  0  0  0  0
  1  2  1  0  0  0  0
  1 19  1  0  0  0  0
  1 20  1  0  0  0  0
  1 21  1  0  0  0  0
  2  3  1  0  0  0  0
  2 22  1  0  0  0  0
  2 23  1  0  0  0  0
  3 18  1  0  0  0  0
  3  4  2  0  0  0  0
  4  5  1  0  0  0  0
  5  6  2  0  0  0  0
  6  7  1  0  0  0  0
  6 18  1  0  0  0  0
  7  8  1  0  0  0  0
  7 24  1  0  0  0  0
  8  9  2  0  0  0  0
  8 10  1  0  0  0  0
 10 11  1  0  0  0  0
 10 25  1  0  0  0  0
 11 17  1  0  0  0  0
 11 12  1  0  0  0  0
 11 26  1  0  0  0  0
 12 13  1  0  0  0  0
 12 27  1  0  0  0  0
 12 28  1  0  0  0  0
 13 14  1  0  0  0  0
 13 29  1  0  0  0  0
 13 30  1  0  0  0  0
 14 15  1  0  0  0  0
 14 17  1  0  0  0  0
 14 31  1  0  0  0  0
 15 16  1  0  0  0  0
 16 32  1  0  0  0  0
 16 33  1  0  0  0  0
 16 34  1  0  0  0  0
 17 35  1  0  0  0  0
 17 36  1  0  0  0  0
M  END
> <s_m_source_file>
AV-unprocessed.smi

> <i_m_source_file_index>
672

> <i_lp_mmshare_version>
43012

> <i_f3d_flags>
0

> <s_epik_input>
W0NIM11bQ0gyXWMxbm5jKHMxKVtOSF1DKD1PKVtOSF1bQ0BASF0yW0NIMl1bQ0gyXVtDQEhdKFtDSDJdMilTW0NIM10=

> <s_epik_cmdline>
J2VwaWtfcHl0aG9uJywgJy1waCcsICc3LjAnLCAnLXRuJywgJzgnLCAnLW1hJywgJzIwMCcsICctbWV0YWxfYmluZGluZycsICctaW1hZScsICc8aW5maWxlLm1hZT4nLCAnLW9tYWUnLCAnPG91dGZpbGUubWFlPic=

> <r_lp_tautomer_probability>
1

> <r_epik_Ionization_Penalty>
0.000422169

> <r_epik_Ionization_Penalty_Charging>
0

> <r_epik_Ionization_Penalty_Neutral>
0.000422169

> <r_epik_State_Penalty>
-0

> <r_epik_Charging_Adjusted_Penalty>
0

> <i_epik_Tot_Q>
0

> <i_epik_Tot_abs_Q>
0

> <r_epik_Metal_State_Penalty>
0.200061

> <b_epik_Metal_Only>
0

> <s_lp_Force_Field>
OPLS_2005

> <r_lp_Energy>
11.4796

> <b_lp_Chiralities_Consistent>
1

> <s_lp_Variant>
AV-unprocessed.smi:672-2

> <Gold.Version>
5.8.1

> <Gold.Id.Protein>
6NUR|6NUR_protein|mol2

> <Gold.PLP.Fitness>
36.4530

> <Gold.PLP.PLP>
-31.2875

> <Gold.PLP.part.hbond>
-4.9551

> <Gold.PLP.part.metal>
0.0000

> <Gold.PLP.part.buried>
3.2775

> <Gold.PLP.part.nonpolar>
-29.2673

> <Gold.PLP.part.repulsive>
0.4860

> <Gold.PLP.ligand.clash>
0.0000

> <Gold.PLP.ligand.torsion>
0.2427

> <Gold.PLP.Chemscore.Hbond>
1.8800

> <Gold.PLP.Chemscore.CHOScore>
0.0000

> <Gold.PLP.Chemscore.Metal>
0.0000

> <Gold.Chemscore.Hbonds>
donor molecule, donor type, donor heavy atom, donor atom, acceptor molecule, acceptor atom, score
      L1  H     7    24       P1  7948  0.86
      L1  H    10    25       P1  7948  0.99

> <Gold.PLP.Chemscore.Internal.Correction>
0.0109

> <Gold.Rescore>
     Score         DG    S(hbond)    S(metal)    S(lipo)     H(rot)  DE(clash)    DE(int)     intcor
     11.53     -15.45       1.70        0.00      66.46       1.37       1.91       2.01       ----

> <Gold.Chemscore.Fitness>
11.5312

> <Gold.Chemscore.DG>
-15.4494

> <Gold.Chemscore.ZeroCoef>
-5.4800

> <Gold.Chemscore.Hbond>
1.7043

> <Gold.Chemscore.Metal>
0.0000

> <Gold.Chemscore.Lipo>
66.4628

> <Gold.Chemscore.Internal_Hbond>
0.0000

> <Gold.Chemscore.DEClash>
1.9062

> <Gold.Chemscore.DEInternal>
2.0120

> <Gold.Chemscore.Rot>
1.3669

> <Gold.Chemscore.Internal.Correction>
   9.000000E+99

> <Gold.Chemscore.Hbonds>
donor molecule, donor type, donor heavy atom, donor atom, acceptor molecule, acceptor atom, score
      L1  H     7    24       P1  7948  0.76
      L1  H    10    25       P1  7948  0.92

> <Gold.Chemscore.Hbond.Weighted>
-5.6925

> <Gold.Chemscore.Metal.Weighted>
-0.0000

> <Gold.Chemscore.Lipo.Weighted>
-7.7761

> <Gold.Chemscore.Internal_Hbond.Weighted>
0.0000

> <Gold.Chemscore.DEClash.Weighted>
1.9062

> <Gold.Chemscore.DEInternal.Weighted>
2.0120

> <Gold.Chemscore.Rot.Weighted>
3.4992

> <Gold.Chemscore.Internal.Correction.Weighted>
   9.000000E+99

> <Gold.Protein.RotatedTorsions>
[ 6907 6896 6895 6894 ] final   82.54 input  -60.11 | X-H torsion
[ 7974 7965 7964 7962 ] final  -87.26 input  175.53 | X-H torsion
[ 8008 7997 7996 7995 ] final  -29.65 input   59.86 | X-H torsion
[ 10167 10162 10161 10158 ] final  169.73 input  -65.29 | X-H torsion
[ 10718 10713 10712 10709 ] final -136.72 input   66.30 | X-H torsion
[ 10763 10752 10751 10750 ] final -132.27 input  -60.55 | X-H torsion
[ 11005 11000 10999 10996 ] final -116.44 input  -57.11 | X-H torsion

> <Gold.Protein.ActiveResidues>
 VAL166  LYS551  ARG553  GLY616  TRP617  ASP618  TYR619  PRO620  LYS621  CYS622 
 ASP623  PHE694  ASN695  SER759  ASP760  ASP761  ALA762  ILE779  LEU786  VAL792 
 PHE793  MET794  SER795  GLU796  ALA797  LYS798  CYS799  TRP800  GLU811  SER814 

> <Gold.Protein.RotatedAtoms>
  152.5302  134.3035  159.9086 H   0  0  0  0  0  0  0  0  0  0  0  0  # atno 6907 bound_to 6896
  151.2985  133.4126  159.2645 H   0  0  0  0  0  0  0  0  0  0  0  0  # atno 6908 bound_to 6896
  151.0139  134.9434  159.8080 H   0  0  0  0  0  0  0  0  0  0  0  0  # atno 6909 bound_to 6896
  145.4689  140.9560  143.1928 H   0  0  0  0  0  0  0  0  0  0  0  0  # atno 7974 bound_to 7965
  154.4281  140.1812  156.1281 H   0  0  0  0  0  0  0  0  0  0  0  0  # atno 8008 bound_to 7997
  156.0089  140.3352  155.6896 H   0  0  0  0  0  0  0  0  0  0  0  0  # atno 8009 bound_to 7997
  155.6138  140.0653  157.2689 H   0  0  0  0  0  0  0  0  0  0  0  0  # atno 8010 bound_to 7997
  139.5000  144.3674  151.9760 H   0  0  0  0  0  0  0  0  0  0  0  0  # atno 10167 bound_to 10162
  156.2801  130.7316  151.1310 H   0  0  0  0  0  0  0  0  0  0  0  0  # atno 10718 bound_to 10713
  154.8744  135.3803  154.4383 H   0  0  0  0  0  0  0  0  0  0  0  0  # atno 10763 bound_to 10752
  153.5070  135.7030  153.5806 H   0  0  0  0  0  0  0  0  0  0  0  0  # atno 10764 bound_to 10752
  153.4112  135.3924  155.2018 H   0  0  0  0  0  0  0  0  0  0  0  0  # atno 10765 bound_to 10752
  141.0422  133.9818  157.2976 H   0  0  0  0  0  0  0  0  0  0  0  0  # atno 11005 bound_to 11000
  144.7957  139.6239  143.7094 LP  0  0  0  0  0  0  0  0  0  0  0  0  # atno 17320 bound_to 7965
  146.2408  139.5997  142.9493 LP  0  0  0  0  0  0  0  0  0  0  0  0  # atno 17321 bound_to 7965
  140.3110  144.3537  150.6034 LP  0  0  0  0  0  0  0  0  0  0  0  0  # atno 17342 bound_to 10162
  140.5798  143.2173  151.7449 LP  0  0  0  0  0  0  0  0  0  0  0  0  # atno 17343 bound_to 10162
  157.7312  131.0610  150.5691 LP  0  0  0  0  0  0  0  0  0  0  0  0  # atno 17370 bound_to 10713
  156.5796  130.4301  149.5983 LP  0  0  0  0  0  0  0  0  0  0  0  0  # atno 17371 bound_to 10713
  139.9284  135.0201  156.8316 LP  0  0  0  0  0  0  0  0  0  0  0  0  # atno 17394 bound_to 11000
  140.6213  133.9991  155.7620 LP  0  0  0  0  0  0  0  0  0  0  0  0  # atno 17395 bound_to 11000

$$$$
