AV-unprocessed.smi:2043|AV-procd|sdf|8297|dock4
  -GOLD-   2272010563D 1   1.00000     0.00000
 Structure written by MMmdl.
 28 29  0  0  0  0  0  0  0  0  2 V2000
  148.6911  141.1056  154.5175 C   0  0  0  0  0  0  0  0  0  0  0  0
  149.9327  140.5760  155.1489 C   0  0  0  0  0  0  0  0  0  0  0  0
  150.7173  139.6750  154.5528 N   0  0  0  0  0  0  0  0  0  0  0  0
  151.8121  139.3362  155.3351 N   0  0  0  0  0  0  0  0  0  0  0  0
  151.8465  139.9921  156.5039 C   0  0  0  0  0  0  0  0  0  0  0  0
  152.8233  139.8063  157.4073 N   0  5  0  0  0  0  0  0  0  0  0  0
  152.6559  140.2325  158.6801 C   0  0  0  0  0  0  0  0  0  0  0  0
  151.5799  140.4470  159.2433 O   0  0  0  0  0  0  0  0  0  0  0  0
  153.8045  140.4190  159.3440 N   0  0  0  0  0  0  0  0  0  0  0  0
  153.9126  140.8661  160.7264 C   0  0  0  0  0  0  0  0  0  0  0  0
  153.6609  142.3660  160.8231 C   0  0  0  0  0  0  0  0  0  0  0  0
  152.9285  142.9352  162.0472 C   0  0  0  0  0  0  0  0  0  0  0  0
  152.2916  143.9776  161.1240 C   0  0  0  0  0  0  0  0  0  0  0  0
  152.5672  143.0183  159.9630 C   0  0  0  0  0  0  0  0  0  0  0  0
  150.4833  141.0866  156.7358 S   0  0  0  0  0  0  0  0  0  0  0  0
  148.9443  141.7111  153.6471 H   0  0  0  0  0  0  0  0  0  0  0  0
  148.1389  141.7239  155.2255 H   0  0  0  0  0  0  0  0  0  0  0  0
  148.0507  140.2822  154.2002 H   0  0  0  0  0  0  0  0  0  0  0  0
  154.6661  140.2362  158.8506 H   0  0  0  0  0  0  0  0  0  0  0  0
  153.1948  140.3147  161.3354 H   0  0  0  0  0  0  0  0  0  0  0  0
  154.9052  140.6272  161.1111 H   0  0  0  0  0  0  0  0  0  0  0  0
  154.5913  142.9223  160.6878 H   0  0  0  0  0  0  0  0  0  0  0  0
  152.1977  142.2406  162.4650 H   0  0  0  0  0  0  0  0  0  0  0  0
  153.5809  143.3445  162.8191 H   0  0  0  0  0  0  0  0  0  0  0  0
  151.2364  144.1744  161.3147 H   0  0  0  0  0  0  0  0  0  0  0  0
  152.8729  144.8987  161.0598 H   0  0  0  0  0  0  0  0  0  0  0  0
  152.9280  143.4946  159.0510 H   0  0  0  0  0  0  0  0  0  0  0  0
  151.7298  142.3482  159.7621 H   0  0  0  0  0  0  0  0  0  0  0  0
  1  2  1  0  0  0  0
  1 16  1  0  0  0  0
  1 17  1  0  0  0  0
  1 18  1  0  0  0  0
  2 15  1  0  0  0  0
  2  3  2  0  0  0  0
  3  4  1  0  0  0  0
  4  5  2  0  0  0  0
  5  6  1  0  0  0  0
  5 15  1  0  0  0  0
  6  7  1  0  0  0  0
  7  8  2  0  0  0  0
  7  9  1  0  0  0  0
  9 10  1  0  0  0  0
  9 19  1  0  0  0  0
 10 11  1  0  0  0  0
 10 20  1  0  0  0  0
 10 21  1  0  0  0  0
 11 14  1  0  0  0  0
 11 12  1  0  0  0  0
 11 22  1  0  0  0  0
 12 13  1  0  0  0  0
 12 23  1  0  0  0  0
 12 24  1  0  0  0  0
 13 14  1  0  0  0  0
 13 25  1  0  0  0  0
 13 26  1  0  0  0  0
 14 27  1  0  0  0  0
 14 28  1  0  0  0  0
M  CHG  1   6  -1
M  END
> <s_m_source_file>
AV-unprocessed.smi

> <i_m_source_file_index>
2043

> <i_lp_mmshare_version>
43012

> <i_f3d_flags>
0

> <s_epik_input>
W0NIM11jMW5uYyhzMSlbTkhdQyg9TylbTkhdW0NIMl1bQ0hdMltDSDJdW0NIMl1bQ0gyXTI=

> <s_epik_cmdline>
J2VwaWtfcHl0aG9uJywgJy1waCcsICc3LjAnLCAnLXRuJywgJzgnLCAnLW1hJywgJzIwMCcsICctbWV0YWxfYmluZGluZycsICctaW1hZScsICc8aW5maWxlLm1hZT4nLCAnLW9tYWUnLCAnPG91dGZpbGUubWFlPic=

> <r_lp_tautomer_probability>
1

> <r_epik_Ionization_Penalty>
4.53283

> <r_epik_Ionization_Penalty_Charging>
4.38642

> <r_epik_Ionization_Penalty_Neutral>
0.146407

> <r_epik_State_Penalty>
4.38606

> <r_epik_Charging_Adjusted_Penalty>
8.77248

> <i_epik_Tot_Q>
-1

> <i_epik_Tot_abs_Q>
1

> <r_epik_Metal_State_Penalty>
0.765318

> <b_epik_Metal_Only>
1

> <s_lp_Force_Field>
OPLS_2005

> <r_lp_Energy>
10.5339

> <b_lp_Chiralities_Consistent>
1

> <s_lp_Variant>
AV-unprocessed.smi:2043-2

> <Gold.Version>
5.8.1

> <Gold.Id.Protein>
6NUR|6NUR_protein|mol2

> <Gold.PLP.Fitness>
43.5842

> <Gold.PLP.PLP>
-35.8912

> <Gold.PLP.part.hbond>
-2.6523

> <Gold.PLP.part.metal>
0.0000

> <Gold.PLP.part.buried>
-3.2184

> <Gold.PLP.part.nonpolar>
-28.9226

> <Gold.PLP.part.repulsive>
0.2047

> <Gold.PLP.ligand.clash>
0.0000

> <Gold.PLP.ligand.torsion>
0.6139

> <Gold.PLP.Chemscore.Hbond>
2.9500

> <Gold.PLP.Chemscore.CHOScore>
0.0000

> <Gold.PLP.Chemscore.Metal>
0.0000

> <Gold.Chemscore.Hbonds>
donor molecule, donor type, donor heavy atom, donor atom, acceptor molecule, acceptor atom, score
      P1  H  7989  7998       L1     3  0.64
      P1  H  7997  8010       L1     6  2.00

> <Gold.PLP.Chemscore.Internal.Correction>
0.0707

> <Gold.Rescore>
     Score         DG    S(hbond)    S(metal)    S(lipo)     H(rot)  DE(clash)    DE(int)     intcor
     12.31     -14.33       0.89        0.00      77.84       1.26       0.03       1.99       ----

> <Gold.Chemscore.Fitness>
12.3125

> <Gold.Chemscore.DG>
-14.3332

> <Gold.Chemscore.ZeroCoef>
-5.4800

> <Gold.Chemscore.Hbond>
0.8899

> <Gold.Chemscore.Metal>
0.0000

> <Gold.Chemscore.Lipo>
77.8437

> <Gold.Chemscore.Internal_Hbond>
0.0000

> <Gold.Chemscore.DEClash>
0.0263

> <Gold.Chemscore.DEInternal>
1.9943

> <Gold.Chemscore.Rot>
1.2605

> <Gold.Chemscore.Internal.Correction>
   9.000000E+99

> <Gold.Chemscore.Hbonds>
donor molecule, donor type, donor heavy atom, donor atom, acceptor molecule, acceptor atom, score
      P1  H  7989  7998       L1     3  0.01
      P1  H  7997  8010       L1     6  0.76

> <Gold.Chemscore.Hbond.Weighted>
-2.9723

> <Gold.Chemscore.Metal.Weighted>
-0.0000

> <Gold.Chemscore.Lipo.Weighted>
-9.1077

> <Gold.Chemscore.Internal_Hbond.Weighted>
0.0000

> <Gold.Chemscore.DEClash.Weighted>
0.0263

> <Gold.Chemscore.DEInternal.Weighted>
1.9943

> <Gold.Chemscore.Rot.Weighted>
3.2269

> <Gold.Chemscore.Internal.Correction.Weighted>
   9.000000E+99

> <Gold.Protein.RotatedTorsions>
[ 6907 6896 6895 6894 ] final   58.80 input  -60.11 | X-H torsion
[ 7974 7965 7964 7962 ] final  -70.66 input  175.53 | X-H torsion
[ 8008 7997 7996 7995 ] final   46.52 input   59.86 | X-H torsion
[ 10167 10162 10161 10158 ] final   51.02 input  -65.29 | X-H torsion
[ 10718 10713 10712 10709 ] final -133.40 input   66.30 | X-H torsion
[ 10763 10752 10751 10750 ] final   42.85 input  -60.55 | X-H torsion
[ 11005 11000 10999 10996 ] final  161.69 input  -57.11 | X-H torsion

> <Gold.Protein.ActiveResidues>
 VAL166  LYS551  ARG553  GLY616  TRP617  ASP618  TYR619  PRO620  LYS621  CYS622 
 ASP623  PHE694  ASN695  SER759  ASP760  ASP761  ALA762  ILE779  LEU786  VAL792 
 PHE793  MET794  SER795  GLU796  ALA797  LYS798  CYS799  TRP800  GLU811  SER814 

> <Gold.Protein.RotatedAtoms>
  152.3857  134.6520  160.0126 H   0  0  0  0  0  0  0  0  0  0  0  0  # atno 6907 bound_to 6896
  151.6770  133.3307  159.3218 H   0  0  0  0  0  0  0  0  0  0  0  0  # atno 6908 bound_to 6896
  150.7784  134.6750  159.6457 H   0  0  0  0  0  0  0  0  0  0  0  0  # atno 6909 bound_to 6896
  145.6881  140.9163  143.0796 H   0  0  0  0  0  0  0  0  0  0  0  0  # atno 7974 bound_to 7965
  155.3538  140.3415  155.4239 H   0  0  0  0  0  0  0  0  0  0  0  0  # atno 8008 bound_to 7997
  156.1750  140.1644  156.8415 H   0  0  0  0  0  0  0  0  0  0  0  0  # atno 8009 bound_to 7997
  154.5272  140.0753  156.8262 H   0  0  0  0  0  0  0  0  0  0  0  0  # atno 8010 bound_to 7997
  140.2663  144.3316  150.6303 H   0  0  0  0  0  0  0  0  0  0  0  0  # atno 10167 bound_to 10162
  156.2446  130.7116  151.0991 H   0  0  0  0  0  0  0  0  0  0  0  0  # atno 10718 bound_to 10713
  152.9873  135.6119  154.3016 H   0  0  0  0  0  0  0  0  0  0  0  0  # atno 10763 bound_to 10752
  154.2736  135.2779  155.2729 H   0  0  0  0  0  0  0  0  0  0  0  0  # atno 10764 bound_to 10752
  154.5100  135.5843  153.6654 H   0  0  0  0  0  0  0  0  0  0  0  0  # atno 10765 bound_to 10752
  140.2183  134.8215  157.3193 H   0  0  0  0  0  0  0  0  0  0  0  0  # atno 11005 bound_to 11000
  144.7005  139.8786  143.7445 LP  0  0  0  0  0  0  0  0  0  0  0  0  # atno 17320 bound_to 7965
  146.0905  139.3895  143.0408 LP  0  0  0  0  0  0  0  0  0  0  0  0  # atno 17321 bound_to 7965
  140.5925  143.2167  151.7225 LP  0  0  0  0  0  0  0  0  0  0  0  0  # atno 17342 bound_to 10162
  139.5002  144.3917  152.0273 LP  0  0  0  0  0  0  0  0  0  0  0  0  # atno 17343 bound_to 10162
  157.7189  131.0693  150.6215 LP  0  0  0  0  0  0  0  0  0  0  0  0  # atno 17370 bound_to 10713
  156.6290  130.4427  149.5793 LP  0  0  0  0  0  0  0  0  0  0  0  0  # atno 17371 bound_to 10713
  140.1877  134.4411  155.7734 LP  0  0  0  0  0  0  0  0  0  0  0  0  # atno 17394 bound_to 11000
  141.2224  133.7012  156.7975 LP  0  0  0  0  0  0  0  0  0  0  0  0  # atno 17395 bound_to 11000

$$$$
