AV-unprocessed.smi:420|AV-procd|sdf|2532|dock5
  -GOLD-   2262022493D 1   1.00000     0.00000
 Structure written by MMmdl.
 36 38  0  0  0  0  0  0  0  0  1 V2000
  154.5182  139.8992  160.9391 C   0  0  0  0  0  0  0  0  0  0  0  0
  153.5831  140.7262  160.1863 N   0  0  0  0  0  0  0  0  0  0  0  0
  153.0938  140.4846  158.9472 C   0  0  0  0  0  0  0  0  0  0  0  0
  153.3581  139.5117  158.2410 O   0  0  0  0  0  0  0  0  0  0  0  0
  152.2614  141.5012  158.6206 N   0  0  0  0  0  0  0  0  0  0  0  0
  151.5057  141.6427  157.3779 C   0  0  0  0  0  0  0  0  0  0  0  0
  150.3657  140.6099  157.2768 C   0  0  2  0  0  0  0  0  0  0  0  0
  150.9042  139.3807  156.8315 O   0  0  0  0  0  0  0  0  0  0  0  0
  149.2688  141.1049  156.3466 C   0  0  0  0  0  0  0  0  0  0  0  0
  148.0131  141.4759  156.8740 C   0  0  0  0  0  0  0  0  0  0  0  0
  146.9958  141.9470  156.0212 C   0  0  0  0  0  0  0  0  0  0  0  0
  147.2288  142.0521  154.6365 C   0  0  0  0  0  0  0  0  0  0  0  0
  146.2504  142.5049  153.8175 F   0  0  0  0  0  0  0  0  0  0  0  0
  148.4808  141.6884  154.1049 C   0  0  0  0  0  0  0  0  0  0  0  0
  149.4984  141.2176  154.9572 C   0  0  0  0  0  0  0  0  0  0  0  0
  152.2108  142.4139  159.6841 C   0  0  0  0  0  0  0  0  0  0  0  0
  151.4951  143.6134  159.8420 C   0  0  0  0  0  0  0  0  0  0  0  0
  151.6658  144.3115  161.0606 C   0  0  0  0  0  0  0  0  0  0  0  0
  152.5273  143.8106  162.0714 C   0  0  0  0  0  0  0  0  0  0  0  0
  153.2347  142.5995  161.8862 C   0  0  0  0  0  0  0  0  0  0  0  0
  153.0450  141.9262  160.6675 C   0  0  0  0  0  0  0  0  0  0  0  0
  154.7715  138.9799  160.4095 H   0  0  0  0  0  0  0  0  0  0  0  0
  154.0869  139.6236  161.9017 H   0  0  0  0  0  0  0  0  0  0  0  0
  155.4421  140.4485  161.1222 H   0  0  0  0  0  0  0  0  0  0  0  0
  151.0853  142.6492  157.3741 H   0  0  0  0  0  0  0  0  0  0  0  0
  152.1598  141.5938  156.5054 H   0  0  0  0  0  0  0  0  0  0  0  0
  149.9291  140.4408  158.2623 H   0  0  0  0  0  0  0  0  0  0  0  0
  151.8461  139.4254  156.8938 H   0  0  0  0  0  0  0  0  0  0  0  0
  147.8257  141.4035  157.9355 H   0  0  0  0  0  0  0  0  0  0  0  0
  146.0368  142.2295  156.4294 H   0  0  0  0  0  0  0  0  0  0  0  0
  148.6618  141.7720  153.0432 H   0  0  0  0  0  0  0  0  0  0  0  0
  150.4576  140.9462  154.5409 H   0  0  0  0  0  0  0  0  0  0  0  0
  150.8404  143.9885  159.0692 H   0  0  0  0  0  0  0  0  0  0  0  0
  151.1342  145.2374  161.2236 H   0  0  0  0  0  0  0  0  0  0  0  0
  152.6436  144.3600  162.9940 H   0  0  0  0  0  0  0  0  0  0  0  0
  153.8910  142.2105  162.6508 H   0  0  0  0  0  0  0  0  0  0  0  0
  1  2  1  0  0  0  0
  1 22  1  0  0  0  0
  1 23  1  0  0  0  0
  1 24  1  0  0  0  0
  2 21  1  0  0  0  0
  2  3  1  0  0  0  0
  3  4  2  0  0  0  0
  3  5  1  0  0  0  0
  5  6  1  0  0  0  0
  5 16  1  0  0  0  0
  6  7  1  0  0  0  0
  6 25  1  0  0  0  0
  6 26  1  0  0  0  0
  7  8  1  0  0  0  0
  7  9  1  0  0  0  0
  7 27  1  0  0  0  0
  8 28  1  0  0  0  0
  9 15  1  0  0  0  0
  9 10  2  0  0  0  0
 10 11  1  0  0  0  0
 10 29  1  0  0  0  0
 11 12  2  0  0  0  0
 11 30  1  0  0  0  0
 12 13  1  0  0  0  0
 12 14  1  0  0  0  0
 14 15  2  0  0  0  0
 14 31  1  0  0  0  0
 15 32  1  0  0  0  0
 16 21  2  0  0  0  0
 16 17  1  0  0  0  0
 17 18  2  0  0  0  0
 17 33  1  0  0  0  0
 18 19  1  0  0  0  0
 18 34  1  0  0  0  0
 19 20  2  0  0  0  0
 19 35  1  0  0  0  0
 20 21  1  0  0  0  0
 20 36  1  0  0  0  0
M  END
> <s_m_source_file>
AV-unprocessed.smi

> <i_m_source_file_index>
420

> <i_lp_mmshare_version>
43012

> <i_f3d_flags>
0

> <s_epik_input>
W2NIXTFbY0hdW2NIXVtjSF1jKGMxMiluKFtDSDNdKWMoPU8pbjJbQ0gyXVtDQEhdKFtPSF0pYzNbY0hdW2NIXWMoRilbY0hdW2NIXTM=

> <s_epik_cmdline>
J2VwaWtfcHl0aG9uJywgJy1waCcsICc3LjAnLCAnLXRuJywgJzgnLCAnLW1hJywgJzIwMCcsICctbWV0YWxfYmluZGluZycsICctaW1hZScsICc8aW5maWxlLm1hZT4nLCAnLW9tYWUnLCAnPG91dGZpbGUubWFlPic=

> <r_lp_tautomer_probability>
1

> <r_epik_Ionization_Penalty>
1.79795e-06

> <r_epik_Ionization_Penalty_Charging>
2.57375e-09

> <r_epik_Ionization_Penalty_Neutral>
1.79538e-06

> <r_epik_State_Penalty>
-0

> <r_epik_Charging_Adjusted_Penalty>
2.57375e-09

> <i_epik_Tot_Q>
0

> <i_epik_Tot_abs_Q>
0

> <r_epik_Metal_State_Penalty>
-0

> <b_epik_Metal_Only>
0

> <s_lp_Force_Field>
OPLS_2005

> <r_lp_Energy>
42.8676

> <b_lp_Chiralities_Consistent>
1

> <s_lp_Variant>
AV-unprocessed.smi:420-1

> <Gold.Version>
5.8.1

> <Gold.Id.Protein>
6NUR|6NUR_protein|mol2

> <Gold.PLP.Fitness>
51.3176

> <Gold.PLP.PLP>
-49.2716

> <Gold.PLP.part.hbond>
-1.0000

> <Gold.PLP.part.metal>
0.0000

> <Gold.PLP.part.buried>
-4.7242

> <Gold.PLP.part.nonpolar>
-43.0653

> <Gold.PLP.part.repulsive>
0.0000

> <Gold.PLP.ligand.clash>
0.0000

> <Gold.PLP.ligand.torsion>
0.4807

> <Gold.PLP.Chemscore.Hbond>
1.0000

> <Gold.PLP.Chemscore.CHOScore>
0.0000

> <Gold.PLP.Chemscore.Metal>
0.0000

> <Gold.Chemscore.Hbonds>
donor molecule, donor type, donor heavy atom, donor atom, acceptor molecule, acceptor atom, score
      P1  H  7997  8008       L1     4  1.00

> <Gold.PLP.Chemscore.Internal.Correction>
0.0074

> <Gold.Rescore>
     Score         DG    S(hbond)    S(metal)    S(lipo)     H(rot)  DE(clash)    DE(int)     intcor
     17.27     -17.89       0.94        0.00     119.67       1.85       0.31       0.31       ----

> <Gold.Chemscore.Fitness>
17.2713

> <Gold.Chemscore.DG>
-17.8905

> <Gold.Chemscore.ZeroCoef>
-5.4800

> <Gold.Chemscore.Hbond>
0.9391

> <Gold.Chemscore.Metal>
0.0000

> <Gold.Chemscore.Lipo>
119.6658

> <Gold.Chemscore.Internal_Hbond>
0.0000

> <Gold.Chemscore.DEClash>
0.3088

> <Gold.Chemscore.DEInternal>
0.3103

> <Gold.Chemscore.Rot>
1.8465

> <Gold.Chemscore.Internal.Correction>
   9.000000E+99

> <Gold.Chemscore.Hbonds>
donor molecule, donor type, donor heavy atom, donor atom, acceptor molecule, acceptor atom, score
      P1  H  7997  8008       L1     4  0.65

> <Gold.Chemscore.Hbond.Weighted>
-3.1366

> <Gold.Chemscore.Metal.Weighted>
-0.0000

> <Gold.Chemscore.Lipo.Weighted>
-14.0009

> <Gold.Chemscore.Internal_Hbond.Weighted>
0.0000

> <Gold.Chemscore.DEClash.Weighted>
0.3088

> <Gold.Chemscore.DEInternal.Weighted>
0.3103

> <Gold.Chemscore.Rot.Weighted>
4.7270

> <Gold.Chemscore.Internal.Correction.Weighted>
   9.000000E+99

> <Gold.Protein.RotatedTorsions>
[ 6907 6896 6895 6894 ] final  158.65 input  -60.11 | X-H torsion
[ 7974 7965 7964 7962 ] final -140.69 input  175.53 | X-H torsion
[ 8008 7997 7996 7995 ] final  -78.15 input   59.86 | X-H torsion
[ 10167 10162 10161 10158 ] final  -48.33 input  -65.29 | X-H torsion
[ 10718 10713 10712 10709 ] final  -25.78 input   66.30 | X-H torsion
[ 10763 10752 10751 10750 ] final -115.06 input  -60.55 | X-H torsion
[ 11005 11000 10999 10996 ] final  142.03 input  -57.11 | X-H torsion

> <Gold.Protein.ActiveResidues>
 VAL166  LYS551  ARG553  GLY616  TRP617  ASP618  TYR619  PRO620  LYS621  CYS622 
 ASP623  PHE694  ASN695  SER759  ASP760  ASP761  ALA762  ILE779  LEU786  VAL792 
 PHE793  MET794  SER795  GLU796  ALA797  LYS798  CYS799  TRP800  GLU811  SER814 

> <Gold.Protein.RotatedAtoms>
  151.9973  133.3812  159.4167 H   0  0  0  0  0  0  0  0  0  0  0  0  # atno 6907 bound_to 6896
  150.6914  134.3872  159.5069 H   0  0  0  0  0  0  0  0  0  0  0  0  # atno 6908 bound_to 6896
  152.1614  134.8908  160.0592 H   0  0  0  0  0  0  0  0  0  0  0  0  # atno 6909 bound_to 6896
  144.8577  140.6170  143.5348 H   0  0  0  0  0  0  0  0  0  0  0  0  # atno 7974 bound_to 7965
  154.5663  140.0699  156.8896 H   0  0  0  0  0  0  0  0  0  0  0  0  # atno 8008 bound_to 7997
  155.2717  140.3365  155.4246 H   0  0  0  0  0  0  0  0  0  0  0  0  # atno 8009 bound_to 7997
  156.2083  140.1749  156.7737 H   0  0  0  0  0  0  0  0  0  0  0  0  # atno 8010 bound_to 7997
  140.6735  143.2745  151.4056 H   0  0  0  0  0  0  0  0  0  0  0  0  # atno 10167 bound_to 10162
  156.4598  130.4501  149.6936 H   0  0  0  0  0  0  0  0  0  0  0  0  # atno 10718 bound_to 10713
  154.8466  135.4395  154.1604 H   0  0  0  0  0  0  0  0  0  0  0  0  # atno 10763 bound_to 10752
  153.2742  135.6948  153.7456 H   0  0  0  0  0  0  0  0  0  0  0  0  # atno 10764 bound_to 10752
  153.6685  135.3423  155.3122 H   0  0  0  0  0  0  0  0  0  0  0  0  # atno 10765 bound_to 10752
  140.0446  134.9287  157.0906 H   0  0  0  0  0  0  0  0  0  0  0  0  # atno 11005 bound_to 11000
  145.4373  139.1540  143.3990 LP  0  0  0  0  0  0  0  0  0  0  0  0  # atno 17320 bound_to 7965
  146.2836  140.4492  142.8766 LP  0  0  0  0  0  0  0  0  0  0  0  0  # atno 17321 bound_to 7965
  139.6016  144.1284  152.2204 LP  0  0  0  0  0  0  0  0  0  0  0  0  # atno 17342 bound_to 10162
  140.0670  144.5810  150.7220 LP  0  0  0  0  0  0  0  0  0  0  0  0  # atno 17343 bound_to 10162
  156.3728  130.7539  151.2524 LP  0  0  0  0  0  0  0  0  0  0  0  0  # atno 17370 bound_to 10713
  157.7498  131.0318  150.4198 LP  0  0  0  0  0  0  0  0  0  0  0  0  # atno 17371 bound_to 10713
  140.4014  134.2078  155.7163 LP  0  0  0  0  0  0  0  0  0  0  0  0  # atno 17394 bound_to 11000
  141.1900  133.8226  157.0934 LP  0  0  0  0  0  0  0  0  0  0  0  0  # atno 17395 bound_to 11000

$$$$
