AV-unprocessed.smi:2568|AV-procd|sdf|10092|dock7
  -GOLD-   2272014113D 1   1.00000     0.00000
 Structure written by MMmdl.
 25 26  0  0  0  0  0  0  0  0  2 V2000
  145.9399  133.3159  156.0066 C   0  0  0  0  0  0  0  0  0  0  0  0
  146.2194  133.7170  154.5984 C   0  0  0  0  0  0  0  0  0  0  0  0
  147.2196  134.5442  154.2987 N   0  0  0  0  0  0  0  0  0  0  0  0
  147.1176  134.6329  152.9559 N   0  0  0  0  0  0  0  0  0  0  0  0
  146.0991  133.8771  152.5386 C   0  0  0  0  0  0  0  0  0  0  0  0
  145.7215  133.7747  151.0945 C   0  0  2  0  0  0  0  0  0  0  0  0
  144.2996  134.3011  150.8194 C   0  0  0  0  0  0  0  0  0  0  0  0
  143.9465  134.0831  149.4031 N   0  3  0  0  0  0  0  0  0  0  0  0
  144.1051  132.6664  149.0186 C   0  0  0  0  0  0  0  0  0  0  0  0
  145.5266  132.1816  149.3540 C   0  0  0  0  0  0  0  0  0  0  0  0
  145.7944  132.3969  150.7360 O   0  0  0  0  0  0  0  0  0  0  0  0
  145.4779  133.2652  153.5429 N   0  0  0  0  0  0  0  0  0  0  0  0
  147.7404  135.1947  152.3931 H   0  0  0  0  0  0  0  0  0  0  0  0
  146.5274  133.9121  156.7057 H   0  0  0  0  0  0  0  0  0  0  0  0
  146.1893  132.2650  156.1541 H   0  0  0  0  0  0  0  0  0  0  0  0
  144.8837  133.4575  156.2373 H   0  0  0  0  0  0  0  0  0  0  0  0
  146.4493  134.3369  150.5059 H   0  0  0  0  0  0  0  0  0  0  0  0
  143.5727  133.7857  151.4489 H   0  0  0  0  0  0  0  0  0  0  0  0
  144.2297  135.3644  151.0510 H   0  0  0  0  0  0  0  0  0  0  0  0
  142.9900  134.3685  149.2475 H   0  0  0  0  0  0  0  0  0  0  0  0
  143.3671  132.0656  149.5520 H   0  0  0  0  0  0  0  0  0  0  0  0
  143.9015  132.5547  147.9535 H   0  0  0  0  0  0  0  0  0  0  0  0
  145.6219  131.1176  149.1367 H   0  0  0  0  0  0  0  0  0  0  0  0
  146.2687  132.6989  148.7439 H   0  0  0  0  0  0  0  0  0  0  0  0
  144.5558  134.6453  148.8262 H   0  0  0  0  0  0  0  0  0  0  0  0
  1  2  1  0  0  0  0
  1 14  1  0  0  0  0
  1 15  1  0  0  0  0
  1 16  1  0  0  0  0
  2 12  1  0  0  0  0
  2  3  2  0  0  0  0
  3  4  1  0  0  0  0
  4 13  1  0  0  0  0
  4  5  1  0  0  0  0
  5  6  1  0  0  0  0
  5 12  2  0  0  0  0
  6 11  1  0  0  0  0
  6  7  1  0  0  0  0
  6 17  1  0  0  0  0
  7  8  1  0  0  0  0
  7 18  1  0  0  0  0
  7 19  1  0  0  0  0
  8  9  1  0  0  0  0
  8 20  1  0  0  0  0
  8 25  1  0  0  0  0
  9 10  1  0  0  0  0
  9 21  1  0  0  0  0
  9 22  1  0  0  0  0
 10 11  1  0  0  0  0
 10 23  1  0  0  0  0
 10 24  1  0  0  0  0
M  CHG  1   8   1
M  END
> <s_m_source_file>
AV-unprocessed.smi

> <i_m_source_file_index>
2568

> <i_lp_mmshare_version>
43012

> <i_f3d_flags>
0

> <s_epik_input>
W0NIM11jMW5bbkhdYyhuMSlbQ0BASF0yW0NIMl1bTkhdW0NIMl1bQ0gyXU8y

> <s_epik_cmdline>
J2VwaWtfcHl0aG9uJywgJy1waCcsICc3LjAnLCAnLXRuJywgJzgnLCAnLW1hJywgJzIwMCcsICctbWV0YWxfYmluZGluZycsICctaW1hZScsICc8aW5maWxlLm1hZT4nLCAnLW9tYWUnLCAnPG91dGZpbGUubWFlPic=

> <r_epik_Ionization_Penalty>
0.166663

> <r_epik_Ionization_Penalty_Charging>
0.125708

> <r_epik_Ionization_Penalty_Neutral>
0.0409555

> <r_epik_State_Penalty>
1.3004

> <r_epik_Charging_Adjusted_Penalty>
1.42611

> <i_epik_Tot_Q>
1

> <i_epik_Tot_abs_Q>
1

> <r_epik_Metal_State_Penalty>
1.60166

> <b_epik_Metal_Only>
0

> <s_lp_Force_Field>
OPLS_2005

> <r_lp_Energy>
12.4533

> <b_lp_Chiralities_Consistent>
1

> <s_lp_Variant>
AV-unprocessed.smi:2568-5

> <Gold.Version>
5.8.1

> <Gold.Id.Protein>
6NUR|6NUR_protein|mol2

> <Gold.PLP.Fitness>
30.8827

> <Gold.PLP.PLP>
-18.8958

> <Gold.PLP.part.hbond>
-3.0000

> <Gold.PLP.part.metal>
0.0000

> <Gold.PLP.part.buried>
-3.6707

> <Gold.PLP.part.nonpolar>
-12.3272

> <Gold.PLP.part.repulsive>
0.4296

> <Gold.PLP.ligand.clash>
0.0000

> <Gold.PLP.ligand.torsion>
0.0070

> <Gold.PLP.Chemscore.Hbond>
4.0000

> <Gold.PLP.Chemscore.CHOScore>
0.0000

> <Gold.PLP.Chemscore.Metal>
0.0000

> <Gold.Chemscore.Hbonds>
donor molecule, donor type, donor heavy atom, donor atom, acceptor molecule, acceptor atom, score
      L1  H     4    13       P1  7948  1.00
      L1  H     8    20       P1 10186  2.00
      L1  H     8    25       P1  7921  1.00

> <Gold.PLP.Chemscore.Internal.Correction>
0.0010

> <Gold.Rescore>
     Score         DG    S(hbond)    S(metal)    S(lipo)     H(rot)  DE(clash)    DE(int)     intcor
     17.20     -17.38       2.89        0.00      41.11       1.00       0.04       0.14       ----

> <Gold.Chemscore.Fitness>
17.1982

> <Gold.Chemscore.DG>
-17.3778

> <Gold.Chemscore.ZeroCoef>
-5.4800

> <Gold.Chemscore.Hbond>
2.8887

> <Gold.Chemscore.Metal>
0.0000

> <Gold.Chemscore.Lipo>
41.1081

> <Gold.Chemscore.Internal_Hbond>
0.0000

> <Gold.Chemscore.DEClash>
0.0376

> <Gold.Chemscore.DEInternal>
0.1420

> <Gold.Chemscore.Rot>
1.0000

> <Gold.Chemscore.Internal.Correction>
   9.000000E+99

> <Gold.Chemscore.Hbonds>
donor molecule, donor type, donor heavy atom, donor atom, acceptor molecule, acceptor atom, score
      L1  H     4    13       P1  7948  0.99
      L1  H     8    20       P1 10186  0.96
      L1  H     8    25       P1  7921  0.93

> <Gold.Chemscore.Hbond.Weighted>
-9.6482

> <Gold.Chemscore.Metal.Weighted>
-0.0000

> <Gold.Chemscore.Lipo.Weighted>
-4.8096

> <Gold.Chemscore.Internal_Hbond.Weighted>
0.0000

> <Gold.Chemscore.DEClash.Weighted>
0.0376

> <Gold.Chemscore.DEInternal.Weighted>
0.1420

> <Gold.Chemscore.Rot.Weighted>
2.5600

> <Gold.Chemscore.Internal.Correction.Weighted>
   9.000000E+99

> <Gold.Protein.RotatedTorsions>
[ 6907 6896 6895 6894 ] final    7.51 input  -60.11 | X-H torsion
[ 7974 7965 7964 7962 ] final -160.72 input  175.53 | X-H torsion
[ 8008 7997 7996 7995 ] final  155.72 input   59.86 | X-H torsion
[ 10167 10162 10161 10158 ] final    5.49 input  -65.29 | X-H torsion
[ 10718 10713 10712 10709 ] final -127.84 input   66.30 | X-H torsion
[ 10763 10752 10751 10750 ] final   86.00 input  -60.55 | X-H torsion
[ 11005 11000 10999 10996 ] final  -43.31 input  -57.11 | X-H torsion

> <Gold.Protein.ActiveResidues>
 VAL166  LYS551  ARG553  GLY616  TRP617  ASP618  TYR619  PRO620  LYS621  CYS622 
 ASP623  PHE694  ASN695  SER759  ASP760  ASP761  ALA762  ILE779  LEU786  VAL792 
 PHE793  MET794  SER795  GLU796  ALA797  LYS798  CYS799  TRP800  GLU811  SER814 

> <Gold.Protein.RotatedAtoms>
  151.6911  135.0946  160.0233 H   0  0  0  0  0  0  0  0  0  0  0  0  # atno 6907 bound_to 6896
  152.3778  133.6500  159.6145 H   0  0  0  0  0  0  0  0  0  0  0  0  # atno 6908 bound_to 6896
  150.7723  133.9081  159.3402 H   0  0  0  0  0  0  0  0  0  0  0  0  # atno 6909 bound_to 6896
  144.7417  140.3502  143.6117 H   0  0  0  0  0  0  0  0  0  0  0  0  # atno 7974 bound_to 7965
  156.2463  140.1932  156.6844 H   0  0  0  0  0  0  0  0  0  0  0  0  # atno 8008 bound_to 7997
  154.6298  140.0597  156.9744 H   0  0  0  0  0  0  0  0  0  0  0  0  # atno 8009 bound_to 7997
  155.1729  140.3270  155.4392 H   0  0  0  0  0  0  0  0  0  0  0  0  # atno 8010 bound_to 7997
  140.6479  143.7617  150.7528 H   0  0  0  0  0  0  0  0  0  0  0  0  # atno 10167 bound_to 10162
  156.1895  130.6785  151.0406 H   0  0  0  0  0  0  0  0  0  0  0  0  # atno 10718 bound_to 10713
  153.1528  135.4596  154.9661 H   0  0  0  0  0  0  0  0  0  0  0  0  # atno 10763 bound_to 10752
  154.7838  135.3197  154.7934 H   0  0  0  0  0  0  0  0  0  0  0  0  # atno 10764 bound_to 10752
  153.8436  135.6928  153.4854 H   0  0  0  0  0  0  0  0  0  0  0  0  # atno 10765 bound_to 10752
  141.0375  133.6793  156.2715 H   0  0  0  0  0  0  0  0  0  0  0  0  # atno 11005 bound_to 11000
  145.7284  139.1729  143.2444 LP  0  0  0  0  0  0  0  0  0  0  0  0  # atno 17320 bound_to 7965
  146.1224  140.7291  142.9451 LP  0  0  0  0  0  0  0  0  0  0  0  0  # atno 17321 bound_to 7965
  140.1262  143.4567  152.2283 LP  0  0  0  0  0  0  0  0  0  0  0  0  # atno 17342 bound_to 10162
  139.5691  144.7452  151.3940 LP  0  0  0  0  0  0  0  0  0  0  0  0  # atno 17343 bound_to 10162
  157.6920  131.0807  150.7080 LP  0  0  0  0  0  0  0  0  0  0  0  0  # atno 17370 bound_to 10713
  156.7137  130.4659  149.5540 LP  0  0  0  0  0  0  0  0  0  0  0  0  # atno 17371 bound_to 10713
  140.6295  134.5279  157.5558 LP  0  0  0  0  0  0  0  0  0  0  0  0  # atno 17394 bound_to 11000
  139.9251  134.8071  156.1092 LP  0  0  0  0  0  0  0  0  0  0  0  0  # atno 17395 bound_to 11000

$$$$
