#       Name:                AV-unprocessed.smi:2619
#       Creating user name   scv26
#       Creation time:       Fri Mar 27 14:22:55 2020


#       File generated by GOLD software.
#

@<TRIPOS>MOLECULE
AV-unprocessed.smi:2619
    28    29     1
SMALL
NO_CHARGES


@<TRIPOS>ATOM
      1 ****        -2.4871   0.9222   0.7380 O.3            1 S1                 0.0000
      2 ****        -1.8500   0.4444   1.9046 C.3            1 S1                 0.0000
      3 ****        -0.3218   0.5756   1.7941 C.3            1 S1                 0.0000
      4 ****         0.2312  -0.1537   0.6587 N.pl3          1 S1                 0.0000
      5 ****         0.5654  -1.4676   0.5732 C.2            1 S1                 0.0000
      6 ****         0.3777  -2.4331   1.7038 C.3            1 S1                 0.0000
      7 ****        -1.2018  -3.2477   1.5729 Cl             1 S1                 0.0000
      8 ****         1.0555  -1.8652  -0.6016 N.2            1 S1                 0.0000
      9 ****         1.0397  -0.7044  -1.3485 C.ar           1 S1                 0.0000
     10 ****         1.4371  -0.4670  -2.6838 C.ar           1 S1                 0.0000
     11 ****         1.3243   0.8226  -3.2432 C.ar           1 S1                 0.0000
     12 ****         0.8135   1.8907  -2.4773 C.ar           1 S1                 0.0000
     13 ****         0.6781   3.4635  -3.1730 Cl             1 S1                 0.0000
     14 ****         0.4130   1.6751  -1.1445 C.ar           1 S1                 0.0000
     15 ****         0.5284   0.3861  -0.5900 C.ar           1 S1                 0.0000
     16 ****        -3.4206   0.8179   0.8404 H              1 S1                 0.0000
     17 ****        -2.2134   1.0135   2.7604 H              1 S1                 0.0000
     18 ****        -2.1406  -0.5927   2.0664 H              1 S1                 0.0000
     19 ****        -0.0504   1.6271   1.6950 H              1 S1                 0.0000
     20 ****         0.1583   0.2364   2.7109 H              1 S1                 0.0000
     21 ****         1.1519  -3.2000   1.6700 H              1 S1                 0.0000
     22 ****         0.4353  -1.9450   2.6750 H              1 S1                 0.0000
     23 ****         1.8281  -1.2787  -3.2792 H              1 S1                 0.0000
     24 ****         1.6305   0.9911  -4.2653 H              1 S1                 0.0000
     25 ****         0.0175   2.4897  -0.5562 H              1 S1                 0.0000
     26 ****        -2.1746   0.3991  -0.0549 LP             1 S1                 0.0000
     27 ****        -2.2685   1.8891   0.6066 LP             1 S1                 0.0000
     28 ****         1.3592  -2.7782  -0.8740 LP             1 S1                 0.0000
@<TRIPOS>BOND
    1    1    2 1     
    2    1   16 1     
    3    2    3 1     
    4    2   17 1     
    5    2   18 1     
    6    3    4 1     
    7    3   19 1     
    8    3   20 1     
    9    4   15 1     
   10    4    5 1     
   11    5    6 1     
   12    5    8 2     
   13    6    7 1     
   14    6   21 1     
   15    6   22 1     
   16    8    9 1     
   17    9   15 ar    
   18    9   10 ar    
   19   10   11 ar    
   20   10   23 1     
   21   11   12 ar    
   22   11   24 1     
   23   12   13 1     
   24   12   14 ar    
   25   14   15 ar    
   26   14   25 1     
   27    1   26 1     
   28    1   27 1     
   29    8   28 1     
@<TRIPOS>SUBSTRUCTURE
      1 S1             1
@<TRIPOS>SET
LONE_PAIRS      STATIC     ATOMS    <user>   **** ""
3 26 27 28
DONOR_HYDROGENS      STATIC     ATOMS    <user>   **** ""
1 16
ATOM$BLUE        STATIC     ATOMS    COLORGROUP SYSTEM
3 26 27 28
ATOM$RED        STATIC     ATOMS    COLORGROUP SYSTEM
1 16
