AV-unprocessed.smi:343|AV-procd|sdf|2388|dock3
  -GOLD-   2262022313D 1   1.00000     0.00000
 Structure written by MMmdl.
 42 44  0  0  0  0  0  0  0  0  1 V2000
  151.7990  145.0846  159.0937 C   0  0  0  0  0  0  0  0  0  0  0  0
  152.2436  143.6680  159.3220 C   0  0  0  0  0  0  0  0  0  0  0  0
  152.8638  143.3564  160.4480 N   0  0  0  0  0  0  0  0  0  0  0  0
  153.1190  142.0365  160.3467 N   0  0  0  0  0  0  0  0  0  0  0  0
  153.7997  141.3576  161.4322 C   0  0  0  0  0  0  0  0  0  0  0  0
  152.6626  141.5139  159.1526 C   0  0  0  0  0  0  0  0  0  0  0  0
  152.8189  140.0693  158.8021 C   0  0  0  0  0  0  0  0  0  0  0  0
  152.0861  142.5441  158.4585 C   0  0  0  0  0  0  0  0  0  0  0  0
  151.4255  142.5124  157.1029 C   0  0  0  0  0  0  0  0  0  0  0  0
  150.1873  141.6176  157.1548 C   0  0  0  0  0  0  0  0  0  0  0  0
  150.1997  140.5901  157.8319 O   0  0  0  0  0  0  0  0  0  0  0  0
  149.1247  142.0290  156.4447 N   0  0  0  0  0  0  0  0  0  0  0  0
  147.8211  141.3774  156.4059 C   0  0  0  0  0  0  0  0  0  0  0  0
  146.9273  141.9834  155.3400 C   0  0  0  0  0  0  0  0  0  0  0  0
  146.0421  141.1218  154.4708 C   0  0  0  0  0  0  0  0  0  0  0  0
  147.2433  141.8191  153.8730 C   0  0  0  0  0  0  0  0  0  0  0  0
  147.1246  141.4049  157.7566 C   0  0  0  0  0  0  0  0  0  0  0  0
  145.6185  141.4259  157.8658 C   0  0  0  0  0  0  0  0  0  0  0  0
  146.4223  142.6459  158.2552 C   0  0  0  0  0  0  0  0  0  0  0  0
  150.7785  145.1178  158.7121 H   0  0  0  0  0  0  0  0  0  0  0  0
  152.4421  145.5803  158.3664 H   0  0  0  0  0  0  0  0  0  0  0  0
  151.8242  145.6700  160.0136 H   0  0  0  0  0  0  0  0  0  0  0  0
  153.2087  140.5006  161.7569 H   0  0  0  0  0  0  0  0  0  0  0  0
  153.9401  142.0296  162.2800 H   0  0  0  0  0  0  0  0  0  0  0  0
  154.7752  141.0098  161.0911 H   0  0  0  0  0  0  0  0  0  0  0  0
  152.5328  139.8807  157.7674 H   0  0  0  0  0  0  0  0  0  0  0  0
  152.1908  139.4481  159.4405 H   0  0  0  0  0  0  0  0  0  0  0  0
  153.8532  139.7473  158.9253 H   0  0  0  0  0  0  0  0  0  0  0  0
  151.1274  143.5095  156.7767 H   0  0  0  0  0  0  0  0  0  0  0  0
  152.1077  142.1376  156.3390 H   0  0  0  0  0  0  0  0  0  0  0  0
  149.2163  142.8861  155.9191 H   0  0  0  0  0  0  0  0  0  0  0  0
  147.9702  140.3304  156.1339 H   0  0  0  0  0  0  0  0  0  0  0  0
  146.5072  142.9464  155.6253 H   0  0  0  0  0  0  0  0  0  0  0  0
  146.1016  140.0419  154.5908 H   0  0  0  0  0  0  0  0  0  0  0  0
  145.0570  141.5093  154.2192 H   0  0  0  0  0  0  0  0  0  0  0  0
  147.0599  142.6714  153.2217 H   0  0  0  0  0  0  0  0  0  0  0  0
  148.0995  141.2030  153.6049 H   0  0  0  0  0  0  0  0  0  0  0  0
  147.6407  140.8227  158.5183 H   0  0  0  0  0  0  0  0  0  0  0  0
  145.0416  141.4800  156.9448 H   0  0  0  0  0  0  0  0  0  0  0  0
  145.1671  140.8416  158.6648 H   0  0  0  0  0  0  0  0  0  0  0  0
  146.5043  142.8778  159.3150 H   0  0  0  0  0  0  0  0  0  0  0  0
  146.3731  143.5069  157.5917 H   0  0  0  0  0  0  0  0  0  0  0  0
  1  2  1  0  0  0  0
  1 20  1  0  0  0  0
  1 21  1  0  0  0  0
  1 22  1  0  0  0  0
  2  8  1  0  0  0  0
  2  3  2  0  0  0  0
  3  4  1  0  0  0  0
  4  5  1  0  0  0  0
  4  6  1  0  0  0  0
  5 23  1  0  0  0  0
  5 24  1  0  0  0  0
  5 25  1  0  0  0  0
  6  7  1  0  0  0  0
  6  8  2  0  0  0  0
  7 26  1  0  0  0  0
  7 27  1  0  0  0  0
  7 28  1  0  0  0  0
  8  9  1  0  0  0  0
  9 10  1  0  0  0  0
  9 29  1  0  0  0  0
  9 30  1  0  0  0  0
 10 11  2  0  0  0  0
 10 12  1  0  0  0  0
 12 13  1  0  0  0  0
 12 31  1  0  0  0  0
 13 14  1  0  0  0  0
 13 17  1  0  0  0  0
 13 32  1  0  0  0  0
 14 16  1  0  0  0  0
 14 15  1  0  0  0  0
 14 33  1  0  0  0  0
 15 16  1  0  0  0  0
 15 34  1  0  0  0  0
 15 35  1  0  0  0  0
 16 36  1  0  0  0  0
 16 37  1  0  0  0  0
 17 19  1  0  0  0  0
 17 18  1  0  0  0  0
 17 38  1  0  0  0  0
 18 19  1  0  0  0  0
 18 39  1  0  0  0  0
 18 40  1  0  0  0  0
 19 41  1  0  0  0  0
 19 42  1  0  0  0  0
M  END
> <s_m_source_file>
AV-unprocessed.smi

> <i_m_source_file_index>
343

> <i_lp_mmshare_version>
43012

> <i_f3d_flags>
0

> <s_epik_input>
W0NIM11jMW5uKFtDSDNdKWMoW0NIM10pYzFbQ0gyXUMoPU8pW05IXVtDSF0oW0NIXTJbQ0gyXVtDSDJdMilbQ0hdM1tDSDJdW0NIMl0z

> <s_epik_cmdline>
J2VwaWtfcHl0aG9uJywgJy1waCcsICc3LjAnLCAnLXRuJywgJzgnLCAnLW1hJywgJzIwMCcsICctbWV0YWxfYmluZGluZycsICctaW1hZScsICc8aW5maWxlLm1hZT4nLCAnLW9tYWUnLCAnPG91dGZpbGUubWFlPic=

> <r_lp_tautomer_probability>
1

> <r_epik_Ionization_Penalty>
0.00332543

> <r_epik_Ionization_Penalty_Charging>
0

> <r_epik_Ionization_Penalty_Neutral>
0.00332543

> <r_epik_State_Penalty>
0.00235125

> <r_epik_Charging_Adjusted_Penalty>
0.00235125

> <i_epik_Tot_Q>
0

> <i_epik_Tot_abs_Q>
0

> <r_epik_Metal_State_Penalty>
-0

> <b_epik_Metal_Only>
0

> <s_lp_Force_Field>
OPLS_2005

> <r_lp_Energy>
17.7033

> <b_lp_Chiralities_Consistent>
1

> <s_lp_Variant>
AV-unprocessed.smi:343-1

> <Gold.Version>
5.8.1

> <Gold.Id.Protein>
6NUR|6NUR_protein|mol2

> <Gold.PLP.Fitness>
41.9155

> <Gold.PLP.PLP>
-39.7892

> <Gold.PLP.part.hbond>
-1.0000

> <Gold.PLP.part.metal>
0.0000

> <Gold.PLP.part.buried>
-3.7321

> <Gold.PLP.part.nonpolar>
-35.0739

> <Gold.PLP.part.repulsive>
0.1124

> <Gold.PLP.ligand.clash>
0.0000

> <Gold.PLP.ligand.torsion>
1.5083

> <Gold.PLP.Chemscore.Hbond>
1.0000

> <Gold.PLP.Chemscore.CHOScore>
0.0000

> <Gold.PLP.Chemscore.Metal>
0.0000

> <Gold.Chemscore.Hbonds>
donor molecule, donor type, donor heavy atom, donor atom, acceptor molecule, acceptor atom, score
      L1  H    12    31       P1  8028  1.00

> <Gold.PLP.Chemscore.Internal.Correction>
2.1429

> <Gold.Rescore>
     Score         DG    S(hbond)    S(metal)    S(lipo)     H(rot)  DE(clash)    DE(int)     intcor
     14.51     -16.23       0.98        0.00      95.85       1.46       0.01       1.71       ----

> <Gold.Chemscore.Fitness>
14.5106

> <Gold.Chemscore.DG>
-16.2263

> <Gold.Chemscore.ZeroCoef>
-5.4800

> <Gold.Chemscore.Hbond>
0.9826

> <Gold.Chemscore.Metal>
0.0000

> <Gold.Chemscore.Lipo>
95.8520

> <Gold.Chemscore.Internal_Hbond>
0.0000

> <Gold.Chemscore.DEClash>
0.0057

> <Gold.Chemscore.DEInternal>
1.7101

> <Gold.Chemscore.Rot>
1.4650

> <Gold.Chemscore.Internal.Correction>
   9.000000E+99

> <Gold.Chemscore.Hbonds>
donor molecule, donor type, donor heavy atom, donor atom, acceptor molecule, acceptor atom, score
      L1  H    12    31       P1  8028  0.96

> <Gold.Chemscore.Hbond.Weighted>
-3.2820

> <Gold.Chemscore.Metal.Weighted>
-0.0000

> <Gold.Chemscore.Lipo.Weighted>
-11.2147

> <Gold.Chemscore.Internal_Hbond.Weighted>
0.0000

> <Gold.Chemscore.DEClash.Weighted>
0.0057

> <Gold.Chemscore.DEInternal.Weighted>
1.7101

> <Gold.Chemscore.Rot.Weighted>
3.7503

> <Gold.Chemscore.Internal.Correction.Weighted>
   9.000000E+99

> <Gold.Protein.RotatedTorsions>
[ 6907 6896 6895 6894 ] final  140.92 input  -60.11 | X-H torsion
[ 7974 7965 7964 7962 ] final   45.30 input  175.53 | X-H torsion
[ 8008 7997 7996 7995 ] final   62.79 input   59.86 | X-H torsion
[ 10167 10162 10161 10158 ] final   10.35 input  -65.29 | X-H torsion
[ 10718 10713 10712 10709 ] final  162.51 input   66.30 | X-H torsion
[ 10763 10752 10751 10750 ] final  -77.74 input  -60.55 | X-H torsion
[ 11005 11000 10999 10996 ] final  -84.42 input  -57.11 | X-H torsion

> <Gold.Protein.ActiveResidues>
 VAL166  LYS551  ARG553  GLY616  TRP617  ASP618  TYR619  PRO620  LYS621  CYS622 
 ASP623  PHE694  ASN695  SER759  ASP760  ASP761  ALA762  ILE779  LEU786  VAL792 
 PHE793  MET794  SER795  GLU796  ALA797  LYS798  CYS799  TRP800  GLU811  SER814 

> <Gold.Protein.RotatedAtoms>
  152.2372  133.5106  159.5249 H   0  0  0  0  0  0  0  0  0  0  0  0  # atno 6907 bound_to 6896
  150.7054  134.1137  159.4018 H   0  0  0  0  0  0  0  0  0  0  0  0  # atno 6908 bound_to 6896
  151.9058  135.0359  160.0561 H   0  0  0  0  0  0  0  0  0  0  0  0  # atno 6909 bound_to 6896
  146.0492  139.4979  142.9729 H   0  0  0  0  0  0  0  0  0  0  0  0  # atno 7974 bound_to 7965
  155.6200  140.3495  155.4649 H   0  0  0  0  0  0  0  0  0  0  0  0  # atno 8008 bound_to 7997
  156.0087  140.1228  157.0499 H   0  0  0  0  0  0  0  0  0  0  0  0  # atno 8009 bound_to 7997
  154.4273  140.1086  156.5785 H   0  0  0  0  0  0  0  0  0  0  0  0  # atno 8010 bound_to 7997
  140.6199  143.8226  150.7163 H   0  0  0  0  0  0  0  0  0  0  0  0  # atno 10167 bound_to 10162
  157.1215  131.0493  151.2413 H   0  0  0  0  0  0  0  0  0  0  0  0  # atno 10718 bound_to 10713
  154.5169  135.5753  153.6649 H   0  0  0  0  0  0  0  0  0  0  0  0  # atno 10763 bound_to 10752
  152.9909  135.6172  154.2805 H   0  0  0  0  0  0  0  0  0  0  0  0  # atno 10764 bound_to 10752
  154.2724  135.2853  155.2712 H   0  0  0  0  0  0  0  0  0  0  0  0  # atno 10765 bound_to 10752
  141.1650  133.7345  156.8865 H   0  0  0  0  0  0  0  0  0  0  0  0  # atno 11005 bound_to 11000
  145.6754  141.0205  143.1635 LP  0  0  0  0  0  0  0  0  0  0  0  0  # atno 17320 bound_to 7965
  144.7113  139.8359  143.7413 LP  0  0  0  0  0  0  0  0  0  0  0  0  # atno 17321 bound_to 7965
  140.1814  143.4111  152.1930 LP  0  0  0  0  0  0  0  0  0  0  0  0  # atno 17342 bound_to 10162
  139.5430  144.7273  151.4673 LP  0  0  0  0  0  0  0  0  0  0  0  0  # atno 17343 bound_to 10162
  157.4473  130.7578  149.7120 LP  0  0  0  0  0  0  0  0  0  0  0  0  # atno 17370 bound_to 10713
  155.9827  130.4007  150.3400 LP  0  0  0  0  0  0  0  0  0  0  0  0  # atno 17371 bound_to 10713
  140.1679  134.9121  157.2796 LP  0  0  0  0  0  0  0  0  0  0  0  0  # atno 17394 bound_to 11000
  140.2536  134.3654  155.7433 LP  0  0  0  0  0  0  0  0  0  0  0  0  # atno 17395 bound_to 11000

$$$$
