AV-unprocessed.smi:2181|AV-procd|sdf|8861|dock10
  -GOLD-   2272012 53D 1   1.00000     0.00000
 Structure written by MMmdl.
 38 39  0  0  0  0  0  0  0  0  1 V2000
  154.5960  136.0380  160.4203 C   0  0  0  0  0  0  0  0  0  0  0  0
  154.3035  136.4566  159.0077 C   0  0  0  0  0  0  0  0  0  0  0  0
  154.9381  135.8621  158.0114 N   0  0  0  0  0  0  0  0  0  0  0  0
  154.4500  136.4498  156.8403 O   0  0  0  0  0  0  0  0  0  0  0  0
  153.5282  137.3857  157.1818 C   0  0  0  0  0  0  0  0  0  0  0  0
  152.8764  138.1262  156.0633 C   0  0  0  0  0  0  0  0  0  0  0  0
  153.3867  137.4432  158.5410 C   0  0  0  0  0  0  0  0  0  0  0  0
  152.4752  138.3297  159.3501 C   0  0  0  0  0  0  0  0  0  0  0  0
  152.8372  139.7940  159.1058 C   0  0  0  0  0  0  0  0  0  0  0  0
  154.0171  140.1275  158.9986 O   0  0  0  0  0  0  0  0  0  0  0  0
  151.8105  140.6533  159.0144 N   0  0  0  0  0  0  0  0  0  0  0  0
  151.9116  142.0857  158.7400 C   0  0  2  0  0  0  0  0  0  0  0  0
  152.0497  142.8881  160.0596 C   0  0  0  0  0  0  0  0  0  0  0  0
  151.5798  144.3571  160.0133 C   0  0  0  0  0  0  0  0  0  0  0  0
  152.2014  145.2190  158.8954 C   0  0  0  0  0  0  0  0  0  0  0  0
  152.0575  144.6906  157.4479 C   0  0  0  0  0  0  0  0  0  0  0  0
  150.9246  143.7883  157.2442 N   0  0  0  0  0  0  0  0  0  0  0  0
  150.7988  142.5651  157.7871 C   0  0  0  0  0  0  0  0  0  0  0  0
  149.8203  141.8564  157.5533 O   0  0  0  0  0  0  0  0  0  0  0  0
  153.9623  135.2015  160.7155 H   0  0  0  0  0  0  0  0  0  0  0  0
  154.4156  136.8529  161.1210 H   0  0  0  0  0  0  0  0  0  0  0  0
  155.6344  135.7270  160.5383 H   0  0  0  0  0  0  0  0  0  0  0  0
  151.8392  137.8107  155.9475 H   0  0  0  0  0  0  0  0  0  0  0  0
  153.3923  137.9484  155.1194 H   0  0  0  0  0  0  0  0  0  0  0  0
  152.8839  139.1994  156.2542 H   0  0  0  0  0  0  0  0  0  0  0  0
  151.4276  138.1636  159.0964 H   0  0  0  0  0  0  0  0  0  0  0  0
  152.5615  138.1211  160.4170 H   0  0  0  0  0  0  0  0  0  0  0  0
  150.8761  140.2828  159.1110 H   0  0  0  0  0  0  0  0  0  0  0  0
  152.8387  142.2165  158.1799 H   0  0  0  0  0  0  0  0  0  0  0  0
  151.4819  142.3894  160.8464 H   0  0  0  0  0  0  0  0  0  0  0  0
  153.0905  142.8547  160.3844 H   0  0  0  0  0  0  0  0  0  0  0  0
  150.4926  144.3869  159.9281 H   0  0  0  0  0  0  0  0  0  0  0  0
  151.7983  144.8230  160.9747 H   0  0  0  0  0  0  0  0  0  0  0  0
  151.7388  146.2053  158.9477 H   0  0  0  0  0  0  0  0  0  0  0  0
  153.2587  145.3832  159.1067 H   0  0  0  0  0  0  0  0  0  0  0  0
  151.9528  145.5323  156.7628 H   0  0  0  0  0  0  0  0  0  0  0  0
  152.9743  144.1858  157.1417 H   0  0  0  0  0  0  0  0  0  0  0  0
  150.1888  144.1102  156.6319 H   0  0  0  0  0  0  0  0  0  0  0  0
  1  2  1  0  0  0  0
  1 20  1  0  0  0  0
  1 21  1  0  0  0  0
  1 22  1  0  0  0  0
  2  7  1  0  0  0  0
  2  3  2  0  0  0  0
  3  4  1  0  0  0  0
  4  5  1  0  0  0  0
  5  6  1  0  0  0  0
  5  7  2  0  0  0  0
  6 23  1  0  0  0  0
  6 24  1  0  0  0  0
  6 25  1  0  0  0  0
  7  8  1  0  0  0  0
  8  9  1  0  0  0  0
  8 26  1  0  0  0  0
  8 27  1  0  0  0  0
  9 10  2  0  0  0  0
  9 11  1  0  0  0  0
 11 12  1  0  0  0  0
 11 28  1  0  0  0  0
 12 18  1  0  0  0  0
 12 13  1  0  0  0  0
 12 29  1  0  0  0  0
 13 14  1  0  0  0  0
 13 30  1  0  0  0  0
 13 31  1  0  0  0  0
 14 15  1  0  0  0  0
 14 32  1  0  0  0  0
 14 33  1  0  0  0  0
 15 16  1  0  0  0  0
 15 34  1  0  0  0  0
 15 35  1  0  0  0  0
 16 17  1  0  0  0  0
 16 36  1  0  0  0  0
 16 37  1  0  0  0  0
 17 18  1  0  0  0  0
 17 38  1  0  0  0  0
 18 19  2  0  0  0  0
M  END
> <s_m_source_file>
AV-unprocessed.smi

> <i_m_source_file_index>
2181

> <i_lp_mmshare_version>
43012

> <i_f3d_flags>
0

> <s_epik_input>
W0NIM11jMW5vYyhbQ0gzXSljMVtDSDJdQyg9TylbTkhdW0NAQEhdMltDSDJdW0NIMl1bQ0gyXVtDSDJdW05IXUMyPU8=

> <s_epik_cmdline>
J2VwaWtfcHl0aG9uJywgJy1waCcsICc3LjAnLCAnLXRuJywgJzgnLCAnLW1hJywgJzIwMCcsICctbWV0YWxfYmluZGluZycsICctaW1hZScsICc8aW5maWxlLm1hZT4nLCAnLW9tYWUnLCAnPG91dGZpbGUubWFlPic=

> <r_lp_tautomer_probability>
1

> <r_epik_Ionization_Penalty>
5.91376e-08

> <r_epik_Ionization_Penalty_Charging>
0

> <r_epik_Ionization_Penalty_Neutral>
5.91376e-08

> <r_epik_State_Penalty>
-0

> <r_epik_Charging_Adjusted_Penalty>
0

> <i_epik_Tot_Q>
0

> <i_epik_Tot_abs_Q>
0

> <r_epik_Metal_State_Penalty>
-0

> <b_epik_Metal_Only>
0

> <s_lp_Force_Field>
OPLS_2005

> <r_lp_Energy>
8.47239

> <b_lp_Chiralities_Consistent>
1

> <s_lp_Variant>
AV-unprocessed.smi:2181-1

> <Gold.Version>
5.8.1

> <Gold.Id.Protein>
6NUR|6NUR_protein|mol2

> <Gold.PLP.Fitness>
39.3711

> <Gold.PLP.PLP>
-31.6444

> <Gold.PLP.part.hbond>
-3.0000

> <Gold.PLP.part.metal>
0.0000

> <Gold.PLP.part.buried>
-5.2575

> <Gold.PLP.part.nonpolar>
-23.1463

> <Gold.PLP.part.repulsive>
0.2579

> <Gold.PLP.ligand.clash>
0.0000

> <Gold.PLP.ligand.torsion>
0.6267

> <Gold.PLP.Chemscore.Hbond>
2.9760

> <Gold.PLP.Chemscore.CHOScore>
0.0000

> <Gold.PLP.Chemscore.Metal>
0.0000

> <Gold.Chemscore.Hbonds>
donor molecule, donor type, donor heavy atom, donor atom, acceptor molecule, acceptor atom, score
      L1  H    17    38       P1  8028  1.00
      P1  H  7997  8010       L1    10  0.98
      P1  H 10752 10765       L1     4  1.00

> <Gold.PLP.Chemscore.Internal.Correction>
0.0523

> <Gold.Rescore>
     Score         DG    S(hbond)    S(metal)    S(lipo)     H(rot)  DE(clash)    DE(int)     intcor
     20.70     -21.55       2.88        0.00      87.69       1.49       0.20       0.65       ----

> <Gold.Chemscore.Fitness>
20.6991

> <Gold.Chemscore.DG>
-21.5486

> <Gold.Chemscore.ZeroCoef>
-5.4800

> <Gold.Chemscore.Hbond>
2.8850

> <Gold.Chemscore.Metal>
0.0000

> <Gold.Chemscore.Lipo>
87.6904

> <Gold.Chemscore.Internal_Hbond>
0.0000

> <Gold.Chemscore.DEClash>
0.1978

> <Gold.Chemscore.DEInternal>
0.6518

> <Gold.Chemscore.Rot>
1.4949

> <Gold.Chemscore.Internal.Correction>
   9.000000E+99

> <Gold.Chemscore.Hbonds>
donor molecule, donor type, donor heavy atom, donor atom, acceptor molecule, acceptor atom, score
      L1  H    17    38       P1  8028  1.00
      P1  H  7997  8010       L1    10  0.90
      P1  H 10752 10765       L1     4  0.87

> <Gold.Chemscore.Hbond.Weighted>
-9.6358

> <Gold.Chemscore.Metal.Weighted>
-0.0000

> <Gold.Chemscore.Lipo.Weighted>
-10.2598

> <Gold.Chemscore.Internal_Hbond.Weighted>
0.0000

> <Gold.Chemscore.DEClash.Weighted>
0.1978

> <Gold.Chemscore.DEInternal.Weighted>
0.6518

> <Gold.Chemscore.Rot.Weighted>
3.8269

> <Gold.Chemscore.Internal.Correction.Weighted>
   9.000000E+99

> <Gold.Protein.RotatedTorsions>
[ 6907 6896 6895 6894 ] final -166.17 input  -60.11 | X-H torsion
[ 7974 7965 7964 7962 ] final   19.80 input  175.53 | X-H torsion
[ 8008 7997 7996 7995 ] final   12.15 input   59.86 | X-H torsion
[ 10167 10162 10161 10158 ] final   43.35 input  -65.29 | X-H torsion
[ 10718 10713 10712 10709 ] final -118.54 input   66.30 | X-H torsion
[ 10763 10752 10751 10750 ] final  -91.11 input  -60.55 | X-H torsion
[ 11005 11000 10999 10996 ] final -142.73 input  -57.11 | X-H torsion

> <Gold.Protein.ActiveResidues>
 VAL166  LYS551  ARG553  GLY616  TRP617  ASP618  TYR619  PRO620  LYS621  CYS622 
 ASP623  PHE694  ASN695  SER759  ASP760  ASP761  ALA762  ILE779  LEU786  VAL792 
 PHE793  MET794  SER795  GLU796  ALA797  LYS798  CYS799  TRP800  GLU811  SER814 

> <Gold.Protein.RotatedAtoms>
  151.4393  133.3648  159.2779 H   0  0  0  0  0  0  0  0  0  0  0  0  # atno 6907 bound_to 6896
  150.9169  134.8588  159.7473 H   0  0  0  0  0  0  0  0  0  0  0  0  # atno 6908 bound_to 6896
  152.4961  134.4328  159.9570 H   0  0  0  0  0  0  0  0  0  0  0  0  # atno 6909 bound_to 6896
  146.2135  139.8260  142.8670 H   0  0  0  0  0  0  0  0  0  0  0  0  # atno 7974 bound_to 7965
  154.8167  140.2877  155.5815 H   0  0  0  0  0  0  0  0  0  0  0  0  # atno 8008 bound_to 7997
  156.2993  140.2558  156.2996 H   0  0  0  0  0  0  0  0  0  0  0  0  # atno 8009 bound_to 7997
  154.9386  140.0382  157.2074 H   0  0  0  0  0  0  0  0  0  0  0  0  # atno 8010 bound_to 7997
  140.3453  144.2419  150.6151 H   0  0  0  0  0  0  0  0  0  0  0  0  # atno 10167 bound_to 10162
  156.1114  130.6251  150.9304 H   0  0  0  0  0  0  0  0  0  0  0  0  # atno 10718 bound_to 10713
  154.6727  135.5279  153.8160 H   0  0  0  0  0  0  0  0  0  0  0  0  # atno 10763 bound_to 10752
  153.0512  135.6533  154.0699 H   0  0  0  0  0  0  0  0  0  0  0  0  # atno 10764 bound_to 10752
  154.0596  135.2963  155.3307 H   0  0  0  0  0  0  0  0  0  0  0  0  # atno 10765 bound_to 10752
  140.8196  134.2647  157.4906 H   0  0  0  0  0  0  0  0  0  0  0  0  # atno 11005 bound_to 11000
  145.3046  141.0203  143.3589 LP  0  0  0  0  0  0  0  0  0  0  0  0  # atno 17320 bound_to 7965
  144.8980  139.4686  143.6646 LP  0  0  0  0  0  0  0  0  0  0  0  0  # atno 17321 bound_to 7965
  140.5270  143.2252  151.8298 LP  0  0  0  0  0  0  0  0  0  0  0  0  # atno 17342 bound_to 10162
  139.4834  144.4767  151.9358 LP  0  0  0  0  0  0  0  0  0  0  0  0  # atno 17343 bound_to 10162
  157.6295  131.0922  150.8469 LP  0  0  0  0  0  0  0  0  0  0  0  0  # atno 17370 bound_to 10713
  156.8579  130.5103  149.5306 LP  0  0  0  0  0  0  0  0  0  0  0  0  # atno 17371 bound_to 10713
  139.8709  134.9528  156.4125 LP  0  0  0  0  0  0  0  0  0  0  0  0  # atno 17394 bound_to 11000
  140.9113  133.7710  155.9795 LP  0  0  0  0  0  0  0  0  0  0  0  0  # atno 17395 bound_to 11000

$$$$
