AV-unprocessed.smi:2638|AV-procd|sdf|10263|dock4
  -GOLD-   2272014273D 1   1.00000     0.00000
 Structure written by MMmdl.
 43 44  0  0  0  0  0  0  0  0  1 V2000
  144.4079  136.3203  152.6597 O   0  0  0  0  0  0  0  0  0  0  0  0
  145.6101  136.2887  152.3979 C   0  0  0  0  0  0  0  0  0  0  0  0
  146.2180  135.3459  151.6568 N   0  0  0  0  0  0  0  0  0  0  0  0
  145.6469  134.2024  151.0372 C   0  0  0  0  0  0  0  0  0  0  0  0
  146.4706  133.2056  150.4523 C   0  0  0  0  0  0  0  0  0  0  0  0
  145.8740  132.0716  149.8680 C   0  0  0  0  0  0  0  0  0  0  0  0
  144.4733  131.9524  149.8930 C   0  0  0  0  0  0  0  0  0  0  0  0
  143.7331  132.9759  150.5115 C   0  0  0  0  0  0  0  0  0  0  0  0
  144.3012  134.0645  151.0724 N   0  0  0  0  0  0  0  0  0  0  0  0
  146.4949  137.1992  152.8376 N   0  0  0  0  0  0  0  0  0  0  0  0
  146.2214  138.3789  153.6684 C   0  0  1  0  0  0  0  0  0  0  0  0
  145.6586  137.9709  155.0554 C   0  0  0  0  0  0  0  0  0  0  0  0
  145.0367  139.1340  155.8483 C   0  0  0  0  0  0  0  0  0  0  0  0
  143.7768  139.4637  155.3049 O   0  0  0  0  0  0  0  0  0  0  0  0
  147.4378  139.3540  153.7279 C   0  0  0  0  0  0  0  0  0  0  0  0
  148.6180  138.7802  154.5504 C   0  0  0  0  0  0  0  0  0  0  0  0
  149.8077  139.7514  154.6270 C   0  0  0  0  0  0  0  0  0  0  0  0
  149.3847  141.1123  155.1933 C   0  0  0  0  0  0  0  0  0  0  0  0
  148.2375  141.7067  154.3677 C   0  0  0  0  0  0  0  0  0  0  0  0
  147.0443  140.7413  154.2980 C   0  0  0  0  0  0  0  0  0  0  0  0
  147.2250  135.3987  151.6141 H   0  0  0  0  0  0  0  0  0  0  0  0
  147.5471  133.2846  150.4526 H   0  0  0  0  0  0  0  0  0  0  0  0
  146.4823  131.3032  149.4142 H   0  0  0  0  0  0  0  0  0  0  0  0
  143.9802  131.0967  149.4561 H   0  0  0  0  0  0  0  0  0  0  0  0
  142.6558  132.9187  150.5601 H   0  0  0  0  0  0  0  0  0  0  0  0
  147.4591  137.0679  152.5690 H   0  0  0  0  0  0  0  0  0  0  0  0
  145.4196  138.9040  153.1480 H   0  0  0  0  0  0  0  0  0  0  0  0
  144.9244  137.1723  154.9418 H   0  0  0  0  0  0  0  0  0  0  0  0
  146.4601  137.5564  155.6654 H   0  0  0  0  0  0  0  0  0  0  0  0
  144.9090  138.8594  156.8958 H   0  0  0  0  0  0  0  0  0  0  0  0
  145.6694  140.0213  155.8162 H   0  0  0  0  0  0  0  0  0  0  0  0
  143.8790  139.6145  154.3776 H   0  0  0  0  0  0  0  0  0  0  0  0
  147.8009  139.5074  152.7108 H   0  0  0  0  0  0  0  0  0  0  0  0
  148.2805  138.5382  155.5590 H   0  0  0  0  0  0  0  0  0  0  0  0
  148.9781  137.8504  154.1126 H   0  0  0  0  0  0  0  0  0  0  0  0
  150.5972  139.3224  155.2445 H   0  0  0  0  0  0  0  0  0  0  0  0
  150.2336  139.8855  153.6318 H   0  0  0  0  0  0  0  0  0  0  0  0
  149.0702  140.9974  156.2313 H   0  0  0  0  0  0  0  0  0  0  0  0
  150.2345  141.7955  155.1992 H   0  0  0  0  0  0  0  0  0  0  0  0
  147.9216  142.6559  154.8014 H   0  0  0  0  0  0  0  0  0  0  0  0
  148.5872  141.9290  153.3587 H   0  0  0  0  0  0  0  0  0  0  0  0
  146.2684  141.2058  153.6898 H   0  0  0  0  0  0  0  0  0  0  0  0
  146.6195  140.6197  155.2952 H   0  0  0  0  0  0  0  0  0  0  0  0
  1  2  2  0  0  0  0
  2  3  1  0  0  0  0
  2 10  1  0  0  0  0
  3  4  1  0  0  0  0
  3 21  1  0  0  0  0
  4  9  1  0  0  0  0
  4  5  2  0  0  0  0
  5  6  1  0  0  0  0
  5 22  1  0  0  0  0
  6  7  2  0  0  0  0
  6 23  1  0  0  0  0
  7  8  1  0  0  0  0
  7 24  1  0  0  0  0
  8  9  2  0  0  0  0
  8 25  1  0  0  0  0
 10 11  1  0  0  0  0
 10 26  1  0  0  0  0
 11 12  1  0  0  0  0
 11 15  1  0  0  0  0
 11 27  1  0  0  0  0
 12 13  1  0  0  0  0
 12 28  1  0  0  0  0
 12 29  1  0  0  0  0
 13 14  1  0  0  0  0
 13 30  1  0  0  0  0
 13 31  1  0  0  0  0
 14 32  1  0  0  0  0
 15 20  1  0  0  0  0
 15 16  1  0  0  0  0
 15 33  1  0  0  0  0
 16 17  1  0  0  0  0
 16 34  1  0  0  0  0
 16 35  1  0  0  0  0
 17 18  1  0  0  0  0
 17 36  1  0  0  0  0
 17 37  1  0  0  0  0
 18 19  1  0  0  0  0
 18 38  1  0  0  0  0
 18 39  1  0  0  0  0
 19 20  1  0  0  0  0
 19 40  1  0  0  0  0
 19 41  1  0  0  0  0
 20 42  1  0  0  0  0
 20 43  1  0  0  0  0
M  END
> <s_m_source_file>
AV-unprocessed.smi

> <i_m_source_file_index>
2638

> <i_lp_mmshare_version>
43012

> <i_f3d_flags>
0

> <s_epik_input>
bjFbY0hdW2NIXVtjSF1bY0hdYzFbTkhdQyg9TylbTkhdW0NASF0oW0NIMl1bQ0gyXVtPSF0pW0NIXTJbQ0gyXVtDSDJdW0NIMl1bQ0gyXVtDSDJdMg==

> <s_epik_cmdline>
J2VwaWtfcHl0aG9uJywgJy1waCcsICc3LjAnLCAnLXRuJywgJzgnLCAnLW1hJywgJzIwMCcsICctbWV0YWxfYmluZGluZycsICctaW1hZScsICc8aW5maWxlLm1hZT4nLCAnLW9tYWUnLCAnPG91dGZpbGUubWFlPic=

> <r_lp_tautomer_probability>
1

> <r_epik_Ionization_Penalty>
5.22449e-05

> <r_epik_Ionization_Penalty_Charging>
0

> <r_epik_Ionization_Penalty_Neutral>
5.22449e-05

> <r_epik_State_Penalty>
-0

> <r_epik_Charging_Adjusted_Penalty>
0

> <i_epik_Tot_Q>
0

> <i_epik_Tot_abs_Q>
0

> <r_epik_Metal_State_Penalty>
-0

> <b_epik_Metal_Only>
0

> <s_lp_Force_Field>
OPLS_2005

> <r_lp_Energy>
21.512

> <b_lp_Chiralities_Consistent>
1

> <s_lp_Variant>
AV-unprocessed.smi:2638-2

> <Gold.Version>
5.8.1

> <Gold.Id.Protein>
6NUR|6NUR_protein|mol2

> <Gold.PLP.Fitness>
46.4005

> <Gold.PLP.PLP>
-34.8270

> <Gold.PLP.part.hbond>
-3.0000

> <Gold.PLP.part.metal>
0.0000

> <Gold.PLP.part.buried>
-2.6075

> <Gold.PLP.part.nonpolar>
-29.9566

> <Gold.PLP.part.repulsive>
0.4044

> <Gold.PLP.ligand.clash>
0.0000

> <Gold.PLP.ligand.torsion>
0.2809

> <Gold.PLP.Chemscore.Hbond>
3.0000

> <Gold.PLP.Chemscore.CHOScore>
1.0000

> <Gold.PLP.Chemscore.Metal>
0.0000

> <Gold.Chemscore.Hbonds>
donor molecule, donor type, donor heavy atom, donor atom, acceptor molecule, acceptor atom, score
      L1  H     3    21       P1  7948  1.00
      L1  H    10    26       P1  7948  1.00
      L1  H    14    32       P1 10175  0.89
      L1  C     8    25       P1 10186  0.98

> <Gold.PLP.Chemscore.Internal.Correction>
0.1352

> <Gold.Rescore>
     Score         DG    S(hbond)    S(metal)    S(lipo)     H(rot)  DE(clash)    DE(int)     intcor
     17.45     -19.33       2.93        0.00      85.08       2.30       0.02       1.86       ----

> <Gold.Chemscore.Fitness>
17.4497

> <Gold.Chemscore.DG>
-19.3257

> <Gold.Chemscore.ZeroCoef>
-5.4800

> <Gold.Chemscore.Hbond>
2.9258

> <Gold.Chemscore.Metal>
0.0000

> <Gold.Chemscore.Lipo>
85.0779

> <Gold.Chemscore.Internal_Hbond>
0.0000

> <Gold.Chemscore.DEClash>
0.0170

> <Gold.Chemscore.DEInternal>
1.8590

> <Gold.Chemscore.Rot>
2.2972

> <Gold.Chemscore.Internal.Correction>
   9.000000E+99

> <Gold.Chemscore.Hbonds>
donor molecule, donor type, donor heavy atom, donor atom, acceptor molecule, acceptor atom, score
      L1  H     3    21       P1  7948  0.97
      L1  H    10    26       P1  7948  0.99
      L1  H    14    32       P1 10175  0.85

> <Gold.Chemscore.Hbond.Weighted>
-9.7723

> <Gold.Chemscore.Metal.Weighted>
-0.0000

> <Gold.Chemscore.Lipo.Weighted>
-9.9541

> <Gold.Chemscore.Internal_Hbond.Weighted>
0.0000

> <Gold.Chemscore.DEClash.Weighted>
0.0170

> <Gold.Chemscore.DEInternal.Weighted>
1.8590

> <Gold.Chemscore.Rot.Weighted>
5.8807

> <Gold.Chemscore.Internal.Correction.Weighted>
   9.000000E+99

> <Gold.Protein.RotatedTorsions>
[ 6907 6896 6895 6894 ] final -134.43 input  -60.11 | X-H torsion
[ 7974 7965 7964 7962 ] final  107.65 input  175.53 | X-H torsion
[ 8008 7997 7996 7995 ] final   21.38 input   59.86 | X-H torsion
[ 10167 10162 10161 10158 ] final -100.67 input  -65.29 | X-H torsion
[ 10718 10713 10712 10709 ] final  174.62 input   66.30 | X-H torsion
[ 10763 10752 10751 10750 ] final  -38.48 input  -60.55 | X-H torsion
[ 11005 11000 10999 10996 ] final   61.86 input  -57.11 | X-H torsion

> <Gold.Protein.ActiveResidues>
 VAL166  LYS551  ARG553  GLY616  TRP617  ASP618  TYR619  PRO620  LYS621  CYS622 
 ASP623  PHE694  ASN695  SER759  ASP760  ASP761  ALA762  ILE779  LEU786  VAL792 
 PHE793  MET794  SER795  GLU796  ALA797  LYS798  CYS799  TRP800  GLU811  SER814 

> <Gold.Protein.RotatedAtoms>
  150.9858  133.6199  159.2715 H   0  0  0  0  0  0  0  0  0  0  0  0  # atno 6907 bound_to 6896
  151.3438  135.0868  159.9390 H   0  0  0  0  0  0  0  0  0  0  0  0  # atno 6908 bound_to 6896
  152.5230  133.9464  159.7705 H   0  0  0  0  0  0  0  0  0  0  0  0  # atno 6909 bound_to 6896
  145.2909  139.2600  143.3865 H   0  0  0  0  0  0  0  0  0  0  0  0  # atno 7974 bound_to 7965
  154.9497  140.3064  155.5081 H   0  0  0  0  0  0  0  0  0  0  0  0  # atno 8008 bound_to 7997
  156.2988  140.2321  156.4511 H   0  0  0  0  0  0  0  0  0  0  0  0  # atno 8009 bound_to 7997
  154.8066  140.0431  157.1301 H   0  0  0  0  0  0  0  0  0  0  0  0  # atno 8010 bound_to 7997
  140.2494  143.3483  152.0728 H   0  0  0  0  0  0  0  0  0  0  0  0  # atno 10167 bound_to 10162
  156.9470  131.0019  151.2957 H   0  0  0  0  0  0  0  0  0  0  0  0  # atno 10718 bound_to 10713
  153.9135  135.6790  153.4750 H   0  0  0  0  0  0  0  0  0  0  0  0  # atno 10763 bound_to 10752
  153.1066  135.4803  154.8959 H   0  0  0  0  0  0  0  0  0  0  0  0  # atno 10764 bound_to 10752
  154.7515  135.3186  154.8505 H   0  0  0  0  0  0  0  0  0  0  0  0  # atno 10765 bound_to 10752
  140.0132  134.6264  155.9749 H   0  0  0  0  0  0  0  0  0  0  0  0  # atno 11005 bound_to 11000
  146.3185  140.3400  142.8647 LP  0  0  0  0  0  0  0  0  0  0  0  0  # atno 17320 bound_to 7965
  144.9173  140.7828  143.5770 LP  0  0  0  0  0  0  0  0  0  0  0  0  # atno 17321 bound_to 7965
  139.5051  144.6788  151.6060 LP  0  0  0  0  0  0  0  0  0  0  0  0  # atno 17342 bound_to 10162
  140.6052  143.9537  150.6414 LP  0  0  0  0  0  0  0  0  0  0  0  0  # atno 17343 bound_to 10162
  157.5747  130.8335  149.8440 LP  0  0  0  0  0  0  0  0  0  0  0  0  # atno 17370 bound_to 10713
  156.0379  130.3746  150.1511 LP  0  0  0  0  0  0  0  0  0  0  0  0  # atno 17371 bound_to 10713
  141.1725  133.6538  156.4705 LP  0  0  0  0  0  0  0  0  0  0  0  0  # atno 17394 bound_to 11000
  140.4517  134.6922  157.5043 LP  0  0  0  0  0  0  0  0  0  0  0  0  # atno 17395 bound_to 11000

$$$$
