#       Name:                AV-unprocessed.smi:2697
#       Creating user name   scv26
#       Creation time:       Fri Mar 27 14:45:32 2020


#       File generated by GOLD software.
#

@<TRIPOS>MOLECULE
AV-unprocessed.smi:2697
    35    36     1
SMALL
NO_CHARGES


@<TRIPOS>ATOM
      1 ****        -3.9436   1.1767   0.1706 C.3            1 S1                 0.0000
      2 ****        -2.5118   1.2734  -0.0161 N.pl3          1 S1                 0.0000
      3 ****        -1.7682   2.3744  -0.3844 C.2            1 S1                 0.0000
      4 ****        -0.4732   1.9470  -0.4270 C.2            1 S1                 0.0000
      5 ****         0.7133   2.7670  -0.8378 C.2            1 S1                 0.0000
      6 ****         0.6490   4.0663  -0.5356 N.am           1 S1                 0.0000
      7 ****         1.6909   2.2595  -1.3831 O.2            1 S1                 0.0000
      8 ****        -0.4953   0.5642  -0.0770 C.2            1 S1                 0.0000
      9 ****         0.6323  -0.4377   0.0295 C.3            1 S1                 0.0000
     10 ****         0.7252  -1.0629   1.4354 C.3            1 S1                 0.0000
     11 ****         1.8780  -2.0774   1.4942 C.3            1 S1                 0.0000
     12 ****         1.7413  -3.1315   0.3823 C.3            1 S1                 0.0000
     13 ****         1.6548  -2.4855  -0.9457 N.4            1 S1                 1.0000
     14 ****         0.5299  -1.5305  -1.0533 C.3            1 S1                 0.0000
     15 ****        -1.7425   0.1738   0.1648 N.2            1 S1                 0.0000
     16 ****        -4.3913   2.1708   0.1535 H              1 S1                 0.0000
     17 ****        -4.1632   0.7065   1.1297 H              1 S1                 0.0000
     18 ****        -4.3785   0.5783  -0.6303 H              1 S1                 0.0000
     19 ****        -2.2154   3.3365  -0.5878 H              1 S1                 0.0000
     20 ****         1.4107   4.6811  -0.7829 H              1 S1                 0.0000
     21 ****        -0.1645   4.4307  -0.0609 H              1 S1                 0.0000
     22 ****         1.5764   0.0805  -0.1317 H              1 S1                 0.0000
     23 ****         0.8745  -0.2855   2.1856 H              1 S1                 0.0000
     24 ****        -0.2097  -1.5653   1.6876 H              1 S1                 0.0000
     25 ****         2.8306  -1.5561   1.3903 H              1 S1                 0.0000
     26 ****         1.8968  -2.5641   2.4699 H              1 S1                 0.0000
     27 ****         2.5974  -3.8062   0.3939 H              1 S1                 0.0000
     28 ****         0.8515  -3.7414   0.5434 H              1 S1                 0.0000
     29 ****         2.5158  -1.9853  -1.1159 H              1 S1                 0.0000
     30 ****        -0.4095  -2.0778  -0.9627 H              1 S1                 0.0000
     31 ****         0.5438  -1.0820  -2.0469 H              1 S1                 0.0000
     32 ****         1.5473  -3.1989  -1.6527 H              1 S1                 0.0000
     33 ****         1.7085   1.2760  -1.5631 LP             1 S1                 0.0000
     34 ****         2.4687   2.8301  -1.6466 LP             1 S1                 0.0000
     35 ****        -2.0490  -0.7415   0.4260 LP             1 S1                 0.0000
@<TRIPOS>BOND
    1    1    2 1     
    2    1   16 1     
    3    1   17 1     
    4    1   18 1     
    5    2   15 1     
    6    2    3 1     
    7    3    4 2     
    8    3   19 1     
    9    4    5 1     
   10    4    8 1     
   11    5    6 am    
   12    5    7 2     
   13    6   20 1     
   14    6   21 1     
   15    8    9 1     
   16    8   15 2     
   17    9   14 1     
   18    9   10 1     
   19    9   22 1     
   20   10   11 1     
   21   10   23 1     
   22   10   24 1     
   23   11   12 1     
   24   11   25 1     
   25   11   26 1     
   26   12   13 1     
   27   12   27 1     
   28   12   28 1     
   29   13   14 1     
   30   13   29 1     
   31   13   32 1     
   32   14   30 1     
   33   14   31 1     
   34    7   33 1     
   35    7   34 1     
   36   15   35 1     
@<TRIPOS>SUBSTRUCTURE
      1 S1             1
@<TRIPOS>SET
LONE_PAIRS      STATIC     ATOMS    <user>   **** ""
3 33 34 35
DONOR_HYDROGENS      STATIC     ATOMS    <user>   **** ""
4 20 21 29 32
ATOM$BLUE        STATIC     ATOMS    COLORGROUP SYSTEM
3 33 34 35
ATOM$RED        STATIC     ATOMS    COLORGROUP SYSTEM
4 20 21 29 32
