AV-unprocessed.smi:1291|AV-procd|sdf|5394|dock1
  -GOLD-   22720 4553D 1   1.00000     0.00000
 Structure written by MMmdl.
 44 46  0  0  0  0  0  0  0  0  2 V2000
  147.4086  138.3144  151.6150 O   0  0  0  0  0  0  0  0  0  0  0  0
  146.0917  138.0635  152.0575 C   0  0  0  0  0  0  0  0  0  0  0  0
  145.6679  136.6442  151.8522 C   0  0  0  0  0  0  0  0  0  0  0  0
  146.4736  135.6145  151.4649 N   0  3  0  0  0  0  0  0  0  0  0  0
  145.7324  134.4354  151.3862 C   0  0  0  0  0  0  0  0  0  0  0  0
  146.1115  133.1431  151.0365 C   0  0  0  0  0  0  0  0  0  0  0  0
  145.1003  132.1603  151.0563 C   0  0  0  0  0  0  0  0  0  0  0  0
  143.7735  132.4792  151.4113 C   0  0  0  0  0  0  0  0  0  0  0  0
  143.4014  133.7933  151.7631 C   0  0  0  0  0  0  0  0  0  0  0  0
  144.4077  134.7592  151.7444 C   0  0  0  0  0  0  0  0  0  0  0  0
  144.4155  136.1313  152.0256 N   0  0  0  0  0  0  0  0  0  0  0  0
  143.1693  136.7932  152.4447 C   0  0  0  0  0  0  0  0  0  0  0  0
  143.1680  137.1769  153.9386 C   0  0  1  0  0  0  0  0  0  0  0  0
  143.9955  138.2930  154.1981 O   0  0  0  0  0  0  0  0  0  0  0  0
  141.7636  137.4502  154.5006 C   0  0  0  0  0  0  0  0  0  0  0  0
  140.7851  136.8206  153.6882 O   0  0  0  0  0  0  0  0  0  0  0  0
  139.5012  136.7951  154.2873 C   0  0  0  0  0  0  0  0  0  0  0  0
  138.7877  138.1210  154.1084 C   0  0  0  0  0  0  0  0  0  0  0  0
  139.4552  139.2010  153.4933 C   0  0  0  0  0  0  0  0  0  0  0  0
  138.8014  140.4378  153.3293 C   0  0  0  0  0  0  0  0  0  0  0  0
  137.4770  140.5995  153.7796 C   0  0  0  0  0  0  0  0  0  0  0  0
  136.8083  139.5250  154.3973 C   0  0  0  0  0  0  0  0  0  0  0  0
  137.4614  138.2881  154.5642 C   0  0  0  0  0  0  0  0  0  0  0  0
  136.8093  137.2644  155.1661 F   0  0  0  0  0  0  0  0  0  0  0  0
  148.0094  137.8603  152.1864 H   0  0  0  0  0  0  0  0  0  0  0  0
  146.0204  138.3059  153.1179 H   0  0  0  0  0  0  0  0  0  0  0  0
  145.4135  138.7304  151.5251 H   0  0  0  0  0  0  0  0  0  0  0  0
  147.1269  132.8974  150.7622 H   0  0  0  0  0  0  0  0  0  0  0  0
  145.3466  131.1419  150.7923 H   0  0  0  0  0  0  0  0  0  0  0  0
  143.0249  131.7003  151.4129 H   0  0  0  0  0  0  0  0  0  0  0  0
  142.3801  134.0257  152.0272 H   0  0  0  0  0  0  0  0  0  0  0  0
  142.9969  137.6607  151.8077 H   0  0  0  0  0  0  0  0  0  0  0  0
  142.3495  136.1039  152.2397 H   0  0  0  0  0  0  0  0  0  0  0  0
  143.5965  136.3510  154.5073 H   0  0  0  0  0  0  0  0  0  0  0  0
  143.9730  138.8633  153.4453 H   0  0  0  0  0  0  0  0  0  0  0  0
  141.6974  137.0471  155.5124 H   0  0  0  0  0  0  0  0  0  0  0  0
  141.5789  138.5234  154.5696 H   0  0  0  0  0  0  0  0  0  0  0  0
  138.9003  135.9998  153.8430 H   0  0  0  0  0  0  0  0  0  0  0  0
  139.5861  136.5694  155.3515 H   0  0  0  0  0  0  0  0  0  0  0  0
  140.4717  139.0843  153.1468 H   0  0  0  0  0  0  0  0  0  0  0  0
  139.3158  141.2630  152.8591 H   0  0  0  0  0  0  0  0  0  0  0  0
  136.9751  141.5472  153.6535 H   0  0  0  0  0  0  0  0  0  0  0  0
  135.7937  139.6498  154.7457 H   0  0  0  0  0  0  0  0  0  0  0  0
  147.4606  135.7189  151.2668 H   0  0  0  0  0  0  0  0  0  0  0  0
  1  2  1  0  0  0  0
  1 25  1  0  0  0  0
  2  3  1  0  0  0  0
  2 26  1  0  0  0  0
  2 27  1  0  0  0  0
  3 11  1  0  0  0  0
  3  4  2  0  0  0  0
  4  5  1  0  0  0  0
  4 44  1  0  0  0  0
  5 10  2  0  0  0  0
  5  6  1  0  0  0  0
  6  7  2  0  0  0  0
  6 28  1  0  0  0  0
  7  8  1  0  0  0  0
  7 29  1  0  0  0  0
  8  9  2  0  0  0  0
  8 30  1  0  0  0  0
  9 10  1  0  0  0  0
  9 31  1  0  0  0  0
 10 11  1  0  0  0  0
 11 12  1  0  0  0  0
 12 13  1  0  0  0  0
 12 32  1  0  0  0  0
 12 33  1  0  0  0  0
 13 14  1  0  0  0  0
 13 15  1  0  0  0  0
 13 34  1  0  0  0  0
 14 35  1  0  0  0  0
 15 16  1  0  0  0  0
 15 36  1  0  0  0  0
 15 37  1  0  0  0  0
 16 17  1  0  0  0  0
 17 18  1  0  0  0  0
 17 38  1  0  0  0  0
 17 39  1  0  0  0  0
 18 23  1  0  0  0  0
 18 19  2  0  0  0  0
 19 20  1  0  0  0  0
 19 40  1  0  0  0  0
 20 21  2  0  0  0  0
 20 41  1  0  0  0  0
 21 22  1  0  0  0  0
 21 42  1  0  0  0  0
 22 23  2  0  0  0  0
 22 43  1  0  0  0  0
 23 24  1  0  0  0  0
M  CHG  1   4   1
M  END
> <s_m_source_file>
AV-unprocessed.smi

> <i_m_source_file_index>
1291

> <i_lp_mmshare_version>
43012

> <i_f3d_flags>
0

> <s_epik_input>
W2NIXTFbY0hdW2NIXVtjSF1jKGMxMiluKGMobjIpW0NIMl1bT0hdKVtDSDJdW0NASF0oW09IXSlbQ0gyXU9bQ0gyXWMzW2NIXVtjSF1bY0hdW2NIXWMzRg==

> <s_epik_cmdline>
J2VwaWtfcHl0aG9uJywgJy1waCcsICc3LjAnLCAnLXRuJywgJzgnLCAnLW1hJywgJzIwMCcsICctbWV0YWxfYmluZGluZycsICctaW1hZScsICc8aW5maWxlLm1hZT4nLCAnLW9tYWUnLCAnPG91dGZpbGUubWFlPic=

> <r_epik_Ionization_Penalty>
1.34314

> <r_epik_Ionization_Penalty_Charging>
1.34228

> <r_epik_Ionization_Penalty_Neutral>
0.000856861

> <r_epik_State_Penalty>
1.41963

> <r_epik_Charging_Adjusted_Penalty>
2.76191

> <i_epik_Tot_Q>
1

> <i_epik_Tot_abs_Q>
1

> <r_epik_Metal_State_Penalty>
5.45585

> <b_epik_Metal_Only>
0

> <s_lp_Force_Field>
OPLS_2005

> <r_lp_Energy>
19.0817

> <b_lp_Chiralities_Consistent>
1

> <s_lp_Variant>
AV-unprocessed.smi:1291-4

> <Gold.Version>
5.8.1

> <Gold.Id.Protein>
6NUR|6NUR_protein|mol2

> <Gold.PLP.Fitness>
59.1484

> <Gold.PLP.PLP>
-47.0845

> <Gold.PLP.part.hbond>
-4.9176

> <Gold.PLP.part.metal>
0.0000

> <Gold.PLP.part.buried>
-4.0564

> <Gold.PLP.part.nonpolar>
-38.5611

> <Gold.PLP.part.repulsive>
0.2044

> <Gold.PLP.ligand.clash>
0.0000

> <Gold.PLP.ligand.torsion>
0.9648

> <Gold.PLP.Chemscore.Hbond>
4.5120

> <Gold.PLP.Chemscore.CHOScore>
0.0000

> <Gold.PLP.Chemscore.Metal>
0.0000

> <Gold.Chemscore.Hbonds>
donor molecule, donor type, donor heavy atom, donor atom, acceptor molecule, acceptor atom, score
      L1  H     1    25       P1  7948  0.54
      L1  H     4    44       P1  7948  1.92
      L1  H    14    35       P1 10175  1.00
      P1  H  7954  7966       L1     1  1.00

> <Gold.PLP.Chemscore.Internal.Correction>
0.4576

> <Gold.Rescore>
     Score         DG    S(hbond)    S(metal)    S(lipo)     H(rot)  DE(clash)    DE(int)     intcor
     17.72     -18.97       2.93        0.00     106.78       3.44       0.07       1.17       ----

> <Gold.Chemscore.Fitness>
17.7217

> <Gold.Chemscore.DG>
-18.9655

> <Gold.Chemscore.ZeroCoef>
-5.4800

> <Gold.Chemscore.Hbond>
2.9302

> <Gold.Chemscore.Metal>
0.0000

> <Gold.Chemscore.Lipo>
106.7782

> <Gold.Chemscore.Internal_Hbond>
0.0000

> <Gold.Chemscore.DEClash>
0.0690

> <Gold.Chemscore.DEInternal>
1.1748

> <Gold.Chemscore.Rot>
3.4353

> <Gold.Chemscore.Internal.Correction>
   9.000000E+99

> <Gold.Chemscore.Hbonds>
donor molecule, donor type, donor heavy atom, donor atom, acceptor molecule, acceptor atom, score
      L1  H     1    25       P1  7948  0.54
      L1  H     4    44       P1  7948  0.83
      L1  H    14    35       P1 10175  0.99
      P1  H  7954  7966       L1     1  0.25

> <Gold.Chemscore.Hbond.Weighted>
-9.7869

> <Gold.Chemscore.Metal.Weighted>
-0.0000

> <Gold.Chemscore.Lipo.Weighted>
-12.4931

> <Gold.Chemscore.Internal_Hbond.Weighted>
0.0000

> <Gold.Chemscore.DEClash.Weighted>
0.0690

> <Gold.Chemscore.DEInternal.Weighted>
1.1748

> <Gold.Chemscore.Rot.Weighted>
8.7944

> <Gold.Chemscore.Internal.Correction.Weighted>
   9.000000E+99

> <Gold.Protein.RotatedTorsions>
[ 6907 6896 6895 6894 ] final  -22.28 input  -60.11 | X-H torsion
[ 7974 7965 7964 7962 ] final -114.55 input  175.53 | X-H torsion
[ 8008 7997 7996 7995 ] final   83.98 input   59.86 | X-H torsion
[ 10167 10162 10161 10158 ] final  177.94 input  -65.29 | X-H torsion
[ 10718 10713 10712 10709 ] final  -31.99 input   66.30 | X-H torsion
[ 10763 10752 10751 10750 ] final -134.09 input  -60.55 | X-H torsion
[ 11005 11000 10999 10996 ] final -149.19 input  -57.11 | X-H torsion

> <Gold.Protein.ActiveResidues>
 VAL166  LYS551  ARG553  GLY616  TRP617  ASP618  TYR619  PRO620  LYS621  CYS622 
 ASP623  PHE694  ASN695  SER759  ASP760  ASP761  ALA762  ILE779  LEU786  VAL792 
 PHE793  MET794  SER795  GLU796  ALA797  LYS798  CYS799  TRP800  GLU811  SER814 

> <Gold.Protein.RotatedAtoms>
  151.2210  135.0518  159.8949 H   0  0  0  0  0  0  0  0  0  0  0  0  # atno 6907 bound_to 6896
  152.5415  134.0641  159.8175 H   0  0  0  0  0  0  0  0  0  0  0  0  # atno 6908 bound_to 6896
  151.0807  133.5344  159.2652 H   0  0  0  0  0  0  0  0  0  0  0  0  # atno 6909 bound_to 6896
  145.1189  140.8657  143.3826 H   0  0  0  0  0  0  0  0  0  0  0  0  # atno 7974 bound_to 7965
  155.9310  140.3415  155.6249 H   0  0  0  0  0  0  0  0  0  0  0  0  # atno 8008 bound_to 7997
  155.7157  140.0777  157.2371 H   0  0  0  0  0  0  0  0  0  0  0  0  # atno 8009 bound_to 7997
  154.4085  140.1614  156.2333 H   0  0  0  0  0  0  0  0  0  0  0  0  # atno 8010 bound_to 7997
  139.5273  144.2739  152.0604 H   0  0  0  0  0  0  0  0  0  0  0  0  # atno 10167 bound_to 10162
  156.3804  130.4355  149.7473 H   0  0  0  0  0  0  0  0  0  0  0  0  # atno 10718 bound_to 10713
  154.8724  135.3745  154.4679 H   0  0  0  0  0  0  0  0  0  0  0  0  # atno 10763 bound_to 10752
  153.5342  135.7027  153.5673 H   0  0  0  0  0  0  0  0  0  0  0  0  # atno 10764 bound_to 10752
  153.3864  135.3983  155.1858 H   0  0  0  0  0  0  0  0  0  0  0  0  # atno 10765 bound_to 10752
  140.7533  134.3381  157.5120 H   0  0  0  0  0  0  0  0  0  0  0  0  # atno 11005 bound_to 11000
  145.0763  139.2993  143.5806 LP  0  0  0  0  0  0  0  0  0  0  0  0  # atno 17320 bound_to 7965
  146.3522  140.0254  142.8655 LP  0  0  0  0  0  0  0  0  0  0  0  0  # atno 17321 bound_to 7965
  140.2197  144.4479  150.6347 LP  0  0  0  0  0  0  0  0  0  0  0  0  # atno 17342 bound_to 10162
  140.6426  143.2207  151.6256 LP  0  0  0  0  0  0  0  0  0  0  0  0  # atno 17343 bound_to 10162
  156.4566  130.7932  151.2953 LP  0  0  0  0  0  0  0  0  0  0  0  0  # atno 17370 bound_to 10713
  157.7492  131.0079  150.3206 LP  0  0  0  0  0  0  0  0  0  0  0  0  # atno 17371 bound_to 10713
  139.8783  134.9156  156.3134 LP  0  0  0  0  0  0  0  0  0  0  0  0  # atno 17394 bound_to 11000
  140.9730  133.7315  156.0562 LP  0  0  0  0  0  0  0  0  0  0  0  0  # atno 17395 bound_to 11000

$$$$
