AV-unprocessed.smi:2944|AV-procd|sdf|11272|dock1
  -GOLD-   2272016163D 1   1.00000     0.00000
 Structure written by MMmdl.
 44 46  0  0  0  0  0  0  0  0  1 V2000
  152.3859  138.5390  154.7794 C   0  0  0  0  0  0  0  0  0  0  0  0
  152.5128  139.8397  155.3244 O   0  0  0  0  0  0  0  0  0  0  0  0
  151.2777  140.3582  155.7896 C   0  0  0  0  0  0  0  0  0  0  0  0
  150.9827  139.8110  157.1929 C   0  0  0  0  0  0  0  0  0  0  0  0
  151.7305  140.5192  158.2215 N   0  0  0  0  0  0  0  0  0  0  0  0
  152.5636  140.0069  159.1612 C   0  0  0  0  0  0  0  0  0  0  0  0
  152.8918  138.2748  159.2674 S   0  0  0  0  0  0  0  0  0  0  0  0
  153.6052  138.2024  160.9407 C   0  0  2  0  0  0  0  0  0  0  0  0
  154.8835  139.0585  161.0214 C   0  0  0  0  0  0  0  0  0  0  0  0
  153.8503  136.7389  161.3623 C   0  0  0  0  0  0  0  0  0  0  0  0
  153.7798  135.8685  160.4904 O   0  0  0  0  0  0  0  0  0  0  0  0
  154.1149  136.4691  162.6722 N   0  0  0  0  0  0  0  0  0  0  0  0
  154.2247  137.4910  163.7170 C   0  0  0  0  0  0  0  0  0  0  0  0
  154.4761  136.7040  164.9972 C   0  0  0  0  0  0  0  0  0  0  0  0
  154.5166  135.3481  164.5117 N   0  0  0  0  0  0  0  0  0  0  0  0
  154.3090  135.2347  163.1979 C   0  0  0  0  0  0  0  0  0  0  0  0
  154.2999  134.1544  162.6065 O   0  0  0  0  0  0  0  0  0  0  0  0
  153.1207  140.8984  159.9823 N   0  0  0  0  0  0  0  0  0  0  0  0
  152.6044  142.0969  159.5320 C   0  0  0  0  0  0  0  0  0  0  0  0
  152.8136  143.4180  159.9885 C   0  0  0  0  0  0  0  0  0  0  0  0
  152.1672  144.5014  159.3576 C   0  0  0  0  0  0  0  0  0  0  0  0
  151.3054  144.2798  158.2638 C   0  0  0  0  0  0  0  0  0  0  0  0
  151.0838  142.9715  157.7935 C   0  0  0  0  0  0  0  0  0  0  0  0
  151.7302  141.8941  158.4281 C   0  0  0  0  0  0  0  0  0  0  0  0
  153.3614  138.1863  154.4452 H   0  0  0  0  0  0  0  0  0  0  0  0
  151.7141  138.5356  153.9200 H   0  0  0  0  0  0  0  0  0  0  0  0
  152.0091  137.8350  155.5225 H   0  0  0  0  0  0  0  0  0  0  0  0
  151.3175  141.4483  155.8165 H   0  0  0  0  0  0  0  0  0  0  0  0
  150.4742  140.0778  155.1073 H   0  0  0  0  0  0  0  0  0  0  0  0
  149.9192  139.9067  157.4132 H   0  0  0  0  0  0  0  0  0  0  0  0
  151.2064  138.7457  157.2418 H   0  0  0  0  0  0  0  0  0  0  0  0
  152.8985  138.6456  161.6403 H   0  0  0  0  0  0  0  0  0  0  0  0
  155.3410  138.9965  162.0094 H   0  0  0  0  0  0  0  0  0  0  0  0
  154.6668  140.1095  160.8318 H   0  0  0  0  0  0  0  0  0  0  0  0
  155.6258  138.7418  160.2877 H   0  0  0  0  0  0  0  0  0  0  0  0
  155.0589  138.1653  163.5176 H   0  0  0  0  0  0  0  0  0  0  0  0
  153.3117  138.0809  163.8008 H   0  0  0  0  0  0  0  0  0  0  0  0
  155.4211  136.9745  165.4694 H   0  0  0  0  0  0  0  0  0  0  0  0
  153.6679  136.8269  165.7191 H   0  0  0  0  0  0  0  0  0  0  0  0
  154.6822  134.5608  165.1219 H   0  0  0  0  0  0  0  0  0  0  0  0
  153.4730  143.5986  160.8245 H   0  0  0  0  0  0  0  0  0  0  0  0
  152.3340  145.5075  159.7138 H   0  0  0  0  0  0  0  0  0  0  0  0
  150.8150  145.1150  157.7856 H   0  0  0  0  0  0  0  0  0  0  0  0
  150.4261  142.7987  156.9545 H   0  0  0  0  0  0  0  0  0  0  0  0
  1  2  1  0  0  0  0
  1 25  1  0  0  0  0
  1 26  1  0  0  0  0
  1 27  1  0  0  0  0
  2  3  1  0  0  0  0
  3  4  1  0  0  0  0
  3 28  1  0  0  0  0
  3 29  1  0  0  0  0
  4  5  1  0  0  0  0
  4 30  1  0  0  0  0
  4 31  1  0  0  0  0
  5 24  1  0  0  0  0
  5  6  1  0  0  0  0
  6  7  1  0  0  0  0
  6 18  2  0  0  0  0
  7  8  1  0  0  0  0
  8  9  1  0  0  0  0
  8 10  1  0  0  0  0
  8 32  1  0  0  0  0
  9 33  1  0  0  0  0
  9 34  1  0  0  0  0
  9 35  1  0  0  0  0
 10 11  2  0  0  0  0
 10 12  1  0  0  0  0
 12 16  1  0  0  0  0
 12 13  1  0  0  0  0
 13 14  1  0  0  0  0
 13 36  1  0  0  0  0
 13 37  1  0  0  0  0
 14 15  1  0  0  0  0
 14 38  1  0  0  0  0
 14 39  1  0  0  0  0
 15 16  1  0  0  0  0
 15 40  1  0  0  0  0
 16 17  2  0  0  0  0
 18 19  1  0  0  0  0
 19 24  2  0  0  0  0
 19 20  1  0  0  0  0
 20 21  2  0  0  0  0
 20 41  1  0  0  0  0
 21 22  1  0  0  0  0
 21 42  1  0  0  0  0
 22 23  2  0  0  0  0
 22 43  1  0  0  0  0
 23 24  1  0  0  0  0
 23 44  1  0  0  0  0
M  END
> <s_m_source_file>
AV-unprocessed.smi

> <i_m_source_file_index>
2944

> <i_lp_mmshare_version>
43012

> <i_f3d_flags>
0

> <s_epik_input>
W2NIXTFbY0hdW2NIXVtjSF1jKGMxMiluKFtDSDJdW0NIMl1PW0NIM10pYyhuMilTW0NASF0oW0NIM10pQyg9TylOM1tDSDJdW0NIMl1bTkhdQzM9Tw==

> <s_epik_cmdline>
J2VwaWtfcHl0aG9uJywgJy1waCcsICc3LjAnLCAnLXRuJywgJzgnLCAnLW1hJywgJzIwMCcsICctbWV0YWxfYmluZGluZycsICctaW1hZScsICc8aW5maWxlLm1hZT4nLCAnLW9tYWUnLCAnPG91dGZpbGUubWFlPic=

> <r_lp_tautomer_probability>
0.9999

> <r_epik_Ionization_Penalty>
0.0250226

> <r_epik_Ionization_Penalty_Charging>
0

> <r_epik_Ionization_Penalty_Neutral>
0.0250226

> <r_epik_State_Penalty>
0.0203222

> <r_epik_Charging_Adjusted_Penalty>
0.0203222

> <i_epik_Tot_Q>
0

> <i_epik_Tot_abs_Q>
0

> <r_epik_Metal_State_Penalty>
0.0194901

> <b_epik_Metal_Only>
0

> <s_lp_Force_Field>
OPLS_2005

> <r_lp_Energy>
42.2169

> <b_lp_Chiralities_Consistent>
1

> <s_lp_Variant>
AV-unprocessed.smi:2944-1

> <Gold.Version>
5.8.1

> <Gold.Id.Protein>
6NUR|6NUR_protein|mol2

> <Gold.PLP.Fitness>
55.9614

> <Gold.PLP.PLP>
-50.9692

> <Gold.PLP.part.hbond>
-3.0000

> <Gold.PLP.part.metal>
0.0000

> <Gold.PLP.part.buried>
-4.4365

> <Gold.PLP.part.nonpolar>
-44.3680

> <Gold.PLP.part.repulsive>
0.0143

> <Gold.PLP.ligand.clash>
0.0000

> <Gold.PLP.ligand.torsion>
0.6812

> <Gold.PLP.Chemscore.Hbond>
2.0000

> <Gold.PLP.Chemscore.CHOScore>
0.0000

> <Gold.PLP.Chemscore.Metal>
0.0000

> <Gold.Chemscore.Hbonds>
donor molecule, donor type, donor heavy atom, donor atom, acceptor molecule, acceptor atom, score
      P1  H  6896  6907       L1    11  1.00
      P1  H  7997  8008       L1     2  0.98

> <Gold.PLP.Chemscore.Internal.Correction>
0.3545

> <Gold.Rescore>
     Score         DG    S(hbond)    S(metal)    S(lipo)     H(rot)  DE(clash)    DE(int)     intcor
     17.13     -20.68       1.96        0.00     122.73       2.24       0.12       3.42       ----

> <Gold.Chemscore.Fitness>
17.1344

> <Gold.Chemscore.DG>
-20.6770

> <Gold.Chemscore.ZeroCoef>
-5.4800

> <Gold.Chemscore.Hbond>
1.9645

> <Gold.Chemscore.Metal>
0.0000

> <Gold.Chemscore.Lipo>
122.7251

> <Gold.Chemscore.Internal_Hbond>
0.0000

> <Gold.Chemscore.DEClash>
0.1208

> <Gold.Chemscore.DEInternal>
3.4218

> <Gold.Chemscore.Rot>
2.2357

> <Gold.Chemscore.Internal.Correction>
   9.000000E+99

> <Gold.Chemscore.Hbonds>
donor molecule, donor type, donor heavy atom, donor atom, acceptor molecule, acceptor atom, score
      P1  H  6896  6907       L1    11  1.00
      P1  H  7997  8008       L1     2  0.76

> <Gold.Chemscore.Hbond.Weighted>
-6.5616

> <Gold.Chemscore.Metal.Weighted>
-0.0000

> <Gold.Chemscore.Lipo.Weighted>
-14.3588

> <Gold.Chemscore.Internal_Hbond.Weighted>
0.0000

> <Gold.Chemscore.DEClash.Weighted>
0.1208

> <Gold.Chemscore.DEInternal.Weighted>
3.4218

> <Gold.Chemscore.Rot.Weighted>
5.7234

> <Gold.Chemscore.Internal.Correction.Weighted>
   9.000000E+99

> <Gold.Protein.RotatedTorsions>
[ 6907 6896 6895 6894 ] final   46.99 input  -60.11 | X-H torsion
[ 7974 7965 7964 7962 ] final  165.24 input  175.53 | X-H torsion
[ 8008 7997 7996 7995 ] final  -31.13 input   59.86 | X-H torsion
[ 10167 10162 10161 10158 ] final -147.85 input  -65.29 | X-H torsion
[ 10718 10713 10712 10709 ] final -114.67 input   66.30 | X-H torsion
[ 10763 10752 10751 10750 ] final   64.04 input  -60.55 | X-H torsion
[ 11005 11000 10999 10996 ] final  -42.55 input  -57.11 | X-H torsion

> <Gold.Protein.ActiveResidues>
 VAL166  LYS551  ARG553  GLY616  TRP617  ASP618  TYR619  PRO620  LYS621  CYS622 
 ASP623  PHE694  ASN695  SER759  ASP760  ASP761  ALA762  ILE779  LEU786  VAL792 
 PHE793  MET794  SER795  GLU796  ALA797  LYS798  CYS799  TRP800  GLU811  SER814 

> <Gold.Protein.RotatedAtoms>
  152.2629  134.8015  160.0427 H   0  0  0  0  0  0  0  0  0  0  0  0  # atno 6907 bound_to 6896
  151.8655  133.3460  159.3726 H   0  0  0  0  0  0  0  0  0  0  0  0  # atno 6908 bound_to 6896
  150.7123  134.5092  159.5643 H   0  0  0  0  0  0  0  0  0  0  0  0  # atno 6909 bound_to 6896
  144.7511  139.8442  143.6366 H   0  0  0  0  0  0  0  0  0  0  0  0  # atno 7974 bound_to 7965
  154.4225  140.1772  156.1518 H   0  0  0  0  0  0  0  0  0  0  0  0  # atno 8008 bound_to 7997
  155.9909  140.3369  155.6727 H   0  0  0  0  0  0  0  0  0  0  0  0  # atno 8009 bound_to 7997
  155.6374  140.0676  157.2620 H   0  0  0  0  0  0  0  0  0  0  0  0  # atno 8010 bound_to 7997
  139.7584  143.8413  152.2602 H   0  0  0  0  0  0  0  0  0  0  0  0  # atno 10167 bound_to 10162
  156.0845  130.6039  150.8806 H   0  0  0  0  0  0  0  0  0  0  0  0  # atno 10718 bound_to 10713
  153.0040  135.5407  154.6447 H   0  0  0  0  0  0  0  0  0  0  0  0  # atno 10763 bound_to 10752
  154.5693  135.2840  155.0845 H   0  0  0  0  0  0  0  0  0  0  0  0  # atno 10764 bound_to 10752
  154.2017  135.6483  153.5141 H   0  0  0  0  0  0  0  0  0  0  0  0  # atno 10765 bound_to 10752
  141.0323  133.6814  156.2610 H   0  0  0  0  0  0  0  0  0  0  0  0  # atno 11005 bound_to 11000
  146.1461  139.4531  143.0078 LP  0  0  0  0  0  0  0  0  0  0  0  0  # atno 17320 bound_to 7965
  145.6942  141.0155  143.1539 LP  0  0  0  0  0  0  0  0  0  0  0  0  # atno 17321 bound_to 7965
  139.8412  144.7209  150.9329 LP  0  0  0  0  0  0  0  0  0  0  0  0  # atno 17342 bound_to 10162
  140.7805  143.3982  151.1194 LP  0  0  0  0  0  0  0  0  0  0  0  0  # atno 17343 bound_to 10162
  157.5975  131.0942  150.9017 LP  0  0  0  0  0  0  0  0  0  0  0  0  # atno 17370 bound_to 10713
  156.9180  130.5305  149.5279 LP  0  0  0  0  0  0  0  0  0  0  0  0  # atno 17371 bound_to 10713
  140.6384  134.5191  157.5567 LP  0  0  0  0  0  0  0  0  0  0  0  0  # atno 17394 bound_to 11000
  139.9216  134.8137  156.1193 LP  0  0  0  0  0  0  0  0  0  0  0  0  # atno 17395 bound_to 11000

$$$$
