AV-unprocessed.smi:1191|AV-procd|sdf|4984|dock7
  -GOLD-   22720 3583D 1   1.00000     0.00000
 Structure written by MMmdl.
 47 48  0  0  0  0  0  0  0  0  2 V2000
  152.0885  141.5663  158.0847 C   0  0  0  0  0  0  0  0  0  0  0  0
  151.4383  140.9808  156.8659 C   0  0  0  0  0  0  0  0  0  0  0  0
  150.2729  141.4312  156.1853 C   0  0  0  0  0  0  0  0  0  0  0  0
  150.1224  140.5486  155.1530 C   0  0  0  0  0  0  0  0  0  0  0  0
  149.0813  140.4887  154.0840 C   0  0  0  0  0  0  0  0  0  0  0  0
  151.1604  139.6378  155.2489 N   0  0  0  0  0  0  0  0  0  0  0  0
  151.4627  138.4943  154.4015 C   0  0  0  0  0  0  0  0  0  0  0  0
  150.9283  137.1961  155.0100 C   0  0  0  0  0  0  0  0  0  0  0  0
  151.5193  136.6624  155.9489 O   0  0  0  0  0  0  0  0  0  0  0  0
  149.7992  136.7036  154.4777 N   0  0  0  0  0  0  0  0  0  0  0  0
  149.1161  135.5029  154.9427 C   0  0  0  0  0  0  0  0  0  0  0  0
  147.6077  135.5618  154.6317 C   0  0  0  0  0  0  0  0  0  0  0  0
  147.2696  134.9307  153.3309 N   0  3  1  0  0  0  0  0  0  0  0  0
  147.4954  133.4622  153.3475 C   0  0  0  0  0  0  0  0  0  0  0  0
  147.2794  132.8519  151.9538 C   0  0  0  0  0  0  0  0  0  0  0  0
  145.8792  133.1811  151.4215 C   0  0  0  0  0  0  0  0  0  0  0  0
  145.6475  134.7013  151.4368 C   0  0  1  0  0  0  0  0  0  0  0  0
  144.2425  135.0595  150.9319 C   0  0  0  0  0  0  0  0  0  0  0  0
  145.9025  135.2669  152.8486 C   0  0  0  0  0  0  0  0  0  0  0  0
  151.9648  139.9079  156.2997 N   0  0  0  0  0  0  0  0  0  0  0  0
  151.4924  142.3806  158.4970 H   0  0  0  0  0  0  0  0  0  0  0  0
  153.0759  141.9641  157.8489 H   0  0  0  0  0  0  0  0  0  0  0  0
  152.2080  140.8151  158.8659 H   0  0  0  0  0  0  0  0  0  0  0  0
  149.6427  142.2761  156.4201 H   0  0  0  0  0  0  0  0  0  0  0  0
  148.4263  141.3587  154.1311 H   0  0  0  0  0  0  0  0  0  0  0  0
  148.4629  139.5978  154.1940 H   0  0  0  0  0  0  0  0  0  0  0  0
  149.5377  140.4676  153.0944 H   0  0  0  0  0  0  0  0  0  0  0  0
  151.0377  138.6668  153.4118 H   0  0  0  0  0  0  0  0  0  0  0  0
  152.5429  138.4126  154.2712 H   0  0  0  0  0  0  0  0  0  0  0  0
  149.3811  137.2007  153.7042 H   0  0  0  0  0  0  0  0  0  0  0  0
  149.5848  134.6545  154.4462 H   0  0  0  0  0  0  0  0  0  0  0  0
  149.2821  135.3681  156.0131 H   0  0  0  0  0  0  0  0  0  0  0  0
  147.0742  135.0373  155.4258 H   0  0  0  0  0  0  0  0  0  0  0  0
  147.2477  136.5917  154.6499 H   0  0  0  0  0  0  0  0  0  0  0  0
  148.5132  133.2474  153.6757 H   0  0  0  0  0  0  0  0  0  0  0  0
  146.8239  132.9976  154.0714 H   0  0  0  0  0  0  0  0  0  0  0  0
  148.0338  133.2337  151.2646 H   0  0  0  0  0  0  0  0  0  0  0  0
  147.4170  131.7710  151.9951 H   0  0  0  0  0  0  0  0  0  0  0  0
  145.7659  132.7901  150.4095 H   0  0  0  0  0  0  0  0  0  0  0  0
  145.1271  132.6824  152.0346 H   0  0  0  0  0  0  0  0  0  0  0  0
  146.3666  135.1593  150.7555 H   0  0  0  0  0  0  0  0  0  0  0  0
  143.4694  134.6318  151.5711 H   0  0  0  0  0  0  0  0  0  0  0  0
  144.0821  134.6852  149.9205 H   0  0  0  0  0  0  0  0  0  0  0  0
  144.0961  136.1397  150.9091 H   0  0  0  0  0  0  0  0  0  0  0  0
  145.1640  134.8771  153.5513 H   0  0  0  0  0  0  0  0  0  0  0  0
  145.7698  136.3477  152.8218 H   0  0  0  0  0  0  0  0  0  0  0  0
  147.9212  135.3054  152.6560 H   0  0  0  0  0  0  0  0  0  0  0  0
  1  2  1  0  0  0  0
  1 21  1  0  0  0  0
  1 22  1  0  0  0  0
  1 23  1  0  0  0  0
  2 20  2  0  0  0  0
  2  3  1  0  0  0  0
  3  4  2  0  0  0  0
  3 24  1  0  0  0  0
  4  5  1  0  0  0  0
  4  6  1  0  0  0  0
  5 25  1  0  0  0  0
  5 26  1  0  0  0  0
  5 27  1  0  0  0  0
  6  7  1  0  0  0  0
  6 20  1  0  0  0  0
  7  8  1  0  0  0  0
  7 28  1  0  0  0  0
  7 29  1  0  0  0  0
  8  9  2  0  0  0  0
  8 10  1  0  0  0  0
 10 11  1  0  0  0  0
 10 30  1  0  0  0  0
 11 12  1  0  0  0  0
 11 31  1  0  0  0  0
 11 32  1  0  0  0  0
 12 13  1  0  0  0  0
 12 33  1  0  0  0  0
 12 34  1  0  0  0  0
 13 19  1  0  0  0  0
 13 14  1  0  0  0  0
 13 47  1  0  0  0  0
 14 15  1  0  0  0  0
 14 35  1  0  0  0  0
 14 36  1  0  0  0  0
 15 16  1  0  0  0  0
 15 37  1  0  0  0  0
 15 38  1  0  0  0  0
 16 17  1  0  0  0  0
 16 39  1  0  0  0  0
 16 40  1  0  0  0  0
 17 18  1  0  0  0  0
 17 19  1  0  0  0  0
 17 41  1  0  0  0  0
 18 42  1  0  0  0  0
 18 43  1  0  0  0  0
 18 44  1  0  0  0  0
 19 45  1  0  0  0  0
 19 46  1  0  0  0  0
M  CHG  1  13   1
M  END
> <s_m_source_file>
AV-unprocessed.smi

> <i_m_source_file_index>
1191

> <i_lp_mmshare_version>
43012

> <i_f3d_flags>
0

> <s_epik_input>
W0NIM11jMVtjSF1jKFtDSDNdKW4objEpW0NIMl1DKD1PKVtOSF1bQ0gyXVtDSDJdTjJbQ0gyXVtDSDJdW0NIMl1bQ0BASF0oW0NIM10pW0NIMl0y

> <s_epik_cmdline>
J2VwaWtfcHl0aG9uJywgJy1waCcsICc3LjAnLCAnLXRuJywgJzgnLCAnLW1hJywgJzIwMCcsICctbWV0YWxfYmluZGluZycsICctaW1hZScsICc8aW5maWxlLm1hZT4nLCAnLW9tYWUnLCAnPG91dGZpbGUubWFlPic=

> <r_lp_tautomer_probability>
1

> <r_epik_Ionization_Penalty>
0.00249932

> <r_epik_Ionization_Penalty_Charging>
0.00230623

> <r_epik_Ionization_Penalty_Neutral>
0.000193092

> <r_epik_State_Penalty>
-0

> <r_epik_Charging_Adjusted_Penalty>
0.00230623

> <i_epik_Tot_Q>
1

> <i_epik_Tot_abs_Q>
1

> <r_epik_Metal_State_Penalty>
-0

> <b_epik_Metal_Only>
0

> <s_lp_Force_Field>
OPLS_2005

> <r_lp_Energy>
14.3844

> <b_lp_Chiralities_Consistent>
1

> <s_lp_Variant>
AV-unprocessed.smi:1191-1

> <Gold.Version>
5.8.1

> <Gold.Id.Protein>
6NUR|6NUR_protein|mol2

> <Gold.PLP.Fitness>
45.9246

> <Gold.PLP.PLP>
-35.3512

> <Gold.PLP.part.hbond>
-3.9832

> <Gold.PLP.part.metal>
0.0000

> <Gold.PLP.part.buried>
-1.5037

> <Gold.PLP.part.nonpolar>
-28.3773

> <Gold.PLP.part.repulsive>
0.0694

> <Gold.PLP.ligand.clash>
0.0000

> <Gold.PLP.ligand.torsion>
1.0017

> <Gold.PLP.Chemscore.Hbond>
4.1786

> <Gold.PLP.Chemscore.CHOScore>
0.0000

> <Gold.PLP.Chemscore.Metal>
0.0000

> <Gold.Chemscore.Hbonds>
donor molecule, donor type, donor heavy atom, donor atom, acceptor molecule, acceptor atom, score
      L1  H    10    30       P1  7948  0.36
      L1  H    13    47       P1  7948  2.00
      P1  H  7997  8010       L1    20  0.13
      P1  H 10752 10765       L1     9  0.62

> <Gold.PLP.Chemscore.Internal.Correction>
0.0412

> <Gold.Rescore>
     Score         DG    S(hbond)    S(metal)    S(lipo)     H(rot)  DE(clash)    DE(int)     intcor
     17.82     -19.17       2.64        0.00      78.10       1.67       0.13       1.22       ----

> <Gold.Chemscore.Fitness>
17.8217

> <Gold.Chemscore.DG>
-19.1704

> <Gold.Chemscore.ZeroCoef>
-5.4800

> <Gold.Chemscore.Hbond>
2.6398

> <Gold.Chemscore.Metal>
0.0000

> <Gold.Chemscore.Lipo>
78.0976

> <Gold.Chemscore.Internal_Hbond>
0.0000

> <Gold.Chemscore.DEClash>
0.1321

> <Gold.Chemscore.DEInternal>
1.2166

> <Gold.Chemscore.Rot>
1.6657

> <Gold.Chemscore.Internal.Correction>
   9.000000E+99

> <Gold.Chemscore.Hbonds>
donor molecule, donor type, donor heavy atom, donor atom, acceptor molecule, acceptor atom, score
      L1  H    10    30       P1  7948  0.33
      L1  H    13    47       P1  7948  0.97
      P1  H  7997  8010       L1    20  0.10
      P1  H 10752 10765       L1     9  0.28

> <Gold.Chemscore.Hbond.Weighted>
-8.8170

> <Gold.Chemscore.Metal.Weighted>
-0.0000

> <Gold.Chemscore.Lipo.Weighted>
-9.1374

> <Gold.Chemscore.Internal_Hbond.Weighted>
0.0000

> <Gold.Chemscore.DEClash.Weighted>
0.1321

> <Gold.Chemscore.DEInternal.Weighted>
1.2166

> <Gold.Chemscore.Rot.Weighted>
4.2641

> <Gold.Chemscore.Internal.Correction.Weighted>
   9.000000E+99

> <Gold.Protein.RotatedTorsions>
[ 6907 6896 6895 6894 ] final  -55.19 input  -60.11 | X-H torsion
[ 7974 7965 7964 7962 ] final  124.88 input  175.53 | X-H torsion
[ 8008 7997 7996 7995 ] final   79.45 input   59.86 | X-H torsion
[ 10167 10162 10161 10158 ] final  -16.93 input  -65.29 | X-H torsion
[ 10718 10713 10712 10709 ] final   84.55 input   66.30 | X-H torsion
[ 10763 10752 10751 10750 ] final -154.09 input  -60.55 | X-H torsion
[ 11005 11000 10999 10996 ] final  -31.54 input  -57.11 | X-H torsion

> <Gold.Protein.ActiveResidues>
 VAL166  LYS551  ARG553  GLY616  TRP617  ASP618  TYR619  PRO620  LYS621  CYS622 
 ASP623  PHE694  ASN695  SER759  ASP760  ASP761  ALA762  ILE779  LEU786  VAL792 
 PHE793  MET794  SER795  GLU796  ALA797  LYS798  CYS799  TRP800  GLU811  SER814 

> <Gold.Protein.RotatedAtoms>
  150.8273  134.7509  159.6823 H   0  0  0  0  0  0  0  0  0  0  0  0  # atno 6907 bound_to 6896
  152.4382  134.5641  159.9912 H   0  0  0  0  0  0  0  0  0  0  0  0  # atno 6908 bound_to 6896
  151.5810  133.3340  159.3044 H   0  0  0  0  0  0  0  0  0  0  0  0  # atno 6909 bound_to 6896
  145.0794  139.3669  143.4917 H   0  0  0  0  0  0  0  0  0  0  0  0  # atno 7974 bound_to 7965
  155.8698  140.3449  155.5813 H   0  0  0  0  0  0  0  0  0  0  0  0  # atno 8008 bound_to 7997
  155.7840  140.0862  157.2063 H   0  0  0  0  0  0  0  0  0  0  0  0  # atno 8009 bound_to 7997
  154.4016  140.1495  156.3072 H   0  0  0  0  0  0  0  0  0  0  0  0  # atno 8010 bound_to 7997
  140.7240  143.5067  150.9801 H   0  0  0  0  0  0  0  0  0  0  0  0  # atno 10167 bound_to 10162
  157.6900  131.0138  150.2689 H   0  0  0  0  0  0  0  0  0  0  0  0  # atno 10718 bound_to 10713
  154.7882  135.3198  154.7837 H   0  0  0  0  0  0  0  0  0  0  0  0  # atno 10763 bound_to 10752
  153.8532  135.6860  153.4794 H   0  0  0  0  0  0  0  0  0  0  0  0  # atno 10764 bound_to 10752
  153.1542  135.4687  154.9620 H   0  0  0  0  0  0  0  0  0  0  0  0  # atno 10765 bound_to 10752
  140.9477  133.7240  156.1172 H   0  0  0  0  0  0  0  0  0  0  0  0  # atno 11005 bound_to 11000
  146.3530  140.0577  142.8631 LP  0  0  0  0  0  0  0  0  0  0  0  0  # atno 17320 bound_to 7965
  145.1197  140.9455  143.4608 LP  0  0  0  0  0  0  0  0  0  0  0  0  # atno 17321 bound_to 7965
  139.8778  143.7110  152.3160 LP  0  0  0  0  0  0  0  0  0  0  0  0  # atno 17342 bound_to 10162
  139.7381  144.7566  151.0695 LP  0  0  0  0  0  0  0  0  0  0  0  0  # atno 17343 bound_to 10162
  156.3256  130.3792  149.7536 LP  0  0  0  0  0  0  0  0  0  0  0  0  # atno 17370 bound_to 10713
  156.5093  130.8164  151.3162 LP  0  0  0  0  0  0  0  0  0  0  0  0  # atno 17371 bound_to 10713
  140.7646  134.3901  157.5519 LP  0  0  0  0  0  0  0  0  0  0  0  0  # atno 17394 bound_to 11000
  139.8838  134.8983  156.2742 LP  0  0  0  0  0  0  0  0  0  0  0  0  # atno 17395 bound_to 11000

$$$$
