AV-unprocessed.smi:2253|AV-procd|sdf|9116|dock2
  -GOLD-   2272012323D 1   1.00000     0.00000
 Structure written by MMmdl.
 52 54  0  0  0  0  0  0  0  0  3 V2000
  147.6273  131.0903  153.3517 C   0  0  0  0  0  0  0  0  0  0  0  0
  147.0467  131.9146  152.2697 N   0  3  2  0  0  0  0  0  0  0  0  0
  147.0303  133.3596  152.6068 C   0  0  0  0  0  0  0  0  0  0  0  0
  146.5097  134.1987  151.4254 C   0  0  0  0  0  0  0  0  0  0  0  0
  145.0900  133.7639  150.9856 C   0  0  2  0  0  0  0  0  0  0  0  0
  144.0409  134.1383  151.9946 N   0  3  2  0  0  0  0  0  0  0  0  0
  142.6868  133.5613  151.7433 C   0  0  0  0  0  0  0  0  0  0  0  0
  141.7022  133.8928  152.8780 C   0  0  0  0  0  0  0  0  0  0  0  0
  141.5902  135.4054  153.1040 C   0  0  1  0  0  0  0  0  0  0  0  0
  140.7140  135.6759  154.2401 N   0  0  0  0  0  0  0  0  0  0  0  0
  139.6467  136.4877  154.2147 C   0  0  0  0  0  0  0  0  0  0  0  0
  139.2901  137.1014  153.2094 O   0  0  0  0  0  0  0  0  0  0  0  0
  139.0356  136.5206  155.4114 N   0  0  0  0  0  0  0  0  0  0  0  0
  137.8810  137.2482  155.8125 C   0  0  0  0  0  0  0  0  0  0  0  0
  137.0326  137.9580  154.9277 C   0  0  0  0  0  0  0  0  0  0  0  0
  135.9278  138.6505  155.4628 C   0  0  0  0  0  0  0  0  0  0  0  0
  135.6346  138.6815  156.7800 N   0  0  0  0  0  0  0  0  0  0  0  0
  136.4516  138.0138  157.6214 C   0  0  0  0  0  0  0  0  0  0  0  0
  137.5817  137.2901  157.1908 C   0  0  0  0  0  0  0  0  0  0  0  0
  138.3632  136.6444  158.0900 F   0  0  0  0  0  0  0  0  0  0  0  0
  142.9952  135.9779  153.3444 C   0  0  0  0  0  0  0  0  0  0  0  0
  143.9429  135.6145  152.1907 C   0  0  0  0  0  0  0  0  0  0  0  0
  145.1776  132.2525  150.6537 C   0  0  0  0  0  0  0  0  0  0  0  0
  145.7144  131.4248  151.8373 C   0  0  0  0  0  0  0  0  0  0  0  0
  147.0191  131.1447  154.2556 H   0  0  0  0  0  0  0  0  0  0  0  0
  148.6345  131.4294  153.5958 H   0  0  0  0  0  0  0  0  0  0  0  0
  147.6944  130.0455  153.0466 H   0  0  0  0  0  0  0  0  0  0  0  0
  146.4139  133.5254  153.4918 H   0  0  0  0  0  0  0  0  0  0  0  0
  148.0409  133.6812  152.8620 H   0  0  0  0  0  0  0  0  0  0  0  0
  146.5655  135.2576  151.6687 H   0  0  0  0  0  0  0  0  0  0  0  0
  147.1925  134.0714  150.5838 H   0  0  0  0  0  0  0  0  0  0  0  0
  144.8382  134.2826  150.0590 H   0  0  0  0  0  0  0  0  0  0  0  0
  142.3040  133.9259  150.7886 H   0  0  0  0  0  0  0  0  0  0  0  0
  142.7271  132.4757  151.6817 H   0  0  0  0  0  0  0  0  0  0  0  0
  140.7208  133.4771  152.6450 H   0  0  0  0  0  0  0  0  0  0  0  0
  142.0337  133.4042  153.7958 H   0  0  0  0  0  0  0  0  0  0  0  0
  141.1640  135.8587  152.2065 H   0  0  0  0  0  0  0  0  0  0  0  0
  140.9312  135.2066  155.1074 H   0  0  0  0  0  0  0  0  0  0  0  0
  139.4169  135.9092  156.1184 H   0  0  0  0  0  0  0  0  0  0  0  0
  137.2059  137.9974  153.8642 H   0  0  0  0  0  0  0  0  0  0  0  0
  135.2631  139.2004  154.8132 H   0  0  0  0  0  0  0  0  0  0  0  0
  136.1982  138.0586  158.6703 H   0  0  0  0  0  0  0  0  0  0  0  0
  142.9473  137.0628  153.4475 H   0  0  0  0  0  0  0  0  0  0  0  0
  143.3999  135.5964  154.2831 H   0  0  0  0  0  0  0  0  0  0  0  0
  144.9136  136.0511  152.4137 H   0  0  0  0  0  0  0  0  0  0  0  0
  143.5984  136.0820  151.2667 H   0  0  0  0  0  0  0  0  0  0  0  0
  144.2316  131.8527  150.2903 H   0  0  0  0  0  0  0  0  0  0  0  0
  145.8607  132.1239  149.8125 H   0  0  0  0  0  0  0  0  0  0  0  0
  145.7940  130.3782  151.5407 H   0  0  0  0  0  0  0  0  0  0  0  0
  145.0202  131.4622  152.6778 H   0  0  0  0  0  0  0  0  0  0  0  0
  144.3437  133.7496  152.8761 H   0  0  0  0  0  0  0  0  0  0  0  0
  147.6623  131.8124  151.4751 H   0  0  0  0  0  0  0  0  0  0  0  0
  1  2  1  0  0  0  0
  1 25  1  0  0  0  0
  1 26  1  0  0  0  0
  1 27  1  0  0  0  0
  2 24  1  0  0  0  0
  2  3  1  0  0  0  0
  2 52  1  0  0  0  0
  3  4  1  0  0  0  0
  3 28  1  0  0  0  0
  3 29  1  0  0  0  0
  4  5  1  0  0  0  0
  4 30  1  0  0  0  0
  4 31  1  0  0  0  0
  5  6  1  0  0  0  0
  5 23  1  0  0  0  0
  5 32  1  0  0  0  0
  6 22  1  0  0  0  0
  6  7  1  0  0  0  0
  6 51  1  0  0  0  0
  7  8  1  0  0  0  0
  7 33  1  0  0  0  0
  7 34  1  0  0  0  0
  8  9  1  0  0  0  0
  8 35  1  0  0  0  0
  8 36  1  0  0  0  0
  9 10  1  0  0  0  0
  9 21  1  0  0  0  0
  9 37  1  0  0  0  0
 10 11  1  0  0  0  0
 10 38  1  0  0  0  0
 11 12  2  0  0  0  0
 11 13  1  0  0  0  0
 13 14  1  0  0  0  0
 13 39  1  0  0  0  0
 14 19  1  0  0  0  0
 14 15  2  0  0  0  0
 15 16  1  0  0  0  0
 15 40  1  0  0  0  0
 16 17  2  0  0  0  0
 16 41  1  0  0  0  0
 17 18  1  0  0  0  0
 18 19  2  0  0  0  0
 18 42  1  0  0  0  0
 19 20  1  0  0  0  0
 21 22  1  0  0  0  0
 21 43  1  0  0  0  0
 21 44  1  0  0  0  0
 22 45  1  0  0  0  0
 22 46  1  0  0  0  0
 23 24  1  0  0  0  0
 23 47  1  0  0  0  0
 23 48  1  0  0  0  0
 24 49  1  0  0  0  0
 24 50  1  0  0  0  0
M  CHG  1   2   1
M  CHG  1   6   1
M  END
> <s_m_source_file>
AV-unprocessed.smi

> <i_m_source_file_index>
2253

> <i_lp_mmshare_version>
43012

> <i_f3d_flags>
0

> <s_epik_input>
W0NIM11OMVtDSDJdW0NIMl1bQ0hdKFtDSDJdW0NIMl0xKU4yW0NIMl1bQ0gyXVtDSF0oW0NIMl1bQ0gyXTIpW05IXUMoPU8pW05IXWMzW2NIXVtjSF1uW2NIXWMzRg==

> <s_epik_cmdline>
J2VwaWtfcHl0aG9uJywgJy1waCcsICc3LjAnLCAnLXRuJywgJzgnLCAnLW1hJywgJzIwMCcsICctbWV0YWxfYmluZGluZycsICctaW1hZScsICc8aW5maWxlLm1hZT4nLCAnLW9tYWUnLCAnPG91dGZpbGUubWFlPic=

> <r_epik_Ionization_Penalty>
0.183544

> <r_epik_Ionization_Penalty_Charging>
0.180787

> <r_epik_Ionization_Penalty_Neutral>
0.00275649

> <r_epik_State_Penalty>
0.153592

> <r_epik_Charging_Adjusted_Penalty>
0.334379

> <i_epik_Tot_Q>
2

> <i_epik_Tot_abs_Q>
2

> <r_epik_Metal_State_Penalty>
0.153693

> <b_epik_Metal_Only>
0

> <s_lp_Force_Field>
OPLS_2005

> <r_lp_Energy>
49.9485

> <b_lp_Chiralities_Consistent>
1

> <s_lp_Variant>
AV-unprocessed.smi:2253-2

> <Gold.Version>
5.8.1

> <Gold.Id.Protein>
6NUR|6NUR_protein|mol2

> <Gold.PLP.Fitness>
42.8517

> <Gold.PLP.PLP>
-34.1009

> <Gold.PLP.part.hbond>
-3.0000

> <Gold.PLP.part.metal>
0.0000

> <Gold.PLP.part.buried>
-3.2893

> <Gold.PLP.part.nonpolar>
-28.3215

> <Gold.PLP.part.repulsive>
0.6169

> <Gold.PLP.ligand.clash>
0.0000

> <Gold.PLP.ligand.torsion>
0.1281

> <Gold.PLP.Chemscore.Hbond>
2.9920

> <Gold.PLP.Chemscore.CHOScore>
0.0000

> <Gold.PLP.Chemscore.Metal>
0.0000

> <Gold.Chemscore.Hbonds>
donor molecule, donor type, donor heavy atom, donor atom, acceptor molecule, acceptor atom, score
      L1  H     2    52       P1 10747  1.00
      L1  H    10    38       P1 11000  0.99
      L1  H    13    39       P1 11000  1.00

> <Gold.PLP.Chemscore.Internal.Correction>
0.0309

> <Gold.Rescore>
     Score         DG    S(hbond)    S(metal)    S(lipo)     H(rot)  DE(clash)    DE(int)     intcor
     17.18     -20.61       2.56        0.00      83.67       1.26       1.57       1.86       ----

> <Gold.Chemscore.Fitness>
17.1775

> <Gold.Chemscore.DG>
-20.6114

> <Gold.Chemscore.ZeroCoef>
-5.4800

> <Gold.Chemscore.Hbond>
2.5619

> <Gold.Chemscore.Metal>
0.0000

> <Gold.Chemscore.Lipo>
83.6741

> <Gold.Chemscore.Internal_Hbond>
0.0000

> <Gold.Chemscore.DEClash>
1.5746

> <Gold.Chemscore.DEInternal>
1.8594

> <Gold.Chemscore.Rot>
1.2559

> <Gold.Chemscore.Internal.Correction>
   9.000000E+99

> <Gold.Chemscore.Hbonds>
donor molecule, donor type, donor heavy atom, donor atom, acceptor molecule, acceptor atom, score
      L1  H     2    52       P1 10747  0.93
      L1  H    10    38       P1 11000  0.32
      L1  H    13    39       P1 11000  0.70

> <Gold.Chemscore.Hbond.Weighted>
-8.5567

> <Gold.Chemscore.Metal.Weighted>
-0.0000

> <Gold.Chemscore.Lipo.Weighted>
-9.7899

> <Gold.Chemscore.Internal_Hbond.Weighted>
0.0000

> <Gold.Chemscore.DEClash.Weighted>
1.5746

> <Gold.Chemscore.DEInternal.Weighted>
1.8594

> <Gold.Chemscore.Rot.Weighted>
3.2151

> <Gold.Chemscore.Internal.Correction.Weighted>
   9.000000E+99

> <Gold.Protein.RotatedTorsions>
[ 6907 6896 6895 6894 ] final  -13.20 input  -60.11 | X-H torsion
[ 7974 7965 7964 7962 ] final  125.62 input  175.53 | X-H torsion
[ 8008 7997 7996 7995 ] final    6.51 input   59.86 | X-H torsion
[ 10167 10162 10161 10158 ] final   15.01 input  -65.29 | X-H torsion
[ 10718 10713 10712 10709 ] final  124.21 input   66.30 | X-H torsion
[ 10763 10752 10751 10750 ] final   88.07 input  -60.55 | X-H torsion
[ 11005 11000 10999 10996 ] final  -98.28 input  -57.11 | X-H torsion

> <Gold.Protein.ActiveResidues>
 VAL166  LYS551  ARG553  GLY616  TRP617  ASP618  TYR619  PRO620  LYS621  CYS622 
 ASP623  PHE694  ASN695  SER759  ASP760  ASP761  ALA762  ILE779  LEU786  VAL792 
 PHE793  MET794  SER795  GLU796  ALA797  LYS798  CYS799  TRP800  GLU811  SER814 

> <Gold.Protein.RotatedAtoms>
  151.3585  135.0899  159.9426 H   0  0  0  0  0  0  0  0  0  0  0  0  # atno 6907 bound_to 6896
  152.5168  133.9281  159.7577 H   0  0  0  0  0  0  0  0  0  0  0  0  # atno 6908 bound_to 6896
  150.9671  133.6329  159.2773 H   0  0  0  0  0  0  0  0  0  0  0  0  # atno 6909 bound_to 6896
  145.0709  139.3730  143.4958 H   0  0  0  0  0  0  0  0  0  0  0  0  # atno 7974 bound_to 7965
  154.7419  140.2750  155.6366 H   0  0  0  0  0  0  0  0  0  0  0  0  # atno 8008 bound_to 7997
  156.2875  140.2695  156.2074 H   0  0  0  0  0  0  0  0  0  0  0  0  # atno 8009 bound_to 7997
  155.0247  140.0371  157.2441 H   0  0  0  0  0  0  0  0  0  0  0  0  # atno 8010 bound_to 7997
  140.5897  143.8820  150.6862 H   0  0  0  0  0  0  0  0  0  0  0  0  # atno 10167 bound_to 10162
  157.5604  131.1090  150.8549 H   0  0  0  0  0  0  0  0  0  0  0  0  # atno 10718 bound_to 10713
  153.1732  135.4520  154.9930 H   0  0  0  0  0  0  0  0  0  0  0  0  # atno 10763 bound_to 10752
  154.7980  135.3245  154.7622 H   0  0  0  0  0  0  0  0  0  0  0  0  # atno 10764 bound_to 10752
  153.8096  135.6956  153.4898 H   0  0  0  0  0  0  0  0  0  0  0  0  # atno 10765 bound_to 10752
  141.1350  133.8234  157.0819 H   0  0  0  0  0  0  0  0  0  0  0  0  # atno 11005 bound_to 11000
  146.3528  140.0454  142.8640 LP  0  0  0  0  0  0  0  0  0  0  0  0  # atno 17320 bound_to 7965
  145.1293  140.9508  143.4554 LP  0  0  0  0  0  0  0  0  0  0  0  0  # atno 17321 bound_to 7965
  140.2340  143.3714  152.1542 LP  0  0  0  0  0  0  0  0  0  0  0  0  # atno 17342 bound_to 10162
  139.5219  144.7052  151.5374 LP  0  0  0  0  0  0  0  0  0  0  0  0  # atno 17343 bound_to 10162
  156.9048  130.5260  149.5281 LP  0  0  0  0  0  0  0  0  0  0  0  0  # atno 17370 bound_to 10713
  156.0657  130.5701  150.9283 LP  0  0  0  0  0  0  0  0  0  0  0  0  # atno 17371 bound_to 10713
  140.0446  134.9837  157.1026 LP  0  0  0  0  0  0  0  0  0  0  0  0  # atno 17394 bound_to 11000
  140.4082  134.2009  155.7163 LP  0  0  0  0  0  0  0  0  0  0  0  0  # atno 17395 bound_to 11000

$$$$
