#       Name:                AV-unprocessed.smi:2032
#       Creating user name   scv26
#       Creation time:       Fri Mar 27 10:52:36 2020


#       File generated by GOLD software.
#

@<TRIPOS>MOLECULE
AV-unprocessed.smi:2032
    48    49     1
SMALL
NO_CHARGES


@<TRIPOS>ATOM
      1 ****        -4.0503  -0.3384  -3.1832 C.3            1 S1                 0.0000
      2 ****        -3.4048   0.0809  -1.8577 C.3            1 S1                 0.0000
      3 ****        -1.8687  -0.0183  -1.9092 C.3            1 S1                 0.0000
      4 ****        -1.2714   0.2987  -0.5844 N.4            1 S1                 1.0000
      5 ****         0.2255   0.3289  -0.5245 C.3            1 S1                 0.0000
      6 ****         0.8971   0.7651  -1.8492 C.3            1 S1                 0.0000
      7 ****         0.6845   1.2461   0.6392 C.3            1 S1                 0.0000
      8 ****         2.1333   1.2632   0.8138 N.am           1 S1                 0.0000
      9 ****         2.8655   0.2772   1.3506 C.2            1 S1                 0.0000
     10 ****         2.3111  -0.7435   1.7653 O.2            1 S1                 0.0000
     11 ****         4.1926   0.5328   1.3647 N.pl3          1 S1                -1.0000
     12 ****         5.0472  -0.3824   1.8499 C.2            1 S1                 0.0000
     13 ****         5.5620  -0.3195   3.0832 N.2            1 S1                 0.0000
     14 ****         6.4321  -1.3715   3.3755 C.2            1 S1                 0.0000
     15 ****         6.5900  -2.2511   2.3375 C.2            1 S1                 0.0000
     16 ****         5.6455  -1.7811   0.9531 S.3            1 S1                 0.0000
     17 ****        -1.8590  -0.5975   0.4474 C.3            1 S1                 0.0000
     18 ****        -3.3961  -0.5101   0.4656 C.3            1 S1                 0.0000
     19 ****        -3.9308   0.8053   1.0602 C.3            1 S1                 0.0000
     20 ****        -3.9131  -0.7714  -0.8372 O.3            1 S1                 0.0000
     21 ****        -3.7084   0.2926  -4.0038 H              1 S1                 0.0000
     22 ****        -5.1363  -0.2552  -3.1316 H              1 S1                 0.0000
     23 ****        -3.8073  -1.3719  -3.4320 H              1 S1                 0.0000
     24 ****        -3.6966   1.1114  -1.6538 H              1 S1                 0.0000
     25 ****        -1.5587  -1.0176  -2.2201 H              1 S1                 0.0000
     26 ****        -1.5243   0.6837  -2.6681 H              1 S1                 0.0000
     27 ****         0.5642  -0.6898  -0.3290 H              1 S1                 0.0000
     28 ****         1.9832   0.7887  -1.7597 H              1 S1                 0.0000
     29 ****         0.5740   1.7614  -2.1526 H              1 S1                 0.0000
     30 ****         0.6848   0.0710  -2.6624 H              1 S1                 0.0000
     31 ****         0.3613   2.2699   0.4484 H              1 S1                 0.0000
     32 ****         0.2314   0.9618   1.5883 H              1 S1                 0.0000
     33 ****         2.6258   2.0839   0.4920 H              1 S1                 0.0000
     34 ****         6.8973  -1.4147   4.3490 H              1 S1                 0.0000
     35 ****         7.2013  -3.1402   2.3012 H              1 S1                 0.0000
     36 ****        -1.5588  -1.6250   0.2342 H              1 S1                 0.0000
     37 ****        -1.4768  -0.3681   1.4409 H              1 S1                 0.0000
     38 ****        -3.7658  -1.3154   1.1012 H              1 S1                 0.0000
     39 ****        -3.6304   0.9065   2.1033 H              1 S1                 0.0000
     40 ****        -5.0202   0.8322   1.0279 H              1 S1                 0.0000
     41 ****        -3.5579   1.6823   0.5314 H              1 S1                 0.0000
     42 ****        -1.5742   1.2371  -0.3660 H              1 S1                 0.0000
     43 ****         1.3173  -0.8341   1.7007 LP             1 S1                 0.0000
     44 ****         2.8554  -1.4804   2.1662 LP             1 S1                 0.0000
     45 ****         4.5380   1.4033   1.0139 LP             1 S1                 0.0000
     46 ****         5.3448   0.4097   3.7322 LP             1 S1                 0.0000
     47 ****        -3.6884  -1.7154  -1.0785 LP             1 S1                 0.0000
     48 ****        -4.9067  -0.6627  -0.8061 LP             1 S1                 0.0000
@<TRIPOS>BOND
    1    1    2 1     
    2    1   21 1     
    3    1   22 1     
    4    1   23 1     
    5    2   20 1     
    6    2    3 1     
    7    2   24 1     
    8    3    4 1     
    9    3   25 1     
   10    3   26 1     
   11    4    5 1     
   12    4   17 1     
   13    4   42 1     
   14    5    6 1     
   15    5    7 1     
   16    5   27 1     
   17    6   28 1     
   18    6   29 1     
   19    6   30 1     
   20    7    8 1     
   21    7   31 1     
   22    7   32 1     
   23    8    9 am    
   24    8   33 1     
   25    9   10 2     
   26    9   11 1     
   27   11   12 1     
   28   12   16 1     
   29   12   13 2     
   30   13   14 1     
   31   14   15 2     
   32   14   34 1     
   33   15   16 1     
   34   15   35 1     
   35   17   18 1     
   36   17   36 1     
   37   17   37 1     
   38   18   19 1     
   39   18   20 1     
   40   18   38 1     
   41   19   39 1     
   42   19   40 1     
   43   19   41 1     
   44   10   43 1     
   45   10   44 1     
   46   11   45 1     
   47   13   46 1     
   48   20   47 1     
   49   20   48 1     
@<TRIPOS>SUBSTRUCTURE
      1 S1             1
@<TRIPOS>SET
LONE_PAIRS      STATIC     ATOMS    <user>   **** ""
6 43 44 45 46 47 48
DONOR_HYDROGENS      STATIC     ATOMS    <user>   **** ""
2 42 33
ATOM$BLUE        STATIC     ATOMS    COLORGROUP SYSTEM
6 43 44 45 46 47 48
ATOM$RED        STATIC     ATOMS    COLORGROUP SYSTEM
2 42 33
