AV-unprocessed.smi:16|AV-procd|sdf|93|dock4
  -GOLD-   2262015233D 1   1.00000     0.00000
 Structure written by MMmdl.
 60 64  0  0  0  0  0  0  0  0  2 V2000
  151.1760  137.2236  155.0166 C   0  0  0  0  0  0  0  0  0  0  0  0
  150.8416  138.6349  154.5039 C   0  0  0  0  0  0  0  0  0  0  0  0
  149.6642  139.2594  155.1590 N   0  3  1  0  0  0  0  0  0  0  0  0
  149.9198  139.7525  156.5355 C   0  0  0  0  0  0  0  0  0  0  0  0
  148.5965  140.1169  157.2256 C   0  0  0  0  0  0  0  0  0  0  0  0
  147.7971  141.1416  156.3896 C   0  0  2  0  0  0  0  0  0  0  0  0
  146.5434  141.4793  156.9864 O   0  0  0  0  0  0  0  0  0  0  0  0
  145.5684  140.4387  156.9569 C   0  0  0  0  0  0  0  0  0  0  0  0
  145.3401  139.9725  155.5122 C   0  0  0  0  0  0  0  0  0  0  0  0
  146.6053  139.5788  154.9024 N   0  0  0  0  0  0  0  0  0  0  0  0
  146.4471  138.9704  153.7059 C   0  0  0  0  0  0  0  0  0  0  0  0
  146.9832  139.5170  152.5838 N   0  0  0  0  0  0  0  0  0  0  0  0
  146.8528  138.8884  151.4113 C   0  0  0  0  0  0  0  0  0  0  0  0
  146.2449  137.7287  151.1487 N   0  0  0  0  0  0  0  0  0  0  0  0
  145.7062  137.1812  152.2764 C   0  0  0  0  0  0  0  0  0  0  0  0
  145.7655  137.7320  153.5860 C   0  0  0  0  0  0  0  0  0  0  0  0
  145.1347  136.8892  154.4917 N   0  0  0  0  0  0  0  0  0  0  0  0
  144.7215  135.8929  153.7560 C   0  0  0  0  0  0  0  0  0  0  0  0
  145.0002  135.9984  152.4114 N   0  0  0  0  0  0  0  0  0  0  0  0
  144.7050  135.0262  151.4003 C   0  0  0  0  0  0  0  0  0  0  0  0
  143.9568  133.7325  151.7305 C   0  0  0  0  0  0  0  0  0  0  0  0
  144.7563  132.9988  150.6304 C   0  0  0  0  0  0  0  0  0  0  0  0
  145.1994  131.5755  151.0110 C   0  0  0  0  0  0  0  0  0  0  0  0
  146.1238  131.0432  150.0849 O   0  0  0  0  0  0  0  0  0  0  0  0
  144.0439  132.9618  149.2616 C   0  0  0  0  0  0  0  0  0  0  0  0
  142.8418  132.2211  149.3040 O   0  0  0  0  0  0  0  0  0  0  0  0
  145.8004  134.1208  150.8344 C   0  0  0  0  0  0  0  0  0  0  0  0
  147.5988  140.6576  154.9330 C   0  0  2  0  0  0  0  0  0  0  0  0
  148.9724  140.2750  154.3250 C   0  0  0  0  0  0  0  0  0  0  0  0
  148.3781  142.0643  156.3623 H   0  0  0  0  0  0  0  0  0  0  0  0
  147.1915  141.4860  154.3508 H   0  0  0  0  0  0  0  0  0  0  0  0
  152.0419  136.8244  154.4883 H   0  0  0  0  0  0  0  0  0  0  0  0
  150.3529  136.5273  154.8581 H   0  0  0  0  0  0  0  0  0  0  0  0
  151.4206  137.2245  156.0786 H   0  0  0  0  0  0  0  0  0  0  0  0
  151.7039  139.2875  154.6469 H   0  0  0  0  0  0  0  0  0  0  0  0
  150.6667  138.6010  153.4280 H   0  0  0  0  0  0  0  0  0  0  0  0
  150.4323  138.9832  157.1142 H   0  0  0  0  0  0  0  0  0  0  0  0
  150.5762  140.6229  156.5071 H   0  0  0  0  0  0  0  0  0  0  0  0
  148.0257  139.2005  157.3709 H   0  0  0  0  0  0  0  0  0  0  0  0
  148.7923  140.5191  158.2199 H   0  0  0  0  0  0  0  0  0  0  0  0
  145.8686  139.6059  157.5921 H   0  0  0  0  0  0  0  0  0  0  0  0
  144.6372  140.8213  157.3747 H   0  0  0  0  0  0  0  0  0  0  0  0
  144.6409  139.1352  155.4985 H   0  0  0  0  0  0  0  0  0  0  0  0
  144.8874  140.7802  154.9349 H   0  0  0  0  0  0  0  0  0  0  0  0
  147.3022  139.3830  150.5627 H   0  0  0  0  0  0  0  0  0  0  0  0
  144.1954  135.0481  154.1767 H   0  0  0  0  0  0  0  0  0  0  0  0
  144.2026  135.5700  150.5984 H   0  0  0  0  0  0  0  0  0  0  0  0
  144.1769  133.3725  152.7374 H   0  0  0  0  0  0  0  0  0  0  0  0
  142.8802  133.7803  151.5631 H   0  0  0  0  0  0  0  0  0  0  0  0
  145.6813  131.5692  151.9891 H   0  0  0  0  0  0  0  0  0  0  0  0
  144.3459  130.9010  151.0869 H   0  0  0  0  0  0  0  0  0  0  0  0
  146.9929  131.1266  150.4461 H   0  0  0  0  0  0  0  0  0  0  0  0
  143.8214  133.9687  148.9071 H   0  0  0  0  0  0  0  0  0  0  0  0
  144.6785  132.5090  148.4997 H   0  0  0  0  0  0  0  0  0  0  0  0
  142.1236  132.8198  149.4414 H   0  0  0  0  0  0  0  0  0  0  0  0
  146.2661  134.4937  149.9218 H   0  0  0  0  0  0  0  0  0  0  0  0
  146.5562  133.8635  151.5790 H   0  0  0  0  0  0  0  0  0  0  0  0
  149.5936  141.1691  154.2617 H   0  0  0  0  0  0  0  0  0  0  0  0
  148.8655  139.9144  153.3015 H   0  0  0  0  0  0  0  0  0  0  0  0
  149.0006  138.5043  155.2639 H   0  0  0  0  0  0  0  0  0  0  0  0
  1  2  1  0  0  0  0
  1 32  1  0  0  0  0
  1 33  1  0  0  0  0
  1 34  1  0  0  0  0
  2  3  1  0  0  0  0
  2 35  1  0  0  0  0
  2 36  1  0  0  0  0
  3 29  1  0  0  0  0
  3  4  1  0  0  0  0
  3 60  1  0  0  0  0
  4  5  1  0  0  0  0
  4 37  1  0  0  0  0
  4 38  1  0  0  0  0
  5  6  1  0  0  0  0
  5 39  1  0  0  0  0
  5 40  1  0  0  0  0
  6 30  1  0  0  0  0
  6 28  1  0  0  0  0
  6  7  1  0  0  0  0
  7  8  1  0  0  0  0
  8  9  1  0  0  0  0
  8 41  1  0  0  0  0
  8 42  1  0  0  0  0
  9 10  1  0  0  0  0
  9 43  1  0  0  0  0
  9 44  1  0  0  0  0
 10 11  1  0  0  0  0
 10 28  1  0  0  0  0
 11 16  1  0  0  0  0
 11 12  2  0  0  0  0
 12 13  1  0  0  0  0
 13 14  2  0  0  0  0
 13 45  1  0  0  0  0
 14 15  1  0  0  0  0
 15 19  1  0  0  0  0
 15 16  2  0  0  0  0
 16 17  1  0  0  0  0
 17 18  2  0  0  0  0
 18 19  1  0  0  0  0
 18 46  1  0  0  0  0
 19 20  1  0  0  0  0
 20 27  1  0  0  0  0
 20 21  1  0  0  0  0
 20 47  1  0  0  0  0
 21 22  1  0  0  0  0
 21 48  1  0  0  0  0
 21 49  1  0  0  0  0
 22 23  1  0  0  0  0
 22 25  1  0  0  0  0
 22 27  1  0  0  0  0
 23 24  1  0  0  0  0
 23 50  1  0  0  0  0
 23 51  1  0  0  0  0
 24 52  1  0  0  0  0
 25 26  1  0  0  0  0
 25 53  1  0  0  0  0
 25 54  1  0  0  0  0
 26 55  1  0  0  0  0
 27 56  1  0  0  0  0
 27 57  1  0  0  0  0
 28 31  1  0  0  0  0
 28 29  1  0  0  0  0
 29 58  1  0  0  0  0
 29 59  1  0  0  0  0
M  CHG  1   3   1
M  END
> <s_m_source_file>
AV-unprocessed.smi

> <i_m_source_file_index>
16

> <i_lp_mmshare_version>
43012

> <i_f3d_flags>
0

> <s_epik_input>
W0NIM11bQ0gyXU4oW0NIMl1bQ0gyXTEpW0NIMl1bQ0BASF0oW0NAQEhdMTIpTihbQ0gyXVtDSDJdTzIpYyhuW2NIXW4zKWMoYzM0KW5bY0hdbjRbQ0hdKFtDSDJdNSlbQ0gyXUM1KFtDSDJdW09IXSlbQ0gyXVtPSF0=

> <s_epik_cmdline>
J2VwaWtfcHl0aG9uJywgJy1waCcsICc3LjAnLCAnLXRuJywgJzgnLCAnLW1hJywgJzIwMCcsICctbWV0YWxfYmluZGluZycsICctaW1hZScsICc8aW5maWxlLm1hZT4nLCAnLW9tYWUnLCAnPG91dGZpbGUubWFlPic=

> <r_lp_tautomer_probability>
1

> <r_epik_Ionization_Penalty>
0.0135603

> <r_epik_Ionization_Penalty_Charging>
0.0131385

> <r_epik_Ionization_Penalty_Neutral>
0.000421734

> <r_epik_State_Penalty>
0.0102091

> <r_epik_Charging_Adjusted_Penalty>
0.0233476

> <i_epik_Tot_Q>
1

> <i_epik_Tot_abs_Q>
1

> <r_epik_Metal_State_Penalty>
0.0103746

> <b_epik_Metal_Only>
0

> <s_lp_Force_Field>
OPLS_2005

> <r_lp_Energy>
64.3007

> <b_lp_Chiralities_Consistent>
1

> <s_lp_Variant>
AV-unprocessed.smi:16-7

> <Gold.Version>
5.8.1

> <Gold.Id.Protein>
6NUR|6NUR_protein|mol2

> <Gold.PLP.Fitness>
48.1024

> <Gold.PLP.PLP>
-39.2118

> <Gold.PLP.part.hbond>
-3.8173

> <Gold.PLP.part.metal>
0.0000

> <Gold.PLP.part.buried>
-6.1503

> <Gold.PLP.part.nonpolar>
-32.4995

> <Gold.PLP.part.repulsive>
3.3590

> <Gold.PLP.ligand.clash>
0.0000

> <Gold.PLP.ligand.torsion>
0.7207

> <Gold.PLP.Chemscore.Hbond>
2.6658

> <Gold.PLP.Chemscore.CHOScore>
0.5506

> <Gold.PLP.Chemscore.Metal>
0.0000

> <Gold.Chemscore.Hbonds>
donor molecule, donor type, donor heavy atom, donor atom, acceptor molecule, acceptor atom, score
      L1  H    24    52       P1 10747  0.98
      L1  H    26    55       P1 10186  1.00
      P1  H 10785 10796       L1    26  0.62
      L1  C    13    45       P1  7957  0.60

> <Gold.PLP.Chemscore.Internal.Correction>
0.6831

> <Gold.Rescore>
     Score         DG    S(hbond)    S(metal)    S(lipo)     H(rot)  DE(clash)    DE(int)     intcor
     10.81     -14.59       2.36        0.00      83.31       3.33       1.48       2.30       ----

> <Gold.Chemscore.Fitness>
10.8125

> <Gold.Chemscore.DG>
-14.5922

> <Gold.Chemscore.ZeroCoef>
-5.4800

> <Gold.Chemscore.Hbond>
2.3583

> <Gold.Chemscore.Metal>
0.0000

> <Gold.Chemscore.Lipo>
83.3123

> <Gold.Chemscore.Internal_Hbond>
0.0000

> <Gold.Chemscore.DEClash>
1.4774

> <Gold.Chemscore.DEInternal>
2.3023

> <Gold.Chemscore.Rot>
3.3251

> <Gold.Chemscore.Internal.Correction>
   9.000000E+99

> <Gold.Chemscore.Hbonds>
donor molecule, donor type, donor heavy atom, donor atom, acceptor molecule, acceptor atom, score
      L1  H    24    52       P1 10747  0.90
      L1  H    26    55       P1 10186  0.99
      P1  H 10785 10796       L1    26  0.49

> <Gold.Chemscore.Hbond.Weighted>
-7.8769

> <Gold.Chemscore.Metal.Weighted>
-0.0000

> <Gold.Chemscore.Lipo.Weighted>
-9.7475

> <Gold.Chemscore.Internal_Hbond.Weighted>
0.0000

> <Gold.Chemscore.DEClash.Weighted>
1.4774

> <Gold.Chemscore.DEInternal.Weighted>
2.3023

> <Gold.Chemscore.Rot.Weighted>
8.5122

> <Gold.Chemscore.Internal.Correction.Weighted>
   9.000000E+99

> <Gold.Protein.RotatedTorsions>
[ 6907 6896 6895 6894 ] final -161.57 input  -60.11 | X-H torsion
[ 7974 7965 7964 7962 ] final   97.79 input  175.53 | X-H torsion
[ 8008 7997 7996 7995 ] final  -56.66 input   59.86 | X-H torsion
[ 10167 10162 10161 10158 ] final  -82.50 input  -65.29 | X-H torsion
[ 10718 10713 10712 10709 ] final    8.57 input   66.30 | X-H torsion
[ 10763 10752 10751 10750 ] final -154.49 input  -60.55 | X-H torsion
[ 11005 11000 10999 10996 ] final   45.86 input  -57.11 | X-H torsion

> <Gold.Protein.ActiveResidues>
 VAL166  LYS551  ARG553  GLY616  TRP617  ASP618  TYR619  PRO620  LYS621  CYS622 
 ASP623  PHE694  ASN695  SER759  ASP760  ASP761  ALA762  ILE779  LEU786  VAL792 
 PHE793  MET794  SER795  GLU796  ALA797  LYS798  CYS799  TRP800  GLU811  SER814 

> <Gold.Protein.RotatedAtoms>
  151.3668  133.3869  159.2695 H   0  0  0  0  0  0  0  0  0  0  0  0  # atno 6907 bound_to 6896
  150.9682  134.9061  159.7782 H   0  0  0  0  0  0  0  0  0  0  0  0  # atno 6908 bound_to 6896
  152.5175  134.3629  159.9343 H   0  0  0  0  0  0  0  0  0  0  0  0  # atno 6909 bound_to 6896
  145.4207  139.2322  143.3197 H   0  0  0  0  0  0  0  0  0  0  0  0  # atno 7974 bound_to 7965
  154.4238  140.1124  156.5672 H   0  0  0  0  0  0  0  0  0  0  0  0  # atno 8008 bound_to 7997
  155.6249  140.3495  155.4645 H   0  0  0  0  0  0  0  0  0  0  0  0  # atno 8009 bound_to 7997
  155.9994  140.1196  157.0551 H   0  0  0  0  0  0  0  0  0  0  0  0  # atno 8010 bound_to 7997
  140.4314  143.2547  151.8754 H   0  0  0  0  0  0  0  0  0  0  0  0  # atno 10167 bound_to 10162
  156.9535  130.5906  149.5658 H   0  0  0  0  0  0  0  0  0  0  0  0  # atno 10718 bound_to 10713
  154.7855  135.3189  154.7896 H   0  0  0  0  0  0  0  0  0  0  0  0  # atno 10763 bound_to 10752
  153.8597  135.6854  153.4788 H   0  0  0  0  0  0  0  0  0  0  0  0  # atno 10764 bound_to 10752
  153.1505  135.4701  154.9568 H   0  0  0  0  0  0  0  0  0  0  0  0  # atno 10765 bound_to 10752
  140.1422  134.4569  155.8442 H   0  0  0  0  0  0  0  0  0  0  0  0  # atno 11005 bound_to 11000
  146.2658  140.4932  142.8835 LP  0  0  0  0  0  0  0  0  0  0  0  0  # atno 17320 bound_to 7965
  144.8247  140.6608  143.6330 LP  0  0  0  0  0  0  0  0  0  0  0  0  # atno 17321 bound_to 7965
  139.4785  144.5330  151.8639 LP  0  0  0  0  0  0  0  0  0  0  0  0  # atno 17342 bound_to 10162
  140.4422  144.1970  150.5892 LP  0  0  0  0  0  0  0  0  0  0  0  0  # atno 17343 bound_to 10162
  156.0352  130.5440  150.8636 LP  0  0  0  0  0  0  0  0  0  0  0  0  # atno 17370 bound_to 10713
  157.5706  131.0946  150.9424 LP  0  0  0  0  0  0  0  0  0  0  0  0  # atno 17371 bound_to 10713
  141.2187  133.6837  156.7267 LP  0  0  0  0  0  0  0  0  0  0  0  0  # atno 17394 bound_to 11000
  140.2708  134.8393  157.3846 LP  0  0  0  0  0  0  0  0  0  0  0  0  # atno 17395 bound_to 11000

$$$$
