#       Name:                AV-unprocessed.smi:2597
#       Creating user name   scv26
#       Creation time:       Fri Mar 27 14:19:00 2020


#       File generated by GOLD software.
#

@<TRIPOS>MOLECULE
AV-unprocessed.smi:2597
    35    36     1
SMALL
NO_CHARGES


@<TRIPOS>ATOM
      1 ****        -0.7023   0.0423  -2.2536 N.3            1 S1                 0.0000
      2 ****        -1.1130  -0.6418  -1.0396 C.3            1 S1                 0.0000
      3 ****        -2.6522  -0.7083  -1.0152 C.3            1 S1                 0.0000
      4 ****        -3.1666  -1.3424   0.2859 C.3            1 S1                 0.0000
      5 ****        -2.6349  -0.5899   1.5145 C.3            1 S1                 0.0000
      6 ****        -1.0996  -0.5382   1.5073 C.3            1 S1                 0.0000
      7 ****        -0.5575   0.0935   0.2074 C.3            1 S1                 0.0000
      8 ****         0.9001   0.1343   0.2231 N.pl3          1 S1                 0.0000
      9 ****         1.7204   1.2423   0.2787 C.2            1 S1                 0.0000
     10 ****         2.9789   0.7106   0.2672 C.2            1 S1                 0.0000
     11 ****         4.3043   1.4078   0.3004 C.3            1 S1                 0.0000
     12 ****         4.4332   2.0930  -0.9267 O.3            1 S1                 0.0000
     13 ****         2.8758  -0.6788   0.2160 N.2            1 S1                 0.0000
     14 ****         1.6241  -1.0127   0.1933 N.2            1 S1                 0.0000
     15 ****        -0.7183  -1.6581  -1.0719 H              1 S1                 0.0000
     16 ****        -0.9059   1.1275   0.1748 H              1 S1                 0.0000
     17 ****         0.3066   0.0621  -2.3057 H              1 S1                 0.0000
     18 ****        -1.0229  -0.4729  -3.0610 H              1 S1                 0.0000
     19 ****        -3.0703   0.2949  -1.1133 H              1 S1                 0.0000
     20 ****        -3.0173  -1.2801  -1.8693 H              1 S1                 0.0000
     21 ****        -4.2567  -1.3428   0.2932 H              1 S1                 0.0000
     22 ****        -2.8557  -2.3869   0.3323 H              1 S1                 0.0000
     23 ****        -3.0361   0.4243   1.5260 H              1 S1                 0.0000
     24 ****        -2.9860  -1.0726   2.4271 H              1 S1                 0.0000
     25 ****        -0.7485   0.0278   2.3709 H              1 S1                 0.0000
     26 ****        -0.7092  -1.5502   1.6232 H              1 S1                 0.0000
     27 ****         1.3569   2.2585   0.3127 H              1 S1                 0.0000
     28 ****         4.3566   2.1194   1.1249 H              1 S1                 0.0000
     29 ****         5.1290   0.7033   0.4141 H              1 S1                 0.0000
     30 ****         5.2680   2.5354  -0.9370 H              1 S1                 0.0000
     31 ****        -1.0851   0.9660  -2.2389 LP             1 S1                 0.0000
     32 ****         3.6957   2.7621  -1.0184 LP             1 S1                 0.0000
     33 ****         4.3877   1.4409  -1.6835 LP             1 S1                 0.0000
     34 ****         3.6458  -1.3166   0.1994 LP             1 S1                 0.0000
     35 ****         1.2593  -1.9433   0.1600 LP             1 S1                 0.0000
@<TRIPOS>BOND
    1    1    2 1     
    2    1   17 1     
    3    1   18 1     
    4    2   15 1     
    5    2    7 1     
    6    2    3 1     
    7    3    4 1     
    8    3   19 1     
    9    3   20 1     
   10    4    5 1     
   11    4   21 1     
   12    4   22 1     
   13    5    6 1     
   14    5   23 1     
   15    5   24 1     
   16    6    7 1     
   17    6   25 1     
   18    6   26 1     
   19    7   16 1     
   20    7    8 1     
   21    8   14 1     
   22    8    9 1     
   23    9   10 2     
   24    9   27 1     
   25   10   11 1     
   26   10   13 1     
   27   11   12 1     
   28   11   28 1     
   29   11   29 1     
   30   12   30 1     
   31   13   14 2     
   32    1   31 1     
   33   12   32 1     
   34   12   33 1     
   35   13   34 1     
   36   14   35 1     
@<TRIPOS>SUBSTRUCTURE
      1 S1             1
@<TRIPOS>SET
LONE_PAIRS      STATIC     ATOMS    <user>   **** ""
5 31 32 33 34 35
DONOR_HYDROGENS      STATIC     ATOMS    <user>   **** ""
3 17 18 30
ATOM$BLUE        STATIC     ATOMS    COLORGROUP SYSTEM
5 31 32 33 34 35
ATOM$RED        STATIC     ATOMS    COLORGROUP SYSTEM
3 17 18 30
