AV-unprocessed.smi:76|AV-procd|sdf|767|dock9
  -GOLD-   2262017113D 1   1.00000     0.00000
 Structure written by MMmdl.
 55 58  0  0  0  0  0  0  0  0  1 V2000
  143.2681  136.1302  152.4942 C   0  0  0  0  0  0  0  0  0  0  0  0
  144.7245  136.0100  152.0024 C   0  0  2  0  0  0  0  0  0  0  0  0
  144.9139  134.8532  150.9984 C   0  0  0  0  0  0  0  0  0  0  0  0
  144.8835  133.4654  151.6756 C   0  0  1  0  0  0  0  0  0  0  0  0
  145.0990  132.3195  150.6665 C   0  0  0  0  0  0  0  0  0  0  0  0
  145.0424  131.1335  151.2728 F   0  0  0  0  0  0  0  0  0  0  0  0
  144.1616  132.3643  149.7199 F   0  0  0  0  0  0  0  0  0  0  0  0
  146.2892  132.4475  150.0800 F   0  0  0  0  0  0  0  0  0  0  0  0
  145.9197  133.4367  152.8166 C   0  0  0  0  0  0  0  0  0  0  0  0
  145.6993  134.5913  153.8061 C   0  0  0  0  0  0  0  0  0  0  0  0
  145.6795  135.8795  153.1093 N   0  0  0  0  0  0  0  0  0  0  0  0
  145.8829  136.9979  153.8534 C   0  0  0  0  0  0  0  0  0  0  0  0
  144.8769  137.9018  153.9982 N   0  0  0  0  0  0  0  0  0  0  0  0
  145.0625  139.0107  154.7193 C   0  0  0  0  0  0  0  0  0  0  0  0
  146.1562  139.4068  155.3716 N   0  0  0  0  0  0  0  0  0  0  0  0
  147.1700  138.5058  155.2330 C   0  0  0  0  0  0  0  0  0  0  0  0
  147.1178  137.2851  154.5019 C   0  0  0  0  0  0  0  0  0  0  0  0
  148.3329  136.6193  154.6115 N   0  0  0  0  0  0  0  0  0  0  0  0
  149.0612  137.4033  155.3580 C   0  0  0  0  0  0  0  0  0  0  0  0
  148.4483  138.5685  155.7615 N   0  0  0  0  0  0  0  0  0  0  0  0
  149.0199  139.6109  156.6027 C   0  0  0  0  0  0  0  0  0  0  0  0
  150.1047  140.4989  155.9138 C   0  0  0  0  0  0  0  0  0  0  0  0
  149.4809  141.3617  154.7848 C   0  0  0  0  0  0  0  0  0  0  0  0
  148.4659  142.2208  155.2637 O   0  0  0  0  0  0  0  0  0  0  0  0
  150.7742  141.4259  156.9591 C   0  0  0  0  0  0  0  0  0  0  0  0
  151.6901  140.6633  157.9348 C   0  0  0  0  0  0  0  0  0  0  0  0
  152.6763  139.9357  157.2134 O   0  0  0  0  0  0  0  0  0  0  0  0
  152.1199  138.9605  156.3408 C   0  0  0  0  0  0  0  0  0  0  0  0
  151.2385  139.6502  155.2844 C   0  0  0  0  0  0  0  0  0  0  0  0
  142.5822  136.2364  151.6537 H   0  0  0  0  0  0  0  0  0  0  0  0
  143.1379  137.0065  153.1299 H   0  0  0  0  0  0  0  0  0  0  0  0
  142.9523  135.2590  153.0677 H   0  0  0  0  0  0  0  0  0  0  0  0
  144.9440  136.9254  151.4551 H   0  0  0  0  0  0  0  0  0  0  0  0
  144.1545  134.9121  150.2183 H   0  0  0  0  0  0  0  0  0  0  0  0
  145.8725  134.9826  150.4943 H   0  0  0  0  0  0  0  0  0  0  0  0
  143.8963  133.3236  152.1169 H   0  0  0  0  0  0  0  0  0  0  0  0
  145.8698  132.4871  153.3498 H   0  0  0  0  0  0  0  0  0  0  0  0
  146.9263  133.5051  152.4025 H   0  0  0  0  0  0  0  0  0  0  0  0
  144.7621  134.4506  154.3458 H   0  0  0  0  0  0  0  0  0  0  0  0
  146.4995  134.5800  154.5478 H   0  0  0  0  0  0  0  0  0  0  0  0
  144.2133  139.6751  154.7824 H   0  0  0  0  0  0  0  0  0  0  0  0
  150.0741  137.1507  155.6354 H   0  0  0  0  0  0  0  0  0  0  0  0
  148.2021  140.2360  156.9628 H   0  0  0  0  0  0  0  0  0  0  0  0
  149.4158  139.1248  157.4930 H   0  0  0  0  0  0  0  0  0  0  0  0
  150.2431  141.9832  154.3136 H   0  0  0  0  0  0  0  0  0  0  0  0
  149.0666  140.7365  153.9937 H   0  0  0  0  0  0  0  0  0  0  0  0
  148.7405  143.1149  155.1238 H   0  0  0  0  0  0  0  0  0  0  0  0
  151.3758  142.1783  156.4468 H   0  0  0  0  0  0  0  0  0  0  0  0
  150.0201  141.9774  157.5218 H   0  0  0  0  0  0  0  0  0  0  0  0
  152.1943  141.3691  158.5949 H   0  0  0  0  0  0  0  0  0  0  0  0
  151.1221  139.9915  158.5787 H   0  0  0  0  0  0  0  0  0  0  0  0
  152.9363  138.4290  155.8514 H   0  0  0  0  0  0  0  0  0  0  0  0
  151.5613  138.2167  156.9095 H   0  0  0  0  0  0  0  0  0  0  0  0
  150.8423  138.9157  154.5845 H   0  0  0  0  0  0  0  0  0  0  0  0
  151.8842  140.2965  154.6880 H   0  0  0  0  0  0  0  0  0  0  0  0
  1  2  1  0  0  0  0
  1 30  1  0  0  0  0
  1 31  1  0  0  0  0
  1 32  1  0  0  0  0
  2 11  1  0  0  0  0
  2  3  1  0  0  0  0
  2 33  1  0  0  0  0
  3  4  1  0  0  0  0
  3 34  1  0  0  0  0
  3 35  1  0  0  0  0
  4  5  1  0  0  0  0
  4  9  1  0  0  0  0
  4 36  1  0  0  0  0
  5  6  1  0  0  0  0
  5  7  1  0  0  0  0
  5  8  1  0  0  0  0
  9 10  1  0  0  0  0
  9 37  1  0  0  0  0
  9 38  1  0  0  0  0
 10 11  1  0  0  0  0
 10 39  1  0  0  0  0
 10 40  1  0  0  0  0
 11 12  1  0  0  0  0
 12 17  1  0  0  0  0
 12 13  2  0  0  0  0
 13 14  1  0  0  0  0
 14 15  2  0  0  0  0
 14 41  1  0  0  0  0
 15 16  1  0  0  0  0
 16 20  1  0  0  0  0
 16 17  2  0  0  0  0
 17 18  1  0  0  0  0
 18 19  2  0  0  0  0
 19 20  1  0  0  0  0
 19 42  1  0  0  0  0
 20 21  1  0  0  0  0
 21 22  1  0  0  0  0
 21 43  1  0  0  0  0
 21 44  1  0  0  0  0
 22 29  1  0  0  0  0
 22 23  1  0  0  0  0
 22 25  1  0  0  0  0
 23 24  1  0  0  0  0
 23 45  1  0  0  0  0
 23 46  1  0  0  0  0
 24 47  1  0  0  0  0
 25 26  1  0  0  0  0
 25 48  1  0  0  0  0
 25 49  1  0  0  0  0
 26 27  1  0  0  0  0
 26 50  1  0  0  0  0
 26 51  1  0  0  0  0
 27 28  1  0  0  0  0
 28 29  1  0  0  0  0
 28 52  1  0  0  0  0
 28 53  1  0  0  0  0
 29 54  1  0  0  0  0
 29 55  1  0  0  0  0
M  END
> <s_m_source_file>
AV-unprocessed.smi

> <i_m_source_file_index>
76

> <i_lp_mmshare_version>
43012

> <i_f3d_flags>
0

> <s_epik_input>
W0NIM11bQ0BASF0xW0NIMl1bQ0BASF0oQyhGKShGKUYpW0NIMl1bQ0gyXU4xYyhuW2NIXW4yKWMoYzIzKW5bY0hdbjNbQ0gyXUM0KFtDSDJdW09IXSlbQ0gyXVtDSDJdT1tDSDJdW0NIMl00

> <s_epik_cmdline>
J2VwaWtfcHl0aG9uJywgJy1waCcsICc3LjAnLCAnLXRuJywgJzgnLCAnLW1hJywgJzIwMCcsICctbWV0YWxfYmluZGluZycsICctaW1hZScsICc8aW5maWxlLm1hZT4nLCAnLW9tYWUnLCAnPG91dGZpbGUubWFlPic=

> <r_lp_tautomer_probability>
1

> <r_epik_Ionization_Penalty>
0.00244097

> <r_epik_Ionization_Penalty_Charging>
0

> <r_epik_Ionization_Penalty_Neutral>
0.00244097

> <r_epik_State_Penalty>
0.00151846

> <r_epik_Charging_Adjusted_Penalty>
0.00151846

> <i_epik_Tot_Q>
0

> <i_epik_Tot_abs_Q>
0

> <r_epik_Metal_State_Penalty>
-0

> <b_epik_Metal_Only>
0

> <s_lp_Force_Field>
OPLS_2005

> <r_lp_Energy>
36.8654

> <b_lp_Chiralities_Consistent>
1

> <s_lp_Variant>
AV-unprocessed.smi:76-1

> <Gold.Version>
5.8.1

> <Gold.Id.Protein>
6NUR|6NUR_protein|mol2

> <Gold.PLP.Fitness>
45.3637

> <Gold.PLP.PLP>
-38.2966

> <Gold.PLP.part.hbond>
-2.0000

> <Gold.PLP.part.metal>
0.0000

> <Gold.PLP.part.buried>
-4.0439

> <Gold.PLP.part.nonpolar>
-33.4208

> <Gold.PLP.part.repulsive>
2.2328

> <Gold.PLP.ligand.clash>
0.0000

> <Gold.PLP.ligand.torsion>
0.5819

> <Gold.PLP.Chemscore.Hbond>
2.0000

> <Gold.PLP.Chemscore.CHOScore>
0.5571

> <Gold.PLP.Chemscore.Metal>
0.0000

> <Gold.Chemscore.Hbonds>
donor molecule, donor type, donor heavy atom, donor atom, acceptor molecule, acceptor atom, score
      L1  H    24    47       P1  8028  1.00
      P1  H  7997  8009       L1    27  1.00
      L1  C    14    41       P1 10175  0.58

> <Gold.PLP.Chemscore.Internal.Correction>
0.5593

> <Gold.Rescore>
     Score         DG    S(hbond)    S(metal)    S(lipo)     H(rot)  DE(clash)    DE(int)     intcor
     11.06     -14.38       1.94        0.00      74.57       2.47       1.29       2.04       ----

> <Gold.Chemscore.Fitness>
11.0605

> <Gold.Chemscore.DG>
-14.3843

> <Gold.Chemscore.ZeroCoef>
-5.4800

> <Gold.Chemscore.Hbond>
1.9442

> <Gold.Chemscore.Metal>
0.0000

> <Gold.Chemscore.Lipo>
74.5703

> <Gold.Chemscore.Internal_Hbond>
0.0000

> <Gold.Chemscore.DEClash>
1.2883

> <Gold.Chemscore.DEInternal>
2.0355

> <Gold.Chemscore.Rot>
2.4665

> <Gold.Chemscore.Internal.Correction>
   9.000000E+99

> <Gold.Chemscore.Hbonds>
donor molecule, donor type, donor heavy atom, donor atom, acceptor molecule, acceptor atom, score
      L1  H    24    47       P1  8028  0.95
      P1  H  7997  8009       L1    27  0.39

> <Gold.Chemscore.Hbond.Weighted>
-6.4937

> <Gold.Chemscore.Metal.Weighted>
-0.0000

> <Gold.Chemscore.Lipo.Weighted>
-8.7247

> <Gold.Chemscore.Internal_Hbond.Weighted>
0.0000

> <Gold.Chemscore.DEClash.Weighted>
1.2883

> <Gold.Chemscore.DEInternal.Weighted>
2.0355

> <Gold.Chemscore.Rot.Weighted>
6.3142

> <Gold.Chemscore.Internal.Correction.Weighted>
   9.000000E+99

> <Gold.Protein.RotatedTorsions>
[ 6907 6896 6895 6894 ] final  -34.34 input  -60.11 | X-H torsion
[ 7974 7965 7964 7962 ] final -175.33 input  175.53 | X-H torsion
[ 8008 7997 7996 7995 ] final -176.62 input   59.86 | X-H torsion
[ 10167 10162 10161 10158 ] final  112.74 input  -65.29 | X-H torsion
[ 10718 10713 10712 10709 ] final -133.98 input   66.30 | X-H torsion
[ 10763 10752 10751 10750 ] final   76.93 input  -60.55 | X-H torsion
[ 11005 11000 10999 10996 ] final  -31.66 input  -57.11 | X-H torsion

> <Gold.Protein.ActiveResidues>
 VAL166  LYS551  ARG553  GLY616  TRP617  ASP618  TYR619  PRO620  LYS621  CYS622 
 ASP623  PHE694  ASN695  SER759  ASP760  ASP761  ALA762  ILE779  LEU786  VAL792 
 PHE793  MET794  SER795  GLU796  ALA797  LYS798  CYS799  TRP800  GLU811  SER814 

> <Gold.Protein.RotatedAtoms>
  151.0539  134.9691  159.8225 H   0  0  0  0  0  0  0  0  0  0  0  0  # atno 6907 bound_to 6896
  152.5385  134.2503  159.8906 H   0  0  0  0  0  0  0  0  0  0  0  0  # atno 6908 bound_to 6896
  151.2520  133.4302  159.2645 H   0  0  0  0  0  0  0  0  0  0  0  0  # atno 6909 bound_to 6896
  144.7128  140.1337  143.6397 H   0  0  0  0  0  0  0  0  0  0  0  0  # atno 7974 bound_to 7965
  155.9971  140.1213  157.0583 H   0  0  0  0  0  0  0  0  0  0  0  0  # atno 8008 bound_to 7997
  154.4230  140.1114  156.5714 H   0  0  0  0  0  0  0  0  0  0  0  0  # atno 8009 bound_to 7997
  155.6264  140.3472  155.4670 H   0  0  0  0  0  0  0  0  0  0  0  0  # atno 8010 bound_to 7997
  139.6513  144.7128  151.2043 H   0  0  0  0  0  0  0  0  0  0  0  0  # atno 10167 bound_to 10162
  156.2506  130.7150  151.1048 H   0  0  0  0  0  0  0  0  0  0  0  0  # atno 10718 bound_to 10713
  153.0761  135.4933  154.8407 H   0  0  0  0  0  0  0  0  0  0  0  0  # atno 10763 bound_to 10752
  154.7089  135.3016  154.9229 H   0  0  0  0  0  0  0  0  0  0  0  0  # atno 10764 bound_to 10752
  153.9929  135.6776  153.4808 H   0  0  0  0  0  0  0  0  0  0  0  0  # atno 10765 bound_to 10752
  140.9487  133.7234  156.1186 H   0  0  0  0  0  0  0  0  0  0  0  0  # atno 11005 bound_to 11000
  145.9264  139.2578  143.1351 LP  0  0  0  0  0  0  0  0  0  0  0  0  # atno 17320 bound_to 7965
  145.9568  140.8866  143.0231 LP  0  0  0  0  0  0  0  0  0  0  0  0  # atno 17321 bound_to 7965
  140.7539  143.6145  150.8573 LP  0  0  0  0  0  0  0  0  0  0  0  0  # atno 17342 bound_to 10162
  139.9794  143.5968  152.2948 LP  0  0  0  0  0  0  0  0  0  0  0  0  # atno 17343 bound_to 10162
  157.7213  131.0680  150.6125 LP  0  0  0  0  0  0  0  0  0  0  0  0  # atno 17370 bound_to 10713
  156.6204  130.4404  149.5824 LP  0  0  0  0  0  0  0  0  0  0  0  0  # atno 17371 bound_to 10713
  140.7633  134.3914  157.5521 LP  0  0  0  0  0  0  0  0  0  0  0  0  # atno 17394 bound_to 11000
  139.8841  134.8975  156.2725 LP  0  0  0  0  0  0  0  0  0  0  0  0  # atno 17395 bound_to 11000

$$$$
