AV-unprocessed.smi:160|AV-procd|sdf|1372|dock8
  -GOLD-   2262019 93D 1   1.00000     0.00000
 Structure written by MMmdl.
 28 29  0  0  0  0  0  0  0  0  2 V2000
  152.2333  137.5427  154.0139 N   0  5  0  0  0  0  0  0  0  0  0  0
  152.8606  138.4780  154.7602 C   0  0  0  0  0  0  0  0  0  0  0  0
  154.0582  138.5003  155.0427 O   0  0  0  0  0  0  0  0  0  0  0  0
  151.9606  139.5783  155.2711 C   0  0  0  0  0  0  0  0  0  0  0  0
  152.1851  140.1529  156.4920 N   0  0  0  0  0  0  0  0  0  0  0  0
  151.1831  141.0219  156.5060 C   0  0  0  0  0  0  0  0  0  0  0  0
  150.4245  141.0005  155.4044 N   0  0  0  0  0  0  0  0  0  0  0  0
  149.2006  141.7758  155.0285 C   0  0  1  0  0  0  0  0  0  0  0  0
  148.8099  141.3748  153.7494 O   0  0  0  0  0  0  0  0  0  0  0  0
  147.8307  140.3473  153.8556 C   0  0  2  0  0  0  0  0  0  0  0  0
  147.0792  140.1494  152.5268 C   0  0  0  0  0  0  0  0  0  0  0  0
  146.1871  139.0600  152.6298 O   0  0  0  0  0  0  0  0  0  0  0  0
  146.9826  140.8497  155.0310 C   0  0  2  0  0  0  0  0  0  0  0  0
  146.0514  141.8257  154.5913 O   0  0  0  0  0  0  0  0  0  0  0  0
  148.0373  141.4252  155.9779 C   0  0  2  0  0  0  0  0  0  0  0  0
  147.5649  142.5348  156.7193 O   0  0  0  0  0  0  0  0  0  0  0  0
  150.9134  140.0418  154.5813 N   0  0  0  0  0  0  0  0  0  0  0  0
  149.5151  142.8202  155.0455 H   0  0  0  0  0  0  0  0  0  0  0  0
  148.3154  139.4155  154.1541 H   0  0  0  0  0  0  0  0  0  0  0  0
  146.4248  140.0389  155.5009 H   0  0  0  0  0  0  0  0  0  0  0  0
  148.3538  140.6476  156.6752 H   0  0  0  0  0  0  0  0  0  0  0  0
  151.2856  137.2562  154.2863 H   0  0  0  0  0  0  0  0  0  0  0  0
  151.0004  141.6863  157.3377 H   0  0  0  0  0  0  0  0  0  0  0  0
  146.4865  141.0351  152.2952 H   0  0  0  0  0  0  0  0  0  0  0  0
  147.7700  139.9930  151.6976 H   0  0  0  0  0  0  0  0  0  0  0  0
  145.3034  139.3953  152.6321 H   0  0  0  0  0  0  0  0  0  0  0  0
  145.2429  141.6965  155.0638 H   0  0  0  0  0  0  0  0  0  0  0  0
  148.0920  143.2872  156.4955 H   0  0  0  0  0  0  0  0  0  0  0  0
  1  2  1  0  0  0  0
  1 22  1  0  0  0  0
  2  3  2  0  0  0  0
  2  4  1  0  0  0  0
  4 17  2  0  0  0  0
  4  5  1  0  0  0  0
  5  6  2  0  0  0  0
  6  7  1  0  0  0  0
  6 23  1  0  0  0  0
  7  8  1  0  0  0  0
  7 17  1  0  0  0  0
  8 18  1  0  0  0  0
  8 15  1  0  0  0  0
  8  9  1  0  0  0  0
  9 10  1  0  0  0  0
 10 19  1  0  0  0  0
 10 11  1  0  0  0  0
 10 13  1  0  0  0  0
 11 12  1  0  0  0  0
 11 24  1  0  0  0  0
 11 25  1  0  0  0  0
 12 26  1  0  0  0  0
 13 20  1  0  0  0  0
 13 14  1  0  0  0  0
 13 15  1  0  0  0  0
 14 27  1  0  0  0  0
 15 21  1  0  0  0  0
 15 16  1  0  0  0  0
 16 28  1  0  0  0  0
M  CHG  1   1  -1
M  END
> <s_m_source_file>
AV-unprocessed.smi

> <i_m_source_file_index>
160

> <i_lp_mmshare_version>
43012

> <i_f3d_flags>
0

> <s_epik_input>
W05IMl1DKD1PKWMxbltjSF1uKG4xKVtDQEBIXTJPW0NASF0oW0NIMl1bT0hdKVtDQEBIXShbT0hdKVtDQEhdMltPSF0=

> <s_epik_cmdline>
J2VwaWtfcHl0aG9uJywgJy1waCcsICc3LjAnLCAnLXRuJywgJzgnLCAnLW1hJywgJzIwMCcsICctbWV0YWxfYmluZGluZycsICctaW1hZScsICc8aW5maWxlLm1hZT4nLCAnLW9tYWUnLCAnPG91dGZpbGUubWFlPic=

> <r_lp_tautomer_probability>
1

> <r_epik_Ionization_Penalty>
6.6993

> <r_epik_Ionization_Penalty_Charging>
6.6993

> <r_epik_Ionization_Penalty_Neutral>
6.01698e-06

> <r_epik_State_Penalty>
6.69929

> <r_epik_Charging_Adjusted_Penalty>
13.3986

> <i_epik_Tot_Q>
-1

> <i_epik_Tot_abs_Q>
1

> <r_epik_Metal_State_Penalty>
2.62798

> <b_epik_Metal_Only>
1

> <s_epik_Chemistry_Notes>
This compound contains an acetal/aminal-like group ( X-CH(R)-Y where X, Y are N, S, or O) that may be acid/base labile, releasing an aldehyde.

> <s_lp_Force_Field>
OPLS_2005

> <r_lp_Energy>
45.7221

> <b_lp_Chiralities_Consistent>
1

> <s_lp_Variant>
AV-unprocessed.smi:160-30

> <Gold.Version>
5.8.1

> <Gold.Id.Protein>
6NUR|6NUR_protein|mol2

> <Gold.PLP.Fitness>
47.0048

> <Gold.PLP.PLP>
-29.4598

> <Gold.PLP.part.hbond>
-8.0415

> <Gold.PLP.part.metal>
0.0000

> <Gold.PLP.part.buried>
-0.0583

> <Gold.PLP.part.nonpolar>
-21.2704

> <Gold.PLP.part.repulsive>
0.7533

> <Gold.PLP.ligand.clash>
0.0000

> <Gold.PLP.ligand.torsion>
0.5342

> <Gold.PLP.Chemscore.Hbond>
6.1943

> <Gold.PLP.Chemscore.CHOScore>
0.0000

> <Gold.PLP.Chemscore.Metal>
0.0000

> <Gold.Chemscore.Hbonds>
donor molecule, donor type, donor heavy atom, donor atom, acceptor molecule, acceptor atom, score
      L1  H    12    26       P1 10175  1.00
      L1  H    16    28       P1  8028  0.95
      P1  H  7989  7998       L1    17  1.00
      P1  H  7997  8009       L1     3  0.66
      P1  H  8011  8017       L1     9  0.80
      P1  H 10752 10764       L1     1  1.41

> <Gold.PLP.Chemscore.Internal.Correction>
0.0307

> <Gold.Rescore>
     Score         DG    S(hbond)    S(metal)    S(lipo)     H(rot)  DE(clash)    DE(int)     intcor
      5.52      -8.73       3.20        0.00      24.90       4.04       2.58       0.63       ----

> <Gold.Chemscore.Fitness>
5.5231

> <Gold.Chemscore.DG>
-8.7347

> <Gold.Chemscore.ZeroCoef>
-5.4800

> <Gold.Chemscore.Hbond>
3.1990

> <Gold.Chemscore.Metal>
0.0000

> <Gold.Chemscore.Lipo>
24.8995

> <Gold.Chemscore.Internal_Hbond>
0.0000

> <Gold.Chemscore.DEClash>
2.5828

> <Gold.Chemscore.DEInternal>
0.6288

> <Gold.Chemscore.Rot>
4.0403

> <Gold.Chemscore.Internal.Correction>
   9.000000E+99

> <Gold.Chemscore.Hbonds>
donor molecule, donor type, donor heavy atom, donor atom, acceptor molecule, acceptor atom, score
      L1  H    12    26       P1 10175  0.99
      L1  H    16    28       P1  8028  0.22
      P1  H  7989  7998       L1    17  0.11
      P1  H  7997  8009       L1     3  0.49
      P1  H  8011  8017       L1     9  0.59
      P1  H 10752 10764       L1     1  0.11

> <Gold.Chemscore.Hbond.Weighted>
-10.6846

> <Gold.Chemscore.Metal.Weighted>
-0.0000

> <Gold.Chemscore.Lipo.Weighted>
-2.9132

> <Gold.Chemscore.Internal_Hbond.Weighted>
0.0000

> <Gold.Chemscore.DEClash.Weighted>
2.5828

> <Gold.Chemscore.DEInternal.Weighted>
0.6288

> <Gold.Chemscore.Rot.Weighted>
10.3431

> <Gold.Chemscore.Internal.Correction.Weighted>
   9.000000E+99

> <Gold.Protein.RotatedTorsions>
[ 6907 6896 6895 6894 ] final  116.08 input  -60.11 | X-H torsion
[ 7974 7965 7964 7962 ] final   54.01 input  175.53 | X-H torsion
[ 8008 7997 7996 7995 ] final -132.30 input   59.86 | X-H torsion
[ 10167 10162 10161 10158 ] final -158.24 input  -65.29 | X-H torsion
[ 10718 10713 10712 10709 ] final  -64.08 input   66.30 | X-H torsion
[ 10763 10752 10751 10750 ] final  -93.54 input  -60.55 | X-H torsion
[ 11005 11000 10999 10996 ] final -129.58 input  -57.11 | X-H torsion

> <Gold.Protein.ActiveResidues>
 VAL166  LYS551  ARG553  GLY616  TRP617  ASP618  TYR619  PRO620  LYS621  CYS622 
 ASP623  PHE694  ASN695  SER759  ASP760  ASP761  ALA762  ILE779  LEU786  VAL792 
 PHE793  MET794  SER795  GLU796  ALA797  LYS798  CYS799  TRP800  GLU811  SER814 

> <Gold.Protein.RotatedAtoms>
  152.4701  133.8010  159.6952 H   0  0  0  0  0  0  0  0  0  0  0  0  # atno 6907 bound_to 6896
  150.8685  133.7530  159.2975 H   0  0  0  0  0  0  0  0  0  0  0  0  # atno 6908 bound_to 6896
  151.5072  135.1067  159.9896 H   0  0  0  0  0  0  0  0  0  0  0  0  # atno 6909 bound_to 6896
  145.9652  139.4097  143.0223 H   0  0  0  0  0  0  0  0  0  0  0  0  # atno 7974 bound_to 7965
  155.3267  140.0465  157.3041 H   0  0  0  0  0  0  0  0  0  0  0  0  # atno 8008 bound_to 7997
  154.5350  140.2269  155.8703 H   0  0  0  0  0  0  0  0  0  0  0  0  # atno 8009 bound_to 7997
  156.1826  140.3070  155.9184 H   0  0  0  0  0  0  0  0  0  0  0  0  # atno 8010 bound_to 7997
  139.6708  143.9749  152.2282 H   0  0  0  0  0  0  0  0  0  0  0  0  # atno 10167 bound_to 10162
  156.0751  130.4229  150.1369 H   0  0  0  0  0  0  0  0  0  0  0  0  # atno 10718 bound_to 10713
  154.6969  135.5190  153.8471 H   0  0  0  0  0  0  0  0  0  0  0  0  # atno 10763 bound_to 10752
  153.0674  135.6589  154.0333 H   0  0  0  0  0  0  0  0  0  0  0  0  # atno 10764 bound_to 10752
  154.0199  135.2994  155.3362 H   0  0  0  0  0  0  0  0  0  0  0  0  # atno 10765 bound_to 10752
  140.9419  134.1181  157.4142 H   0  0  0  0  0  0  0  0  0  0  0  0  # atno 11005 bound_to 11000
  145.7983  140.9782  143.1012 LP  0  0  0  0  0  0  0  0  0  0  0  0  # atno 17320 bound_to 7965
  144.6824  139.9769  143.7483 LP  0  0  0  0  0  0  0  0  0  0  0  0  # atno 17321 bound_to 7965
  139.9513  144.6618  150.8169 LP  0  0  0  0  0  0  0  0  0  0  0  0  # atno 17342 bound_to 10162
  140.7617  143.3180  151.2687 LP  0  0  0  0  0  0  0  0  0  0  0  0  # atno 17343 bound_to 10162
  156.9412  130.9745  151.3516 LP  0  0  0  0  0  0  0  0  0  0  0  0  # atno 17370 bound_to 10713
  157.5842  130.8398  149.8566 LP  0  0  0  0  0  0  0  0  0  0  0  0  # atno 17371 bound_to 10713
  139.8823  135.0039  156.6217 LP  0  0  0  0  0  0  0  0  0  0  0  0  # atno 17394 bound_to 11000
  140.7722  133.8729  155.8500 LP  0  0  0  0  0  0  0  0  0  0  0  0  # atno 17395 bound_to 11000

$$$$
