#       Name:                AV-unprocessed.smi:1206
#       Creating user name   scv26
#       Creation time:       Fri Mar 27 04:07:19 2020


#       File generated by GOLD software.
#

@<TRIPOS>MOLECULE
AV-unprocessed.smi:1206
    45    46     1
SMALL
NO_CHARGES


@<TRIPOS>ATOM
      1 ****        -1.7705  -1.2945  -1.6240 C.3            1 S1                 0.0000
      2 ****        -1.0435  -1.0860  -0.3455 N.4            1 S1                 1.0000
      3 ****        -1.5849  -1.9922   0.7016 C.3            1 S1                 0.0000
      4 ****         0.4649  -1.0164  -0.4258 C.3            1 S1                 0.0000
      5 ****         0.9844  -0.2120   0.8105 C.3            1 S1                 0.0000
      6 ****         0.4957   1.1665   0.8604 N.am           1 S1                 0.0000
      7 ****        -0.5699   1.6009   1.5480 C.2            1 S1                 0.0000
      8 ****        -1.2910   0.8618   2.2167 O.2            1 S1                 0.0000
      9 ****        -0.7414   2.9234   1.3946 N.am           1 S1                 0.0000
     10 ****        -1.7589   3.7399   1.9489 C.2            1 S1                 0.0000
     11 ****        -1.7555   5.0421   1.6414 N.2            1 S1                 0.0000
     12 ****        -2.8029   5.7231   2.2494 N.2            1 S1                 0.0000
     13 ****        -3.5555   4.9069   2.9935 C.2            1 S1                 0.0000
     14 ****        -3.0615   3.2232   3.0238 S.3            1 S1                 0.0000
     15 ****         1.0848  -2.4473  -0.4265 C.3            1 S1                 0.0000
     16 ****         2.6087  -2.4739  -0.6595 C.3            1 S1                 0.0000
     17 ****         3.0064  -1.7283  -1.9401 C.3            1 S1                 0.0000
     18 ****         2.4555  -0.2965  -1.9436 C.3            1 S1                 0.0000
     19 ****         0.9304  -0.2994  -1.7375 C.3            1 S1                 0.0000
     20 ****        -1.4363  -2.2010  -2.1295 H              1 S1                 0.0000
     21 ****        -1.6509  -0.4467  -2.2982 H              1 S1                 0.0000
     22 ****        -2.8426  -1.3887  -1.4476 H              1 S1                 0.0000
     23 ****        -1.4795  -3.0393   0.4157 H              1 S1                 0.0000
     24 ****        -2.6479  -1.7989   0.8489 H              1 S1                 0.0000
     25 ****        -1.1059  -1.8533   1.6689 H              1 S1                 0.0000
     26 ****         0.7555  -0.7245   1.7447 H              1 S1                 0.0000
     27 ****         2.0703  -0.1464   0.8088 H              1 S1                 0.0000
     28 ****         1.0294   1.8493   0.3418 H              1 S1                 0.0000
     29 ****        -0.0710   3.4043   0.8127 H              1 S1                 0.0000
     30 ****        -4.4081   5.2993   3.5280 H              1 S1                 0.0000
     31 ****         0.8828  -2.9572   0.5157 H              1 S1                 0.0000
     32 ****         0.6115  -3.0496  -1.2028 H              1 S1                 0.0000
     33 ****         3.1298  -2.0415   0.1944 H              1 S1                 0.0000
     34 ****         2.9491  -3.5080  -0.7209 H              1 S1                 0.0000
     35 ****         4.0920  -1.7116  -2.0411 H              1 S1                 0.0000
     36 ****         2.6243  -2.2681  -2.8076 H              1 S1                 0.0000
     37 ****         2.9519   0.3028  -1.1808 H              1 S1                 0.0000
     38 ****         2.6926   0.1799  -2.8954 H              1 S1                 0.0000
     39 ****         0.5248  -0.8030  -2.6146 H              1 S1                 0.0000
     40 ****         0.5525   0.7227  -1.7785 H              1 S1                 0.0000
     41 ****        -1.3183  -0.1599  -0.0501 H              1 S1                 0.0000
     42 ****        -1.0941  -0.1174   2.2667 LP             1 S1                 0.0000
     43 ****        -2.0741   1.2401   2.7104 LP             1 S1                 0.0000
     44 ****        -1.0793   5.4740   1.0447 LP             1 S1                 0.0000
     45 ****        -2.9727   6.7028   2.1434 LP             1 S1                 0.0000
@<TRIPOS>BOND
    1    1    2 1     
    2    1   20 1     
    3    1   21 1     
    4    1   22 1     
    5    2    3 1     
    6    2    4 1     
    7    2   41 1     
    8    3   23 1     
    9    3   24 1     
   10    3   25 1     
   11    4   19 1     
   12    4    5 1     
   13    4   15 1     
   14    5    6 1     
   15    5   26 1     
   16    5   27 1     
   17    6    7 am    
   18    6   28 1     
   19    7    8 2     
   20    7    9 am    
   21    9   10 1     
   22    9   29 1     
   23   10   14 1     
   24   10   11 2     
   25   11   12 1     
   26   12   13 2     
   27   13   14 1     
   28   13   30 1     
   29   15   16 1     
   30   15   31 1     
   31   15   32 1     
   32   16   17 1     
   33   16   33 1     
   34   16   34 1     
   35   17   18 1     
   36   17   35 1     
   37   17   36 1     
   38   18   19 1     
   39   18   37 1     
   40   18   38 1     
   41   19   39 1     
   42   19   40 1     
   43    8   42 1     
   44    8   43 1     
   45   11   44 1     
   46   12   45 1     
@<TRIPOS>SUBSTRUCTURE
      1 S1             1
@<TRIPOS>SET
LONE_PAIRS      STATIC     ATOMS    <user>   **** ""
4 42 43 44 45
DONOR_HYDROGENS      STATIC     ATOMS    <user>   **** ""
3 41 28 29
ATOM$BLUE        STATIC     ATOMS    COLORGROUP SYSTEM
4 42 43 44 45
ATOM$RED        STATIC     ATOMS    COLORGROUP SYSTEM
3 41 28 29
