AV-unprocessed.smi:1716|AV-procd|sdf|6916|dock4
  -GOLD-   22720 8123D 1   1.00000     0.00000
 Structure written by MMmdl.
 40 41  0  0  0  0  0  0  0  0  1 V2000
  151.8128  145.8329  160.1686 C   0  0  0  0  0  0  0  0  0  0  0  0
  152.2000  144.3962  160.5265 C   0  0  0  0  0  0  0  0  0  0  0  0
  152.2055  144.0782  161.7159 O   0  0  0  0  0  0  0  0  0  0  0  0
  152.5179  143.5289  159.5351 N   0  0  0  0  0  0  0  0  0  0  0  0
  152.8330  142.1174  159.7856 C   0  0  0  0  0  0  0  0  0  0  0  0
  151.6879  141.2448  159.2408 C   0  0  0  0  0  0  0  0  0  0  0  0
  151.4294  141.5271  157.7428 C   0  0  0  0  0  0  0  0  0  0  0  0
  150.2247  140.8391  157.2881 N   0  0  0  0  0  0  0  0  0  0  0  0
  149.8951  140.6219  156.0061 C   0  0  0  0  0  0  0  0  0  0  0  0
  150.5899  140.9847  155.0563 O   0  0  0  0  0  0  0  0  0  0  0  0
  148.7253  139.9652  155.9104 N   0  0  0  0  0  0  0  0  0  0  0  0
  148.0328  139.5532  154.7366 C   0  0  0  0  0  0  0  0  0  0  0  0
  147.7430  138.2535  154.4754 N   0  0  0  0  0  0  0  0  0  0  0  0
  147.0842  137.9329  153.3432 C   0  0  0  0  0  0  0  0  0  0  0  0
  146.6721  138.8880  152.3984 C   0  0  0  0  0  0  0  0  0  0  0  0
  146.9637  140.2390  152.6531 C   0  0  0  0  0  0  0  0  0  0  0  0
  147.6527  140.5840  153.8353 C   0  0  0  0  0  0  0  0  0  0  0  0
  147.9685  142.0450  154.1123 C   0  0  0  0  0  0  0  0  0  0  0  0
  151.2965  143.0411  157.4723 C   0  0  0  0  0  0  0  0  0  0  0  0
  152.4648  143.8240  158.0977 C   0  0  0  0  0  0  0  0  0  0  0  0
  150.9450  145.8474  159.5084 H   0  0  0  0  0  0  0  0  0  0  0  0
  152.6412  146.3458  159.6791 H   0  0  0  0  0  0  0  0  0  0  0  0
  151.5564  146.3963  161.0663 H   0  0  0  0  0  0  0  0  0  0  0  0
  153.7689  141.8618  159.2867 H   0  0  0  0  0  0  0  0  0  0  0  0
  152.9923  141.9004  160.8426 H   0  0  0  0  0  0  0  0  0  0  0  0
  151.9238  140.1906  159.3907 H   0  0  0  0  0  0  0  0  0  0  0  0
  150.7829  141.4438  159.8168 H   0  0  0  0  0  0  0  0  0  0  0  0
  152.2860  141.1645  157.1712 H   0  0  0  0  0  0  0  0  0  0  0  0
  149.5965  140.5044  158.0039 H   0  0  0  0  0  0  0  0  0  0  0  0
  148.2724  139.7316  156.7814 H   0  0  0  0  0  0  0  0  0  0  0  0
  146.8808  136.8839  153.1865 H   0  0  0  0  0  0  0  0  0  0  0  0
  146.1466  138.5916  151.5028 H   0  0  0  0  0  0  0  0  0  0  0  0
  146.6607  140.9984  151.9472 H   0  0  0  0  0  0  0  0  0  0  0  0
  147.6033  142.6891  153.3119 H   0  0  0  0  0  0  0  0  0  0  0  0
  149.0452  142.1939  154.1969 H   0  0  0  0  0  0  0  0  0  0  0  0
  147.4996  142.3676  155.0423 H   0  0  0  0  0  0  0  0  0  0  0  0
  151.2572  143.2268  156.3983 H   0  0  0  0  0  0  0  0  0  0  0  0
  150.3569  143.4119  157.8853 H   0  0  0  0  0  0  0  0  0  0  0  0
  152.3622  144.8842  157.8721 H   0  0  0  0  0  0  0  0  0  0  0  0
  153.4051  143.5196  157.6359 H   0  0  0  0  0  0  0  0  0  0  0  0
  1  2  1  0  0  0  0
  1 21  1  0  0  0  0
  1 22  1  0  0  0  0
  1 23  1  0  0  0  0
  2  3  2  0  0  0  0
  2  4  1  0  0  0  0
  4 20  1  0  0  0  0
  4  5  1  0  0  0  0
  5  6  1  0  0  0  0
  5 24  1  0  0  0  0
  5 25  1  0  0  0  0
  6  7  1  0  0  0  0
  6 26  1  0  0  0  0
  6 27  1  0  0  0  0
  7  8  1  0  0  0  0
  7 19  1  0  0  0  0
  7 28  1  0  0  0  0
  8  9  1  0  0  0  0
  8 29  1  0  0  0  0
  9 10  2  0  0  0  0
  9 11  1  0  0  0  0
 11 12  1  0  0  0  0
 11 30  1  0  0  0  0
 12 17  1  0  0  0  0
 12 13  2  0  0  0  0
 13 14  1  0  0  0  0
 14 15  2  0  0  0  0
 14 31  1  0  0  0  0
 15 16  1  0  0  0  0
 15 32  1  0  0  0  0
 16 17  2  0  0  0  0
 16 33  1  0  0  0  0
 17 18  1  0  0  0  0
 18 34  1  0  0  0  0
 18 35  1  0  0  0  0
 18 36  1  0  0  0  0
 19 20  1  0  0  0  0
 19 37  1  0  0  0  0
 19 38  1  0  0  0  0
 20 39  1  0  0  0  0
 20 40  1  0  0  0  0
M  END
> <s_m_source_file>
AV-unprocessed.smi

> <i_m_source_file_index>
1716

> <i_lp_mmshare_version>
43012

> <i_f3d_flags>
0

> <s_epik_input>
W0NIM11DKD1PKU4xW0NIMl1bQ0gyXVtDSF0oW0NIMl1bQ0gyXTEpW05IXUMoPU8pW05IXWMybltjSF1bY0hdW2NIXWMyW0NIM10=

> <s_epik_cmdline>
J2VwaWtfcHl0aG9uJywgJy1waCcsICc3LjAnLCAnLXRuJywgJzgnLCAnLW1hJywgJzIwMCcsICctbWV0YWxfYmluZGluZycsICctaW1hZScsICc8aW5maWxlLm1hZT4nLCAnLW9tYWUnLCAnPG91dGZpbGUubWFlPic=

> <r_lp_tautomer_probability>
1

> <r_epik_Ionization_Penalty>
5.94044e-05

> <r_epik_Ionization_Penalty_Charging>
0

> <r_epik_Ionization_Penalty_Neutral>
5.94044e-05

> <r_epik_State_Penalty>
-0

> <r_epik_Charging_Adjusted_Penalty>
0

> <i_epik_Tot_Q>
0

> <i_epik_Tot_abs_Q>
0

> <r_epik_Metal_State_Penalty>
-0

> <b_epik_Metal_Only>
0

> <s_lp_Force_Field>
OPLS_2005

> <r_lp_Energy>
26.4914

> <b_lp_Chiralities_Consistent>
1

> <s_lp_Variant>
AV-unprocessed.smi:1716-1

> <Gold.Version>
5.8.1

> <Gold.Id.Protein>
6NUR|6NUR_protein|mol2

> <Gold.PLP.Fitness>
40.4165

> <Gold.PLP.PLP>
-38.4775

> <Gold.PLP.part.hbond>
-1.0000

> <Gold.PLP.part.metal>
0.0000

> <Gold.PLP.part.buried>
1.0840

> <Gold.PLP.part.nonpolar>
-37.2816

> <Gold.PLP.part.repulsive>
0.4274

> <Gold.PLP.ligand.clash>
0.0000

> <Gold.PLP.ligand.torsion>
0.7458

> <Gold.PLP.Chemscore.Hbond>
0.7520

> <Gold.PLP.Chemscore.CHOScore>
0.3867

> <Gold.PLP.Chemscore.Metal>
0.0000

> <Gold.Chemscore.Hbonds>
donor molecule, donor type, donor heavy atom, donor atom, acceptor molecule, acceptor atom, score
      P1  H  7989  7998       L1    10  0.74
      L1  C    14    31       P1  7948  0.39

> <Gold.PLP.Chemscore.Internal.Correction>
0.0146

> <Gold.Rescore>
     Score         DG    S(hbond)    S(metal)    S(lipo)     H(rot)  DE(clash)    DE(int)     intcor
     14.01     -16.25       0.79        0.00      91.28       1.00       1.46       0.79       ----

> <Gold.Chemscore.Fitness>
14.0080

> <Gold.Chemscore.DG>
-16.2520

> <Gold.Chemscore.ZeroCoef>
-5.4800

> <Gold.Chemscore.Hbond>
0.7941

> <Gold.Chemscore.Metal>
0.0000

> <Gold.Chemscore.Lipo>
91.2791

> <Gold.Chemscore.Internal_Hbond>
0.0000

> <Gold.Chemscore.DEClash>
1.4557

> <Gold.Chemscore.DEInternal>
0.7883

> <Gold.Chemscore.Rot>
1.0000

> <Gold.Chemscore.Internal.Correction>
   9.000000E+99

> <Gold.Chemscore.Hbonds>
donor molecule, donor type, donor heavy atom, donor atom, acceptor molecule, acceptor atom, score
      P1  H  7989  7998       L1    10  0.72

> <Gold.Chemscore.Hbond.Weighted>
-2.6523

> <Gold.Chemscore.Metal.Weighted>
-0.0000

> <Gold.Chemscore.Lipo.Weighted>
-10.6797

> <Gold.Chemscore.Internal_Hbond.Weighted>
0.0000

> <Gold.Chemscore.DEClash.Weighted>
1.4557

> <Gold.Chemscore.DEInternal.Weighted>
0.7883

> <Gold.Chemscore.Rot.Weighted>
2.5600

> <Gold.Chemscore.Internal.Correction.Weighted>
   9.000000E+99

> <Gold.Protein.RotatedTorsions>
[ 6907 6896 6895 6894 ] final   59.37 input  -60.11 | X-H torsion
[ 7974 7965 7964 7962 ] final  100.25 input  175.53 | X-H torsion
[ 8008 7997 7996 7995 ] final  -43.52 input   59.86 | X-H torsion
[ 10167 10162 10161 10158 ] final  -49.61 input  -65.29 | X-H torsion
[ 10718 10713 10712 10709 ] final  142.80 input   66.30 | X-H torsion
[ 10763 10752 10751 10750 ] final -134.93 input  -60.55 | X-H torsion
[ 11005 11000 10999 10996 ] final  178.70 input  -57.11 | X-H torsion

> <Gold.Protein.ActiveResidues>
 VAL166  LYS551  ARG553  GLY616  TRP617  ASP618  TYR619  PRO620  LYS621  CYS622 
 ASP623  PHE694  ASN695  SER759  ASP760  ASP761  ALA762  ILE779  LEU786  VAL792 
 PHE793  MET794  SER795  GLU796  ALA797  LYS798  CYS799  TRP800  GLU811  SER814 

> <Gold.Protein.RotatedAtoms>
  152.3908  134.6444  160.0107 H   0  0  0  0  0  0  0  0  0  0  0  0  # atno 6907 bound_to 6896
  151.6678  133.3309  159.3197 H   0  0  0  0  0  0  0  0  0  0  0  0  # atno 6908 bound_to 6896
  150.7825  134.6825  159.6496 H   0  0  0  0  0  0  0  0  0  0  0  0  # atno 6909 bound_to 6896
  145.3881  139.2368  143.3367 H   0  0  0  0  0  0  0  0  0  0  0  0  # atno 7974 bound_to 7965
  154.3997  140.1445  156.3533 H   0  0  0  0  0  0  0  0  0  0  0  0  # atno 8008 bound_to 7997
  155.8249  140.3468  155.5515 H   0  0  0  0  0  0  0  0  0  0  0  0  # atno 8009 bound_to 7997
  155.8249  140.0903  157.1817 H   0  0  0  0  0  0  0  0  0  0  0  0  # atno 8010 bound_to 7997
  140.6677  143.2691  151.4240 H   0  0  0  0  0  0  0  0  0  0  0  0  # atno 10167 bound_to 10162
  157.3764  131.0986  151.0780 H   0  0  0  0  0  0  0  0  0  0  0  0  # atno 10718 bound_to 10713
  154.8711  135.3719  154.4816 H   0  0  0  0  0  0  0  0  0  0  0  0  # atno 10763 bound_to 10752
  153.5469  135.7025  153.5615 H   0  0  0  0  0  0  0  0  0  0  0  0  # atno 10764 bound_to 10752
  153.3751  135.4011  155.1781 H   0  0  0  0  0  0  0  0  0  0  0  0  # atno 10765 bound_to 10752
  140.3980  134.6803  157.4546 H   0  0  0  0  0  0  0  0  0  0  0  0  # atno 11005 bound_to 11000
  146.2810  140.4559  142.8776 LP  0  0  0  0  0  0  0  0  0  0  0  0  # atno 17320 bound_to 7965
  144.8460  140.6929  143.6199 LP  0  0  0  0  0  0  0  0  0  0  0  0  # atno 17321 bound_to 7965
  139.5932  144.1454  152.2113 LP  0  0  0  0  0  0  0  0  0  0  0  0  # atno 17342 bound_to 10162
  140.0815  144.5697  150.7119 LP  0  0  0  0  0  0  0  0  0  0  0  0  # atno 17343 bound_to 10162
  157.1865  130.6333  149.5690 LP  0  0  0  0  0  0  0  0  0  0  0  0  # atno 17370 bound_to 10713
  155.9766  130.4736  150.6539 LP  0  0  0  0  0  0  0  0  0  0  0  0  # atno 17371 bound_to 10713
  140.0357  134.6341  155.9047 LP  0  0  0  0  0  0  0  0  0  0  0  0  # atno 17394 bound_to 11000
  141.1867  133.6558  156.5250 LP  0  0  0  0  0  0  0  0  0  0  0  0  # atno 17395 bound_to 11000

$$$$
