AV-unprocessed.smi:283|AV-procd|sdf|2138|dock10
  -GOLD-   2262021463D 1   1.00000     0.00000
 Structure written by MMmdl.
 48 51  0  0  0  0  0  0  0  0  1 V2000
  151.4635  140.3915  155.9769 C   0  0  0  0  0  0  0  0  0  0  0  0
  151.1355  140.5205  157.4706 C   0  0  1  0  0  0  0  0  0  0  0  0
  151.5620  139.3127  158.1734 N   0  0  0  0  0  0  0  0  0  0  0  0
  150.7438  138.2431  158.2852 C   0  0  0  0  0  0  0  0  0  0  0  0
  150.5342  137.8010  159.5473 N   0  0  0  0  0  0  0  0  0  0  0  0
  149.7235  136.7638  159.7673 C   0  0  0  0  0  0  0  0  0  0  0  0
  149.0479  136.0332  158.8801 N   0  0  0  0  0  0  0  0  0  0  0  0
  149.2693  136.4520  157.5995 C   0  0  0  0  0  0  0  0  0  0  0  0
  150.0938  137.5512  157.2201 C   0  0  0  0  0  0  0  0  0  0  0  0
  150.0643  137.6892  155.8390 N   0  0  0  0  0  0  0  0  0  0  0  0
  149.2610  136.7453  155.4350 C   0  0  0  0  0  0  0  0  0  0  0  0
  148.7677  135.9196  156.4233 N   0  0  0  0  0  0  0  0  0  0  0  0
  147.8063  134.7665  156.2689 C   0  0  2  0  0  0  0  0  0  0  0  0
  148.3545  133.8138  155.4152 O   0  0  0  0  0  0  0  0  0  0  0  0
  148.0799  134.1857  154.0728 C   0  0  1  0  0  0  0  0  0  0  0  0
  148.2723  132.9800  153.1417 C   0  0  0  0  0  0  0  0  0  0  0  0
  147.5274  133.1618  151.9564 O   0  0  0  0  0  0  0  0  0  0  0  0
  146.6281  134.6717  154.1630 C   0  0  2  0  0  0  0  0  0  0  0  0
  146.4092  135.6967  153.2136 O   0  0  0  0  0  0  0  0  0  0  0  0
  146.4977  135.2180  155.5885 C   0  0  1  0  0  0  0  0  0  0  0  0
  145.3691  134.6687  156.2375 O   0  0  0  0  0  0  0  0  0  0  0  0
  151.7128  141.8236  158.0307 C   0  0  0  0  0  0  0  0  0  0  0  0
  151.0973  143.0591  157.7203 C   0  0  0  0  0  0  0  0  0  0  0  0
  151.6124  144.2665  158.2278 C   0  0  0  0  0  0  0  0  0  0  0  0
  152.7447  144.2515  159.0614 C   0  0  0  0  0  0  0  0  0  0  0  0
  153.3570  143.0279  159.3891 C   0  0  0  0  0  0  0  0  0  0  0  0
  152.8464  141.8159  158.8823 C   0  0  0  0  0  0  0  0  0  0  0  0
  153.6309  140.3417  159.3314 Cl  0  0  0  0  0  0  0  0  0  0  0  0
  147.6872  134.3866  157.2845 H   0  0  0  0  0  0  0  0  0  0  0  0
  148.7343  135.0104  153.7810 H   0  0  0  0  0  0  0  0  0  0  0  0
  145.9342  133.8467  153.9933 H   0  0  0  0  0  0  0  0  0  0  0  0
  146.4010  136.3032  155.5986 H   0  0  0  0  0  0  0  0  0  0  0  0
  151.0776  141.2431  155.4157 H   0  0  0  0  0  0  0  0  0  0  0  0
  151.0184  139.4910  155.5524 H   0  0  0  0  0  0  0  0  0  0  0  0
  152.5400  140.3431  155.8089 H   0  0  0  0  0  0  0  0  0  0  0  0
  150.0505  140.5487  157.5495 H   0  0  0  0  0  0  0  0  0  0  0  0
  152.3437  139.4471  158.7979 H   0  0  0  0  0  0  0  0  0  0  0  0
  149.5977  136.4775  160.8010 H   0  0  0  0  0  0  0  0  0  0  0  0
  149.0124  136.6285  154.3903 H   0  0  0  0  0  0  0  0  0  0  0  0
  149.3253  132.8191  152.9095 H   0  0  0  0  0  0  0  0  0  0  0  0
  147.9036  132.0738  153.6229 H   0  0  0  0  0  0  0  0  0  0  0  0
  147.7195  132.4476  151.3681 H   0  0  0  0  0  0  0  0  0  0  0  0
  147.1766  135.7689  152.6668 H   0  0  0  0  0  0  0  0  0  0  0  0
  145.6553  133.9526  156.7839 H   0  0  0  0  0  0  0  0  0  0  0  0
  150.2230  143.0896  157.0870 H   0  0  0  0  0  0  0  0  0  0  0  0
  151.1364  145.2036  157.9787 H   0  0  0  0  0  0  0  0  0  0  0  0
  153.1399  145.1769  159.4539 H   0  0  0  0  0  0  0  0  0  0  0  0
  154.2220  143.0198  160.0359 H   0  0  0  0  0  0  0  0  0  0  0  0
  1  2  1  0  0  0  0
  1 33  1  0  0  0  0
  1 34  1  0  0  0  0
  1 35  1  0  0  0  0
  2  3  1  0  0  0  0
  2 22  1  0  0  0  0
  2 36  1  0  0  0  0
  3  4  1  0  0  0  0
  3 37  1  0  0  0  0
  4  9  1  0  0  0  0
  4  5  2  0  0  0  0
  5  6  1  0  0  0  0
  6  7  2  0  0  0  0
  6 38  1  0  0  0  0
  7  8  1  0  0  0  0
  8 12  1  0  0  0  0
  8  9  2  0  0  0  0
  9 10  1  0  0  0  0
 10 11  2  0  0  0  0
 11 12  1  0  0  0  0
 11 39  1  0  0  0  0
 12 13  1  0  0  0  0
 13 29  1  0  0  0  0
 13 20  1  0  0  0  0
 13 14  1  0  0  0  0
 14 15  1  0  0  0  0
 15 30  1  0  0  0  0
 15 16  1  0  0  0  0
 15 18  1  0  0  0  0
 16 17  1  0  0  0  0
 16 40  1  0  0  0  0
 16 41  1  0  0  0  0
 17 42  1  0  0  0  0
 18 31  1  0  0  0  0
 18 19  1  0  0  0  0
 18 20  1  0  0  0  0
 19 43  1  0  0  0  0
 20 32  1  0  0  0  0
 20 21  1  0  0  0  0
 21 44  1  0  0  0  0
 22 27  1  0  0  0  0
 22 23  2  0  0  0  0
 23 24  1  0  0  0  0
 23 45  1  0  0  0  0
 24 25  2  0  0  0  0
 24 46  1  0  0  0  0
 25 26  1  0  0  0  0
 25 47  1  0  0  0  0
 26 27  2  0  0  0  0
 26 48  1  0  0  0  0
 27 28  1  0  0  0  0
M  END
> <s_m_source_file>
AV-unprocessed.smi

> <i_m_source_file_index>
283

> <i_lp_mmshare_version>
43012

> <i_f3d_flags>
0

> <s_epik_input>
Q2xjMVtjSF1bY0hdW2NIXVtjSF1jMVtDQEhdKFtDSDNdKVtOSF1jKG5bY0hdbjIpYyhjMjMpbltjSF1uM1tDQEBIXTRPW0NASF0oW0NIMl1bT0hdKVtDQEBIXShbT0hdKVtDQEhdNFtPSF0=

> <s_epik_cmdline>
J2VwaWtfcHl0aG9uJywgJy1waCcsICc3LjAnLCAnLXRuJywgJzgnLCAnLW1hJywgJzIwMCcsICctbWV0YWxfYmluZGluZycsICctaW1hZScsICc8aW5maWxlLm1hZT4nLCAnLW9tYWUnLCAnPG91dGZpbGUubWFlPic=

> <r_lp_tautomer_probability>
1

> <r_epik_Ionization_Penalty>
0.000266407

> <r_epik_Ionization_Penalty_Charging>
0

> <r_epik_Ionization_Penalty_Neutral>
0.000266407

> <r_epik_State_Penalty>
-0

> <r_epik_Charging_Adjusted_Penalty>
0

> <i_epik_Tot_Q>
0

> <i_epik_Tot_abs_Q>
0

> <r_epik_Metal_State_Penalty>
-0

> <b_epik_Metal_Only>
0

> <s_epik_Chemistry_Notes>
This compound contains an acetal/aminal-like group ( X-CH(R)-Y where X, Y are N, S, or O) that may be acid/base labile, releasing an aldehyde.

> <s_lp_Force_Field>
OPLS_2005

> <r_lp_Energy>
39.8379

> <b_lp_Chiralities_Consistent>
1

> <s_lp_Variant>
AV-unprocessed.smi:283-14

> <Gold.Version>
5.8.1

> <Gold.Id.Protein>
6NUR|6NUR_protein|mol2

> <Gold.PLP.Fitness>
47.2231

> <Gold.PLP.PLP>
-41.1108

> <Gold.PLP.part.hbond>
-2.5351

> <Gold.PLP.part.metal>
0.0000

> <Gold.PLP.part.buried>
-4.8428

> <Gold.PLP.part.nonpolar>
-33.9303

> <Gold.PLP.part.repulsive>
0.1517

> <Gold.PLP.ligand.clash>
0.0000

> <Gold.PLP.ligand.torsion>
1.4871

> <Gold.PLP.Chemscore.Hbond>
1.9920

> <Gold.PLP.Chemscore.CHOScore>
1.0000

> <Gold.PLP.Chemscore.Metal>
0.0000

> <Gold.Chemscore.Hbonds>
donor molecule, donor type, donor heavy atom, donor atom, acceptor molecule, acceptor atom, score
      L1  H    17    42       P1 10747  0.32
      L1  H    19    43       P1  7948  1.00
      L1  C    11    39       P1  7948  0.96

> <Gold.PLP.Chemscore.Internal.Correction>
0.1105

> <Gold.Rescore>
     Score         DG    S(hbond)    S(metal)    S(lipo)     H(rot)  DE(clash)    DE(int)     intcor
     10.62     -13.82       1.97        0.00     104.54       4.10       0.03       3.16       ----

> <Gold.Chemscore.Fitness>
10.6234

> <Gold.Chemscore.DG>
-13.8185

> <Gold.Chemscore.ZeroCoef>
-5.4800

> <Gold.Chemscore.Hbond>
1.9745

> <Gold.Chemscore.Metal>
0.0000

> <Gold.Chemscore.Lipo>
104.5431

> <Gold.Chemscore.Internal_Hbond>
0.0000

> <Gold.Chemscore.DEClash>
0.0328

> <Gold.Chemscore.DEInternal>
3.1623

> <Gold.Chemscore.Rot>
4.0968

> <Gold.Chemscore.Internal.Correction>
   9.000000E+99

> <Gold.Chemscore.Hbonds>
donor molecule, donor type, donor heavy atom, donor atom, acceptor molecule, acceptor atom, score
      L1  H    17    42       P1 10747  0.33
      L1  H    19    43       P1  7948  0.97

> <Gold.Chemscore.Hbond.Weighted>
-6.5948

> <Gold.Chemscore.Metal.Weighted>
-0.0000

> <Gold.Chemscore.Lipo.Weighted>
-12.2315

> <Gold.Chemscore.Internal_Hbond.Weighted>
0.0000

> <Gold.Chemscore.DEClash.Weighted>
0.0328

> <Gold.Chemscore.DEInternal.Weighted>
3.1623

> <Gold.Chemscore.Rot.Weighted>
10.4879

> <Gold.Chemscore.Internal.Correction.Weighted>
   9.000000E+99

> <Gold.Protein.RotatedTorsions>
[ 6907 6896 6895 6894 ] final -160.27 input  -60.11 | X-H torsion
[ 7974 7965 7964 7962 ] final   99.78 input  175.53 | X-H torsion
[ 8008 7997 7996 7995 ] final  157.75 input   59.86 | X-H torsion
[ 10167 10162 10161 10158 ] final  -25.98 input  -65.29 | X-H torsion
[ 10718 10713 10712 10709 ] final  -29.36 input   66.30 | X-H torsion
[ 10763 10752 10751 10750 ] final -117.47 input  -60.55 | X-H torsion
[ 11005 11000 10999 10996 ] final -157.48 input  -57.11 | X-H torsion

> <Gold.Protein.ActiveResidues>
 VAL166  LYS551  ARG553  GLY616  TRP617  ASP618  TYR619  PRO620  LYS621  CYS622 
 ASP623  PHE694  ASN695  SER759  ASP760  ASP761  ALA762  ILE779  LEU786  VAL792 
 PHE793  MET794  SER795  GLU796  ALA797  LYS798  CYS799  TRP800  GLU811  SER814 

> <Gold.Protein.RotatedAtoms>
  151.3464  133.3942  159.2675 H   0  0  0  0  0  0  0  0  0  0  0  0  # atno 6907 bound_to 6896
  150.9836  134.9187  159.7869 H   0  0  0  0  0  0  0  0  0  0  0  0  # atno 6908 bound_to 6896
  152.5225  134.3428  159.9275 H   0  0  0  0  0  0  0  0  0  0  0  0  # atno 6909 bound_to 6896
  145.3943  139.2358  143.3335 H   0  0  0  0  0  0  0  0  0  0  0  0  # atno 7974 bound_to 7965
  156.2345  140.1877  156.7155 H   0  0  0  0  0  0  0  0  0  0  0  0  # atno 8008 bound_to 7997
  154.6082  140.0626  156.9486 H   0  0  0  0  0  0  0  0  0  0  0  0  # atno 8009 bound_to 7997
  155.2061  140.3296  155.4338 H   0  0  0  0  0  0  0  0  0  0  0  0  # atno 8010 bound_to 7997
  140.7284  143.4217  151.0940 H   0  0  0  0  0  0  0  0  0  0  0  0  # atno 10167 bound_to 10162
  156.4134  130.4412  149.7236 H   0  0  0  0  0  0  0  0  0  0  0  0  # atno 10718 bound_to 10713
  154.8556  135.4308  154.1984 H   0  0  0  0  0  0  0  0  0  0  0  0  # atno 10763 bound_to 10752
  153.3036  135.6970  153.7186 H   0  0  0  0  0  0  0  0  0  0  0  0  # atno 10764 bound_to 10752
  153.6306  135.3485  155.3014 H   0  0  0  0  0  0  0  0  0  0  0  0  # atno 10765 bound_to 10752
  140.6642  134.4317  157.5233 H   0  0  0  0  0  0  0  0  0  0  0  0  # atno 11005 bound_to 11000
  146.2782  140.4631  142.8787 LP  0  0  0  0  0  0  0  0  0  0  0  0  # atno 17320 bound_to 7965
  144.8418  140.6869  143.6224 LP  0  0  0  0  0  0  0  0  0  0  0  0  # atno 17321 bound_to 7965
  139.7864  143.8281  152.3145 LP  0  0  0  0  0  0  0  0  0  0  0  0  # atno 17342 bound_to 10162
  139.8250  144.7279  150.9523 LP  0  0  0  0  0  0  0  0  0  0  0  0  # atno 17343 bound_to 10162
  156.4205  130.7766  151.2783 LP  0  0  0  0  0  0  0  0  0  0  0  0  # atno 17370 bound_to 10713
  157.7507  131.0184  150.3625 LP  0  0  0  0  0  0  0  0  0  0  0  0  # atno 17371 bound_to 10713
  139.9003  134.8572  156.1925 LP  0  0  0  0  0  0  0  0  0  0  0  0  # atno 17394 bound_to 11000
  141.0442  133.6922  156.1653 LP  0  0  0  0  0  0  0  0  0  0  0  0  # atno 17395 bound_to 11000

$$$$
