AV-unprocessed.smi:784|AV-procd|sdf|3718|dock1
  -GOLD-   22720 1143D 1   1.00000     0.00000
 Structure written by MMmdl.
 38 39  0  0  0  0  0  0  0  0  1 V2000
  146.9596  141.5621  154.1632 C   0  0  0  0  0  0  0  0  0  0  0  0
  148.2250  140.7710  154.3152 C   0  0  0  0  0  0  0  0  0  0  0  0
  148.3736  139.3767  154.5516 C   0  0  0  0  0  0  0  0  0  0  0  0
  149.7273  139.1999  154.5951 C   0  0  0  0  0  0  0  0  0  0  0  0
  150.5899  138.0017  154.8007 C   0  0  0  0  0  0  0  0  0  0  0  0
  152.1520  138.5107  155.6359 S   0  0  0  0  0  0  0  0  0  0  0  0
  152.9113  137.2981  155.9770 O   0  0  0  0  0  0  0  0  0  0  0  0
  152.7846  139.5822  154.8514 O   0  0  0  0  0  0  0  0  0  0  0  0
  151.5930  139.1993  157.1158 N   0  0  0  0  0  0  0  0  0  0  0  0
  152.2440  140.3727  157.7033 C   0  0  0  0  0  0  0  0  0  0  0  0
  152.6669  140.0388  159.1479 C   0  0  0  0  0  0  0  0  0  0  0  0
  153.6508  141.0620  159.7393 C   0  0  0  0  0  0  0  0  0  0  0  0
  153.0084  142.2874  160.4131 C   0  0  0  0  0  0  0  0  0  0  0  0
  151.7754  142.8898  159.7163 C   0  0  0  0  0  0  0  0  0  0  0  0
  151.8200  142.8904  158.1795 C   0  0  0  0  0  0  0  0  0  0  0  0
  151.2972  141.5794  157.5681 C   0  0  0  0  0  0  0  0  0  0  0  0
  150.3613  140.3852  154.4048 O   0  0  0  0  0  0  0  0  0  0  0  0
  149.3951  141.3812  154.2265 N   0  0  0  0  0  0  0  0  0  0  0  0
  146.0998  141.0033  154.5328 H   0  0  0  0  0  0  0  0  0  0  0  0
  146.7735  141.8031  153.1166 H   0  0  0  0  0  0  0  0  0  0  0  0
  147.0082  142.4992  154.7188 H   0  0  0  0  0  0  0  0  0  0  0  0
  147.6079  138.6241  154.6655 H   0  0  0  0  0  0  0  0  0  0  0  0
  150.0828  137.2620  155.4198 H   0  0  0  0  0  0  0  0  0  0  0  0
  150.8393  137.5357  153.8478 H   0  0  0  0  0  0  0  0  0  0  0  0
  150.5881  139.1234  157.2722 H   0  0  0  0  0  0  0  0  0  0  0  0
  153.1465  140.5800  157.1268 H   0  0  0  0  0  0  0  0  0  0  0  0
  151.7984  139.9140  159.7957 H   0  0  0  0  0  0  0  0  0  0  0  0
  153.1712  139.0711  159.1363 H   0  0  0  0  0  0  0  0  0  0  0  0
  154.2749  140.5631  160.4815 H   0  0  0  0  0  0  0  0  0  0  0  0
  154.3423  141.3915  158.9629 H   0  0  0  0  0  0  0  0  0  0  0  0
  152.7268  142.0270  161.4340 H   0  0  0  0  0  0  0  0  0  0  0  0
  153.7739  143.0580  160.5108 H   0  0  0  0  0  0  0  0  0  0  0  0
  150.8768  142.3704  160.0518 H   0  0  0  0  0  0  0  0  0  0  0  0
  151.6593  143.9154  160.0682 H   0  0  0  0  0  0  0  0  0  0  0  0
  151.1760  143.6969  157.8271 H   0  0  0  0  0  0  0  0  0  0  0  0
  152.8197  143.1265  157.8133 H   0  0  0  0  0  0  0  0  0  0  0  0
  151.1087  141.7507  156.5075 H   0  0  0  0  0  0  0  0  0  0  0  0
  150.3259  141.3399  158.0029 H   0  0  0  0  0  0  0  0  0  0  0  0
  1  2  1  0  0  0  0
  1 19  1  0  0  0  0
  1 20  1  0  0  0  0
  1 21  1  0  0  0  0
  2 18  2  0  0  0  0
  2  3  1  0  0  0  0
  3  4  2  0  0  0  0
  3 22  1  0  0  0  0
  4  5  1  0  0  0  0
  4 17  1  0  0  0  0
  5  6  1  0  0  0  0
  5 23  1  0  0  0  0
  5 24  1  0  0  0  0
  6  7  2  0  0  0  0
  6  8  2  0  0  0  0
  6  9  1  0  0  0  0
  9 10  1  0  0  0  0
  9 25  1  0  0  0  0
 10 16  1  0  0  0  0
 10 11  1  0  0  0  0
 10 26  1  0  0  0  0
 11 12  1  0  0  0  0
 11 27  1  0  0  0  0
 11 28  1  0  0  0  0
 12 13  1  0  0  0  0
 12 29  1  0  0  0  0
 12 30  1  0  0  0  0
 13 14  1  0  0  0  0
 13 31  1  0  0  0  0
 13 32  1  0  0  0  0
 14 15  1  0  0  0  0
 14 33  1  0  0  0  0
 14 34  1  0  0  0  0
 15 16  1  0  0  0  0
 15 35  1  0  0  0  0
 15 36  1  0  0  0  0
 16 37  1  0  0  0  0
 16 38  1  0  0  0  0
 17 18  1  0  0  0  0
M  END
> <s_m_source_file>
AV-unprocessed.smi

> <i_m_source_file_index>
784

> <i_lp_mmshare_version>
43012

> <i_f3d_flags>
0

> <s_epik_input>
W0NIM11jMVtjSF1jKG9uMSlbQ0gyXVMoPU8pKD1PKVtOSF1bQ0hdMltDSDJdW0NIMl1bQ0gyXVtDSDJdW0NIMl1bQ0gyXTI=

> <s_epik_cmdline>
J2VwaWtfcHl0aG9uJywgJy1waCcsICc3LjAnLCAnLXRuJywgJzgnLCAnLW1hJywgJzIwMCcsICctbWV0YWxfYmluZGluZycsICctaW1hZScsICc8aW5maWxlLm1hZT4nLCAnLW9tYWUnLCAnPG91dGZpbGUubWFlPic=

> <r_lp_tautomer_probability>
1

> <r_epik_Ionization_Penalty>
4.92328e-05

> <r_epik_Ionization_Penalty_Charging>
0

> <r_epik_Ionization_Penalty_Neutral>
4.92328e-05

> <r_epik_State_Penalty>
-0

> <r_epik_Charging_Adjusted_Penalty>
0

> <i_epik_Tot_Q>
0

> <i_epik_Tot_abs_Q>
0

> <r_epik_Metal_State_Penalty>
0.0438012

> <b_epik_Metal_Only>
0

> <s_lp_Force_Field>
OPLS_2005

> <r_lp_Energy>
5.5121

> <b_lp_Chiralities_Consistent>
1

> <s_lp_Variant>
AV-unprocessed.smi:784-1

> <Gold.Version>
5.8.1

> <Gold.Id.Protein>
6NUR|6NUR_protein|mol2

> <Gold.PLP.Fitness>
47.2015

> <Gold.PLP.PLP>
-38.1992

> <Gold.PLP.part.hbond>
-5.7272

> <Gold.PLP.part.metal>
0.0000

> <Gold.PLP.part.buried>
-5.4739

> <Gold.PLP.part.nonpolar>
-28.7942

> <Gold.PLP.part.repulsive>
0.3825

> <Gold.PLP.ligand.clash>
0.0000

> <Gold.PLP.ligand.torsion>
1.0486

> <Gold.PLP.Chemscore.Hbond>
3.3277

> <Gold.PLP.Chemscore.CHOScore>
0.0000

> <Gold.PLP.Chemscore.Metal>
0.0000

> <Gold.Chemscore.Hbonds>
donor molecule, donor type, donor heavy atom, donor atom, acceptor molecule, acceptor atom, score
      P1  H  7989  7998       L1    17  1.00
      P1  H  7997  8009       L1     8  0.94
      P1  H  8011  8017       L1    18  0.40
      P1  H 10752 10765       L1     7  0.61

> <Gold.PLP.Chemscore.Internal.Correction>
1.1165

> <Gold.Rescore>
     Score         DG    S(hbond)    S(metal)    S(lipo)     H(rot)  DE(clash)    DE(int)     intcor
     17.71     -20.11       2.42        0.00      85.93       1.37       0.13       2.27       ----

> <Gold.Chemscore.Fitness>
17.7124

> <Gold.Chemscore.DG>
-20.1073

> <Gold.Chemscore.ZeroCoef>
-5.4800

> <Gold.Chemscore.Hbond>
2.4223

> <Gold.Chemscore.Metal>
0.0000

> <Gold.Chemscore.Lipo>
85.9280

> <Gold.Chemscore.Internal_Hbond>
0.0000

> <Gold.Chemscore.DEClash>
0.1282

> <Gold.Chemscore.DEInternal>
2.2667

> <Gold.Chemscore.Rot>
1.3738

> <Gold.Chemscore.Internal.Correction>
   9.000000E+99

> <Gold.Chemscore.Hbonds>
donor molecule, donor type, donor heavy atom, donor atom, acceptor molecule, acceptor atom, score
      P1  H  7989  7998       L1    17  0.42
      P1  H  7997  8009       L1     8  0.59
      P1  H  8011  8017       L1    18  0.27
      P1  H 10752 10765       L1     7  0.58

> <Gold.Chemscore.Hbond.Weighted>
-8.0906

> <Gold.Chemscore.Metal.Weighted>
-0.0000

> <Gold.Chemscore.Lipo.Weighted>
-10.0536

> <Gold.Chemscore.Internal_Hbond.Weighted>
0.0000

> <Gold.Chemscore.DEClash.Weighted>
0.1282

> <Gold.Chemscore.DEInternal.Weighted>
2.2667

> <Gold.Chemscore.Rot.Weighted>
3.5168

> <Gold.Chemscore.Internal.Correction.Weighted>
   9.000000E+99

> <Gold.Protein.RotatedTorsions>
[ 6907 6896 6895 6894 ] final   45.39 input  -60.11 | X-H torsion
[ 7974 7965 7964 7962 ] final  -45.91 input  175.53 | X-H torsion
[ 8008 7997 7996 7995 ] final -134.79 input   59.86 | X-H torsion
[ 10167 10162 10161 10158 ] final  -27.17 input  -65.29 | X-H torsion
[ 10718 10713 10712 10709 ] final  -55.32 input   66.30 | X-H torsion
[ 10763 10752 10751 10750 ] final -149.58 input  -60.55 | X-H torsion
[ 11005 11000 10999 10996 ] final -164.01 input  -57.11 | X-H torsion

> <Gold.Protein.ActiveResidues>
 VAL166  LYS551  ARG553  GLY616  TRP617  ASP618  TYR619  PRO620  LYS621  CYS622 
 ASP623  PHE694  ASN695  SER759  ASP760  ASP761  ALA762  ILE779  LEU786  VAL792 
 PHE793  MET794  SER795  GLU796  ALA797  LYS798  CYS799  TRP800  GLU811  SER814 

> <Gold.Protein.RotatedAtoms>
  152.2440  134.8200  160.0455 H   0  0  0  0  0  0  0  0  0  0  0  0  # atno 6907 bound_to 6896
  151.8904  133.3510  159.3804 H   0  0  0  0  0  0  0  0  0  0  0  0  # atno 6908 bound_to 6896
  150.7062  134.4855  159.5535 H   0  0  0  0  0  0  0  0  0  0  0  0  # atno 6909 bound_to 6896
  145.9773  140.7321  142.9381 H   0  0  0  0  0  0  0  0  0  0  0  0  # atno 7974 bound_to 7965
  155.3679  140.0486  157.3046 H   0  0  0  0  0  0  0  0  0  0  0  0  # atno 8008 bound_to 7997
  154.5144  140.2203  155.9056 H   0  0  0  0  0  0  0  0  0  0  0  0  # atno 8009 bound_to 7997
  156.1620  140.3114  155.8829 H   0  0  0  0  0  0  0  0  0  0  0  0  # atno 8010 bound_to 7997
  140.7279  143.4116  151.1096 H   0  0  0  0  0  0  0  0  0  0  0  0  # atno 10167 bound_to 10162
  156.1378  130.4156  150.0155 H   0  0  0  0  0  0  0  0  0  0  0  0  # atno 10718 bound_to 10713
  154.8169  135.3305  154.7151 H   0  0  0  0  0  0  0  0  0  0  0  0  # atno 10763 bound_to 10752
  153.7790  135.6920  153.4896 H   0  0  0  0  0  0  0  0  0  0  0  0  # atno 10764 bound_to 10752
  153.1993  135.4522  155.0194 H   0  0  0  0  0  0  0  0  0  0  0  0  # atno 10765 bound_to 10752
  140.5917  134.5038  157.5194 H   0  0  0  0  0  0  0  0  0  0  0  0  # atno 11005 bound_to 11000
  144.6852  140.2849  143.7286 LP  0  0  0  0  0  0  0  0  0  0  0  0  # atno 17320 bound_to 7965
  145.7820  139.1895  143.2152 LP  0  0  0  0  0  0  0  0  0  0  0  0  # atno 17321 bound_to 7965
  139.7750  143.8438  152.3127 LP  0  0  0  0  0  0  0  0  0  0  0  0  # atno 17342 bound_to 10162
  139.8370  144.7228  150.9379 LP  0  0  0  0  0  0  0  0  0  0  0  0  # atno 17343 bound_to 10162
  156.8049  130.9304  151.3645 LP  0  0  0  0  0  0  0  0  0  0  0  0  # atno 17370 bound_to 10713
  157.6548  130.8915  149.9707 LP  0  0  0  0  0  0  0  0  0  0  0  0  # atno 17371 bound_to 10713
  139.9271  134.8035  156.1037 LP  0  0  0  0  0  0  0  0  0  0  0  0  # atno 17394 bound_to 11000
  141.0930  133.6706  156.2583 LP  0  0  0  0  0  0  0  0  0  0  0  0  # atno 17395 bound_to 11000

$$$$
