AV-unprocessed.smi:1286|AV-procd|sdf|5376|dock3
  -GOLD-   22720 4523D 1   1.00000     0.00000
 Structure written by MMmdl.
 36 37  0  0  0  0  0  0  0  0  1 V2000
  151.8263  137.2856  157.1362 C   0  0  0  0  0  0  0  0  0  0  0  0
  152.5794  138.6001  156.8746 C   0  0  1  0  0  0  0  0  0  0  0  0
  152.5281  139.0490  155.3975 C   0  0  0  0  0  0  0  0  0  0  0  0
  151.1800  139.3469  154.9484 N   0  0  0  0  0  0  0  0  0  0  0  0
  150.1728  138.4617  154.6275 C   0  0  0  0  0  0  0  0  0  0  0  0
  149.0861  139.2000  154.2560 C   0  0  0  0  0  0  0  0  0  0  0  0
  149.5330  140.5452  154.3808 C   0  0  0  0  0  0  0  0  0  0  0  0
  150.7873  140.6302  154.7940 N   0  0  0  0  0  0  0  0  0  0  0  0
  152.0320  139.6442  157.7360 N   0  0  0  0  0  0  0  0  0  0  0  0
  152.7025  140.2802  158.7095 C   0  0  0  0  0  0  0  0  0  0  0  0
  153.8811  140.0492  158.9810 O   0  0  0  0  0  0  0  0  0  0  0  0
  151.9235  141.3453  159.4899 C   0  0  0  0  0  0  0  0  0  0  0  0
  152.7142  142.6516  159.7223 C   0  0  2  0  0  0  0  0  0  0  0  0
  152.2638  143.4250  160.9384 C   0  0  0  0  0  0  0  0  0  0  0  0
  151.9578  144.6898  160.6594 C   0  0  0  0  0  0  0  0  0  0  0  0
  152.1387  145.0186  159.2037 C   0  0  0  0  0  0  0  0  0  0  0  0
  152.5542  143.6734  158.5672 C   0  0  0  0  0  0  0  0  0  0  0  0
  152.2611  136.4567  156.5771 H   0  0  0  0  0  0  0  0  0  0  0  0
  150.7772  137.3663  156.8491 H   0  0  0  0  0  0  0  0  0  0  0  0
  151.8636  137.0167  158.1924 H   0  0  0  0  0  0  0  0  0  0  0  0
  153.6225  138.4350  157.1511 H   0  0  0  0  0  0  0  0  0  0  0  0
  153.1551  139.9297  155.2473 H   0  0  0  0  0  0  0  0  0  0  0  0
  152.9297  138.2695  154.7489 H   0  0  0  0  0  0  0  0  0  0  0  0
  150.3128  137.3926  154.6917 H   0  0  0  0  0  0  0  0  0  0  0  0
  148.1195  138.8350  153.9424 H   0  0  0  0  0  0  0  0  0  0  0  0
  148.9871  141.4561  154.1842 H   0  0  0  0  0  0  0  0  0  0  0  0
  151.0680  139.9015  157.5805 H   0  0  0  0  0  0  0  0  0  0  0  0
  151.0107  141.5655  158.9353 H   0  0  0  0  0  0  0  0  0  0  0  0
  151.6078  140.9332  160.4498 H   0  0  0  0  0  0  0  0  0  0  0  0
  153.7731  142.4237  159.8541 H   0  0  0  0  0  0  0  0  0  0  0  0
  152.2200  142.9812  161.9223 H   0  0  0  0  0  0  0  0  0  0  0  0
  151.6260  145.4236  161.3789 H   0  0  0  0  0  0  0  0  0  0  0  0
  151.2099  145.3997  158.7780 H   0  0  0  0  0  0  0  0  0  0  0  0
  152.9138  145.7765  159.0873 H   0  0  0  0  0  0  0  0  0  0  0  0
  153.4817  143.7749  158.0025 H   0  0  0  0  0  0  0  0  0  0  0  0
  151.7881  143.3493  157.8616 H   0  0  0  0  0  0  0  0  0  0  0  0
  1  2  1  0  0  0  0
  1 18  1  0  0  0  0
  1 19  1  0  0  0  0
  1 20  1  0  0  0  0
  2  3  1  0  0  0  0
  2  9  1  0  0  0  0
  2 21  1  0  0  0  0
  3  4  1  0  0  0  0
  3 22  1  0  0  0  0
  3 23  1  0  0  0  0
  4  8  1  0  0  0  0
  4  5  1  0  0  0  0
  5  6  2  0  0  0  0
  5 24  1  0  0  0  0
  6  7  1  0  0  0  0
  6 25  1  0  0  0  0
  7  8  2  0  0  0  0
  7 26  1  0  0  0  0
  9 10  1  0  0  0  0
  9 27  1  0  0  0  0
 10 11  2  0  0  0  0
 10 12  1  0  0  0  0
 12 13  1  0  0  0  0
 12 28  1  0  0  0  0
 12 29  1  0  0  0  0
 13 17  1  0  0  0  0
 13 14  1  0  0  0  0
 13 30  1  0  0  0  0
 14 15  2  0  0  0  0
 14 31  1  0  0  0  0
 15 16  1  0  0  0  0
 15 32  1  0  0  0  0
 16 17  1  0  0  0  0
 16 33  1  0  0  0  0
 16 34  1  0  0  0  0
 17 35  1  0  0  0  0
 17 36  1  0  0  0  0
M  END
> <s_m_source_file>
AV-unprocessed.smi

> <i_m_source_file_index>
1286

> <i_lp_mmshare_version>
43012

> <i_f3d_flags>
0

> <s_epik_input>
bjFbY0hdW2NIXVtjSF1uMVtDSDJdW0NAQEhdKFtDSDNdKVtOSF1DKD1PKVtDSDJdW0NAQEhdMltDSF09W0NIXVtDSDJdW0NIMl0y

> <s_epik_cmdline>
J2VwaWtfcHl0aG9uJywgJy1waCcsICc3LjAnLCAnLXRuJywgJzgnLCAnLW1hJywgJzIwMCcsICctbWV0YWxfYmluZGluZycsICctaW1hZScsICc8aW5maWxlLm1hZT4nLCAnLW9tYWUnLCAnPG91dGZpbGUubWFlPic=

> <r_lp_tautomer_probability>
1

> <r_epik_Ionization_Penalty>
0.000301761

> <r_epik_Ionization_Penalty_Charging>
0

> <r_epik_Ionization_Penalty_Neutral>
0.000301761

> <r_epik_State_Penalty>
-0

> <r_epik_Charging_Adjusted_Penalty>
0

> <i_epik_Tot_Q>
0

> <i_epik_Tot_abs_Q>
0

> <r_epik_Metal_State_Penalty>
-0

> <b_epik_Metal_Only>
0

> <s_lp_Force_Field>
OPLS_2005

> <r_lp_Energy>
16.2902

> <b_lp_Chiralities_Consistent>
1

> <s_lp_Variant>
AV-unprocessed.smi:1286-2

> <Gold.Version>
5.8.1

> <Gold.Id.Protein>
6NUR|6NUR_protein|mol2

> <Gold.PLP.Fitness>
46.1483

> <Gold.PLP.PLP>
-41.5758

> <Gold.PLP.part.hbond>
-2.0000

> <Gold.PLP.part.metal>
0.0000

> <Gold.PLP.part.buried>
-2.8071

> <Gold.PLP.part.nonpolar>
-36.2473

> <Gold.PLP.part.repulsive>
0.1587

> <Gold.PLP.ligand.clash>
0.0000

> <Gold.PLP.ligand.torsion>
0.7284

> <Gold.PLP.Chemscore.Hbond>
2.0000

> <Gold.PLP.Chemscore.CHOScore>
0.0000

> <Gold.PLP.Chemscore.Metal>
0.0000

> <Gold.Chemscore.Hbonds>
donor molecule, donor type, donor heavy atom, donor atom, acceptor molecule, acceptor atom, score
      P1  H  7989  7998       L1     8  0.78
      P1  H  7997  8010       L1    11  1.00

> <Gold.PLP.Chemscore.Internal.Correction>
0.0293

> <Gold.Rescore>
     Score         DG    S(hbond)    S(metal)    S(lipo)     H(rot)  DE(clash)    DE(int)     intcor
     18.47     -19.22       1.77        0.00     102.72       1.64       0.12       0.63       ----

> <Gold.Chemscore.Fitness>
18.4691

> <Gold.Chemscore.DG>
-19.2203

> <Gold.Chemscore.ZeroCoef>
-5.4800

> <Gold.Chemscore.Hbond>
1.7720

> <Gold.Chemscore.Metal>
0.0000

> <Gold.Chemscore.Lipo>
102.7226

> <Gold.Chemscore.Internal_Hbond>
0.0000

> <Gold.Chemscore.DEClash>
0.1162

> <Gold.Chemscore.DEInternal>
0.6350

> <Gold.Chemscore.Rot>
1.6394

> <Gold.Chemscore.Internal.Correction>
   9.000000E+99

> <Gold.Chemscore.Hbonds>
donor molecule, donor type, donor heavy atom, donor atom, acceptor molecule, acceptor atom, score
      P1  H  7989  7998       L1     8  0.05
      P1  H  7997  8010       L1    11  0.51

> <Gold.Chemscore.Hbond.Weighted>
-5.9186

> <Gold.Chemscore.Metal.Weighted>
-0.0000

> <Gold.Chemscore.Lipo.Weighted>
-12.0185

> <Gold.Chemscore.Internal_Hbond.Weighted>
0.0000

> <Gold.Chemscore.DEClash.Weighted>
0.1162

> <Gold.Chemscore.DEInternal.Weighted>
0.6350

> <Gold.Chemscore.Rot.Weighted>
4.1969

> <Gold.Chemscore.Internal.Correction.Weighted>
   9.000000E+99

> <Gold.Protein.RotatedTorsions>
[ 6907 6896 6895 6894 ] final  113.03 input  -60.11 | X-H torsion
[ 7974 7965 7964 7962 ] final -158.62 input  175.53 | X-H torsion
[ 8008 7997 7996 7995 ] final   15.35 input   59.86 | X-H torsion
[ 10167 10162 10161 10158 ] final -145.78 input  -65.29 | X-H torsion
[ 10718 10713 10712 10709 ] final  143.08 input   66.30 | X-H torsion
[ 10763 10752 10751 10750 ] final  -23.49 input  -60.55 | X-H torsion
[ 11005 11000 10999 10996 ] final  147.05 input  -57.11 | X-H torsion

> <Gold.Protein.ActiveResidues>
 VAL166  LYS551  ARG553  GLY616  TRP617  ASP618  TYR619  PRO620  LYS621  CYS622 
 ASP623  PHE694  ASN695  SER759  ASP760  ASP761  ALA762  ILE779  LEU786  VAL792 
 PHE793  MET794  SER795  GLU796  ALA797  LYS798  CYS799  TRP800  GLU811  SER814 

> <Gold.Protein.RotatedAtoms>
  152.4884  133.8433  159.7163 H   0  0  0  0  0  0  0  0  0  0  0  0  # atno 6907 bound_to 6896
  150.8990  133.7134  159.2890 H   0  0  0  0  0  0  0  0  0  0  0  0  # atno 6908 bound_to 6896
  151.4581  135.1040  159.9769 H   0  0  0  0  0  0  0  0  0  0  0  0  # atno 6909 bound_to 6896
  144.7498  140.3802  143.6057 H   0  0  0  0  0  0  0  0  0  0  0  0  # atno 7974 bound_to 7965
  154.8613  140.2945  155.5537 H   0  0  0  0  0  0  0  0  0  0  0  0  # atno 8008 bound_to 7997
  156.3020  140.2477  156.3521 H   0  0  0  0  0  0  0  0  0  0  0  0  # atno 8009 bound_to 7997
  154.8915  140.0394  157.1830 H   0  0  0  0  0  0  0  0  0  0  0  0  # atno 8010 bound_to 7997
  139.7774  143.8151  152.2634 H   0  0  0  0  0  0  0  0  0  0  0  0  # atno 10167 bound_to 10162
  157.3731  131.0982  151.0809 H   0  0  0  0  0  0  0  0  0  0  0  0  # atno 10718 bound_to 10713
  153.6686  135.6973  153.5154 H   0  0  0  0  0  0  0  0  0  0  0  0  # atno 10763 bound_to 10752
  153.2575  135.4255  155.0860 H   0  0  0  0  0  0  0  0  0  0  0  0  # atno 10764 bound_to 10752
  154.8433  135.3547  154.6230 H   0  0  0  0  0  0  0  0  0  0  0  0  # atno 10765 bound_to 10752
  140.0844  134.9078  157.1551 H   0  0  0  0  0  0  0  0  0  0  0  0  # atno 11005 bound_to 11000
  145.6986  139.1655  143.2606 LP  0  0  0  0  0  0  0  0  0  0  0  0  # atno 17320 bound_to 7965
  146.1432  140.7029  142.9357 LP  0  0  0  0  0  0  0  0  0  0  0  0  # atno 17321 bound_to 7965
  139.8203  144.7298  150.9581 LP  0  0  0  0  0  0  0  0  0  0  0  0  # atno 17342 bound_to 10162
  140.7817  143.4165  151.0908 LP  0  0  0  0  0  0  0  0  0  0  0  0  # atno 17343 bound_to 10162
  157.1906  130.6350  149.5703 LP  0  0  0  0  0  0  0  0  0  0  0  0  # atno 17370 bound_to 10713
  155.9759  130.4723  150.6495 LP  0  0  0  0  0  0  0  0  0  0  0  0  # atno 17371 bound_to 10713
  140.3442  134.2670  155.7207 LP  0  0  0  0  0  0  0  0  0  0  0  0  # atno 17394 bound_to 11000
  141.2057  133.7852  157.0216 LP  0  0  0  0  0  0  0  0  0  0  0  0  # atno 17395 bound_to 11000

$$$$
