AV-unprocessed.smi:1191|AV-procd|sdf|4987|dock3
  -GOLD-   22720 3583D 1   1.00000     0.00000
 Structure written by MMmdl.
 47 48  0  0  0  0  0  0  0  0  2 V2000
  147.1724  131.9020  161.3823 C   0  0  0  0  0  0  0  0  0  0  0  0
  147.1904  133.4023  161.3794 C   0  0  0  0  0  0  0  0  0  0  0  0
  147.0117  134.2889  162.4776 C   0  0  0  0  0  0  0  0  0  0  0  0
  147.1173  135.5349  161.9267 C   0  0  0  0  0  0  0  0  0  0  0  0
  147.0146  136.8804  162.5674 C   0  0  0  0  0  0  0  0  0  0  0  0
  147.3469  135.3573  160.5730 N   0  0  0  0  0  0  0  0  0  0  0  0
  147.5309  136.3560  159.5310 C   0  0  0  0  0  0  0  0  0  0  0  0
  148.1793  135.7465  158.2864 C   0  0  0  0  0  0  0  0  0  0  0  0
  149.1001  134.9371  158.4004 O   0  0  0  0  0  0  0  0  0  0  0  0
  147.6805  136.1294  157.1007 N   0  0  0  0  0  0  0  0  0  0  0  0
  148.1313  135.6261  155.8093 C   0  0  0  0  0  0  0  0  0  0  0  0
  147.0749  134.7032  155.1712 C   0  0  0  0  0  0  0  0  0  0  0  0
  146.8155  135.0372  153.7483 N   0  3  2  0  0  0  0  0  0  0  0  0
  145.8926  136.1925  153.6045 C   0  0  0  0  0  0  0  0  0  0  0  0
  145.7461  136.6046  152.1314 C   0  0  0  0  0  0  0  0  0  0  0  0
  145.2737  135.4229  151.2757 C   0  0  0  0  0  0  0  0  0  0  0  0
  146.2192  134.2235  151.4547 C   0  0  2  0  0  0  0  0  0  0  0  0
  145.7527  133.0155  150.6303 C   0  0  0  0  0  0  0  0  0  0  0  0
  146.3553  133.8687  152.9495 C   0  0  0  0  0  0  0  0  0  0  0  0
  147.3926  134.0481  160.2431 N   0  0  0  0  0  0  0  0  0  0  0  0
  146.9438  131.5123  162.3743 H   0  0  0  0  0  0  0  0  0  0  0  0
  148.1387  131.4972  161.0811 H   0  0  0  0  0  0  0  0  0  0  0  0
  146.4195  131.5169  160.6941 H   0  0  0  0  0  0  0  0  0  0  0  0
  146.8316  134.0458  163.5143 H   0  0  0  0  0  0  0  0  0  0  0  0
  146.9873  136.7919  163.6537 H   0  0  0  0  0  0  0  0  0  0  0  0
  146.1056  137.3918  162.2507 H   0  0  0  0  0  0  0  0  0  0  0  0
  147.8676  137.5064  162.3056 H   0  0  0  0  0  0  0  0  0  0  0  0
  146.5629  136.7983  159.2915 H   0  0  0  0  0  0  0  0  0  0  0  0
  148.1623  137.1630  159.9063 H   0  0  0  0  0  0  0  0  0  0  0  0
  146.9299  136.8051  157.0955 H   0  0  0  0  0  0  0  0  0  0  0  0
  148.3204  136.4804  155.1589 H   0  0  0  0  0  0  0  0  0  0  0  0
  149.0870  135.1169  155.9376 H   0  0  0  0  0  0  0  0  0  0  0  0
  147.3649  133.6543  155.2519 H   0  0  0  0  0  0  0  0  0  0  0  0
  146.1511  134.8091  155.7421 H   0  0  0  0  0  0  0  0  0  0  0  0
  144.9180  135.9365  154.0234 H   0  0  0  0  0  0  0  0  0  0  0  0
  146.2710  137.0417  154.1751 H   0  0  0  0  0  0  0  0  0  0  0  0
  145.0420  137.4327  152.0441 H   0  0  0  0  0  0  0  0  0  0  0  0
  146.7026  136.9712  151.7563 H   0  0  0  0  0  0  0  0  0  0  0  0
  144.2587  135.1444  151.5634 H   0  0  0  0  0  0  0  0  0  0  0  0
  145.2304  135.7186  150.2268 H   0  0  0  0  0  0  0  0  0  0  0  0
  147.2047  134.5114  151.0853 H   0  0  0  0  0  0  0  0  0  0  0  0
  144.7669  132.6744  150.9488 H   0  0  0  0  0  0  0  0  0  0  0  0
  146.4438  132.1784  150.7330 H   0  0  0  0  0  0  0  0  0  0  0  0
  145.6920  133.2631  149.5701 H   0  0  0  0  0  0  0  0  0  0  0  0
  147.0595  133.0439  153.0540 H   0  0  0  0  0  0  0  0  0  0  0  0
  145.4000  133.5154  153.3417 H   0  0  0  0  0  0  0  0  0  0  0  0
  147.6984  135.3338  153.3576 H   0  0  0  0  0  0  0  0  0  0  0  0
  1  2  1  0  0  0  0
  1 21  1  0  0  0  0
  1 22  1  0  0  0  0
  1 23  1  0  0  0  0
  2 20  2  0  0  0  0
  2  3  1  0  0  0  0
  3  4  2  0  0  0  0
  3 24  1  0  0  0  0
  4  5  1  0  0  0  0
  4  6  1  0  0  0  0
  5 25  1  0  0  0  0
  5 26  1  0  0  0  0
  5 27  1  0  0  0  0
  6  7  1  0  0  0  0
  6 20  1  0  0  0  0
  7  8  1  0  0  0  0
  7 28  1  0  0  0  0
  7 29  1  0  0  0  0
  8  9  2  0  0  0  0
  8 10  1  0  0  0  0
 10 11  1  0  0  0  0
 10 30  1  0  0  0  0
 11 12  1  0  0  0  0
 11 31  1  0  0  0  0
 11 32  1  0  0  0  0
 12 13  1  0  0  0  0
 12 33  1  0  0  0  0
 12 34  1  0  0  0  0
 13 19  1  0  0  0  0
 13 14  1  0  0  0  0
 13 47  1  0  0  0  0
 14 15  1  0  0  0  0
 14 35  1  0  0  0  0
 14 36  1  0  0  0  0
 15 16  1  0  0  0  0
 15 37  1  0  0  0  0
 15 38  1  0  0  0  0
 16 17  1  0  0  0  0
 16 39  1  0  0  0  0
 16 40  1  0  0  0  0
 17 18  1  0  0  0  0
 17 19  1  0  0  0  0
 17 41  1  0  0  0  0
 18 42  1  0  0  0  0
 18 43  1  0  0  0  0
 18 44  1  0  0  0  0
 19 45  1  0  0  0  0
 19 46  1  0  0  0  0
M  CHG  1  13   1
M  END
> <s_m_source_file>
AV-unprocessed.smi

> <i_m_source_file_index>
1191

> <i_lp_mmshare_version>
43012

> <i_f3d_flags>
0

> <s_epik_input>
W0NIM11jMVtjSF1jKFtDSDNdKW4objEpW0NIMl1DKD1PKVtOSF1bQ0gyXVtDSDJdTjJbQ0gyXVtDSDJdW0NIMl1bQ0BASF0oW0NIM10pW0NIMl0y

> <s_epik_cmdline>
J2VwaWtfcHl0aG9uJywgJy1waCcsICc3LjAnLCAnLXRuJywgJzgnLCAnLW1hJywgJzIwMCcsICctbWV0YWxfYmluZGluZycsICctaW1hZScsICc8aW5maWxlLm1hZT4nLCAnLW9tYWUnLCAnPG91dGZpbGUubWFlPic=

> <r_lp_tautomer_probability>
1

> <r_epik_Ionization_Penalty>
0.00249932

> <r_epik_Ionization_Penalty_Charging>
0.00230623

> <r_epik_Ionization_Penalty_Neutral>
0.000193092

> <r_epik_State_Penalty>
-0

> <r_epik_Charging_Adjusted_Penalty>
0.00230623

> <i_epik_Tot_Q>
1

> <i_epik_Tot_abs_Q>
1

> <r_epik_Metal_State_Penalty>
-0

> <b_epik_Metal_Only>
0

> <s_lp_Force_Field>
OPLS_2005

> <r_lp_Energy>
14.4812

> <b_lp_Chiralities_Consistent>
1

> <s_lp_Variant>
AV-unprocessed.smi:1191-4

> <Gold.Version>
5.8.1

> <Gold.Id.Protein>
6NUR|6NUR_protein|mol2

> <Gold.PLP.Fitness>
40.3645

> <Gold.PLP.PLP>
-33.6322

> <Gold.PLP.part.hbond>
-2.0000

> <Gold.PLP.part.metal>
0.0000

> <Gold.PLP.part.buried>
-4.1898

> <Gold.PLP.part.nonpolar>
-27.3816

> <Gold.PLP.part.repulsive>
0.0000

> <Gold.PLP.ligand.clash>
0.0000

> <Gold.PLP.ligand.torsion>
1.1487

> <Gold.PLP.Chemscore.Hbond>
3.0000

> <Gold.PLP.Chemscore.CHOScore>
0.0000

> <Gold.PLP.Chemscore.Metal>
0.0000

> <Gold.Chemscore.Hbonds>
donor molecule, donor type, donor heavy atom, donor atom, acceptor molecule, acceptor atom, score
      L1  H    13    47       P1  7948  1.46
      P1  H  6896  6907       L1     9  1.00

> <Gold.PLP.Chemscore.Internal.Correction>
0.0297

> <Gold.Rescore>
     Score         DG    S(hbond)    S(metal)    S(lipo)     H(rot)  DE(clash)    DE(int)     intcor
     14.24     -16.79       1.98        0.00      76.73       1.67       0.04       2.52       ----

> <Gold.Chemscore.Fitness>
14.2359

> <Gold.Chemscore.DG>
-16.7915

> <Gold.Chemscore.ZeroCoef>
-5.4800

> <Gold.Chemscore.Hbond>
1.9754

> <Gold.Chemscore.Metal>
0.0000

> <Gold.Chemscore.Lipo>
76.7331

> <Gold.Chemscore.Internal_Hbond>
0.0000

> <Gold.Chemscore.DEClash>
0.0354

> <Gold.Chemscore.DEInternal>
2.5202

> <Gold.Chemscore.Rot>
1.6657

> <Gold.Chemscore.Internal.Correction>
   9.000000E+99

> <Gold.Chemscore.Hbonds>
donor molecule, donor type, donor heavy atom, donor atom, acceptor molecule, acceptor atom, score
      L1  H    13    47       P1  7948  0.71
      P1  H  6896  6907       L1     9  0.98

> <Gold.Chemscore.Hbond.Weighted>
-6.5978

> <Gold.Chemscore.Metal.Weighted>
-0.0000

> <Gold.Chemscore.Lipo.Weighted>
-8.9778

> <Gold.Chemscore.Internal_Hbond.Weighted>
0.0000

> <Gold.Chemscore.DEClash.Weighted>
0.0354

> <Gold.Chemscore.DEInternal.Weighted>
2.5202

> <Gold.Chemscore.Rot.Weighted>
4.2641

> <Gold.Chemscore.Internal.Correction.Weighted>
   9.000000E+99

> <Gold.Protein.RotatedTorsions>
[ 6907 6896 6895 6894 ] final  -96.15 input  -60.11 | X-H torsion
[ 7974 7965 7964 7962 ] final -159.58 input  175.53 | X-H torsion
[ 8008 7997 7996 7995 ] final  147.27 input   59.86 | X-H torsion
[ 10167 10162 10161 10158 ] final -157.44 input  -65.29 | X-H torsion
[ 10718 10713 10712 10709 ] final -170.68 input   66.30 | X-H torsion
[ 10763 10752 10751 10750 ] final -125.48 input  -60.55 | X-H torsion
[ 11005 11000 10999 10996 ] final  137.23 input  -57.11 | X-H torsion

> <Gold.Protein.ActiveResidues>
 VAL166  LYS551  ARG553  GLY616  TRP617  ASP618  TYR619  PRO620  LYS621  CYS622 
 ASP623  PHE694  ASN695  SER759  ASP760  ASP761  ALA762  ILE779  LEU786  VAL792 
 PHE793  MET794  SER795  GLU796  ALA797  LYS798  CYS799  TRP800  GLU811  SER814 

> <Gold.Protein.RotatedAtoms>
  150.6981  134.1547  159.4153 H   0  0  0  0  0  0  0  0  0  0  0  0  # atno 6907 bound_to 6896
  151.9529  135.0158  160.0552 H   0  0  0  0  0  0  0  0  0  0  0  0  # atno 6908 bound_to 6896
  152.1995  133.4795  159.5087 H   0  0  0  0  0  0  0  0  0  0  0  0  # atno 6909 bound_to 6896
  144.7460  140.3665  143.6085 H   0  0  0  0  0  0  0  0  0  0  0  0  # atno 7974 bound_to 7965
  156.2830  140.2160  156.5511 H   0  0  0  0  0  0  0  0  0  0  0  0  # atno 8008 bound_to 7997
  154.7291  140.0497  157.0732 H   0  0  0  0  0  0  0  0  0  0  0  0  # atno 8009 bound_to 7997
  155.0378  140.3142  155.4738 H   0  0  0  0  0  0  0  0  0  0  0  0  # atno 8010 bound_to 7997
  139.6770  143.9646  152.2316 H   0  0  0  0  0  0  0  0  0  0  0  0  # atno 10167 bound_to 10162
  156.7298  130.9302  151.3103 H   0  0  0  0  0  0  0  0  0  0  0  0  # atno 10718 bound_to 10713
  154.8736  135.4028  154.3276 H   0  0  0  0  0  0  0  0  0  0  0  0  # atno 10763 bound_to 10752
  153.4094  135.7020  153.6375 H   0  0  0  0  0  0  0  0  0  0  0  0  # atno 10764 bound_to 10752
  153.5084  135.3712  155.2545 H   0  0  0  0  0  0  0  0  0  0  0  0  # atno 10765 bound_to 10752
  140.0100  134.9443  157.0257 H   0  0  0  0  0  0  0  0  0  0  0  0  # atno 11005 bound_to 11000
  145.7123  139.1688  143.2532 LP  0  0  0  0  0  0  0  0  0  0  0  0  # atno 17320 bound_to 7965
  146.1338  140.7150  142.9399 LP  0  0  0  0  0  0  0  0  0  0  0  0  # atno 17321 bound_to 7965
  139.9426  144.6672  150.8251 LP  0  0  0  0  0  0  0  0  0  0  0  0  # atno 17342 bound_to 10162
  140.7639  143.3234  151.2569 LP  0  0  0  0  0  0  0  0  0  0  0  0  # atno 17343 bound_to 10162
  157.6863  130.9189  150.0396 LP  0  0  0  0  0  0  0  0  0  0  0  0  # atno 17370 bound_to 10713
  156.1537  130.3643  149.9401 LP  0  0  0  0  0  0  0  0  0  0  0  0  # atno 17371 bound_to 10713
  140.4572  134.1521  155.7187 LP  0  0  0  0  0  0  0  0  0  0  0  0  # atno 17394 bound_to 11000
  141.1704  133.8620  157.1588 LP  0  0  0  0  0  0  0  0  0  0  0  0  # atno 17395 bound_to 11000

$$$$
