#       Name:                AV-unprocessed.smi:2920
#       Creating user name   scv26
#       Creation time:       Fri Mar 27 16:08:52 2020


#       File generated by GOLD software.
#

@<TRIPOS>MOLECULE
AV-unprocessed.smi:2920
    34    36     1
SMALL
NO_CHARGES


@<TRIPOS>ATOM
      1 ****        -1.5009   1.8618  -0.0427 O.2            1 S1                 0.0000
      2 ****        -1.8444   0.6930  -0.2180 C.2            1 S1                 0.0000
      3 ****        -1.0128  -0.3620  -0.2618 N.am           1 S1                 0.0000
      4 ****         0.4055  -0.3738  -0.1758 C.ar           1 S1                 0.0000
      5 ****         1.0634  -1.5941   0.0860 C.ar           1 S1                 0.0000
      6 ****         2.4085  -1.6812   0.1637 N.ar           1 S1                 0.0000
      7 ****         3.0969  -0.5507  -0.0172 C.ar           1 S1                 0.0000
      8 ****         4.5897  -0.6559   0.0305 C.3            1 S1                 0.0000
      9 ****         5.2890  -1.2405   1.2407 C.3            1 S1                 0.0000
     10 ****         5.3996   0.2311   0.9542 C.3            1 S1                 0.0000
     11 ****         2.5902   0.6537  -0.2940 N.ar           1 S1                 0.0000
     12 ****         1.2453   0.7507  -0.3717 C.ar           1 S1                 0.0000
     13 ****        -3.1189   0.3098  -0.3733 N.am           1 S1                 0.0000
     14 ****        -4.2514   1.1789  -0.3698 C.3            1 S1                 0.0000
     15 ****        -5.5413   0.6501   0.2190 C.3            1 S1                 0.0000
     16 ****        -5.4145   0.8208  -1.2697 C.3            1 S1                 0.0000
     17 ****        -1.4492  -1.2694  -0.3346 H              1 S1                 0.0000
     18 ****         0.5080  -2.5088   0.2346 H              1 S1                 0.0000
     19 ****         5.0025  -0.8779  -0.9516 H              1 S1                 0.0000
     20 ****         4.6748  -1.5404   2.0876 H              1 S1                 0.0000
     21 ****         6.1687  -1.8553   1.0621 H              1 S1                 0.0000
     22 ****         6.3528   0.6019   0.5834 H              1 S1                 0.0000
     23 ****         4.8588   0.9102   1.6107 H              1 S1                 0.0000
     24 ****         0.8657   1.7310  -0.6129 H              1 S1                 0.0000
     25 ****        -3.3045  -0.6734  -0.5073 H              1 S1                 0.0000
     26 ****        -4.0650   2.2433  -0.2327 H              1 S1                 0.0000
     27 ****        -5.5451  -0.3660   0.6092 H              1 S1                 0.0000
     28 ****        -6.1748   1.3557   0.7530 H              1 S1                 0.0000
     29 ****        -5.9633   1.6403  -1.7295 H              1 S1                 0.0000
     30 ****        -5.3335  -0.0815  -1.8734 H              1 S1                 0.0000
     31 ****        -0.5342   2.0856   0.0812 LP             1 S1                 0.0000
     32 ****        -2.1885   2.5876  -0.0241 LP             1 S1                 0.0000
     33 ****         2.8675  -2.5504   0.3479 LP             1 S1                 0.0000
     34 ****         3.1803   1.4482  -0.4373 LP             1 S1                 0.0000
@<TRIPOS>BOND
    1    1    2 2     
    2    2    3 am    
    3    2   13 am    
    4    3    4 1     
    5    3   17 1     
    6    4   12 ar    
    7    4    5 ar    
    8    5    6 ar    
    9    5   18 1     
   10    6    7 ar    
   11    7    8 1     
   12    7   11 ar    
   13    8   10 1     
   14    8    9 1     
   15    8   19 1     
   16    9   10 1     
   17    9   20 1     
   18    9   21 1     
   19   10   22 1     
   20   10   23 1     
   21   11   12 ar    
   22   12   24 1     
   23   13   14 1     
   24   13   25 1     
   25   14   16 1     
   26   14   15 1     
   27   14   26 1     
   28   15   16 1     
   29   15   27 1     
   30   15   28 1     
   31   16   29 1     
   32   16   30 1     
   33    1   31 1     
   34    1   32 1     
   35    6   33 1     
   36   11   34 1     
@<TRIPOS>SUBSTRUCTURE
      1 S1             1
@<TRIPOS>SET
LONE_PAIRS      STATIC     ATOMS    <user>   **** ""
4 31 32 33 34
DONOR_HYDROGENS      STATIC     ATOMS    <user>   **** ""
2 17 25
ATOM$BLUE        STATIC     ATOMS    COLORGROUP SYSTEM
4 31 32 33 34
ATOM$RED        STATIC     ATOMS    COLORGROUP SYSTEM
2 17 25
