AV-unprocessed.smi:3270|AV-procd|sdf|12513|dock9
  -GOLD-   2272018423D 1   1.00000     0.00000
 Structure written by MMmdl.
 38 39  0  0  0  0  0  0  0  0  1 V2000
  154.4193  140.5583  161.6512 C   0  0  0  0  0  0  0  0  0  0  0  0
  154.1201  141.2193  160.2902 C   0  0  1  0  0  0  0  0  0  0  0  0
  153.4526  140.2570  159.2871 C   0  0  0  0  0  0  0  0  0  0  0  0
  154.0219  139.2234  158.9342 O   0  0  0  0  0  0  0  0  0  0  0  0
  152.2474  140.6158  158.8166 N   0  0  0  0  0  0  0  0  0  0  0  0
  151.4597  139.8349  157.8737 C   0  0  0  0  0  0  0  0  0  0  0  0
  151.7863  140.2542  156.4314 C   0  0  0  0  0  0  0  0  0  0  0  0
  150.8187  139.8135  155.4283 N   0  0  0  0  0  0  0  0  0  0  0  0
  149.6234  140.6540  155.3917 C   0  0  0  0  0  0  0  0  0  0  0  0
  148.6043  140.1584  154.3504 C   0  0  0  0  0  0  0  0  0  0  0  0
  148.2657  138.8015  154.6177 O   0  0  0  0  0  0  0  0  0  0  0  0
  149.4011  137.9424  154.6135 C   0  0  0  0  0  0  0  0  0  0  0  0
  150.4176  138.4299  155.6605 C   0  0  0  0  0  0  0  0  0  0  0  0
  153.3439  142.4447  160.4566 N   0  0  0  0  0  0  0  0  0  0  0  0
  152.9734  143.0619  161.6344 C   0  0  0  0  0  0  0  0  0  0  0  0
  152.2759  144.1888  161.3056 C   0  0  0  0  0  0  0  0  0  0  0  0
  152.2738  144.1819  159.8832 C   0  0  0  0  0  0  0  0  0  0  0  0
  152.9147  143.1409  159.3780 N   0  0  0  0  0  0  0  0  0  0  0  0
  155.0911  139.7065  161.5398 H   0  0  0  0  0  0  0  0  0  0  0  0
  153.5101  140.2028  162.1380 H   0  0  0  0  0  0  0  0  0  0  0  0
  154.9012  141.2644  162.3281 H   0  0  0  0  0  0  0  0  0  0  0  0
  155.0768  141.5045  159.8502 H   0  0  0  0  0  0  0  0  0  0  0  0
  151.8428  141.4789  159.1496 H   0  0  0  0  0  0  0  0  0  0  0  0
  151.6790  138.7798  158.0373 H   0  0  0  0  0  0  0  0  0  0  0  0
  150.3955  139.9810  158.0669 H   0  0  0  0  0  0  0  0  0  0  0  0
  151.8396  141.3438  156.4094 H   0  0  0  0  0  0  0  0  0  0  0  0
  152.7828  139.9000  156.1627 H   0  0  0  0  0  0  0  0  0  0  0  0
  149.1529  140.6721  156.3762 H   0  0  0  0  0  0  0  0  0  0  0  0
  149.8900  141.6830  155.1529 H   0  0  0  0  0  0  0  0  0  0  0  0
  147.6995  140.7655  154.3863 H   0  0  0  0  0  0  0  0  0  0  0  0
  149.0099  140.2466  153.3413 H   0  0  0  0  0  0  0  0  0  0  0  0
  149.0800  136.9258  154.8404 H   0  0  0  0  0  0  0  0  0  0  0  0
  149.8487  137.9232  153.6188 H   0  0  0  0  0  0  0  0  0  0  0  0
  151.2941  137.7815  155.6385 H   0  0  0  0  0  0  0  0  0  0  0  0
  149.9827  138.3329  156.6567 H   0  0  0  0  0  0  0  0  0  0  0  0
  153.2340  142.6517  162.5993 H   0  0  0  0  0  0  0  0  0  0  0  0
  151.8352  144.9090  161.9787 H   0  0  0  0  0  0  0  0  0  0  0  0
  151.8301  144.8985  159.2076 H   0  0  0  0  0  0  0  0  0  0  0  0
  1  2  1  0  0  0  0
  1 19  1  0  0  0  0
  1 20  1  0  0  0  0
  1 21  1  0  0  0  0
  2  3  1  0  0  0  0
  2 14  1  0  0  0  0
  2 22  1  0  0  0  0
  3  4  2  0  0  0  0
  3  5  1  0  0  0  0
  5  6  1  0  0  0  0
  5 23  1  0  0  0  0
  6  7  1  0  0  0  0
  6 24  1  0  0  0  0
  6 25  1  0  0  0  0
  7  8  1  0  0  0  0
  7 26  1  0  0  0  0
  7 27  1  0  0  0  0
  8 13  1  0  0  0  0
  8  9  1  0  0  0  0
  9 10  1  0  0  0  0
  9 28  1  0  0  0  0
  9 29  1  0  0  0  0
 10 11  1  0  0  0  0
 10 30  1  0  0  0  0
 10 31  1  0  0  0  0
 11 12  1  0  0  0  0
 12 13  1  0  0  0  0
 12 32  1  0  0  0  0
 12 33  1  0  0  0  0
 13 34  1  0  0  0  0
 13 35  1  0  0  0  0
 14 18  1  0  0  0  0
 14 15  1  0  0  0  0
 15 16  2  0  0  0  0
 15 36  1  0  0  0  0
 16 17  1  0  0  0  0
 16 37  1  0  0  0  0
 17 18  2  0  0  0  0
 17 38  1  0  0  0  0
M  END
> <s_m_source_file>
AV-unprocessed.smi

> <i_m_source_file_index>
3270

> <i_lp_mmshare_version>
43012

> <i_f3d_flags>
0

> <s_epik_input>
bjFbY0hdW2NIXVtjSF1uMVtDQEhdKFtDSDNdKUMoPU8pW05IXVtDSDJdW0NIMl1OMltDSDJdW0NIMl1PW0NIMl1bQ0gyXTI=

> <s_epik_cmdline>
J2VwaWtfcHl0aG9uJywgJy1waCcsICc3LjAnLCAnLXRuJywgJzgnLCAnLW1hJywgJzIwMCcsICctbWV0YWxfYmluZGluZycsICctaW1hZScsICc8aW5maWxlLm1hZT4nLCAnLW9tYWUnLCAnPG91dGZpbGUubWFlPic=

> <r_lp_tautomer_probability>
1

> <r_epik_Ionization_Penalty>
0.203323

> <r_epik_Ionization_Penalty_Charging>
0

> <r_epik_Ionization_Penalty_Neutral>
0.203323

> <r_epik_State_Penalty>
0.193192

> <r_epik_Charging_Adjusted_Penalty>
0.193192

> <i_epik_Tot_Q>
0

> <i_epik_Tot_abs_Q>
0

> <r_epik_Metal_State_Penalty>
0.193187

> <b_epik_Metal_Only>
0

> <s_lp_Force_Field>
OPLS_2005

> <r_lp_Energy>
25.3567

> <b_lp_Chiralities_Consistent>
1

> <s_lp_Variant>
AV-unprocessed.smi:3270-2

> <Gold.Version>
5.8.1

> <Gold.Id.Protein>
6NUR|6NUR_protein|mol2

> <Gold.PLP.Fitness>
46.1525

> <Gold.PLP.PLP>
-41.1892

> <Gold.PLP.part.hbond>
-2.0000

> <Gold.PLP.part.metal>
0.0000

> <Gold.PLP.part.buried>
-5.2318

> <Gold.PLP.part.nonpolar>
-33.2599

> <Gold.PLP.part.repulsive>
0.3019

> <Gold.PLP.ligand.clash>
0.0000

> <Gold.PLP.ligand.torsion>
0.5716

> <Gold.PLP.Chemscore.Hbond>
2.0000

> <Gold.PLP.Chemscore.CHOScore>
0.0000

> <Gold.PLP.Chemscore.Metal>
0.0000

> <Gold.Chemscore.Hbonds>
donor molecule, donor type, donor heavy atom, donor atom, acceptor molecule, acceptor atom, score
      P1  H  7989  7998       L1     8  0.11
      P1  H  7997  8009       L1     4  0.77

> <Gold.PLP.Chemscore.Internal.Correction>
0.1065

> <Gold.Rescore>
     Score         DG    S(hbond)    S(metal)    S(lipo)     H(rot)  DE(clash)    DE(int)     intcor
     13.82     -15.90       1.22        0.00      94.33       1.83       0.06       2.01       ----

> <Gold.Chemscore.Fitness>
13.8241

> <Gold.Chemscore.DG>
-15.9011

> <Gold.Chemscore.ZeroCoef>
-5.4800

> <Gold.Chemscore.Hbond>
1.2175

> <Gold.Chemscore.Metal>
0.0000

> <Gold.Chemscore.Lipo>
94.3316

> <Gold.Chemscore.Internal_Hbond>
0.0000

> <Gold.Chemscore.DEClash>
0.0645

> <Gold.Chemscore.DEInternal>
2.0125

> <Gold.Chemscore.Rot>
1.8290

> <Gold.Chemscore.Internal.Correction>
   9.000000E+99

> <Gold.Chemscore.Hbonds>
donor molecule, donor type, donor heavy atom, donor atom, acceptor molecule, acceptor atom, score
      P1  H  7997  8009       L1     4  0.11

> <Gold.Chemscore.Hbond.Weighted>
-4.0664

> <Gold.Chemscore.Metal.Weighted>
-0.0000

> <Gold.Chemscore.Lipo.Weighted>
-11.0368

> <Gold.Chemscore.Internal_Hbond.Weighted>
0.0000

> <Gold.Chemscore.DEClash.Weighted>
0.0645

> <Gold.Chemscore.DEInternal.Weighted>
2.0125

> <Gold.Chemscore.Rot.Weighted>
4.6821

> <Gold.Chemscore.Internal.Correction.Weighted>
   9.000000E+99

> <Gold.Protein.RotatedTorsions>
[ 6907 6896 6895 6894 ] final   39.46 input  -60.11 | X-H torsion
[ 7974 7965 7964 7962 ] final  159.22 input  175.53 | X-H torsion
[ 8008 7997 7996 7995 ] final  132.31 input   59.86 | X-H torsion
[ 10167 10162 10161 10158 ] final  121.98 input  -65.29 | X-H torsion
[ 10718 10713 10712 10709 ] final  168.44 input   66.30 | X-H torsion
[ 10763 10752 10751 10750 ] final -116.83 input  -60.55 | X-H torsion
[ 11005 11000 10999 10996 ] final -136.22 input  -57.11 | X-H torsion

> <Gold.Protein.ActiveResidues>
 VAL166  LYS551  ARG553  GLY616  TRP617  ASP618  TYR619  PRO620  LYS621  CYS622 
 ASP623  PHE694  ASN695  SER759  ASP760  ASP761  ALA762  ILE779  LEU786  VAL792 
 PHE793  MET794  SER795  GLU796  ALA797  LYS798  CYS799  TRP800  GLU811  SER814 

> <Gold.Protein.RotatedAtoms>
  152.1699  134.8843  160.0534 H   0  0  0  0  0  0  0  0  0  0  0  0  # atno 6907 bound_to 6896
  151.9807  133.3752  159.4114 H   0  0  0  0  0  0  0  0  0  0  0  0  # atno 6908 bound_to 6896
  150.6900  134.3965  159.5143 H   0  0  0  0  0  0  0  0  0  0  0  0  # atno 6909 bound_to 6896
  144.7802  139.7587  143.6263 H   0  0  0  0  0  0  0  0  0  0  0  0  # atno 7974 bound_to 7965
  156.2981  140.2549  156.3068 H   0  0  0  0  0  0  0  0  0  0  0  0  # atno 8008 bound_to 7997
  154.9364  140.0397  157.2093 H   0  0  0  0  0  0  0  0  0  0  0  0  # atno 8009 bound_to 7997
  154.8168  140.2853  155.5819 H   0  0  0  0  0  0  0  0  0  0  0  0  # atno 8010 bound_to 7997
  139.5886  144.7016  151.3345 H   0  0  0  0  0  0  0  0  0  0  0  0  # atno 10167 bound_to 10162
  157.0371  131.0276  151.2726 H   0  0  0  0  0  0  0  0  0  0  0  0  # atno 10718 bound_to 10713
  154.8533  135.4331  154.1884 H   0  0  0  0  0  0  0  0  0  0  0  0  # atno 10763 bound_to 10752
  153.2958  135.6965  153.7256 H   0  0  0  0  0  0  0  0  0  0  0  0  # atno 10764 bound_to 10752
  153.6405  135.3469  155.3044 H   0  0  0  0  0  0  0  0  0  0  0  0  # atno 10765 bound_to 10752
  140.8825  134.1914  157.4582 H   0  0  0  0  0  0  0  0  0  0  0  0  # atno 11005 bound_to 11000
  146.2006  139.5298  142.9746 LP  0  0  0  0  0  0  0  0  0  0  0  0  # atno 17320 bound_to 7965
  145.6071  141.0346  143.1986 LP  0  0  0  0  0  0  0  0  0  0  0  0  # atno 17321 bound_to 7965
  140.7154  143.7281  150.7644 LP  0  0  0  0  0  0  0  0  0  0  0  0  # atno 17342 bound_to 10162
  140.0832  143.4949  152.2519 LP  0  0  0  0  0  0  0  0  0  0  0  0  # atno 17343 bound_to 10162
  157.5133  130.7952  149.7729 LP  0  0  0  0  0  0  0  0  0  0  0  0  # atno 17370 bound_to 10713
  156.0050  130.3860  150.2464 LP  0  0  0  0  0  0  0  0  0  0  0  0  # atno 17371 bound_to 10713
  139.8721  134.9823  156.5152 LP  0  0  0  0  0  0  0  0  0  0  0  0  # atno 17394 bound_to 11000
  140.8444  133.8180  155.9107 LP  0  0  0  0  0  0  0  0  0  0  0  0  # atno 17395 bound_to 11000

$$$$
