AV-unprocessed.smi:1533|AV-procd|sdf|6162|dock5
  -GOLD-   22720 6313D 1   1.00000     0.00000
 Structure written by MMmdl.
 37 39  0  0  0  0  0  0  0  0  1 V2000
  146.8483  143.3171  153.5212 C   0  0  0  0  0  0  0  0  0  0  0  0
  147.7674  142.3778  154.2238 C   0  0  0  0  0  0  0  0  0  0  0  0
  147.5155  141.9554  155.4566 N   0  0  0  0  0  0  0  0  0  0  0  0
  148.6166  141.1375  155.7493 O   0  0  0  0  0  0  0  0  0  0  0  0
  149.3961  141.1572  154.6418 C   0  0  0  0  0  0  0  0  0  0  0  0
  150.7147  140.4538  154.6743 C   0  0  0  0  0  0  0  0  0  0  0  0
  151.0423  139.8018  156.0326 C   0  0  0  0  0  0  0  0  0  0  0  0
  151.0033  140.7597  157.1361 N   0  0  0  0  0  0  0  0  0  0  0  0
  151.9214  140.8645  158.1104 C   0  0  0  0  0  0  0  0  0  0  0  0
  152.9473  140.1842  158.1406 O   0  0  0  0  0  0  0  0  0  0  0  0
  151.6109  141.8768  159.2268 C   0  0  2  0  0  0  0  0  0  0  0  0
  151.1666  143.2682  158.7082 C   0  0  0  0  0  0  0  0  0  0  0  0
  152.1843  144.2272  159.3579 C   0  0  1  0  0  0  0  0  0  0  0  0
  151.9233  144.2971  160.8745 C   0  0  0  0  0  0  0  0  0  0  0  0
  152.4149  142.9221  161.3665 C   0  0  0  0  0  0  0  0  0  0  0  0
  152.8651  142.2389  160.0614 C   0  0  2  0  0  0  0  0  0  0  0  0
  153.4725  143.4166  159.3013 C   0  0  0  0  0  0  0  0  0  0  0  0
  148.9164  141.9166  153.6592 N   0  0  0  0  0  0  0  0  0  0  0  0
  145.8793  143.3599  154.0196 H   0  0  0  0  0  0  0  0  0  0  0  0
  146.6917  142.9945  152.4918 H   0  0  0  0  0  0  0  0  0  0  0  0
  147.2760  144.3199  153.5100 H   0  0  0  0  0  0  0  0  0  0  0  0
  150.7229  139.6960  153.8903 H   0  0  0  0  0  0  0  0  0  0  0  0
  151.4932  141.1719  154.4146 H   0  0  0  0  0  0  0  0  0  0  0  0
  150.3584  138.9727  156.2218 H   0  0  0  0  0  0  0  0  0  0  0  0
  152.0410  139.3668  155.9962 H   0  0  0  0  0  0  0  0  0  0  0  0
  150.1919  141.3582  157.1890 H   0  0  0  0  0  0  0  0  0  0  0  0
  150.8383  141.4549  159.8720 H   0  0  0  0  0  0  0  0  0  0  0  0
  151.2141  143.3456  157.6209 H   0  0  0  0  0  0  0  0  0  0  0  0
  150.1431  143.5042  159.0017 H   0  0  0  0  0  0  0  0  0  0  0  0
  152.2327  145.2047  158.8774 H   0  0  0  0  0  0  0  0  0  0  0  0
  152.5047  145.0979  161.3333 H   0  0  0  0  0  0  0  0  0  0  0  0
  150.8718  144.4713  161.1061 H   0  0  0  0  0  0  0  0  0  0  0  0
  153.2555  143.0389  162.0517 H   0  0  0  0  0  0  0  0  0  0  0  0
  151.6375  142.3612  161.8864 H   0  0  0  0  0  0  0  0  0  0  0  0
  153.5482  141.4050  160.2260 H   0  0  0  0  0  0  0  0  0  0  0  0
  153.7920  143.1783  158.2865 H   0  0  0  0  0  0  0  0  0  0  0  0
  154.3036  143.8882  159.8290 H   0  0  0  0  0  0  0  0  0  0  0  0
  1  2  1  0  0  0  0
  1 19  1  0  0  0  0
  1 20  1  0  0  0  0
  1 21  1  0  0  0  0
  2 18  1  0  0  0  0
  2  3  2  0  0  0  0
  3  4  1  0  0  0  0
  4  5  1  0  0  0  0
  5  6  1  0  0  0  0
  5 18  2  0  0  0  0
  6  7  1  0  0  0  0
  6 22  1  0  0  0  0
  6 23  1  0  0  0  0
  7  8  1  0  0  0  0
  7 24  1  0  0  0  0
  7 25  1  0  0  0  0
  8  9  1  0  0  0  0
  8 26  1  0  0  0  0
  9 10  2  0  0  0  0
  9 11  1  0  0  0  0
 11 16  1  0  0  0  0
 11 12  1  0  0  0  0
 11 27  1  0  0  0  0
 12 13  1  0  0  0  0
 12 28  1  0  0  0  0
 12 29  1  0  0  0  0
 13 17  1  0  0  0  0
 13 14  1  0  0  0  0
 13 30  1  0  0  0  0
 14 15  1  0  0  0  0
 14 31  1  0  0  0  0
 14 32  1  0  0  0  0
 15 16  1  0  0  0  0
 15 33  1  0  0  0  0
 15 34  1  0  0  0  0
 16 17  1  0  0  0  0
 16 35  1  0  0  0  0
 17 36  1  0  0  0  0
 17 37  1  0  0  0  0
M  END
> <s_m_source_file>
AV-unprocessed.smi

> <i_m_source_file_index>
1533

> <i_lp_mmshare_version>
43012

> <i_f3d_flags>
0

> <s_epik_input>
W0NIM11jMW5vYyhuMSlbQ0gyXVtDSDJdW05IXUMoPU8pW0NASF0oW0NIMl1bQ0BASF0yMylbQ0BASF0oW0NIMl0zKVtDSDJdW0NIMl0y

> <s_epik_cmdline>
J2VwaWtfcHl0aG9uJywgJy1waCcsICc3LjAnLCAnLXRuJywgJzgnLCAnLW1hJywgJzIwMCcsICctbWV0YWxfYmluZGluZycsICctaW1hZScsICc8aW5maWxlLm1hZT4nLCAnLW9tYWUnLCAnPG91dGZpbGUubWFlPic=

> <r_lp_tautomer_probability>
1

> <r_epik_Ionization_Penalty>
1.90116e-08

> <r_epik_Ionization_Penalty_Charging>
0

> <r_epik_Ionization_Penalty_Neutral>
1.90116e-08

> <r_epik_State_Penalty>
-0

> <r_epik_Charging_Adjusted_Penalty>
0

> <i_epik_Tot_Q>
0

> <i_epik_Tot_abs_Q>
0

> <r_epik_Metal_State_Penalty>
-0

> <b_epik_Metal_Only>
0

> <s_lp_Force_Field>
OPLS_2005

> <r_lp_Energy>
43.4718

> <b_lp_Chiralities_Consistent>
1

> <s_lp_Variant>
AV-unprocessed.smi:1533-1

> <Gold.Version>
5.8.1

> <Gold.Id.Protein>
6NUR|6NUR_protein|mol2

> <Gold.PLP.Fitness>
43.9255

> <Gold.PLP.PLP>
-39.8065

> <Gold.PLP.part.hbond>
-2.0000

> <Gold.PLP.part.metal>
0.0000

> <Gold.PLP.part.buried>
-2.4039

> <Gold.PLP.part.nonpolar>
-34.5426

> <Gold.PLP.part.repulsive>
0.3796

> <Gold.PLP.ligand.clash>
0.0000

> <Gold.PLP.ligand.torsion>
0.4893

> <Gold.PLP.Chemscore.Hbond>
1.6800

> <Gold.PLP.Chemscore.CHOScore>
0.0000

> <Gold.PLP.Chemscore.Metal>
0.0000

> <Gold.Chemscore.Hbonds>
donor molecule, donor type, donor heavy atom, donor atom, acceptor molecule, acceptor atom, score
      P1  H  7997  8010       L1    10  0.96
      P1  H  8011  8017       L1    18  0.53

> <Gold.PLP.Chemscore.Internal.Correction>
0.0576

> <Gold.Rescore>
     Score         DG    S(hbond)    S(metal)    S(lipo)     H(rot)  DE(clash)    DE(int)     intcor
     15.90     -17.58       1.58        0.00      98.89       1.85       1.37       0.32       ----

> <Gold.Chemscore.Fitness>
15.8954

> <Gold.Chemscore.DG>
-17.5839

> <Gold.Chemscore.ZeroCoef>
-5.4800

> <Gold.Chemscore.Hbond>
1.5770

> <Gold.Chemscore.Metal>
0.0000

> <Gold.Chemscore.Lipo>
98.8894

> <Gold.Chemscore.Internal_Hbond>
0.0000

> <Gold.Chemscore.DEClash>
1.3679

> <Gold.Chemscore.DEInternal>
0.3206

> <Gold.Chemscore.Rot>
1.8490

> <Gold.Chemscore.Internal.Correction>
   9.000000E+99

> <Gold.Chemscore.Hbonds>
donor molecule, donor type, donor heavy atom, donor atom, acceptor molecule, acceptor atom, score
      P1  H  7997  8010       L1    10  0.89
      P1  H  8011  8017       L1    18  0.52

> <Gold.Chemscore.Hbond.Weighted>
-5.2672

> <Gold.Chemscore.Metal.Weighted>
-0.0000

> <Gold.Chemscore.Lipo.Weighted>
-11.5701

> <Gold.Chemscore.Internal_Hbond.Weighted>
0.0000

> <Gold.Chemscore.DEClash.Weighted>
1.3679

> <Gold.Chemscore.DEInternal.Weighted>
0.3206

> <Gold.Chemscore.Rot.Weighted>
4.7334

> <Gold.Chemscore.Internal.Correction.Weighted>
   9.000000E+99

> <Gold.Protein.RotatedTorsions>
[ 6907 6896 6895 6894 ] final  172.05 input  -60.11 | X-H torsion
[ 7974 7965 7964 7962 ] final  101.07 input  175.53 | X-H torsion
[ 8008 7997 7996 7995 ] final   32.99 input   59.86 | X-H torsion
[ 10167 10162 10161 10158 ] final  -94.60 input  -65.29 | X-H torsion
[ 10718 10713 10712 10709 ] final   21.39 input   66.30 | X-H torsion
[ 10763 10752 10751 10750 ] final  109.00 input  -60.55 | X-H torsion
[ 11005 11000 10999 10996 ] final -145.69 input  -57.11 | X-H torsion

> <Gold.Protein.ActiveResidues>
 VAL166  LYS551  ARG553  GLY616  TRP617  ASP618  TYR619  PRO620  LYS621  CYS622 
 ASP623  PHE694  ASN695  SER759  ASP760  ASP761  ALA762  ILE779  LEU786  VAL792 
 PHE793  MET794  SER795  GLU796  ALA797  LYS798  CYS799  TRP800  GLU811  SER814 

> <Gold.Protein.RotatedAtoms>
  151.7905  133.3359  159.3497 H   0  0  0  0  0  0  0  0  0  0  0  0  # atno 6907 bound_to 6896
  150.7394  134.5847  159.5966 H   0  0  0  0  0  0  0  0  0  0  0  0  # atno 6908 bound_to 6896
  152.3214  134.7377  160.0364 H   0  0  0  0  0  0  0  0  0  0  0  0  # atno 6909 bound_to 6896
  145.3772  139.2386  143.3423 H   0  0  0  0  0  0  0  0  0  0  0  0  # atno 7974 bound_to 7965
  155.1314  140.3257  155.4473 H   0  0  0  0  0  0  0  0  0  0  0  0  # atno 8008 bound_to 7997
  156.2633  140.2010  156.6381 H   0  0  0  0  0  0  0  0  0  0  0  0  # atno 8009 bound_to 7997
  154.6610  140.0547  157.0049 H   0  0  0  0  0  0  0  0  0  0  0  0  # atno 8010 bound_to 7997
  140.3128  143.3095  152.0130 H   0  0  0  0  0  0  0  0  0  0  0  0  # atno 10167 bound_to 10162
  157.1378  130.6619  149.5971 H   0  0  0  0  0  0  0  0  0  0  0  0  # atno 10718 bound_to 10713
  153.4286  135.3794  155.2156 H   0  0  0  0  0  0  0  0  0  0  0  0  # atno 10763 bound_to 10752
  154.8749  135.3834  154.4295 H   0  0  0  0  0  0  0  0  0  0  0  0  # atno 10764 bound_to 10752
  153.4825  135.7088  153.5993 H   0  0  0  0  0  0  0  0  0  0  0  0  # atno 10765 bound_to 10752
  140.7897  134.2983  157.5017 H   0  0  0  0  0  0  0  0  0  0  0  0  # atno 11005 bound_to 11000
  146.2859  140.4433  142.8758 LP  0  0  0  0  0  0  0  0  0  0  0  0  # atno 17320 bound_to 7965
  144.8534  140.7034  143.6154 LP  0  0  0  0  0  0  0  0  0  0  0  0  # atno 17321 bound_to 7965
  139.4890  144.6372  151.6952 LP  0  0  0  0  0  0  0  0  0  0  0  0  # atno 17342 bound_to 10162
  140.5553  144.0358  150.6145 LP  0  0  0  0  0  0  0  0  0  0  0  0  # atno 17343 bound_to 10162
  155.9794  130.4788  150.6716 LP  0  0  0  0  0  0  0  0  0  0  0  0  # atno 17370 bound_to 10713
  157.4334  131.0852  151.1015 LP  0  0  0  0  0  0  0  0  0  0  0  0  # atno 17371 bound_to 10713
  139.8732  134.9367  156.3668 LP  0  0  0  0  0  0  0  0  0  0  0  0  # atno 17394 bound_to 11000
  140.9402  133.7520  156.0136 LP  0  0  0  0  0  0  0  0  0  0  0  0  # atno 17395 bound_to 11000

$$$$
