AV-unprocessed.smi:1546|AV-procd|sdf|6218|dock8
  -GOLD-   22720 6393D 1   1.00000     0.00000
 Structure written by MMmdl.
 30 31  0  0  0  0  0  0  0  0  1 V2000
  150.4782  140.5725  156.9316 O   0  0  0  0  0  0  0  0  0  0  0  0
  150.3883  141.7633  156.6331 C   0  0  0  0  0  0  0  0  0  0  0  0
  151.2769  142.7949  157.3310 C   0  0  0  0  0  0  0  0  0  0  0  0
  152.1363  142.1429  158.2535 O   0  0  0  0  0  0  0  0  0  0  0  0
  152.8105  143.0525  159.1053 C   0  0  0  0  0  0  0  0  0  0  0  0
  151.7881  143.8154  159.9198 C   0  0  0  0  0  0  0  0  0  0  0  0
  151.8661  145.3218  160.0235 C   0  0  0  0  0  0  0  0  0  0  0  0
  152.1730  144.4689  161.2278 C   0  0  0  0  0  0  0  0  0  0  0  0
  149.5492  142.2740  155.7108 N   0  0  0  0  0  0  0  0  0  0  0  0
  148.6069  141.6231  154.8968 C   0  0  0  0  0  0  0  0  0  0  0  0
  147.3576  142.0709  154.6083 C   0  0  0  0  0  0  0  0  0  0  0  0
  146.4617  141.3909  153.7951 N   0  0  0  0  0  0  0  0  0  0  0  0
  146.8452  140.1813  153.2389 C   0  0  0  0  0  0  0  0  0  0  0  0
  148.0558  139.6264  153.4436 C   0  0  0  0  0  0  0  0  0  0  0  0
  149.0383  140.3268  154.3010 C   0  0  0  0  0  0  0  0  0  0  0  0
  150.1551  139.8503  154.5038 O   0  0  0  0  0  0  0  0  0  0  0  0
  151.8656  143.3314  156.5847 H   0  0  0  0  0  0  0  0  0  0  0  0
  150.6448  143.5191  157.8472 H   0  0  0  0  0  0  0  0  0  0  0  0
  153.4947  142.5234  159.7708 H   0  0  0  0  0  0  0  0  0  0  0  0
  153.3943  143.7614  158.5164 H   0  0  0  0  0  0  0  0  0  0  0  0
  150.7840  143.3988  159.8658 H   0  0  0  0  0  0  0  0  0  0  0  0
  152.7016  145.8221  159.5377 H   0  0  0  0  0  0  0  0  0  0  0  0
  150.9285  145.8742  160.0242 H   0  0  0  0  0  0  0  0  0  0  0  0
  151.4403  144.4503  162.0322 H   0  0  0  0  0  0  0  0  0  0  0  0
  153.2125  144.4014  161.5429 H   0  0  0  0  0  0  0  0  0  0  0  0
  149.6015  143.2727  155.5695 H   0  0  0  0  0  0  0  0  0  0  0  0
  146.9449  142.9950  154.9789 H   0  0  0  0  0  0  0  0  0  0  0  0
  146.0879  139.7171  152.6244 H   0  0  0  0  0  0  0  0  0  0  0  0
  148.3261  138.6809  152.9968 H   0  0  0  0  0  0  0  0  0  0  0  0
  145.5444  141.7728  153.6122 H   0  0  0  0  0  0  0  0  0  0  0  0
  1  2  2  0  0  0  0
  2  3  1  0  0  0  0
  2  9  1  0  0  0  0
  3  4  1  0  0  0  0
  3 17  1  0  0  0  0
  3 18  1  0  0  0  0
  4  5  1  0  0  0  0
  5  6  1  0  0  0  0
  5 19  1  0  0  0  0
  5 20  1  0  0  0  0
  6  8  1  0  0  0  0
  6  7  1  0  0  0  0
  6 21  1  0  0  0  0
  7  8  1  0  0  0  0
  7 22  1  0  0  0  0
  7 23  1  0  0  0  0
  8 24  1  0  0  0  0
  8 25  1  0  0  0  0
  9 26  1  0  0  0  0
  9 10  1  0  0  0  0
 10 15  1  0  0  0  0
 10 11  2  0  0  0  0
 11 27  1  0  0  0  0
 11 12  1  0  0  0  0
 12 30  1  0  0  0  0
 12 13  1  0  0  0  0
 13 28  1  0  0  0  0
 13 14  2  0  0  0  0
 14 15  1  0  0  0  0
 14 29  1  0  0  0  0
 15 16  2  0  0  0  0
M  END
> <s_m_source_file>
AV-unprocessed.smi

> <i_m_source_file_index>
1546

> <i_lp_mmshare_version>
43012

> <i_f3d_flags>
0

> <s_epik_input>
W0NIMl0xW0NIMl1bQ0hdMVtDSDJdT1tDSDJdQyg9TylbTkhdYzJbY0hdbltjSF1bY0hdYzJbT0hd

> <s_epik_cmdline>
J2VwaWtfcHl0aG9uJywgJy1waCcsICc3LjAnLCAnLXRuJywgJzgnLCAnLW1hJywgJzIwMCcsICctbWV0YWxfYmluZGluZycsICctaW1hZScsICc8aW5maWxlLm1hZT4nLCAnLW9tYWUnLCAnPG91dGZpbGUubWFlPic=

> <r_lp_tautomer_probability>
1

> <r_epik_Ionization_Penalty>
0.000226134

> <r_epik_Ionization_Penalty_Charging>
0.000226086

> <r_epik_Ionization_Penalty_Neutral>
4.85517e-08

> <r_epik_State_Penalty>
-0

> <r_epik_Charging_Adjusted_Penalty>
0.000226086

> <i_epik_Tot_Q>
0

> <i_epik_Tot_abs_Q>
0

> <r_epik_Metal_State_Penalty>
0.0890487

> <b_epik_Metal_Only>
0

> <s_lp_Force_Field>
OPLS_2005

> <r_lp_Energy>
13.4663

> <b_lp_Chiralities_Consistent>
1

> <s_lp_Variant>
AV-unprocessed.smi:1546-1

> <Gold.Version>
5.8.1

> <Gold.Id.Protein>
6NUR|6NUR_protein|mol2

> <Gold.PLP.Fitness>
42.5713

> <Gold.PLP.PLP>
-33.6822

> <Gold.PLP.part.hbond>
-2.2944

> <Gold.PLP.part.metal>
0.0000

> <Gold.PLP.part.buried>
-0.4127

> <Gold.PLP.part.nonpolar>
-30.9807

> <Gold.PLP.part.repulsive>
0.3143

> <Gold.PLP.ligand.clash>
0.0000

> <Gold.PLP.ligand.torsion>
0.8146

> <Gold.PLP.Chemscore.Hbond>
1.9920

> <Gold.PLP.Chemscore.CHOScore>
1.3274

> <Gold.PLP.Chemscore.Metal>
0.0000

> <Gold.Chemscore.Hbonds>
donor molecule, donor type, donor heavy atom, donor atom, acceptor molecule, acceptor atom, score
      L1  H     9    26       P1  8028  0.98
      P1  H  7989  7998       L1    16  0.94
      L1  C    11    27       P1  8028  0.35
      L1  C    13    28       P1 10175  0.90

> <Gold.PLP.Chemscore.Internal.Correction>
0.5602

> <Gold.Rescore>
     Score         DG    S(hbond)    S(metal)    S(lipo)     H(rot)  DE(clash)    DE(int)     intcor
     13.63     -17.19       1.91        0.00      83.96       1.75       1.95       1.62       ----

> <Gold.Chemscore.Fitness>
13.6279

> <Gold.Chemscore.DG>
-17.1924

> <Gold.Chemscore.ZeroCoef>
-5.4800

> <Gold.Chemscore.Hbond>
1.9101

> <Gold.Chemscore.Metal>
0.0000

> <Gold.Chemscore.Lipo>
83.9564

> <Gold.Chemscore.Internal_Hbond>
0.0000

> <Gold.Chemscore.DEClash>
1.9468

> <Gold.Chemscore.DEInternal>
1.6177

> <Gold.Chemscore.Rot>
1.7540

> <Gold.Chemscore.Internal.Correction>
   9.000000E+99

> <Gold.Chemscore.Hbonds>
donor molecule, donor type, donor heavy atom, donor atom, acceptor molecule, acceptor atom, score
      L1  H     9    26       P1  8028  0.92
      P1  H  7989  7998       L1    16  0.73

> <Gold.Chemscore.Hbond.Weighted>
-6.3796

> <Gold.Chemscore.Metal.Weighted>
-0.0000

> <Gold.Chemscore.Lipo.Weighted>
-9.8229

> <Gold.Chemscore.Internal_Hbond.Weighted>
0.0000

> <Gold.Chemscore.DEClash.Weighted>
1.9468

> <Gold.Chemscore.DEInternal.Weighted>
1.6177

> <Gold.Chemscore.Rot.Weighted>
4.4901

> <Gold.Chemscore.Internal.Correction.Weighted>
   9.000000E+99

> <Gold.Protein.RotatedTorsions>
[ 6907 6896 6895 6894 ] final   42.49 input  -60.11 | X-H torsion
[ 7974 7965 7964 7962 ] final  -16.30 input  175.53 | X-H torsion
[ 8008 7997 7996 7995 ] final   47.76 input   59.86 | X-H torsion
[ 10167 10162 10161 10158 ] final -136.96 input  -65.29 | X-H torsion
[ 10718 10713 10712 10709 ] final  -37.34 input   66.30 | X-H torsion
[ 10763 10752 10751 10750 ] final  167.32 input  -60.55 | X-H torsion
[ 11005 11000 10999 10996 ] final  -68.97 input  -57.11 | X-H torsion

> <Gold.Protein.ActiveResidues>
 VAL166  LYS551  ARG553  GLY616  TRP617  ASP618  TYR619  PRO620  LYS621  CYS622 
 ASP623  PHE694  ASN695  SER759  ASP760  ASP761  ALA762  ILE779  LEU786  VAL792 
 PHE793  MET794  SER795  GLU796  ALA797  LYS798  CYS799  TRP800  GLU811  SER814 

> <Gold.Protein.RotatedAtoms>
  152.2085  134.8523  160.0499 H   0  0  0  0  0  0  0  0  0  0  0  0  # atno 6907 bound_to 6896
  151.9351  133.3617  159.3953 H   0  0  0  0  0  0  0  0  0  0  0  0  # atno 6908 bound_to 6896
  150.6970  134.4422  159.5341 H   0  0  0  0  0  0  0  0  0  0  0  0  # atno 6909 bound_to 6896
  146.1993  140.3617  142.8429 H   0  0  0  0  0  0  0  0  0  0  0  0  # atno 7974 bound_to 7965
  155.3744  140.3425  155.4244 H   0  0  0  0  0  0  0  0  0  0  0  0  # atno 8008 bound_to 7997
  156.1645  140.1611  156.8590 H   0  0  0  0  0  0  0  0  0  0  0  0  # atno 8009 bound_to 7997
  154.5171  140.0776  156.8084 H   0  0  0  0  0  0  0  0  0  0  0  0  # atno 8010 bound_to 7997
  139.8626  143.7058  152.2648 H   0  0  0  0  0  0  0  0  0  0  0  0  # atno 10167 bound_to 10162
  156.3163  130.4259  149.8002 H   0  0  0  0  0  0  0  0  0  0  0  0  # atno 10718 bound_to 10713
  154.3521  135.2753  155.2366 H   0  0  0  0  0  0  0  0  0  0  0  0  # atno 10763 bound_to 10752
  154.4591  135.5911  153.6247 H   0  0  0  0  0  0  0  0  0  0  0  0  # atno 10764 bound_to 10752
  152.9849  135.6060  154.3732 H   0  0  0  0  0  0  0  0  0  0  0  0  # atno 10765 bound_to 10752
  141.1544  133.6753  156.6528 H   0  0  0  0  0  0  0  0  0  0  0  0  # atno 11005 bound_to 11000
  144.8649  140.7192  143.6084 LP  0  0  0  0  0  0  0  0  0  0  0  0  # atno 17320 bound_to 7965
  145.3537  139.1699  143.4421 LP  0  0  0  0  0  0  0  0  0  0  0  0  # atno 17321 bound_to 7965
  139.7359  144.7571  151.0728 LP  0  0  0  0  0  0  0  0  0  0  0  0  # atno 17342 bound_to 10162
  140.7773  143.5031  150.9747 LP  0  0  0  0  0  0  0  0  0  0  0  0  # atno 17343 bound_to 10162
  156.5326  130.8264  151.3242 LP  0  0  0  0  0  0  0  0  0  0  0  0  # atno 17370 bound_to 10713
  157.7402  130.9846  150.2364 LP  0  0  0  0  0  0  0  0  0  0  0  0  # atno 17371 bound_to 10713
  140.3307  134.7931  157.4324 LP  0  0  0  0  0  0  0  0  0  0  0  0  # atno 17394 bound_to 11000
  140.1019  134.5461  155.8345 LP  0  0  0  0  0  0  0  0  0  0  0  0  # atno 17395 bound_to 11000

$$$$
