AV-unprocessed.smi:1952|AV-procd|sdf|7884|dock9
  -GOLD-   2272010 33D 1   1.00000     0.00000
 Structure written by MMmdl.
 39 40  0  0  0  0  0  0  0  0  1 V2000
  144.7819  132.0982  149.5695 C   0  0  0  0  0  0  0  0  0  0  0  0
  145.6415  132.4388  150.7383 C   0  0  0  0  0  0  0  0  0  0  0  0
  146.5337  133.4466  150.9746 C   0  0  0  0  0  0  0  0  0  0  0  0
  146.9936  133.1649  152.2885 C   0  0  0  0  0  0  0  0  0  0  0  0
  147.9553  133.9969  152.9160 N   0  0  0  0  0  0  0  0  0  0  0  0
  148.4823  133.8578  154.1443 C   0  0  0  0  0  0  0  0  0  0  0  0
  148.1999  132.9594  154.9377 O   0  0  0  0  0  0  0  0  0  0  0  0
  149.3629  134.8355  154.4070 N   0  0  0  0  0  0  0  0  0  0  0  0
  150.0968  135.0125  155.6593 C   0  0  1  0  0  0  0  0  0  0  0  0
  150.5841  133.6430  156.1507 C   0  0  0  0  0  0  0  0  0  0  0  0
  151.2805  135.9823  155.4523 C   0  0  0  0  0  0  0  0  0  0  0  0
  150.9707  137.4039  155.6116 N   0  0  0  0  0  0  0  0  0  0  0  0
  152.1452  138.2589  155.4512 C   0  0  0  0  0  0  0  0  0  0  0  0
  151.7941  139.7482  155.6097 C   0  0  0  0  0  0  0  0  0  0  0  0
  150.7764  140.1019  154.6785 O   0  0  0  0  0  0  0  0  0  0  0  0
  149.5969  139.3189  154.8308 C   0  0  0  0  0  0  0  0  0  0  0  0
  149.9441  137.8292  154.6670 C   0  0  0  0  0  0  0  0  0  0  0  0
  146.4326  132.0834  152.8074 N   0  0  0  0  0  0  0  0  0  0  0  0
  145.5635  131.6123  151.8163 O   0  0  0  0  0  0  0  0  0  0  0  0
  144.8500  132.8660  148.7985 H   0  0  0  0  0  0  0  0  0  0  0  0
  143.7373  132.0125  149.8694 H   0  0  0  0  0  0  0  0  0  0  0  0
  145.0875  131.1490  149.1291 H   0  0  0  0  0  0  0  0  0  0  0  0
  146.8104  134.2533  150.3122 H   0  0  0  0  0  0  0  0  0  0  0  0
  148.2735  134.7852  152.3725 H   0  0  0  0  0  0  0  0  0  0  0  0
  149.5252  135.5276  153.6905 H   0  0  0  0  0  0  0  0  0  0  0  0
  149.4341  135.4020  156.4325 H   0  0  0  0  0  0  0  0  0  0  0  0
  151.1144  133.7342  157.0990 H   0  0  0  0  0  0  0  0  0  0  0  0
  151.2630  133.1799  155.4336 H   0  0  0  0  0  0  0  0  0  0  0  0
  149.7477  132.9609  156.3070 H   0  0  0  0  0  0  0  0  0  0  0  0
  152.0915  135.7125  156.1306 H   0  0  0  0  0  0  0  0  0  0  0  0
  151.6711  135.8177  154.4468 H   0  0  0  0  0  0  0  0  0  0  0  0
  152.9080  138.0033  156.1853 H   0  0  0  0  0  0  0  0  0  0  0  0
  152.5910  138.0959  154.4688 H   0  0  0  0  0  0  0  0  0  0  0  0
  151.4570  139.9584  156.6261 H   0  0  0  0  0  0  0  0  0  0  0  0
  152.6737  140.3665  155.4295 H   0  0  0  0  0  0  0  0  0  0  0  0
  149.1511  139.5064  155.8089 H   0  0  0  0  0  0  0  0  0  0  0  0
  148.8663  139.6232  154.0812 H   0  0  0  0  0  0  0  0  0  0  0  0
  150.2825  137.6476  153.6457 H   0  0  0  0  0  0  0  0  0  0  0  0
  149.0415  137.2333  154.8074 H   0  0  0  0  0  0  0  0  0  0  0  0
  1  2  1  0  0  0  0
  1 20  1  0  0  0  0
  1 21  1  0  0  0  0
  1 22  1  0  0  0  0
  2 19  1  0  0  0  0
  2  3  2  0  0  0  0
  3  4  1  0  0  0  0
  3 23  1  0  0  0  0
  4  5  1  0  0  0  0
  4 18  2  0  0  0  0
  5  6  1  0  0  0  0
  5 24  1  0  0  0  0
  6  7  2  0  0  0  0
  6  8  1  0  0  0  0
  8  9  1  0  0  0  0
  8 25  1  0  0  0  0
  9 10  1  0  0  0  0
  9 11  1  0  0  0  0
  9 26  1  0  0  0  0
 10 27  1  0  0  0  0
 10 28  1  0  0  0  0
 10 29  1  0  0  0  0
 11 12  1  0  0  0  0
 11 30  1  0  0  0  0
 11 31  1  0  0  0  0
 12 17  1  0  0  0  0
 12 13  1  0  0  0  0
 13 14  1  0  0  0  0
 13 32  1  0  0  0  0
 13 33  1  0  0  0  0
 14 15  1  0  0  0  0
 14 34  1  0  0  0  0
 14 35  1  0  0  0  0
 15 16  1  0  0  0  0
 16 17  1  0  0  0  0
 16 36  1  0  0  0  0
 16 37  1  0  0  0  0
 17 38  1  0  0  0  0
 17 39  1  0  0  0  0
 18 19  1  0  0  0  0
M  END
> <s_m_source_file>
AV-unprocessed.smi

> <i_m_source_file_index>
1952

> <i_lp_mmshare_version>
43012

> <i_f3d_flags>
0

> <s_epik_input>
W0NIM11jMVtjSF1jKG5vMSlbTkhdQyg9TylbTkhdW0NASF0oW0NIM10pW0NIMl1OMltDSDJdW0NIMl1PW0NIMl1bQ0gyXTI=

> <s_epik_cmdline>
J2VwaWtfcHl0aG9uJywgJy1waCcsICc3LjAnLCAnLXRuJywgJzgnLCAnLW1hJywgJzIwMCcsICctbWV0YWxfYmluZGluZycsICctaW1hZScsICc8aW5maWxlLm1hZT4nLCAnLW9tYWUnLCAnPG91dGZpbGUubWFlPic=

> <r_epik_Ionization_Penalty>
0.214075

> <r_epik_Ionization_Penalty_Charging>
0

> <r_epik_Ionization_Penalty_Neutral>
0.214075

> <r_epik_State_Penalty>
0.204211

> <r_epik_Charging_Adjusted_Penalty>
0.204211

> <i_epik_Tot_Q>
0

> <i_epik_Tot_abs_Q>
0

> <r_epik_Metal_State_Penalty>
0.218782

> <b_epik_Metal_Only>
0

> <s_lp_Force_Field>
OPLS_2005

> <r_lp_Energy>
23.1471

> <b_lp_Chiralities_Consistent>
1

> <s_lp_Variant>
AV-unprocessed.smi:1952-2

> <Gold.Version>
5.8.1

> <Gold.Id.Protein>
6NUR|6NUR_protein|mol2

> <Gold.PLP.Fitness>
36.7386

> <Gold.PLP.PLP>
-29.0424

> <Gold.PLP.part.hbond>
-3.0000

> <Gold.PLP.part.metal>
0.0000

> <Gold.PLP.part.buried>
-3.0994

> <Gold.PLP.part.nonpolar>
-24.1056

> <Gold.PLP.part.repulsive>
0.4667

> <Gold.PLP.ligand.clash>
0.0000

> <Gold.PLP.ligand.torsion>
0.5483

> <Gold.PLP.Chemscore.Hbond>
2.9280

> <Gold.PLP.Chemscore.CHOScore>
0.0000

> <Gold.PLP.Chemscore.Metal>
0.0000

> <Gold.Chemscore.Hbonds>
donor molecule, donor type, donor heavy atom, donor atom, acceptor molecule, acceptor atom, score
      L1  H     5    24       P1  7948  1.00
      L1  H     8    25       P1  7948  0.88
      P1  H  7989  7998       L1    15  1.00

> <Gold.PLP.Chemscore.Internal.Correction>
0.0088

> <Gold.Rescore>
     Score         DG    S(hbond)    S(metal)    S(lipo)     H(rot)  DE(clash)    DE(int)     intcor
     15.16     -18.66       2.84        0.00      65.65       1.56       0.03       3.47       ----

> <Gold.Chemscore.Fitness>
15.1555

> <Gold.Chemscore.DG>
-18.6563

> <Gold.Chemscore.ZeroCoef>
-5.4800

> <Gold.Chemscore.Hbond>
2.8409

> <Gold.Chemscore.Metal>
0.0000

> <Gold.Chemscore.Lipo>
65.6452

> <Gold.Chemscore.Internal_Hbond>
0.0000

> <Gold.Chemscore.DEClash>
0.0263

> <Gold.Chemscore.DEInternal>
3.4745

> <Gold.Chemscore.Rot>
1.5597

> <Gold.Chemscore.Internal.Correction>
   9.000000E+99

> <Gold.Chemscore.Hbonds>
donor molecule, donor type, donor heavy atom, donor atom, acceptor molecule, acceptor atom, score
      L1  H     5    24       P1  7948  0.30
      L1  H     8    25       P1  7948  0.19
      P1  H  7989  7998       L1    15  0.35

> <Gold.Chemscore.Hbond.Weighted>
-9.4886

> <Gold.Chemscore.Metal.Weighted>
-0.0000

> <Gold.Chemscore.Lipo.Weighted>
-7.6805

> <Gold.Chemscore.Internal_Hbond.Weighted>
0.0000

> <Gold.Chemscore.DEClash.Weighted>
0.0263

> <Gold.Chemscore.DEInternal.Weighted>
3.4745

> <Gold.Chemscore.Rot.Weighted>
3.9928

> <Gold.Chemscore.Internal.Correction.Weighted>
   9.000000E+99

> <Gold.Protein.RotatedTorsions>
[ 6907 6896 6895 6894 ] final  -59.51 input  -60.11 | X-H torsion
[ 7974 7965 7964 7962 ] final   22.48 input  175.53 | X-H torsion
[ 8008 7997 7996 7995 ] final  134.41 input   59.86 | X-H torsion
[ 10167 10162 10161 10158 ] final    2.47 input  -65.29 | X-H torsion
[ 10718 10713 10712 10709 ] final  -98.48 input   66.30 | X-H torsion
[ 10763 10752 10751 10750 ] final -173.39 input  -60.55 | X-H torsion
[ 11005 11000 10999 10996 ] final   43.93 input  -57.11 | X-H torsion

> <Gold.Protein.ActiveResidues>
 VAL166  LYS551  ARG553  GLY616  TRP617  ASP618  TYR619  PRO620  LYS621  CYS622 
 ASP623  PHE694  ASN695  SER759  ASP760  ASP761  ALA762  ILE779  LEU786  VAL792 
 PHE793  MET794  SER795  GLU796  ALA797  LYS798  CYS799  TRP800  GLU811  SER814 

> <Gold.Protein.RotatedAtoms>
  150.7925  134.6959  159.6522 H   0  0  0  0  0  0  0  0  0  0  0  0  # atno 6907 bound_to 6896
  152.4032  134.6247  160.0070 H   0  0  0  0  0  0  0  0  0  0  0  0  # atno 6908 bound_to 6896
  151.6512  133.3284  159.3188 H   0  0  0  0  0  0  0  0  0  0  0  0  # atno 6909 bound_to 6896
  146.2027  139.7880  142.8749 H   0  0  0  0  0  0  0  0  0  0  0  0  # atno 7974 bound_to 7965
  156.2999  140.2497  156.3412 H   0  0  0  0  0  0  0  0  0  0  0  0  # atno 8008 bound_to 7997
  154.9053  140.0405  157.1935 H   0  0  0  0  0  0  0  0  0  0  0  0  # atno 8009 bound_to 7997
  154.8460  140.2898  155.5633 H   0  0  0  0  0  0  0  0  0  0  0  0  # atno 8010 bound_to 7997
  140.6633  143.7245  150.7780 H   0  0  0  0  0  0  0  0  0  0  0  0  # atno 10167 bound_to 10162
  156.0109  130.5240  150.6529 H   0  0  0  0  0  0  0  0  0  0  0  0  # atno 10718 bound_to 10713
  154.6084  135.2862  155.0459 H   0  0  0  0  0  0  0  0  0  0  0  0  # atno 10763 bound_to 10752
  154.1698  135.6474  153.5010 H   0  0  0  0  0  0  0  0  0  0  0  0  # atno 10764 bound_to 10752
  153.0185  135.5398  154.6829 H   0  0  0  0  0  0  0  0  0  0  0  0  # atno 10765 bound_to 10752
  140.1599  134.4354  155.8325 H   0  0  0  0  0  0  0  0  0  0  0  0  # atno 11005 bound_to 11000
  145.3428  141.0291  143.3382 LP  0  0  0  0  0  0  0  0  0  0  0  0  # atno 17320 bound_to 7965
  144.8720  139.5025  143.6763 LP  0  0  0  0  0  0  0  0  0  0  0  0  # atno 17321 bound_to 7965
  140.0918  143.4870  152.2474 LP  0  0  0  0  0  0  0  0  0  0  0  0  # atno 17342 bound_to 10162
  139.5874  144.7536  151.3486 LP  0  0  0  0  0  0  0  0  0  0  0  0  # atno 17343 bound_to 10162
  157.4287  131.0846  151.1060 LP  0  0  0  0  0  0  0  0  0  0  0  0  # atno 17370 bound_to 10713
  157.1640  130.6238  149.5619 LP  0  0  0  0  0  0  0  0  0  0  0  0  # atno 17371 bound_to 10713
  141.2208  133.6909  156.7575 LP  0  0  0  0  0  0  0  0  0  0  0  0  # atno 17394 bound_to 11000
  140.2502  134.8546  157.3660 LP  0  0  0  0  0  0  0  0  0  0  0  0  # atno 17395 bound_to 11000

$$$$
