#       Name:                AV-unprocessed.smi:2586
#       Creating user name   scv26
#       Creation time:       Fri Mar 27 14:15:43 2020


#       File generated by GOLD software.
#

@<TRIPOS>MOLECULE
AV-unprocessed.smi:2586
    36    37     1
SMALL
NO_CHARGES


@<TRIPOS>ATOM
      1 ****        -1.4180   0.9389  -1.9883 C.3            1 S1                 0.0000
      2 ****        -1.7592   0.1294  -0.8693 O.3            1 S1                 0.0000
      3 ****        -1.1854  -1.1816  -0.8217 C.3            1 S1                 0.0000
      4 ****         0.3475  -1.1397  -0.8067 C.3            1 S1                 0.0000
      5 ****         0.8322  -0.3869   0.3462 N.am           1 S1                 0.0000
      6 ****         1.6661   0.6612   0.2999 C.2            1 S1                 0.0000
      7 ****         2.1621   1.0912  -0.7416 O.2            1 S1                 0.0000
      8 ****         1.8723   1.1663   1.5285 N.am           1 S1                 0.0000
      9 ****         2.6352   2.2300   1.8909 C.2            1 S1                 0.0000
     10 ****         2.7898   2.7219   3.1589 C.2            1 S1                 0.0000
     11 ****         3.6408   3.8355   3.2445 N.2            1 S1                 0.0000
     12 ****         4.1410   4.2125   2.1047 N.2            1 S1                 0.0000
     13 ****         3.6043   3.2333   0.8572 S.3            1 S1                 0.0000
     14 ****        -1.8985  -1.9428   0.3119 C.3            1 S1                 0.0000
     15 ****        -2.9376  -2.4264  -0.7012 C.3            1 S1                 0.0000
     16 ****        -1.9092  -2.1351  -1.7958 C.3            1 S1                 0.0000
     17 ****        -2.0190   1.8476  -1.9657 H              1 S1                 0.0000
     18 ****        -1.6107   0.4395  -2.9371 H              1 S1                 0.0000
     19 ****        -0.3731   1.2456  -1.9629 H              1 S1                 0.0000
     20 ****         0.7467  -2.1512  -0.7257 H              1 S1                 0.0000
     21 ****         0.7390  -0.7516  -1.7477 H              1 S1                 0.0000
     22 ****         0.4757  -0.6680   1.2477 H              1 S1                 0.0000
     23 ****         1.3897   0.7042   2.2851 H              1 S1                 0.0000
     24 ****         2.3340   2.3461   4.0630 H              1 S1                 0.0000
     25 ****        -1.2987  -2.7608   0.7142 H              1 S1                 0.0000
     26 ****        -2.2973  -1.3149   1.1094 H              1 S1                 0.0000
     27 ****        -3.2185  -3.4756  -0.6043 H              1 S1                 0.0000
     28 ****        -3.8107  -1.7744  -0.7557 H              1 S1                 0.0000
     29 ****        -2.3294  -1.6803  -2.6922 H              1 S1                 0.0000
     30 ****        -1.3117  -3.0135  -2.0453 H              1 S1                 0.0000
     31 ****        -2.7537   0.0247  -0.8637 LP             1 S1                 0.0000
     32 ****        -1.4706   0.6160  -0.0448 LP             1 S1                 0.0000
     33 ****         1.9484   0.6537  -1.6151 LP             1 S1                 0.0000
     34 ****         2.7787   1.8780  -0.7142 LP             1 S1                 0.0000
     35 ****         3.8446   4.2986   4.1070 LP             1 S1                 0.0000
     36 ****         4.7644   4.9858   1.9886 LP             1 S1                 0.0000
@<TRIPOS>BOND
    1    1    2 1     
    2    1   17 1     
    3    1   18 1     
    4    1   19 1     
    5    2    3 1     
    6    3   16 1     
    7    3    4 1     
    8    3   14 1     
    9    4    5 1     
   10    4   20 1     
   11    4   21 1     
   12    5    6 am    
   13    5   22 1     
   14    6    7 2     
   15    6    8 am    
   16    8    9 1     
   17    8   23 1     
   18    9   13 1     
   19    9   10 2     
   20   10   11 1     
   21   10   24 1     
   22   11   12 2     
   23   12   13 1     
   24   14   15 1     
   25   14   25 1     
   26   14   26 1     
   27   15   16 1     
   28   15   27 1     
   29   15   28 1     
   30   16   29 1     
   31   16   30 1     
   32    2   31 1     
   33    2   32 1     
   34    7   33 1     
   35    7   34 1     
   36   11   35 1     
   37   12   36 1     
@<TRIPOS>SUBSTRUCTURE
      1 S1             1
@<TRIPOS>SET
LONE_PAIRS      STATIC     ATOMS    <user>   **** ""
6 31 32 33 34 35 36
DONOR_HYDROGENS      STATIC     ATOMS    <user>   **** ""
2 22 23
ATOM$BLUE        STATIC     ATOMS    COLORGROUP SYSTEM
6 31 32 33 34 35 36
ATOM$RED        STATIC     ATOMS    COLORGROUP SYSTEM
2 22 23
