AV-unprocessed.smi:2651|AV-procd|sdf|10293|dock8
  -GOLD-   2272014303D 1   1.00000     0.00000
 Structure written by MMmdl.
 43 44  0  0  0  0  0  0  0  0  1 V2000
  144.2851  131.9560  150.2706 C   0  0  0  0  0  0  0  0  0  0  0  0
  144.6606  133.1871  151.0215 C   0  0  0  0  0  0  0  0  0  0  0  0
  145.8251  133.8949  151.1256 C   0  0  0  0  0  0  0  0  0  0  0  0
  145.4783  134.9536  152.0068 C   0  0  0  0  0  0  0  0  0  0  0  0
  146.4363  135.9293  152.3831 N   0  0  0  0  0  0  0  0  0  0  0  0
  146.2518  136.9970  153.1781 C   0  0  0  0  0  0  0  0  0  0  0  0
  145.1793  137.3151  153.6902 O   0  0  0  0  0  0  0  0  0  0  0  0
  147.3992  137.6796  153.3353 N   0  0  0  0  0  0  0  0  0  0  0  0
  147.6539  138.8923  154.1282 C   0  0  2  0  0  0  0  0  0  0  0  0
  147.1251  138.5401  155.5385 C   0  0  0  0  0  0  0  0  0  0  0  0
  146.7585  140.0515  153.5930 C   0  0  0  0  0  0  0  0  0  0  0  0
  146.7269  140.1590  152.1841 O   0  0  0  0  0  0  0  0  0  0  0  0
  149.1851  139.2470  154.1795 C   0  0  0  0  0  0  0  0  0  0  0  0
  150.1145  138.0314  154.4336 C   0  0  0  0  0  0  0  0  0  0  0  0
  151.5987  138.4241  154.3476 C   0  0  0  0  0  0  0  0  0  0  0  0
  151.9334  139.5597  155.3251 C   0  0  0  0  0  0  0  0  0  0  0  0
  151.0190  140.7714  155.0940 C   0  0  0  0  0  0  0  0  0  0  0  0
  149.5364  140.3751  155.1823 C   0  0  0  0  0  0  0  0  0  0  0  0
  144.2163  134.8978  152.4034 N   0  0  0  0  0  0  0  0  0  0  0  0
  143.6857  133.7655  151.7741 O   0  0  0  0  0  0  0  0  0  0  0  0
  145.1162  131.6027  149.6601 H   0  0  0  0  0  0  0  0  0  0  0  0
  143.4391  132.1482  149.6104 H   0  0  0  0  0  0  0  0  0  0  0  0
  144.0050  131.1561  150.9562 H   0  0  0  0  0  0  0  0  0  0  0  0
  146.7708  133.6852  150.6486 H   0  0  0  0  0  0  0  0  0  0  0  0
  147.3665  135.7931  152.0165 H   0  0  0  0  0  0  0  0  0  0  0  0
  148.2052  137.3120  152.8520 H   0  0  0  0  0  0  0  0  0  0  0  0
  147.2192  139.3725  156.2350 H   0  0  0  0  0  0  0  0  0  0  0  0
  147.6440  137.6864  155.9736 H   0  0  0  0  0  0  0  0  0  0  0  0
  146.0659  138.2806  155.5055 H   0  0  0  0  0  0  0  0  0  0  0  0
  145.7376  139.9634  153.9676 H   0  0  0  0  0  0  0  0  0  0  0  0
  147.1291  141.0100  153.9580 H   0  0  0  0  0  0  0  0  0  0  0  0
  147.5733  140.4537  151.8852 H   0  0  0  0  0  0  0  0  0  0  0  0
  149.4615  139.6251  153.1950 H   0  0  0  0  0  0  0  0  0  0  0  0
  149.9211  137.6047  155.4176 H   0  0  0  0  0  0  0  0  0  0  0  0
  149.9250  137.2380  153.7112 H   0  0  0  0  0  0  0  0  0  0  0  0
  152.2251  137.5570  154.5588 H   0  0  0  0  0  0  0  0  0  0  0  0
  151.8356  138.7352  153.3293 H   0  0  0  0  0  0  0  0  0  0  0  0
  151.8194  139.2058  156.3505 H   0  0  0  0  0  0  0  0  0  0  0  0
  152.9773  139.8534  155.2123 H   0  0  0  0  0  0  0  0  0  0  0  0
  151.2405  141.5478  155.8267 H   0  0  0  0  0  0  0  0  0  0  0  0
  151.2238  141.2041  154.1139 H   0  0  0  0  0  0  0  0  0  0  0  0
  148.9265  141.2592  154.9997 H   0  0  0  0  0  0  0  0  0  0  0  0
  149.3215  140.0580  156.2025 H   0  0  0  0  0  0  0  0  0  0  0  0
  1  2  1  0  0  0  0
  1 21  1  0  0  0  0
  1 22  1  0  0  0  0
  1 23  1  0  0  0  0
  2 20  1  0  0  0  0
  2  3  2  0  0  0  0
  3  4  1  0  0  0  0
  3 24  1  0  0  0  0
  4  5  1  0  0  0  0
  4 19  2  0  0  0  0
  5  6  1  0  0  0  0
  5 25  1  0  0  0  0
  6  7  2  0  0  0  0
  6  8  1  0  0  0  0
  8  9  1  0  0  0  0
  8 26  1  0  0  0  0
  9 10  1  0  0  0  0
  9 11  1  0  0  0  0
  9 13  1  0  0  0  0
 10 27  1  0  0  0  0
 10 28  1  0  0  0  0
 10 29  1  0  0  0  0
 11 12  1  0  0  0  0
 11 30  1  0  0  0  0
 11 31  1  0  0  0  0
 12 32  1  0  0  0  0
 13 18  1  0  0  0  0
 13 14  1  0  0  0  0
 13 33  1  0  0  0  0
 14 15  1  0  0  0  0
 14 34  1  0  0  0  0
 14 35  1  0  0  0  0
 15 16  1  0  0  0  0
 15 36  1  0  0  0  0
 15 37  1  0  0  0  0
 16 17  1  0  0  0  0
 16 38  1  0  0  0  0
 16 39  1  0  0  0  0
 17 18  1  0  0  0  0
 17 40  1  0  0  0  0
 17 41  1  0  0  0  0
 18 42  1  0  0  0  0
 18 43  1  0  0  0  0
 19 20  1  0  0  0  0
M  END
> <s_m_source_file>
AV-unprocessed.smi

> <i_m_source_file_index>
2651

> <i_lp_mmshare_version>
43012

> <i_f3d_flags>
0

> <s_epik_input>
W0NIM11jMVtjSF1jKG5vMSlbTkhdQyg9TylbTkhdW0NAQF0oW0NIM10pKFtDSDJdW09IXSlbQ0hdMltDSDJdW0NIMl1bQ0gyXVtDSDJdW0NIMl0y

> <s_epik_cmdline>
J2VwaWtfcHl0aG9uJywgJy1waCcsICc3LjAnLCAnLXRuJywgJzgnLCAnLW1hJywgJzIwMCcsICctbWV0YWxfYmluZGluZycsICctaW1hZScsICc8aW5maWxlLm1hZT4nLCAnLW9tYWUnLCAnPG91dGZpbGUubWFlPic=

> <r_lp_tautomer_probability>
1

> <r_epik_Ionization_Penalty>
2.26451e-05

> <r_epik_Ionization_Penalty_Charging>
0

> <r_epik_Ionization_Penalty_Neutral>
2.26451e-05

> <r_epik_State_Penalty>
-0

> <r_epik_Charging_Adjusted_Penalty>
0

> <i_epik_Tot_Q>
0

> <i_epik_Tot_abs_Q>
0

> <r_epik_Metal_State_Penalty>
-0

> <b_epik_Metal_Only>
0

> <s_lp_Force_Field>
OPLS_2005

> <r_lp_Energy>
19.0521

> <b_lp_Chiralities_Consistent>
1

> <s_lp_Variant>
AV-unprocessed.smi:2651-2

> <Gold.Version>
5.8.1

> <Gold.Id.Protein>
6NUR|6NUR_protein|mol2

> <Gold.PLP.Fitness>
38.9177

> <Gold.PLP.PLP>
-30.8180

> <Gold.PLP.part.hbond>
-3.3971

> <Gold.PLP.part.metal>
0.0000

> <Gold.PLP.part.buried>
-4.3599

> <Gold.PLP.part.nonpolar>
-24.8959

> <Gold.PLP.part.repulsive>
0.5006

> <Gold.PLP.ligand.clash>
0.0000

> <Gold.PLP.ligand.torsion>
0.5013

> <Gold.PLP.Chemscore.Hbond>
3.0000

> <Gold.PLP.Chemscore.CHOScore>
0.0000

> <Gold.PLP.Chemscore.Metal>
0.0000

> <Gold.Chemscore.Hbonds>
donor molecule, donor type, donor heavy atom, donor atom, acceptor molecule, acceptor atom, score
      L1  H     5    25       P1  7948  1.00
      L1  H     8    26       P1  7948  1.00
      L1  H    12    32       P1  7957  0.67

> <Gold.PLP.Chemscore.Internal.Correction>
0.1024

> <Gold.Rescore>
     Score         DG    S(hbond)    S(metal)    S(lipo)     H(rot)  DE(clash)    DE(int)     intcor
     15.00     -18.23       2.92        0.00      71.43       2.09       0.09       3.13       ----

> <Gold.Chemscore.Fitness>
15.0024

> <Gold.Chemscore.DG>
-18.2253

> <Gold.Chemscore.ZeroCoef>
-5.4800

> <Gold.Chemscore.Hbond>
2.9185

> <Gold.Chemscore.Metal>
0.0000

> <Gold.Chemscore.Lipo>
71.4250

> <Gold.Chemscore.Internal_Hbond>
0.0000

> <Gold.Chemscore.DEClash>
0.0918

> <Gold.Chemscore.DEInternal>
3.1312

> <Gold.Chemscore.Rot>
2.0935

> <Gold.Chemscore.Internal.Correction>
   9.000000E+99

> <Gold.Chemscore.Hbonds>
donor molecule, donor type, donor heavy atom, donor atom, acceptor molecule, acceptor atom, score
      L1  H     5    25       P1  7948  0.97
      L1  H     8    26       P1  7948  0.97
      L1  H    12    32       P1  7957  0.64

> <Gold.Chemscore.Hbond.Weighted>
-9.7479

> <Gold.Chemscore.Metal.Weighted>
-0.0000

> <Gold.Chemscore.Lipo.Weighted>
-8.3567

> <Gold.Chemscore.Internal_Hbond.Weighted>
0.0000

> <Gold.Chemscore.DEClash.Weighted>
0.0918

> <Gold.Chemscore.DEInternal.Weighted>
3.1312

> <Gold.Chemscore.Rot.Weighted>
5.3594

> <Gold.Chemscore.Internal.Correction.Weighted>
   9.000000E+99

> <Gold.Protein.RotatedTorsions>
[ 6907 6896 6895 6894 ] final  106.60 input  -60.11 | X-H torsion
[ 7974 7965 7964 7962 ] final  -43.65 input  175.53 | X-H torsion
[ 8008 7997 7996 7995 ] final   83.81 input   59.86 | X-H torsion
[ 10167 10162 10161 10158 ] final  -45.06 input  -65.29 | X-H torsion
[ 10718 10713 10712 10709 ] final -159.42 input   66.30 | X-H torsion
[ 10763 10752 10751 10750 ] final   26.53 input  -60.55 | X-H torsion
[ 11005 11000 10999 10996 ] final   62.60 input  -57.11 | X-H torsion

> <Gold.Protein.ActiveResidues>
 VAL166  LYS551  ARG553  GLY616  TRP617  ASP618  TYR619  PRO620  LYS621  CYS622 
 ASP623  PHE694  ASN695  SER759  ASP760  ASP761  ALA762  ILE779  LEU786  VAL792 
 PHE793  MET794  SER795  GLU796  ALA797  LYS798  CYS799  TRP800  GLU811  SER814 

> <Gold.Protein.RotatedAtoms>
  152.5187  133.9357  159.7601 H   0  0  0  0  0  0  0  0  0  0  0  0  # atno 6907 bound_to 6896
  150.9698  133.6348  159.2747 H   0  0  0  0  0  0  0  0  0  0  0  0  # atno 6908 bound_to 6896
  151.3563  135.0900  159.9472 H   0  0  0  0  0  0  0  0  0  0  0  0  # atno 6909 bound_to 6896
  145.9998  140.7087  142.9276 H   0  0  0  0  0  0  0  0  0  0  0  0  # atno 7974 bound_to 7965
  155.9288  140.3416  155.6232 H   0  0  0  0  0  0  0  0  0  0  0  0  # atno 8008 bound_to 7997
  155.7182  140.0780  157.2360 H   0  0  0  0  0  0  0  0  0  0  0  0  # atno 8009 bound_to 7997
  154.4081  140.1610  156.2360 H   0  0  0  0  0  0  0  0  0  0  0  0  # atno 8010 bound_to 7997
  140.6873  143.2898  151.3585 H   0  0  0  0  0  0  0  0  0  0  0  0  # atno 10167 bound_to 10162
  156.5679  130.8675  151.2829 H   0  0  0  0  0  0  0  0  0  0  0  0  # atno 10718 bound_to 10713
  153.0616  135.6558  154.0450 H   0  0  0  0  0  0  0  0  0  0  0  0  # atno 10763 bound_to 10752
  154.0116  135.2928  155.3393 H   0  0  0  0  0  0  0  0  0  0  0  0  # atno 10764 bound_to 10752
  154.6957  135.5265  153.8522 H   0  0  0  0  0  0  0  0  0  0  0  0  # atno 10765 bound_to 10752
  140.0081  134.6339  155.9824 H   0  0  0  0  0  0  0  0  0  0  0  0  # atno 11005 bound_to 11000
  144.6915  140.3213  143.7232 LP  0  0  0  0  0  0  0  0  0  0  0  0  # atno 17320 bound_to 7965
  145.7505  139.1792  143.2324 LP  0  0  0  0  0  0  0  0  0  0  0  0  # atno 17321 bound_to 7965
  139.6242  144.0847  152.2419 LP  0  0  0  0  0  0  0  0  0  0  0  0  # atno 17342 bound_to 10162
  140.0301  144.6088  150.7495 LP  0  0  0  0  0  0  0  0  0  0  0  0  # atno 17343 bound_to 10162
  157.7354  130.9762  150.2083 LP  0  0  0  0  0  0  0  0  0  0  0  0  # atno 17370 bound_to 10713
  156.2741  130.3725  149.8002 LP  0  0  0  0  0  0  0  0  0  0  0  0  # atno 17371 bound_to 10713
  141.1691  133.6537  156.4587 LP  0  0  0  0  0  0  0  0  0  0  0  0  # atno 17394 bound_to 11000
  140.4605  134.6846  157.5083 LP  0  0  0  0  0  0  0  0  0  0  0  0  # atno 17395 bound_to 11000

$$$$
