AV-unprocessed.smi:240|AV-procd|sdf|1828|dock8
  -GOLD-   2262020433D 1   1.00000     0.00000
 Structure written by MMmdl.
 55 59  0  0  0  0  0  0  0  0  1 V2000
  150.8392  143.9152  157.1437 O   0  0  0  0  0  0  0  0  0  0  0  0
  150.7481  142.6558  157.7769 C   0  0  2  0  0  0  0  0  0  0  0  0
  151.9617  142.4098  158.6715 C   0  0  0  0  0  0  0  0  0  0  0  0
  151.9709  140.8943  158.8565 C   0  0  0  0  0  0  0  0  0  0  0  0
  151.4466  140.3174  157.5343 C   0  0  0  0  0  0  0  0  0  0  0  0
  150.7722  141.4816  156.7760 C   0  0  1  0  0  0  0  0  0  0  0  0
  149.4173  141.1074  156.0929 C   0  0  1  0  0  0  0  0  0  0  0  0
  148.5174  142.3389  155.8074 C   0  0  0  0  0  0  0  0  0  0  0  0
  147.2913  141.9270  155.2176 O   0  0  0  0  0  0  0  0  0  0  0  0
  147.5037  141.3050  153.9581 C   0  0  0  0  0  0  0  0  0  0  0  0
  148.3320  140.0312  154.1676 C   0  0  0  0  0  0  0  0  0  0  0  0
  149.5858  140.3328  154.8525 N   0  0  0  0  0  0  0  0  0  0  0  0
  150.3471  139.2141  154.9101 C   0  0  0  0  0  0  0  0  0  0  0  0
  151.5819  139.1919  154.3405 N   0  0  0  0  0  0  0  0  0  0  0  0
  152.3269  138.0844  154.4036 C   0  0  0  0  0  0  0  0  0  0  0  0
  152.0381  136.9156  154.9808 N   0  0  0  0  0  0  0  0  0  0  0  0
  150.8073  136.9428  155.5687 C   0  0  0  0  0  0  0  0  0  0  0  0
  149.9077  138.0445  155.5842 C   0  0  0  0  0  0  0  0  0  0  0  0
  148.7515  137.7077  156.2755 N   0  0  0  0  0  0  0  0  0  0  0  0
  148.9516  136.4707  156.6404 C   0  0  0  0  0  0  0  0  0  0  0  0
  150.1631  135.9339  156.2640 N   0  0  0  0  0  0  0  0  0  0  0  0
  150.6408  134.5855  156.5304 C   0  0  0  0  0  0  0  0  0  0  0  0
  149.6966  133.4780  156.0069 C   0  0  1  0  0  0  0  0  0  0  0  0
  148.4948  133.5083  156.7579 O   0  0  0  0  0  0  0  0  0  0  0  0
  149.3447  133.6449  154.5343 C   0  0  0  0  0  0  0  0  0  0  0  0
  149.0783  132.2133  154.0895 C   0  0  0  0  0  0  0  0  0  0  0  0
  150.0766  131.4761  154.7747 O   0  0  0  0  0  0  0  0  0  0  0  0
  150.2740  132.0483  156.0646 C   0  0  0  0  0  0  0  0  0  0  0  0
  150.1433  143.9835  156.5082 H   0  0  0  0  0  0  0  0  0  0  0  0
  149.8537  142.6369  158.3971 H   0  0  0  0  0  0  0  0  0  0  0  0
  152.8770  142.7190  158.1642 H   0  0  0  0  0  0  0  0  0  0  0  0
  151.9050  142.9489  159.6176 H   0  0  0  0  0  0  0  0  0  0  0  0
  152.9584  140.5127  159.1171 H   0  0  0  0  0  0  0  0  0  0  0  0
  151.2899  140.6247  159.6648 H   0  0  0  0  0  0  0  0  0  0  0  0
  152.2714  139.9215  156.9405 H   0  0  0  0  0  0  0  0  0  0  0  0
  150.7770  139.4801  157.7246 H   0  0  0  0  0  0  0  0  0  0  0  0
  151.4929  141.7489  156.0029 H   0  0  0  0  0  0  0  0  0  0  0  0
  148.8688  140.4716  156.7895 H   0  0  0  0  0  0  0  0  0  0  0  0
  148.2797  142.8763  156.7238 H   0  0  0  0  0  0  0  0  0  0  0  0
  149.0000  143.0539  155.1418 H   0  0  0  0  0  0  0  0  0  0  0  0
  146.5388  141.0570  153.5159 H   0  0  0  0  0  0  0  0  0  0  0  0
  148.0036  141.9910  153.2720 H   0  0  0  0  0  0  0  0  0  0  0  0
  147.7599  139.3127  154.7569 H   0  0  0  0  0  0  0  0  0  0  0  0
  148.5336  139.5660  153.2013 H   0  0  0  0  0  0  0  0  0  0  0  0
  153.2917  138.1428  153.9219 H   0  0  0  0  0  0  0  0  0  0  0  0
  148.2157  135.9121  157.2007 H   0  0  0  0  0  0  0  0  0  0  0  0
  151.6309  134.4795  156.0850 H   0  0  0  0  0  0  0  0  0  0  0  0
  150.7793  134.4806  157.6072 H   0  0  0  0  0  0  0  0  0  0  0  0
  148.6957  133.8090  157.6310 H   0  0  0  0  0  0  0  0  0  0  0  0
  148.5024  134.3147  154.3554 H   0  0  0  0  0  0  0  0  0  0  0  0
  150.2011  134.0340  153.9818 H   0  0  0  0  0  0  0  0  0  0  0  0
  148.0904  131.8802  154.4106 H   0  0  0  0  0  0  0  0  0  0  0  0
  149.1525  132.0847  153.0096 H   0  0  0  0  0  0  0  0  0  0  0  0
  151.3435  132.0417  156.2719 H   0  0  0  0  0  0  0  0  0  0  0  0
  149.7904  131.4359  156.8274 H   0  0  0  0  0  0  0  0  0  0  0  0
  1  2  1  0  0  0  0
  1 29  1  0  0  0  0
  2  6  1  0  0  0  0
  2  3  1  0  0  0  0
  2 30  1  0  0  0  0
  3  4  1  0  0  0  0
  3 31  1  0  0  0  0
  3 32  1  0  0  0  0
  4  5  1  0  0  0  0
  4 33  1  0  0  0  0
  4 34  1  0  0  0  0
  5  6  1  0  0  0  0
  5 35  1  0  0  0  0
  5 36  1  0  0  0  0
  6  7  1  0  0  0  0
  6 37  1  0  0  0  0
  7 12  1  0  0  0  0
  7  8  1  0  0  0  0
  7 38  1  0  0  0  0
  8  9  1  0  0  0  0
  8 39  1  0  0  0  0
  8 40  1  0  0  0  0
  9 10  1  0  0  0  0
 10 11  1  0  0  0  0
 10 41  1  0  0  0  0
 10 42  1  0  0  0  0
 11 12  1  0  0  0  0
 11 43  1  0  0  0  0
 11 44  1  0  0  0  0
 12 13  1  0  0  0  0
 13 18  1  0  0  0  0
 13 14  2  0  0  0  0
 14 15  1  0  0  0  0
 15 16  2  0  0  0  0
 15 45  1  0  0  0  0
 16 17  1  0  0  0  0
 17 21  1  0  0  0  0
 17 18  2  0  0  0  0
 18 19  1  0  0  0  0
 19 20  2  0  0  0  0
 20 21  1  0  0  0  0
 20 46  1  0  0  0  0
 21 22  1  0  0  0  0
 22 23  1  0  0  0  0
 22 47  1  0  0  0  0
 22 48  1  0  0  0  0
 23 28  1  0  0  0  0
 23 24  1  0  0  0  0
 23 25  1  0  0  0  0
 24 49  1  0  0  0  0
 25 26  1  0  0  0  0
 25 50  1  0  0  0  0
 25 51  1  0  0  0  0
 26 27  1  0  0  0  0
 26 52  1  0  0  0  0
 26 53  1  0  0  0  0
 27 28  1  0  0  0  0
 28 54  1  0  0  0  0
 28 55  1  0  0  0  0
M  END
> <s_m_source_file>
AV-unprocessed.smi

> <i_m_source_file_index>
240

> <i_lp_mmshare_version>
43012

> <i_f3d_flags>
0

> <s_epik_input>
W09IXVtDQEBIXTFbQ0gyXVtDSDJdW0NIMl1bQ0BIXTFbQ0BASF0yW0NIMl1PW0NIMl1bQ0gyXU4yYyhuW2NIXW4zKWMoYzM0KW5bY0hdbjRbQ0gyXVtDQEBdNShbT0hdKVtDSDJdW0NIMl1PW0NIMl01

> <s_epik_cmdline>
J2VwaWtfcHl0aG9uJywgJy1waCcsICc3LjAnLCAnLXRuJywgJzgnLCAnLW1hJywgJzIwMCcsICctbWV0YWxfYmluZGluZycsICctaW1hZScsICc8aW5maWxlLm1hZT4nLCAnLW9tYWUnLCAnPG91dGZpbGUubWFlPic=

> <r_lp_tautomer_probability>
1

> <r_epik_Ionization_Penalty>
0.000130618

> <r_epik_Ionization_Penalty_Charging>
0

> <r_epik_Ionization_Penalty_Neutral>
0.000130618

> <r_epik_State_Penalty>
-0

> <r_epik_Charging_Adjusted_Penalty>
0

> <i_epik_Tot_Q>
0

> <i_epik_Tot_abs_Q>
0

> <r_epik_Metal_State_Penalty>
-0

> <b_epik_Metal_Only>
0

> <s_lp_Force_Field>
OPLS_2005

> <r_lp_Energy>
59.9569

> <b_lp_Chiralities_Consistent>
1

> <s_lp_Variant>
AV-unprocessed.smi:240-5

> <Gold.Version>
5.8.1

> <Gold.Id.Protein>
6NUR|6NUR_protein|mol2

> <Gold.PLP.Fitness>
44.7785

> <Gold.PLP.PLP>
-36.7651

> <Gold.PLP.part.hbond>
-3.0000

> <Gold.PLP.part.metal>
0.0000

> <Gold.PLP.part.buried>
-1.0579

> <Gold.PLP.part.nonpolar>
-33.4653

> <Gold.PLP.part.repulsive>
0.5249

> <Gold.PLP.ligand.clash>
0.0115

> <Gold.PLP.ligand.torsion>
0.5887

> <Gold.PLP.Chemscore.Hbond>
3.0000

> <Gold.PLP.Chemscore.CHOScore>
0.0000

> <Gold.PLP.Chemscore.Metal>
0.0000

> <Gold.Chemscore.Hbonds>
donor molecule, donor type, donor heavy atom, donor atom, acceptor molecule, acceptor atom, score
      L1  H     1    29       P1  8028  1.00
      P1  H  7989  7998       L1    14  1.00
      P1  H 10752 10765       L1    16  1.00

> <Gold.PLP.Chemscore.Internal.Correction>
0.2023

> <Gold.Rescore>
     Score         DG    S(hbond)    S(metal)    S(lipo)     H(rot)  DE(clash)    DE(int)     intcor
     14.86     -17.30       2.87        0.00      84.70       3.00       1.56       0.89       ----

> <Gold.Chemscore.Fitness>
14.8556

> <Gold.Chemscore.DG>
-17.3004

> <Gold.Chemscore.ZeroCoef>
-5.4800

> <Gold.Chemscore.Hbond>
2.8743

> <Gold.Chemscore.Metal>
0.0000

> <Gold.Chemscore.Lipo>
84.7026

> <Gold.Chemscore.Internal_Hbond>
0.0000

> <Gold.Chemscore.DEClash>
1.5592

> <Gold.Chemscore.DEInternal>
0.8857

> <Gold.Chemscore.Rot>
3.0039

> <Gold.Chemscore.Internal.Correction>
   9.000000E+99

> <Gold.Chemscore.Hbonds>
donor molecule, donor type, donor heavy atom, donor atom, acceptor molecule, acceptor atom, score
      L1  H     1    29       P1  8028  0.98
      P1  H  7989  7998       L1    14  0.38
      P1  H 10752 10765       L1    16  0.90

> <Gold.Chemscore.Hbond.Weighted>
-9.6001

> <Gold.Chemscore.Metal.Weighted>
-0.0000

> <Gold.Chemscore.Lipo.Weighted>
-9.9102

> <Gold.Chemscore.Internal_Hbond.Weighted>
0.0000

> <Gold.Chemscore.DEClash.Weighted>
1.5592

> <Gold.Chemscore.DEInternal.Weighted>
0.8857

> <Gold.Chemscore.Rot.Weighted>
7.6899

> <Gold.Chemscore.Internal.Correction.Weighted>
   9.000000E+99

> <Gold.Protein.RotatedTorsions>
[ 6907 6896 6895 6894 ] final   41.73 input  -60.11 | X-H torsion
[ 7974 7965 7964 7962 ] final   93.49 input  175.53 | X-H torsion
[ 8008 7997 7996 7995 ] final -131.18 input   59.86 | X-H torsion
[ 10167 10162 10161 10158 ] final  -57.16 input  -65.29 | X-H torsion
[ 10718 10713 10712 10709 ] final   -4.89 input   66.30 | X-H torsion
[ 10763 10752 10751 10750 ] final  178.83 input  -60.55 | X-H torsion
[ 11005 11000 10999 10996 ] final  120.10 input  -57.11 | X-H torsion

> <Gold.Protein.ActiveResidues>
 VAL166  LYS551  ARG553  GLY616  TRP617  ASP618  TYR619  PRO620  LYS621  CYS622 
 ASP623  PHE694  ASN695  SER759  ASP760  ASP761  ALA762  ILE779  LEU786  VAL792 
 PHE793  MET794  SER795  GLU796  ALA797  LYS798  CYS799  TRP800  GLU811  SER814 

> <Gold.Protein.RotatedAtoms>
  152.1990  134.8605  160.0509 H   0  0  0  0  0  0  0  0  0  0  0  0  # atno 6907 bound_to 6896
  151.9465  133.3648  159.3992 H   0  0  0  0  0  0  0  0  0  0  0  0  # atno 6908 bound_to 6896
  150.6950  134.4309  159.5292 H   0  0  0  0  0  0  0  0  0  0  0  0  # atno 6909 bound_to 6896
  145.4782  139.2279  143.2897 H   0  0  0  0  0  0  0  0  0  0  0  0  # atno 7974 bound_to 7965
  155.3081  140.0456  157.3033 H   0  0  0  0  0  0  0  0  0  0  0  0  # atno 8008 bound_to 7997
  154.5448  140.2299  155.8547 H   0  0  0  0  0  0  0  0  0  0  0  0  # atno 8009 bound_to 7997
  156.1914  140.3049  155.9347 H   0  0  0  0  0  0  0  0  0  0  0  0  # atno 8010 bound_to 7997
  140.6274  143.2444  151.5327 H   0  0  0  0  0  0  0  0  0  0  0  0  # atno 10167 bound_to 10162
  156.7546  130.5250  149.5797 H   0  0  0  0  0  0  0  0  0  0  0  0  # atno 10718 bound_to 10713
  154.5128  135.2789  155.1328 H   0  0  0  0  0  0  0  0  0  0  0  0  # atno 10763 bound_to 10752
  154.2917  135.6265  153.5391 H   0  0  0  0  0  0  0  0  0  0  0  0  # atno 10764 bound_to 10752
  152.9922  135.5675  154.5597 H   0  0  0  0  0  0  0  0  0  0  0  0  # atno 10765 bound_to 10752
  139.9172  134.9632  156.7755 H   0  0  0  0  0  0  0  0  0  0  0  0  # atno 11005 bound_to 11000
  146.2357  140.5566  142.8956 LP  0  0  0  0  0  0  0  0  0  0  0  0  # atno 17320 bound_to 7965
  144.7904  140.6021  143.6545 LP  0  0  0  0  0  0  0  0  0  0  0  0  # atno 17321 bound_to 7965
  139.5493  144.2438  152.1500 LP  0  0  0  0  0  0  0  0  0  0  0  0  # atno 17342 bound_to 10162
  140.1673  144.4969  150.6599 LP  0  0  0  0  0  0  0  0  0  0  0  0  # atno 17343 bound_to 10162
  156.1379  130.6224  151.0426 LP  0  0  0  0  0  0  0  0  0  0  0  0  # atno 17370 bound_to 10713
  157.6762  131.0850  150.7488 LP  0  0  0  0  0  0  0  0  0  0  0  0  # atno 17371 bound_to 10713
  140.6586  133.9666  155.7793 LP  0  0  0  0  0  0  0  0  0  0  0  0  # atno 17394 bound_to 11000
  141.0659  134.0278  157.3594 LP  0  0  0  0  0  0  0  0  0  0  0  0  # atno 17395 bound_to 11000

$$$$
