AV-unprocessed.smi:1942|AV-procd|sdf|7849|dock7
  -GOLD-   22720 9593D 1   1.00000     0.00000
 Structure written by MMmdl.
 35 37  0  0  0  0  0  0  0  0  1 V2000
  147.6239  140.6037  156.9791 O   0  0  0  0  0  0  0  0  0  0  0  0
  147.2969  141.1701  155.9361 C   0  0  0  0  0  0  0  0  0  0  0  0
  146.0769  141.9803  155.8395 C   0  0  0  0  0  0  0  0  0  0  0  0
  145.7296  142.6017  154.6950 C   0  0  0  0  0  0  0  0  0  0  0  0
  146.5606  142.4837  153.5201 C   0  0  0  0  0  0  0  0  0  0  0  0
  147.6759  141.7412  153.6036 C   0  0  0  0  0  0  0  0  0  0  0  0
  148.0479  141.0872  154.7949 N   0  0  0  0  0  0  0  0  0  0  0  0
  149.2916  140.2994  154.7675 C   0  0  0  0  0  0  0  0  0  0  0  0
  150.1759  140.6273  155.9471 C   0  0  0  0  0  0  0  0  0  0  0  0
  150.1375  141.8027  156.5827 N   0  0  0  0  0  0  0  0  0  0  0  0
  151.0953  141.6563  157.5652 C   0  0  0  0  0  0  0  0  0  0  0  0
  151.5221  142.5509  158.5722 C   0  0  0  0  0  0  0  0  0  0  0  0
  152.5367  142.1758  159.4773 C   0  0  0  0  0  0  0  0  0  0  0  0
  153.0453  143.2800  160.7013 Cl  0  0  0  0  0  0  0  0  0  0  0  0
  153.1382  140.9035  159.3862 C   0  0  0  0  0  0  0  0  0  0  0  0
  152.7276  139.9976  158.3892 C   0  0  0  0  0  0  0  0  0  0  0  0
  151.7130  140.3773  157.4901 C   0  0  0  0  0  0  0  0  0  0  0  0
  151.0923  139.7420  156.4192 N   0  0  0  0  0  0  0  0  0  0  0  0
  151.4010  138.4029  155.9338 C   0  0  0  0  0  0  0  0  0  0  0  0
  151.8106  138.3920  154.4516 C   0  0  0  0  0  0  0  0  0  0  0  0
  151.9591  137.0726  153.9715 O   0  0  0  0  0  0  0  0  0  0  0  0
  145.4432  142.0802  156.7084 H   0  0  0  0  0  0  0  0  0  0  0  0
  144.8257  143.1915  154.6566 H   0  0  0  0  0  0  0  0  0  0  0  0
  146.2935  142.9816  152.5996 H   0  0  0  0  0  0  0  0  0  0  0  0
  148.3539  141.6073  152.7731 H   0  0  0  0  0  0  0  0  0  0  0  0
  149.0453  139.2375  154.7603 H   0  0  0  0  0  0  0  0  0  0  0  0
  149.8550  140.4799  153.8511 H   0  0  0  0  0  0  0  0  0  0  0  0
  151.0668  143.5274  158.6476 H   0  0  0  0  0  0  0  0  0  0  0  0
  153.9154  140.6220  160.0817 H   0  0  0  0  0  0  0  0  0  0  0  0
  153.1862  139.0228  158.3174 H   0  0  0  0  0  0  0  0  0  0  0  0
  152.1759  137.9516  156.5530 H   0  0  0  0  0  0  0  0  0  0  0  0
  150.5145  137.7827  156.0701 H   0  0  0  0  0  0  0  0  0  0  0  0
  151.0576  138.9018  153.8502 H   0  0  0  0  0  0  0  0  0  0  0  0
  152.7500  138.9270  154.3098 H   0  0  0  0  0  0  0  0  0  0  0  0
  151.5427  137.0105  153.1252 H   0  0  0  0  0  0  0  0  0  0  0  0
  1  2  2  0  0  0  0
  2  7  1  0  0  0  0
  2  3  1  0  0  0  0
  3  4  2  0  0  0  0
  3 22  1  0  0  0  0
  4  5  1  0  0  0  0
  4 23  1  0  0  0  0
  5  6  2  0  0  0  0
  5 24  1  0  0  0  0
  6  7  1  0  0  0  0
  6 25  1  0  0  0  0
  7  8  1  0  0  0  0
  8  9  1  0  0  0  0
  8 26  1  0  0  0  0
  8 27  1  0  0  0  0
  9 18  1  0  0  0  0
  9 10  2  0  0  0  0
 10 11  1  0  0  0  0
 11 17  2  0  0  0  0
 11 12  1  0  0  0  0
 12 13  2  0  0  0  0
 12 28  1  0  0  0  0
 13 14  1  0  0  0  0
 13 15  1  0  0  0  0
 15 16  2  0  0  0  0
 15 29  1  0  0  0  0
 16 17  1  0  0  0  0
 16 30  1  0  0  0  0
 17 18  1  0  0  0  0
 18 19  1  0  0  0  0
 19 20  1  0  0  0  0
 19 31  1  0  0  0  0
 19 32  1  0  0  0  0
 20 21  1  0  0  0  0
 20 33  1  0  0  0  0
 20 34  1  0  0  0  0
 21 35  1  0  0  0  0
M  END
> <s_m_source_file>
AV-unprocessed.smi

> <i_m_source_file_index>
1942

> <i_lp_mmshare_version>
43012

> <i_f3d_flags>
0

> <s_epik_input>
Tz1jMVtjSF1bY0hdW2NIXVtjSF1uMVtDSDJdYyhuMiluKFtDSDJdW0NIMl1bT0hdKWMoYzIzKVtjSF1bY0hdYyhDbClbY0hdMw==

> <s_epik_cmdline>
J2VwaWtfcHl0aG9uJywgJy1waCcsICc3LjAnLCAnLXRuJywgJzgnLCAnLW1hJywgJzIwMCcsICctbWV0YWxfYmluZGluZycsICctaW1hZScsICc8aW5maWxlLm1hZT4nLCAnLW9tYWUnLCAnPG91dGZpbGUubWFlPic=

> <r_lp_tautomer_probability>
1

> <r_epik_Ionization_Penalty>
0.0394182

> <r_epik_Ionization_Penalty_Charging>
8.17328e-07

> <r_epik_Ionization_Penalty_Neutral>
0.0394174

> <r_epik_State_Penalty>
0.0331163

> <r_epik_Charging_Adjusted_Penalty>
0.0331171

> <i_epik_Tot_Q>
0

> <i_epik_Tot_abs_Q>
0

> <r_epik_Metal_State_Penalty>
3.40583e-05

> <b_epik_Metal_Only>
0

> <s_lp_Force_Field>
OPLS_2005

> <r_lp_Energy>
18.6161

> <b_lp_Chiralities_Consistent>
1

> <s_lp_Variant>
AV-unprocessed.smi:1942-1

> <Gold.Version>
5.8.1

> <Gold.Id.Protein>
6NUR|6NUR_protein|mol2

> <Gold.PLP.Fitness>
48.0185

> <Gold.PLP.PLP>
-40.0864

> <Gold.PLP.part.hbond>
-2.0000

> <Gold.PLP.part.metal>
0.0000

> <Gold.PLP.part.buried>
-6.9246

> <Gold.PLP.part.nonpolar>
-30.7909

> <Gold.PLP.part.repulsive>
0.1076

> <Gold.PLP.ligand.clash>
0.0000

> <Gold.PLP.ligand.torsion>
0.4890

> <Gold.PLP.Chemscore.Hbond>
1.9680

> <Gold.PLP.Chemscore.CHOScore>
0.9994

> <Gold.PLP.Chemscore.Metal>
0.0000

> <Gold.Chemscore.Hbonds>
donor molecule, donor type, donor heavy atom, donor atom, acceptor molecule, acceptor atom, score
      L1  H    21    35       P1  7949  0.99
      P1  H 10752 10765       L1    21  1.00
      L1  C     6    25       P1  7957  0.94

> <Gold.PLP.Chemscore.Internal.Correction>
0.0077

> <Gold.Rescore>
     Score         DG    S(hbond)    S(metal)    S(lipo)     H(rot)  DE(clash)    DE(int)     intcor
     15.82     -16.49       1.52        0.00     100.45       2.27       0.05       0.62       ----

> <Gold.Chemscore.Fitness>
15.8162

> <Gold.Chemscore.DG>
-16.4891

> <Gold.Chemscore.ZeroCoef>
-5.4800

> <Gold.Chemscore.Hbond>
1.5210

> <Gold.Chemscore.Metal>
0.0000

> <Gold.Chemscore.Lipo>
100.4511

> <Gold.Chemscore.Internal_Hbond>
0.0000

> <Gold.Chemscore.DEClash>
0.0525

> <Gold.Chemscore.DEInternal>
0.6205

> <Gold.Chemscore.Rot>
2.2750

> <Gold.Chemscore.Internal.Correction>
   9.000000E+99

> <Gold.Chemscore.Hbonds>
donor molecule, donor type, donor heavy atom, donor atom, acceptor molecule, acceptor atom, score
      L1  H    21    35       P1  7949  0.86
      P1  H 10752 10765       L1    21  0.38

> <Gold.Chemscore.Hbond.Weighted>
-5.0803

> <Gold.Chemscore.Metal.Weighted>
-0.0000

> <Gold.Chemscore.Lipo.Weighted>
-11.7528

> <Gold.Chemscore.Internal_Hbond.Weighted>
0.0000

> <Gold.Chemscore.DEClash.Weighted>
0.0525

> <Gold.Chemscore.DEInternal.Weighted>
0.6205

> <Gold.Chemscore.Rot.Weighted>
5.8240

> <Gold.Chemscore.Internal.Correction.Weighted>
   9.000000E+99

> <Gold.Protein.RotatedTorsions>
[ 6907 6896 6895 6894 ] final   31.39 input  -60.11 | X-H torsion
[ 7974 7965 7964 7962 ] final  -65.90 input  175.53 | X-H torsion
[ 8008 7997 7996 7995 ] final  -56.57 input   59.86 | X-H torsion
[ 10167 10162 10161 10158 ] final -175.59 input  -65.29 | X-H torsion
[ 10718 10713 10712 10709 ] final -109.75 input   66.30 | X-H torsion
[ 10763 10752 10751 10750 ] final  141.99 input  -60.55 | X-H torsion
[ 11005 11000 10999 10996 ] final  101.72 input  -57.11 | X-H torsion

> <Gold.Protein.ActiveResidues>
 VAL166  LYS551  ARG553  GLY616  TRP617  ASP618  TYR619  PRO620  LYS621  CYS622 
 ASP623  PHE694  ASN695  SER759  ASP760  ASP761  ALA762  ILE779  LEU786  VAL792 
 PHE793  MET794  SER795  GLU796  ALA797  LYS798  CYS799  TRP800  GLU811  SER814 

> <Gold.Protein.RotatedAtoms>
  152.0596  134.9603  160.0574 H   0  0  0  0  0  0  0  0  0  0  0  0  # atno 6907 bound_to 6896
  152.0971  133.4225  159.4578 H   0  0  0  0  0  0  0  0  0  0  0  0  # atno 6908 bound_to 6896
  150.6838  134.2723  159.4636 H   0  0  0  0  0  0  0  0  0  0  0  0  # atno 6909 bound_to 6896
  145.7485  140.8919  143.0492 H   0  0  0  0  0  0  0  0  0  0  0  0  # atno 7974 bound_to 7965
  154.4235  140.1126  156.5659 H   0  0  0  0  0  0  0  0  0  0  0  0  # atno 8008 bound_to 7997
  155.6263  140.3495  155.4649 H   0  0  0  0  0  0  0  0  0  0  0  0  # atno 8009 bound_to 7997
  155.9984  140.1194  157.0561 H   0  0  0  0  0  0  0  0  0  0  0  0  # atno 8010 bound_to 7997
  139.5573  144.1957  152.1181 H   0  0  0  0  0  0  0  0  0  0  0  0  # atno 10167 bound_to 10162
  156.0554  130.5780  150.8143 H   0  0  0  0  0  0  0  0  0  0  0  0  # atno 10718 bound_to 10713
  153.9484  135.2972  155.3440 H   0  0  0  0  0  0  0  0  0  0  0  0  # atno 10763 bound_to 10752
  154.7440  135.5012  153.9174 H   0  0  0  0  0  0  0  0  0  0  0  0  # atno 10764 bound_to 10752
  153.1006  135.6733  153.9787 H   0  0  0  0  0  0  0  0  0  0  0  0  # atno 10765 bound_to 10752
  139.8774  134.9195  156.4950 H   0  0  0  0  0  0  0  0  0  0  0  0  # atno 11005 bound_to 11000
  144.6855  139.9559  143.7479 LP  0  0  0  0  0  0  0  0  0  0  0  0  # atno 17320 bound_to 7965
  146.0379  139.3394  143.0715 LP  0  0  0  0  0  0  0  0  0  0  0  0  # atno 17321 bound_to 7965
  140.1464  144.5155  150.6713 LP  0  0  0  0  0  0  0  0  0  0  0  0  # atno 17342 bound_to 10162
  140.6848  143.2344  151.5290 LP  0  0  0  0  0  0  0  0  0  0  0  0  # atno 17343 bound_to 10162
  157.5518  131.0944  150.9684 LP  0  0  0  0  0  0  0  0  0  0  0  0  # atno 17370 bound_to 10713
  156.9942  130.5575  149.5306 LP  0  0  0  0  0  0  0  0  0  0  0  0  # atno 17371 bound_to 10713
  140.8631  133.8045  155.9286 LP  0  0  0  0  0  0  0  0  0  0  0  0  # atno 17394 bound_to 11000
  140.9029  134.2356  157.5031 LP  0  0  0  0  0  0  0  0  0  0  0  0  # atno 17395 bound_to 11000

$$$$
