AV-unprocessed.smi:3252|AV-procd|sdf|12439|dock4
  -GOLD-   2272018333D 1   1.00000     0.00000
 Structure written by MMmdl.
 37 38  0  0  0  0  0  0  0  0  2 V2000
  144.3645  141.4999  157.4936 C   0  0  0  0  0  0  0  0  0  0  0  0
  143.8191  141.1574  156.0999 C   0  0  0  0  0  0  0  0  0  0  0  0
  144.6467  141.7254  155.0064 N   0  3  1  0  0  0  0  0  0  0  0  0
  144.6352  143.2074  155.0048 C   0  0  0  0  0  0  0  0  0  0  0  0
  145.4673  143.7518  153.8324 C   0  0  0  0  0  0  0  0  0  0  0  0
  146.7905  143.2374  153.9112 O   0  0  0  0  0  0  0  0  0  0  0  0
  146.8240  141.8175  153.8071 C   0  0  1  0  0  0  0  0  0  0  0  0
  148.2951  141.3674  153.8169 C   0  0  0  0  0  0  0  0  0  0  0  0
  149.0920  142.0768  154.8107 N   0  0  0  0  0  0  0  0  0  0  0  0
  150.1208  141.4437  155.5235 C   0  0  0  0  0  0  0  0  0  0  0  0
  150.3664  141.8481  156.8527 C   0  0  0  0  0  0  0  0  0  0  0  0
  151.3982  141.2185  157.5763 C   0  0  0  0  0  0  0  0  0  0  0  0
  152.1493  140.2076  156.9451 C   0  0  0  0  0  0  0  0  0  0  0  0
  153.2257  139.5301  157.6474 C   0  0  0  0  0  0  0  0  0  0  0  0
  154.0829  138.9906  158.2066 N   0  0  0  0  0  0  0  0  0  0  0  0
  151.8303  139.8706  155.6141 C   0  0  0  0  0  0  0  0  0  0  0  0
  150.8416  140.4706  154.9160 N   0  0  0  0  0  0  0  0  0  0  0  0
  146.0426  141.2215  154.9939 C   0  0  0  0  0  0  0  0  0  0  0  0
  143.7895  140.9876  158.2648 H   0  0  0  0  0  0  0  0  0  0  0  0
  144.3061  142.5671  157.7059 H   0  0  0  0  0  0  0  0  0  0  0  0
  145.4048  141.1908  157.5976 H   0  0  0  0  0  0  0  0  0  0  0  0
  143.8044  140.0707  156.0051 H   0  0  0  0  0  0  0  0  0  0  0  0
  142.7851  141.4903  155.9997 H   0  0  0  0  0  0  0  0  0  0  0  0
  143.6101  143.5717  154.9267 H   0  0  0  0  0  0  0  0  0  0  0  0
  145.0365  143.5770  155.9499 H   0  0  0  0  0  0  0  0  0  0  0  0
  145.0155  143.4876  152.8749 H   0  0  0  0  0  0  0  0  0  0  0  0
  145.5089  144.8403  153.8750 H   0  0  0  0  0  0  0  0  0  0  0  0
  146.3489  141.5070  152.8748 H   0  0  0  0  0  0  0  0  0  0  0  0
  148.3543  140.2989  154.0262 H   0  0  0  0  0  0  0  0  0  0  0  0
  148.7411  141.5084  152.8317 H   0  0  0  0  0  0  0  0  0  0  0  0
  148.9047  143.0563  154.9711 H   0  0  0  0  0  0  0  0  0  0  0  0
  149.7768  142.6266  157.3145 H   0  0  0  0  0  0  0  0  0  0  0  0
  151.6049  141.5115  158.5957 H   0  0  0  0  0  0  0  0  0  0  0  0
  152.3801  139.1025  155.0896 H   0  0  0  0  0  0  0  0  0  0  0  0
  146.5322  141.4787  155.9348 H   0  0  0  0  0  0  0  0  0  0  0  0
  146.0502  140.1347  154.9164 H   0  0  0  0  0  0  0  0  0  0  0  0
  144.2194  141.4364  154.1379 H   0  0  0  0  0  0  0  0  0  0  0  0
  1  2  1  0  0  0  0
  1 19  1  0  0  0  0
  1 20  1  0  0  0  0
  1 21  1  0  0  0  0
  2  3  1  0  0  0  0
  2 22  1  0  0  0  0
  2 23  1  0  0  0  0
  3 18  1  0  0  0  0
  3  4  1  0  0  0  0
  3 37  1  0  0  0  0
  4  5  1  0  0  0  0
  4 24  1  0  0  0  0
  4 25  1  0  0  0  0
  5  6  1  0  0  0  0
  5 26  1  0  0  0  0
  5 27  1  0  0  0  0
  6  7  1  0  0  0  0
  7  8  1  0  0  0  0
  7 18  1  0  0  0  0
  7 28  1  0  0  0  0
  8  9  1  0  0  0  0
  8 29  1  0  0  0  0
  8 30  1  0  0  0  0
  9 10  1  0  0  0  0
  9 31  1  0  0  0  0
 10 17  1  0  0  0  0
 10 11  2  0  0  0  0
 11 12  1  0  0  0  0
 11 32  1  0  0  0  0
 12 13  2  0  0  0  0
 12 33  1  0  0  0  0
 13 14  1  0  0  0  0
 13 16  1  0  0  0  0
 14 15  3  0  0  0  0
 16 17  2  0  0  0  0
 16 34  1  0  0  0  0
 18 35  1  0  0  0  0
 18 36  1  0  0  0  0
M  CHG  1   3   1
M  END
> <s_m_source_file>
AV-unprocessed.smi

> <i_m_source_file_index>
3252

> <i_lp_mmshare_version>
43012

> <i_f3d_flags>
0

> <s_epik_input>
W0NIM11bQ0gyXU4xW0NIMl1bQ0gyXU9bQ0BIXShbQ0gyXTEpW0NIMl1bTkhdYzJbY0hdW2NIXWMoQyNOKVtjSF1uMg==

> <s_epik_cmdline>
J2VwaWtfcHl0aG9uJywgJy1waCcsICc3LjAnLCAnLXRuJywgJzgnLCAnLW1hJywgJzIwMCcsICctbWV0YWxfYmluZGluZycsICctaW1hZScsICc8aW5maWxlLm1hZT4nLCAnLW9tYWUnLCAnPG91dGZpbGUubWFlPic=

> <r_epik_Ionization_Penalty>
0.178512

> <r_epik_Ionization_Penalty_Charging>
0.178504

> <r_epik_Ionization_Penalty_Neutral>
8.15545e-06

> <r_epik_State_Penalty>
0.167974

> <r_epik_Charging_Adjusted_Penalty>
0.346478

> <i_epik_Tot_Q>
1

> <i_epik_Tot_abs_Q>
1

> <r_epik_Metal_State_Penalty>
0.167974

> <b_epik_Metal_Only>
0

> <s_lp_Force_Field>
OPLS_2005

> <r_lp_Energy>
17.3379

> <b_lp_Chiralities_Consistent>
1

> <s_lp_Variant>
AV-unprocessed.smi:3252-1

> <Gold.Version>
5.8.1

> <Gold.Id.Protein>
6NUR|6NUR_protein|mol2

> <Gold.PLP.Fitness>
40.5544

> <Gold.PLP.PLP>
-29.4375

> <Gold.PLP.part.hbond>
-5.0000

> <Gold.PLP.part.metal>
0.0000

> <Gold.PLP.part.buried>
-1.6686

> <Gold.PLP.part.nonpolar>
-23.6881

> <Gold.PLP.part.repulsive>
0.9079

> <Gold.PLP.ligand.clash>
0.0000

> <Gold.PLP.ligand.torsion>
0.5360

> <Gold.PLP.Chemscore.Hbond>
4.0572

> <Gold.PLP.Chemscore.CHOScore>
0.0000

> <Gold.PLP.Chemscore.Metal>
0.0000

> <Gold.Chemscore.Hbonds>
donor molecule, donor type, donor heavy atom, donor atom, acceptor molecule, acceptor atom, score
      L1  H     3    37       P1 10175  2.00
      L1  H     9    31       P1  8028  1.00
      P1  H  7989  7998       L1    17  1.00
      P1  H  8022  8030       L1     6  0.07

> <Gold.PLP.Chemscore.Internal.Correction>
0.0174

> <Gold.Rescore>
     Score         DG    S(hbond)    S(metal)    S(lipo)     H(rot)  DE(clash)    DE(int)     intcor
     15.61     -16.47       2.57        0.00      52.68       1.47       0.30       0.56       ----

> <Gold.Chemscore.Fitness>
15.6119

> <Gold.Chemscore.DG>
-16.4653

> <Gold.Chemscore.ZeroCoef>
-5.4800

> <Gold.Chemscore.Hbond>
2.5689

> <Gold.Chemscore.Metal>
0.0000

> <Gold.Chemscore.Lipo>
52.6808

> <Gold.Chemscore.Internal_Hbond>
0.0000

> <Gold.Chemscore.DEClash>
0.2975

> <Gold.Chemscore.DEInternal>
0.5560

> <Gold.Chemscore.Rot>
1.4681

> <Gold.Chemscore.Internal.Correction>
   9.000000E+99

> <Gold.Chemscore.Hbonds>
donor molecule, donor type, donor heavy atom, donor atom, acceptor molecule, acceptor atom, score
      L1  H     3    37       P1 10175  0.30
      L1  H     9    31       P1  8028  1.00
      P1  H  7989  7998       L1    17  0.32
      P1  H  8022  8030       L1     6  0.07

> <Gold.Chemscore.Hbond.Weighted>
-8.5801

> <Gold.Chemscore.Metal.Weighted>
-0.0000

> <Gold.Chemscore.Lipo.Weighted>
-6.1637

> <Gold.Chemscore.Internal_Hbond.Weighted>
0.0000

> <Gold.Chemscore.DEClash.Weighted>
0.2975

> <Gold.Chemscore.DEInternal.Weighted>
0.5560

> <Gold.Chemscore.Rot.Weighted>
3.7584

> <Gold.Chemscore.Internal.Correction.Weighted>
   9.000000E+99

> <Gold.Protein.RotatedTorsions>
[ 6907 6896 6895 6894 ] final   12.42 input  -60.11 | X-H torsion
[ 7974 7965 7964 7962 ] final  141.60 input  175.53 | X-H torsion
[ 8008 7997 7996 7995 ] final  -91.92 input   59.86 | X-H torsion
[ 10167 10162 10161 10158 ] final   20.93 input  -65.29 | X-H torsion
[ 10718 10713 10712 10709 ] final   -0.41 input   66.30 | X-H torsion
[ 10763 10752 10751 10750 ] final  169.44 input  -60.55 | X-H torsion
[ 11005 11000 10999 10996 ] final  -37.18 input  -57.11 | X-H torsion

> <Gold.Protein.ActiveResidues>
 VAL166  LYS551  ARG553  GLY616  TRP617  ASP618  TYR619  PRO620  LYS621  CYS622 
 ASP623  PHE694  ASN695  SER759  ASP760  ASP761  ALA762  ILE779  LEU786  VAL792 
 PHE793  MET794  SER795  GLU796  ALA797  LYS798  CYS799  TRP800  GLU811  SER814 

> <Gold.Protein.RotatedAtoms>
  151.7700  135.0788  160.0358 H   0  0  0  0  0  0  0  0  0  0  0  0  # atno 6907 bound_to 6896
  152.3295  133.5938  159.5808 H   0  0  0  0  0  0  0  0  0  0  0  0  # atno 6908 bound_to 6896
  150.7414  133.9806  159.3617 H   0  0  0  0  0  0  0  0  0  0  0  0  # atno 6909 bound_to 6896
  144.9082  139.5329  143.5721 H   0  0  0  0  0  0  0  0  0  0  0  0  # atno 7974 bound_to 7965
  154.7167  140.0514  157.0602 H   0  0  0  0  0  0  0  0  0  0  0  0  # atno 8008 bound_to 7997
  155.0481  140.3176  155.4682 H   0  0  0  0  0  0  0  0  0  0  0  0  # atno 8009 bound_to 7997
  156.2805  140.2120  156.5606 H   0  0  0  0  0  0  0  0  0  0  0  0  # atno 8010 bound_to 7997
  140.5466  143.9584  150.6551 H   0  0  0  0  0  0  0  0  0  0  0  0  # atno 10167 bound_to 10162
  156.8208  130.5455  149.5697 H   0  0  0  0  0  0  0  0  0  0  0  0  # atno 10718 bound_to 10713
  154.3831  135.2753  155.2199 H   0  0  0  0  0  0  0  0  0  0  0  0  # atno 10763 bound_to 10752
  154.4297  135.5980  153.6065 H   0  0  0  0  0  0  0  0  0  0  0  0  # atno 10764 bound_to 10752
  152.9834  135.5992  154.4077 H   0  0  0  0  0  0  0  0  0  0  0  0  # atno 10765 bound_to 10752
  140.9932  133.6994  156.1887 H   0  0  0  0  0  0  0  0  0  0  0  0  # atno 11005 bound_to 11000
  146.3145  139.7867  142.8994 LP  0  0  0  0  0  0  0  0  0  0  0  0  # atno 17320 bound_to 7965
  145.3500  141.0305  143.3344 LP  0  0  0  0  0  0  0  0  0  0  0  0  # atno 17321 bound_to 7965
  140.2999  143.3268  152.0982 LP  0  0  0  0  0  0  0  0  0  0  0  0  # atno 17342 bound_to 10162
  139.5010  144.6703  151.6258 LP  0  0  0  0  0  0  0  0  0  0  0  0  # atno 17343 bound_to 10162
  156.0990  130.5954  150.9862 LP  0  0  0  0  0  0  0  0  0  0  0  0  # atno 17370 bound_to 10713
  157.6458  131.0904  150.8156 LP  0  0  0  0  0  0  0  0  0  0  0  0  # atno 17371 bound_to 10713
  140.7008  134.4566  157.5586 LP  0  0  0  0  0  0  0  0  0  0  0  0  # atno 17394 bound_to 11000
  139.9002  134.8574  156.1929 LP  0  0  0  0  0  0  0  0  0  0  0  0  # atno 17395 bound_to 11000

$$$$
