#       Name:                AV-unprocessed.smi:3287
#       Creating user name   scv26
#       Creation time:       Fri Mar 27 18:51:49 2020


#       File generated by GOLD software.
#

@<TRIPOS>MOLECULE
AV-unprocessed.smi:3287
    46    47     1
SMALL
NO_CHARGES


@<TRIPOS>ATOM
      1 ****        -3.5677   3.8209  -0.4144 C.3            1 S1                 0.0000
      2 ****        -2.9578   2.4097  -0.4871 C.3            1 S1                 0.0000
      3 ****        -3.0757   1.7195   0.8868 C.3            1 S1                 0.0000
      4 ****        -2.4896   0.3018   0.8703 C.3            1 S1                 0.0000
      5 ****        -1.0191   0.3172   0.4263 C.3            1 S1                 0.0000
      6 ****        -0.4835  -1.0622   0.4228 N.4            1 S1                 1.0000
      7 ****         0.9915  -1.1681   0.3887 C.3            1 S1                 0.0000
      8 ****         1.4555  -2.6284   0.5277 C.3            1 S1                 0.0000
      9 ****         0.9655  -3.3704  -0.5723 O.3            1 S1                 0.0000
     10 ****         2.9702  -2.7120   0.6364 C.ar           1 S1                 0.0000
     11 ****         3.7944  -2.5858  -0.5032 C.ar           1 S1                 0.0000
     12 ****         5.1916  -2.6631  -0.3368 C.ar           1 S1                 0.0000
     13 ****         5.7858  -2.8492   0.8611 N.ar           1 S1                 0.0000
     14 ****         4.9935  -2.9665   1.9478 C.ar           1 S1                 0.0000
     15 ****         3.5867  -2.9043   1.8904 C.ar           1 S1                 0.0000
     16 ****        -0.8994   0.9824  -0.9595 C.3            1 S1                 0.0000
     17 ****        -1.4847   2.4108  -0.9752 C.3            1 S1                 0.0000
     18 ****        -1.3190   3.0263  -2.3763 C.3            1 S1                 0.0000
     19 ****        -2.9762   4.4771   0.2248 H              1 S1                 0.0000
     20 ****        -4.5794   3.7892  -0.0088 H              1 S1                 0.0000
     21 ****        -3.6376   4.2834  -1.3984 H              1 S1                 0.0000
     22 ****        -3.5504   1.8324  -1.1986 H              1 S1                 0.0000
     23 ****        -2.5628   2.3143   1.6440 H              1 S1                 0.0000
     24 ****        -4.1220   1.6726   1.1914 H              1 S1                 0.0000
     25 ****        -2.5770  -0.1396   1.8638 H              1 S1                 0.0000
     26 ****        -3.0774  -0.3265   0.1991 H              1 S1                 0.0000
     27 ****        -0.4523   0.9006   1.1538 H              1 S1                 0.0000
     28 ****        -0.7964  -1.5126   1.2708 H              1 S1                 0.0000
     29 ****         1.3785  -0.7390  -0.5357 H              1 S1                 0.0000
     30 ****         1.4007  -0.5792   1.2110 H              1 S1                 0.0000
     31 ****         1.0215  -3.0601   1.4309 H              1 S1                 0.0000
     32 ****         1.2219  -4.2740  -0.4622 H              1 S1                 0.0000
     33 ****         3.3709  -2.4320  -1.4848 H              1 S1                 0.0000
     34 ****         5.8489  -2.5715  -1.1887 H              1 S1                 0.0000
     35 ****         5.4954  -3.1135   2.8927 H              1 S1                 0.0000
     36 ****         3.0005  -3.0020   2.7921 H              1 S1                 0.0000
     37 ****         0.1458   1.0261  -1.2658 H              1 S1                 0.0000
     38 ****        -1.4115   0.3708  -1.7042 H              1 S1                 0.0000
     39 ****        -0.8984   3.0153  -0.2812 H              1 S1                 0.0000
     40 ****        -1.9373   2.5103  -3.1115 H              1 S1                 0.0000
     41 ****        -0.2837   2.9627  -2.7125 H              1 S1                 0.0000
     42 ****        -1.5898   4.0816  -2.3910 H              1 S1                 0.0000
     43 ****        -0.8680  -1.5649  -0.3647 H              1 S1                 0.0000
     44 ****         1.3527  -3.0108  -1.4213 LP             1 S1                 0.0000
     45 ****        -0.0318  -3.3044  -0.6065 LP             1 S1                 0.0000
     46 ****         6.7813  -2.8986   0.9409 LP             1 S1                 0.0000
@<TRIPOS>BOND
    1    1    2 1     
    2    1   19 1     
    3    1   20 1     
    4    1   21 1     
    5    2   17 1     
    6    2    3 1     
    7    2   22 1     
    8    3    4 1     
    9    3   23 1     
   10    3   24 1     
   11    4    5 1     
   12    4   25 1     
   13    4   26 1     
   14    5    6 1     
   15    5   16 1     
   16    5   27 1     
   17    6    7 1     
   18    6   28 1     
   19    6   43 1     
   20    7    8 1     
   21    7   29 1     
   22    7   30 1     
   23    8    9 1     
   24    8   10 1     
   25    8   31 1     
   26    9   32 1     
   27   10   15 ar    
   28   10   11 ar    
   29   11   12 ar    
   30   11   33 1     
   31   12   13 ar    
   32   12   34 1     
   33   13   14 ar    
   34   14   15 ar    
   35   14   35 1     
   36   15   36 1     
   37   16   17 1     
   38   16   37 1     
   39   16   38 1     
   40   17   18 1     
   41   17   39 1     
   42   18   40 1     
   43   18   41 1     
   44   18   42 1     
   45    9   44 1     
   46    9   45 1     
   47   13   46 1     
@<TRIPOS>SUBSTRUCTURE
      1 S1             1
@<TRIPOS>SET
LONE_PAIRS      STATIC     ATOMS    <user>   **** ""
3 44 45 46
DONOR_HYDROGENS      STATIC     ATOMS    <user>   **** ""
3 28 43 32
ATOM$BLUE        STATIC     ATOMS    COLORGROUP SYSTEM
3 44 45 46
ATOM$RED        STATIC     ATOMS    COLORGROUP SYSTEM
3 28 43 32
