AV-unprocessed.smi:45|AV-procd|sdf|407|dock10
  -GOLD-   2262016263D 1   1.00000     0.00000
 Structure written by MMmdl.
 60 63  0  0  0  0  0  0  0  0  1 V2000
  148.9005  143.2896  157.6946 C   0  0  0  0  0  0  0  0  0  0  0  0
  149.4617  142.5269  156.6363 O   0  0  0  0  0  0  0  0  0  0  0  0
  148.6341  141.6710  155.9395 C   0  0  0  0  0  0  0  0  0  0  0  0
  147.2476  141.8986  155.7497 C   0  0  0  0  0  0  0  0  0  0  0  0
  146.4608  140.9757  155.0361 C   0  0  0  0  0  0  0  0  0  0  0  0
  147.0458  139.8138  154.4966 C   0  0  0  0  0  0  0  0  0  0  0  0
  146.1842  138.7930  153.7728 C   0  0  0  0  0  0  0  0  0  0  0  0
  145.2855  138.0566  154.6533 N   0  0  0  0  0  0  0  0  0  0  0  0
  145.5481  136.6829  154.7785 C   0  0  0  0  0  0  0  0  0  0  0  0
  145.3782  135.9231  153.6711 N   0  0  0  0  0  0  0  0  0  0  0  0
  145.6712  134.6207  153.7456 C   0  0  0  0  0  0  0  0  0  0  0  0
  145.5076  133.8732  152.5800 N   0  0  0  0  0  0  0  0  0  0  0  0
  145.6474  132.4214  152.5767 C   0  0  0  0  0  0  0  0  0  0  0  0
  146.1422  132.0505  151.1801 C   0  0  0  0  0  0  0  0  0  0  0  0
  145.5662  133.1591  150.3092 C   0  0  0  0  0  0  0  0  0  0  0  0
  145.6239  134.3961  151.2178 C   0  0  1  0  0  0  0  0  0  0  0  0
  144.5376  135.4354  150.8686 C   0  0  0  0  0  0  0  0  0  0  0  0
  144.7876  135.9884  149.5939 O   0  0  0  0  0  0  0  0  0  0  0  0
  146.1055  133.9870  154.8394 N   0  0  0  0  0  0  0  0  0  0  0  0
  146.2809  134.7244  155.9554 C   0  0  0  0  0  0  0  0  0  0  0  0
  146.0291  136.1150  155.9887 C   0  0  0  0  0  0  0  0  0  0  0  0
  146.2694  136.9160  157.2400 C   0  0  0  0  0  0  0  0  0  0  0  0
  145.7558  138.0234  157.4014 O   0  0  0  0  0  0  0  0  0  0  0  0
  147.1196  136.3587  158.1170 N   0  0  0  0  0  0  0  0  0  0  0  0
  147.5866  136.9883  159.3459 C   0  0  0  0  0  0  0  0  0  0  0  0
  146.8571  136.4664  160.5711 C   0  0  0  0  0  0  0  0  0  0  0  0
  146.9486  135.1537  160.8094 N   0  0  0  0  0  0  0  0  0  0  0  0
  146.2913  134.6818  161.8907 C   0  0  0  0  0  0  0  0  0  0  0  0
  145.5504  135.5309  162.7372 C   0  0  0  0  0  0  0  0  0  0  0  0
  145.5331  136.8968  162.3901 C   0  0  0  0  0  0  0  0  0  0  0  0
  146.1876  137.3623  161.3043 N   0  0  0  0  0  0  0  0  0  0  0  0
  148.4240  139.5833  154.6727 C   0  0  0  0  0  0  0  0  0  0  0  0
  149.2115  140.5035  155.3912 C   0  0  0  0  0  0  0  0  0  0  0  0
  150.8944  140.1800  155.6067 Cl  0  0  0  0  0  0  0  0  0  0  0  0
  146.6104  134.8538  151.1293 H   0  0  0  0  0  0  0  0  0  0  0  0
  149.6798  143.9010  158.1491 H   0  0  0  0  0  0  0  0  0  0  0  0
  148.4900  142.6463  158.4742 H   0  0  0  0  0  0  0  0  0  0  0  0
  148.1220  143.9634  157.3339 H   0  0  0  0  0  0  0  0  0  0  0  0
  146.7605  142.7741  156.1472 H   0  0  0  0  0  0  0  0  0  0  0  0
  145.4026  141.1564  154.9147 H   0  0  0  0  0  0  0  0  0  0  0  0
  145.5820  139.3141  153.0284 H   0  0  0  0  0  0  0  0  0  0  0  0
  146.8139  138.0925  153.2226 H   0  0  0  0  0  0  0  0  0  0  0  0
  145.1179  138.5203  155.5354 H   0  0  0  0  0  0  0  0  0  0  0  0
  146.3413  132.0722  153.3424 H   0  0  0  0  0  0  0  0  0  0  0  0
  144.6717  131.9755  152.7731 H   0  0  0  0  0  0  0  0  0  0  0  0
  147.2319  132.0885  151.1508 H   0  0  0  0  0  0  0  0  0  0  0  0
  145.8286  131.0538  150.8691 H   0  0  0  0  0  0  0  0  0  0  0  0
  146.1140  133.2944  149.3762 H   0  0  0  0  0  0  0  0  0  0  0  0
  144.5322  132.9176  150.0581 H   0  0  0  0  0  0  0  0  0  0  0  0
  143.5463  134.9812  150.8766 H   0  0  0  0  0  0  0  0  0  0  0  0
  144.5163  136.2540  151.5865 H   0  0  0  0  0  0  0  0  0  0  0  0
  144.4518  136.8716  149.5788 H   0  0  0  0  0  0  0  0  0  0  0  0
  146.6393  134.1934  156.8253 H   0  0  0  0  0  0  0  0  0  0  0  0
  147.5130  135.4560  157.8947 H   0  0  0  0  0  0  0  0  0  0  0  0
  148.6632  136.8547  159.4679 H   0  0  0  0  0  0  0  0  0  0  0  0
  147.4257  138.0636  159.2599 H   0  0  0  0  0  0  0  0  0  0  0  0
  146.3622  133.6220  162.0858 H   0  0  0  0  0  0  0  0  0  0  0  0
  145.0282  135.1565  163.6049 H   0  0  0  0  0  0  0  0  0  0  0  0
  144.9931  137.6179  162.9856 H   0  0  0  0  0  0  0  0  0  0  0  0
  148.8776  138.6882  154.2726 H   0  0  0  0  0  0  0  0  0  0  0  0
  1  2  1  0  0  0  0
  1 36  1  0  0  0  0
  1 37  1  0  0  0  0
  1 38  1  0  0  0  0
  2  3  1  0  0  0  0
  3 33  1  0  0  0  0
  3  4  2  0  0  0  0
  4  5  1  0  0  0  0
  4 39  1  0  0  0  0
  5  6  2  0  0  0  0
  5 40  1  0  0  0  0
  6  7  1  0  0  0  0
  6 32  1  0  0  0  0
  7  8  1  0  0  0  0
  7 41  1  0  0  0  0
  7 42  1  0  0  0  0
  8  9  1  0  0  0  0
  8 43  1  0  0  0  0
  9 21  1  0  0  0  0
  9 10  2  0  0  0  0
 10 11  1  0  0  0  0
 11 12  1  0  0  0  0
 11 19  2  0  0  0  0
 12 16  1  0  0  0  0
 12 13  1  0  0  0  0
 13 14  1  0  0  0  0
 13 44  1  0  0  0  0
 13 45  1  0  0  0  0
 14 15  1  0  0  0  0
 14 46  1  0  0  0  0
 14 47  1  0  0  0  0
 15 16  1  0  0  0  0
 15 48  1  0  0  0  0
 15 49  1  0  0  0  0
 16 35  1  0  0  0  0
 16 17  1  0  0  0  0
 17 18  1  0  0  0  0
 17 50  1  0  0  0  0
 17 51  1  0  0  0  0
 18 52  1  0  0  0  0
 19 20  1  0  0  0  0
 20 21  2  0  0  0  0
 20 53  1  0  0  0  0
 21 22  1  0  0  0  0
 22 23  2  0  0  0  0
 22 24  1  0  0  0  0
 24 25  1  0  0  0  0
 24 54  1  0  0  0  0
 25 26  1  0  0  0  0
 25 55  1  0  0  0  0
 25 56  1  0  0  0  0
 26 31  1  0  0  0  0
 26 27  2  0  0  0  0
 27 28  1  0  0  0  0
 28 29  2  0  0  0  0
 28 57  1  0  0  0  0
 29 30  1  0  0  0  0
 29 58  1  0  0  0  0
 30 31  2  0  0  0  0
 30 59  1  0  0  0  0
 32 33  2  0  0  0  0
 32 60  1  0  0  0  0
 33 34  1  0  0  0  0
M  END
> <s_m_source_file>
AV-unprocessed.smi

> <i_m_source_file_index>
45

> <i_lp_mmshare_version>
43012

> <i_f3d_flags>
0

> <s_epik_input>
W0NIM11PYzFbY0hdW2NIXWMoW2NIXWMxQ2wpW0NIMl1bTkhdYzJuYyhOM1tDSDJdW0NIMl1bQ0gyXVtDQEhdM1tDSDJdW09IXSluW2NIXWMyQyg9TylbTkhdW0NIMl1jNG5bY0hdW2NIXVtjSF1uNA==

> <s_epik_cmdline>
J2VwaWtfcHl0aG9uJywgJy1waCcsICc3LjAnLCAnLXRuJywgJzgnLCAnLW1hJywgJzIwMCcsICctbWV0YWxfYmluZGluZycsICctaW1hZScsICc8aW5maWxlLm1hZT4nLCAnLW9tYWUnLCAnPG91dGZpbGUubWFlPic=

> <r_lp_tautomer_probability>
1

> <r_epik_Ionization_Penalty>
0.0522664

> <r_epik_Ionization_Penalty_Charging>
0

> <r_epik_Ionization_Penalty_Neutral>
0.0522664

> <r_epik_State_Penalty>
0.0369431

> <r_epik_Charging_Adjusted_Penalty>
0.0369431

> <i_epik_Tot_Q>
0

> <i_epik_Tot_abs_Q>
0

> <r_epik_Metal_State_Penalty>
0.0404664

> <b_epik_Metal_Only>
0

> <s_epik_Chemistry_Notes>
This compound contains an electron-poor aromatic ring that is susceptible to covalent hydrolysis at low pH, typically resulting in measured values for nitrogen ring protonation that are around two units higher than predicted values.

> <s_lp_Force_Field>
OPLS_2005

> <r_lp_Energy>
30.7934

> <b_lp_Chiralities_Consistent>
1

> <s_lp_Variant>
AV-unprocessed.smi:45-1

> <Gold.Version>
5.8.1

> <Gold.Id.Protein>
6NUR|6NUR_protein|mol2

> <Gold.PLP.Fitness>
58.3742

> <Gold.PLP.PLP>
-52.1866

> <Gold.PLP.part.hbond>
-4.0000

> <Gold.PLP.part.metal>
0.0000

> <Gold.PLP.part.buried>
-6.0665

> <Gold.PLP.part.nonpolar>
-42.8701

> <Gold.PLP.part.repulsive>
0.2264

> <Gold.PLP.ligand.clash>
0.0000

> <Gold.PLP.ligand.torsion>
1.4095

> <Gold.PLP.Chemscore.Hbond>
2.8880

> <Gold.PLP.Chemscore.CHOScore>
0.0000

> <Gold.PLP.Chemscore.Metal>
0.0000

> <Gold.Chemscore.Hbonds>
donor molecule, donor type, donor heavy atom, donor atom, acceptor molecule, acceptor atom, score
      L1  H    18    52       P1 10171  1.00
      P1  H  6934  6947       L1    31  1.00

> <Gold.PLP.Chemscore.Internal.Correction>
0.3426

> <Gold.Rescore>
     Score         DG    S(hbond)    S(metal)    S(lipo)     H(rot)  DE(clash)    DE(int)     intcor
     11.49     -16.67       1.67        0.00     117.01       3.16       1.36       3.81       ----

> <Gold.Chemscore.Fitness>
11.4948

> <Gold.Chemscore.DG>
-16.6655

> <Gold.Chemscore.ZeroCoef>
-5.4800

> <Gold.Chemscore.Hbond>
1.6698

> <Gold.Chemscore.Metal>
0.0000

> <Gold.Chemscore.Lipo>
117.0136

> <Gold.Chemscore.Internal_Hbond>
0.0000

> <Gold.Chemscore.DEClash>
1.3563

> <Gold.Chemscore.DEInternal>
3.8143

> <Gold.Chemscore.Rot>
3.1571

> <Gold.Chemscore.Internal.Correction>
   9.000000E+99

> <Gold.Chemscore.Hbonds>
donor molecule, donor type, donor heavy atom, donor atom, acceptor molecule, acceptor atom, score
      L1  H    18    52       P1 10171  1.00
      P1  H  6934  6947       L1    31  0.39

> <Gold.Chemscore.Hbond.Weighted>
-5.5770

> <Gold.Chemscore.Metal.Weighted>
-0.0000

> <Gold.Chemscore.Lipo.Weighted>
-13.6906

> <Gold.Chemscore.Internal_Hbond.Weighted>
0.0000

> <Gold.Chemscore.DEClash.Weighted>
1.3563

> <Gold.Chemscore.DEInternal.Weighted>
3.8143

> <Gold.Chemscore.Rot.Weighted>
8.0822

> <Gold.Chemscore.Internal.Correction.Weighted>
   9.000000E+99

> <Gold.Protein.RotatedTorsions>
[ 6907 6896 6895 6894 ] final  171.47 input  -60.11 | X-H torsion
[ 7974 7965 7964 7962 ] final -101.44 input  175.53 | X-H torsion
[ 8008 7997 7996 7995 ] final  -94.10 input   59.86 | X-H torsion
[ 10167 10162 10161 10158 ] final  165.55 input  -65.29 | X-H torsion
[ 10718 10713 10712 10709 ] final  -38.95 input   66.30 | X-H torsion
[ 10763 10752 10751 10750 ] final  -22.21 input  -60.55 | X-H torsion
[ 11005 11000 10999 10996 ] final  176.05 input  -57.11 | X-H torsion

> <Gold.Protein.ActiveResidues>
 VAL166  LYS551  ARG553  GLY616  TRP617  ASP618  TYR619  PRO620  LYS621  CYS622 
 ASP623  PHE694  ASN695  SER759  ASP760  ASP761  ALA762  ILE779  LEU786  VAL792 
 PHE793  MET794  SER795  GLU796  ALA797  LYS798  CYS799  TRP800  GLU811  SER814 

> <Gold.Protein.RotatedAtoms>
  151.7997  133.3368  159.3523 H   0  0  0  0  0  0  0  0  0  0  0  0  # atno 6907 bound_to 6896
  150.7363  134.5765  159.5926 H   0  0  0  0  0  0  0  0  0  0  0  0  # atno 6908 bound_to 6896
  152.3152  134.7450  160.0378 H   0  0  0  0  0  0  0  0  0  0  0  0  # atno 6909 bound_to 6896
  145.2816  140.9328  143.2928 H   0  0  0  0  0  0  0  0  0  0  0  0  # atno 7974 bound_to 7965
  154.7441  140.0492  157.0837 H   0  0  0  0  0  0  0  0  0  0  0  0  # atno 8008 bound_to 7997
  155.0140  140.3139  155.4799 H   0  0  0  0  0  0  0  0  0  0  0  0  # atno 8009 bound_to 7997
  156.2871  140.2179  156.5256 H   0  0  0  0  0  0  0  0  0  0  0  0  # atno 8010 bound_to 7997
  139.4908  144.4121  151.9287 H   0  0  0  0  0  0  0  0  0  0  0  0  # atno 10167 bound_to 10162
  156.2979  130.4236  149.8172 H   0  0  0  0  0  0  0  0  0  0  0  0  # atno 10718 bound_to 10713
  153.6483  135.6982  153.5217 H   0  0  0  0  0  0  0  0  0  0  0  0  # atno 10763 bound_to 10752
  153.2727  135.4210  155.1002 H   0  0  0  0  0  0  0  0  0  0  0  0  # atno 10764 bound_to 10752
  154.8482  135.3582  154.6028 H   0  0  0  0  0  0  0  0  0  0  0  0  # atno 10765 bound_to 10752
  140.3689  134.7047  157.4379 H   0  0  0  0  0  0  0  0  0  0  0  0  # atno 11005 bound_to 11000
  144.9248  139.4368  143.6523 LP  0  0  0  0  0  0  0  0  0  0  0  0  # atno 17320 bound_to 7965
  146.3214  139.8128  142.8942 LP  0  0  0  0  0  0  0  0  0  0  0  0  # atno 17321 bound_to 7965
  140.3562  144.3028  150.5941 LP  0  0  0  0  0  0  0  0  0  0  0  0  # atno 17342 bound_to 10162
  140.5442  143.2218  151.8034 LP  0  0  0  0  0  0  0  0  0  0  0  0  # atno 17343 bound_to 10162
  156.5561  130.8363  151.3314 LP  0  0  0  0  0  0  0  0  0  0  0  0  # atno 17370 bound_to 10713
  157.7360  130.9772  150.2113 LP  0  0  0  0  0  0  0  0  0  0  0  0  # atno 17371 bound_to 10713
  140.0568  134.6053  155.8796 LP  0  0  0  0  0  0  0  0  0  0  0  0  # atno 17394 bound_to 11000
  141.1961  133.6590  156.5674 LP  0  0  0  0  0  0  0  0  0  0  0  0  # atno 17395 bound_to 11000

$$$$
