AV-unprocessed.smi:458|AV-procd|sdf|2622|dock9
  -GOLD-   2262023 23D 1   1.00000     0.00000
 Structure written by MMmdl.
 37 39  0  0  0  0  0  0  0  0  2 V2000
  150.4499  140.8107  154.9630 O   0  0  0  0  0  0  0  0  0  0  0  0
  150.1790  140.4400  156.2966 C   0  0  0  0  0  0  0  0  0  0  0  0
  150.6774  141.4506  157.2764 C   0  0  0  0  0  0  0  0  0  0  0  0
  150.5588  142.8021  157.1500 N   0  3  0  0  0  0  0  0  0  0  0  0
  151.1595  143.4338  158.2387 C   0  0  0  0  0  0  0  0  0  0  0  0
  151.2948  144.7845  158.5442 C   0  0  0  0  0  0  0  0  0  0  0  0
  151.9750  145.0980  159.7389 C   0  0  0  0  0  0  0  0  0  0  0  0
  152.4890  144.0878  160.5771 C   0  0  0  0  0  0  0  0  0  0  0  0
  152.3424  142.7220  160.2582 C   0  0  0  0  0  0  0  0  0  0  0  0
  151.6688  142.4184  159.0744 C   0  0  0  0  0  0  0  0  0  0  0  0
  151.3491  141.2101  158.4402 N   0  0  0  0  0  0  0  0  0  0  0  0
  151.7617  139.9338  159.0493 C   0  0  0  0  0  0  0  0  0  0  0  0
  153.2944  139.7735  159.1013 C   0  0  2  0  0  0  0  0  0  0  0  0
  153.7044  139.0778  157.9423 O   0  0  0  0  0  0  0  0  0  0  0  0
  153.7628  139.0944  160.3809 C   0  0  0  0  0  0  0  0  0  0  0  0
  154.5440  139.8132  161.3114 C   0  0  0  0  0  0  0  0  0  0  0  0
  154.9548  139.2056  162.5136 C   0  0  0  0  0  0  0  0  0  0  0  0
  154.5884  137.8750  162.7917 C   0  0  0  0  0  0  0  0  0  0  0  0
  154.9804  137.2920  163.9491 F   0  0  0  0  0  0  0  0  0  0  0  0
  153.8114  137.1518  161.8666 C   0  0  0  0  0  0  0  0  0  0  0  0
  153.3992  137.7593  160.6647 C   0  0  0  0  0  0  0  0  0  0  0  0
  149.7265  141.3273  154.6414 H   0  0  0  0  0  0  0  0  0  0  0  0
  149.1026  140.3189  156.4197 H   0  0  0  0  0  0  0  0  0  0  0  0
  150.6336  139.4705  156.4983 H   0  0  0  0  0  0  0  0  0  0  0  0
  150.9036  145.5601  157.9024 H   0  0  0  0  0  0  0  0  0  0  0  0
  152.1062  146.1337  160.0172 H   0  0  0  0  0  0  0  0  0  0  0  0
  153.0073  144.3656  161.4836 H   0  0  0  0  0  0  0  0  0  0  0  0
  152.7461  141.9610  160.9091 H   0  0  0  0  0  0  0  0  0  0  0  0
  151.3171  139.8346  160.0392 H   0  0  0  0  0  0  0  0  0  0  0  0
  151.3235  139.1378  158.4465 H   0  0  0  0  0  0  0  0  0  0  0  0
  153.7565  140.7595  159.0440 H   0  0  0  0  0  0  0  0  0  0  0  0
  153.8824  138.1801  158.1783 H   0  0  0  0  0  0  0  0  0  0  0  0
  154.8218  140.8377  161.1102 H   0  0  0  0  0  0  0  0  0  0  0  0
  155.5494  139.7617  163.2234 H   0  0  0  0  0  0  0  0  0  0  0  0
  153.5286  136.1315  162.0801 H   0  0  0  0  0  0  0  0  0  0  0  0
  152.7943  137.1996  159.9662 H   0  0  0  0  0  0  0  0  0  0  0  0
  150.1052  143.2567  156.3680 H   0  0  0  0  0  0  0  0  0  0  0  0
  1  2  1  0  0  0  0
  1 22  1  0  0  0  0
  2  3  1  0  0  0  0
  2 23  1  0  0  0  0
  2 24  1  0  0  0  0
  3 11  1  0  0  0  0
  3  4  2  0  0  0  0
  4  5  1  0  0  0  0
  4 37  1  0  0  0  0
  5 10  2  0  0  0  0
  5  6  1  0  0  0  0
  6  7  2  0  0  0  0
  6 25  1  0  0  0  0
  7  8  1  0  0  0  0
  7 26  1  0  0  0  0
  8  9  2  0  0  0  0
  8 27  1  0  0  0  0
  9 10  1  0  0  0  0
  9 28  1  0  0  0  0
 10 11  1  0  0  0  0
 11 12  1  0  0  0  0
 12 13  1  0  0  0  0
 12 29  1  0  0  0  0
 12 30  1  0  0  0  0
 13 14  1  0  0  0  0
 13 15  1  0  0  0  0
 13 31  1  0  0  0  0
 14 32  1  0  0  0  0
 15 21  1  0  0  0  0
 15 16  2  0  0  0  0
 16 17  1  0  0  0  0
 16 33  1  0  0  0  0
 17 18  2  0  0  0  0
 17 34  1  0  0  0  0
 18 19  1  0  0  0  0
 18 20  1  0  0  0  0
 20 21  2  0  0  0  0
 20 35  1  0  0  0  0
 21 36  1  0  0  0  0
M  CHG  1   4   1
M  END
> <s_m_source_file>
AV-unprocessed.smi

> <i_m_source_file_index>
458

> <i_lp_mmshare_version>
43012

> <i_f3d_flags>
0

> <s_epik_input>
W2NIXTFbY0hdW2NIXVtjSF1jKGMxMiluKGMobjIpW0NIMl1bT0hdKVtDSDJdW0NASF0oW09IXSljM1tjSF1bY0hdYyhGKVtjSF1bY0hdMw==

> <s_epik_cmdline>
J2VwaWtfcHl0aG9uJywgJy1waCcsICc3LjAnLCAnLXRuJywgJzgnLCAnLW1hJywgJzIwMCcsICctbWV0YWxfYmluZGluZycsICctaW1hZScsICc8aW5maWxlLm1hZT4nLCAnLW9tYWUnLCAnPG91dGZpbGUubWFlPic=

> <r_epik_Ionization_Penalty>
1.35643

> <r_epik_Ionization_Penalty_Charging>
1.35557

> <r_epik_Ionization_Penalty_Neutral>
0.00085758

> <r_epik_State_Penalty>
1.43401

> <r_epik_Charging_Adjusted_Penalty>
2.78958

> <i_epik_Tot_Q>
1

> <i_epik_Tot_abs_Q>
1

> <r_epik_Metal_State_Penalty>
5.47166

> <b_epik_Metal_Only>
0

> <s_lp_Force_Field>
OPLS_2005

> <r_lp_Energy>
15.2314

> <b_lp_Chiralities_Consistent>
1

> <s_lp_Variant>
AV-unprocessed.smi:458-3

> <Gold.Version>
5.8.1

> <Gold.Id.Protein>
6NUR|6NUR_protein|mol2

> <Gold.PLP.Fitness>
56.1630

> <Gold.PLP.PLP>
-46.2008

> <Gold.PLP.part.hbond>
-3.0000

> <Gold.PLP.part.metal>
0.0000

> <Gold.PLP.part.buried>
-5.8932

> <Gold.PLP.part.nonpolar>
-37.3484

> <Gold.PLP.part.repulsive>
0.0132

> <Gold.PLP.ligand.clash>
0.0000

> <Gold.PLP.ligand.torsion>
0.7587

> <Gold.PLP.Chemscore.Hbond>
3.8160

> <Gold.PLP.Chemscore.CHOScore>
0.0000

> <Gold.PLP.Chemscore.Metal>
0.0000

> <Gold.Chemscore.Hbonds>
donor molecule, donor type, donor heavy atom, donor atom, acceptor molecule, acceptor atom, score
      L1  H     4    37       P1  8028  1.98
      P1  H  7989  7998       L1     1  0.83
      P1  H  7997  8010       L1    14  1.00

> <Gold.PLP.Chemscore.Internal.Correction>
0.0317

> <Gold.Rescore>
     Score         DG    S(hbond)    S(metal)    S(lipo)     H(rot)  DE(clash)    DE(int)     intcor
     20.19     -21.01       2.40        0.00     125.96       2.82       0.03       0.79       ----

> <Gold.Chemscore.Fitness>
20.1921

> <Gold.Chemscore.DG>
-21.0139

> <Gold.Chemscore.ZeroCoef>
-5.4800

> <Gold.Chemscore.Hbond>
2.4015

> <Gold.Chemscore.Metal>
0.0000

> <Gold.Chemscore.Lipo>
125.9561

> <Gold.Chemscore.Internal_Hbond>
0.0000

> <Gold.Chemscore.DEClash>
0.0335

> <Gold.Chemscore.DEInternal>
0.7884

> <Gold.Chemscore.Rot>
2.8219

> <Gold.Chemscore.Internal.Correction>
   9.000000E+99

> <Gold.Chemscore.Hbonds>
donor molecule, donor type, donor heavy atom, donor atom, acceptor molecule, acceptor atom, score
      L1  H     4    37       P1  8028  0.87
      P1  H  7989  7998       L1     1  0.24
      P1  H  7997  8010       L1    14  0.64

> <Gold.Chemscore.Hbond.Weighted>
-8.0211

> <Gold.Chemscore.Metal.Weighted>
-0.0000

> <Gold.Chemscore.Lipo.Weighted>
-14.7369

> <Gold.Chemscore.Internal_Hbond.Weighted>
0.0000

> <Gold.Chemscore.DEClash.Weighted>
0.0335

> <Gold.Chemscore.DEInternal.Weighted>
0.7884

> <Gold.Chemscore.Rot.Weighted>
7.2240

> <Gold.Chemscore.Internal.Correction.Weighted>
   9.000000E+99

> <Gold.Protein.RotatedTorsions>
[ 6907 6896 6895 6894 ] final  143.44 input  -60.11 | X-H torsion
[ 7974 7965 7964 7962 ] final   55.96 input  175.53 | X-H torsion
[ 8008 7997 7996 7995 ] final   22.24 input   59.86 | X-H torsion
[ 10167 10162 10161 10158 ] final   56.52 input  -65.29 | X-H torsion
[ 10718 10713 10712 10709 ] final -100.37 input   66.30 | X-H torsion
[ 10763 10752 10751 10750 ] final -118.76 input  -60.55 | X-H torsion
[ 11005 11000 10999 10996 ] final -149.86 input  -57.11 | X-H torsion

> <Gold.Protein.ActiveResidues>
 VAL166  LYS551  ARG553  GLY616  TRP617  ASP618  TYR619  PRO620  LYS621  CYS622 
 ASP623  PHE694  ASN695  SER759  ASP760  ASP761  ALA762  ILE779  LEU786  VAL792 
 PHE793  MET794  SER795  GLU796  ALA797  LYS798  CYS799  TRP800  GLU811  SER814 

> <Gold.Protein.RotatedAtoms>
  152.2062  133.4877  159.5085 H   0  0  0  0  0  0  0  0  0  0  0  0  # atno 6907 bound_to 6896
  150.6980  134.1526  159.4155 H   0  0  0  0  0  0  0  0  0  0  0  0  # atno 6908 bound_to 6896
  151.9444  135.0198  160.0588 H   0  0  0  0  0  0  0  0  0  0  0  0  # atno 6909 bound_to 6896
  145.9448  139.3920  143.0341 H   0  0  0  0  0  0  0  0  0  0  0  0  # atno 7974 bound_to 7965
  154.9627  140.3080  155.5023 H   0  0  0  0  0  0  0  0  0  0  0  0  # atno 8008 bound_to 7997
  156.2975  140.2298  156.4653 H   0  0  0  0  0  0  0  0  0  0  0  0  # atno 8009 bound_to 7997
  154.7950  140.0437  157.1218 H   0  0  0  0  0  0  0  0  0  0  0  0  # atno 8010 bound_to 7997
  140.2078  144.3920  150.6501 H   0  0  0  0  0  0  0  0  0  0  0  0  # atno 10167 bound_to 10162
  156.0161  130.5325  150.6808 H   0  0  0  0  0  0  0  0  0  0  0  0  # atno 10718 bound_to 10713
  154.8597  135.4262  154.2190 H   0  0  0  0  0  0  0  0  0  0  0  0  # atno 10763 bound_to 10752
  153.3199  135.6981  153.7045 H   0  0  0  0  0  0  0  0  0  0  0  0  # atno 10764 bound_to 10752
  153.6104  135.3520  155.2950 H   0  0  0  0  0  0  0  0  0  0  0  0  # atno 10765 bound_to 10752
  140.7463  134.3457  157.5136 H   0  0  0  0  0  0  0  0  0  0  0  0  # atno 11005 bound_to 11000
  145.8250  140.9660  143.0879 LP  0  0  0  0  0  0  0  0  0  0  0  0  # atno 17320 bound_to 7965
  144.6785  140.0090  143.7484 LP  0  0  0  0  0  0  0  0  0  0  0  0  # atno 17321 bound_to 7965
  140.6345  143.2192  151.6425 LP  0  0  0  0  0  0  0  0  0  0  0  0  # atno 17342 bound_to 10162
  139.5191  144.3262  152.0867 LP  0  0  0  0  0  0  0  0  0  0  0  0  # atno 17343 bound_to 10162
  157.4510  131.0872  151.0845 LP  0  0  0  0  0  0  0  0  0  0  0  0  # atno 17370 bound_to 10713
  157.1361  130.6123  149.5542 LP  0  0  0  0  0  0  0  0  0  0  0  0  # atno 17371 bound_to 10713
  139.8796  134.9113  156.3034 LP  0  0  0  0  0  0  0  0  0  0  0  0  # atno 17394 bound_to 11000
  140.9792  133.7278  156.0646 LP  0  0  0  0  0  0  0  0  0  0  0  0  # atno 17395 bound_to 11000

$$$$
