AV-unprocessed.smi:2180|AV-procd|sdf|8860|dock3
  -GOLD-   2272012 53D 1   1.00000     0.00000
 Structure written by MMmdl.
 39 40  0  0  0  0  0  0  0  0  1 V2000
  154.1326  140.7942  160.6330 C   0  0  0  0  0  0  0  0  0  0  0  0
  153.1635  141.8486  160.1862 C   0  0  0  0  0  0  0  0  0  0  0  0
  152.7519  143.0204  160.8807 C   0  0  0  0  0  0  0  0  0  0  0  0
  151.8726  143.6269  160.0286 C   0  0  0  0  0  0  0  0  0  0  0  0
  151.1037  144.8984  160.1809 C   0  0  0  0  0  0  0  0  0  0  0  0
  151.7915  142.8290  158.9011 N   0  0  0  0  0  0  0  0  0  0  0  0
  151.0106  143.0281  157.6889 C   0  0  0  0  0  0  0  0  0  0  0  0
  150.4035  141.7150  157.1898 C   0  0  0  0  0  0  0  0  0  0  0  0
  150.7532  140.6459  157.6896 O   0  0  0  0  0  0  0  0  0  0  0  0
  149.4999  141.8101  156.2006 N   0  0  0  0  0  0  0  0  0  0  0  0
  148.7967  140.6905  155.5730 C   0  0  1  0  0  0  0  0  0  0  0  0
  147.8618  141.2826  154.4938 C   0  0  0  0  0  0  0  0  0  0  0  0
  146.6912  140.3606  154.1114 C   0  0  0  0  0  0  0  0  0  0  0  0
  147.0978  139.0461  153.4286 C   0  0  0  0  0  0  0  0  0  0  0  0
  147.9601  138.1299  154.3134 C   0  0  0  0  0  0  0  0  0  0  0  0
  149.3461  138.5748  154.3792 N   0  0  0  0  0  0  0  0  0  0  0  0
  149.8006  139.7235  154.9029 C   0  0  0  0  0  0  0  0  0  0  0  0
  150.9986  140.0007  154.8453 O   0  0  0  0  0  0  0  0  0  0  0  0
  152.5835  141.7387  159.0027 N   0  0  0  0  0  0  0  0  0  0  0  0
  154.4388  140.9529  161.6671 H   0  0  0  0  0  0  0  0  0  0  0  0
  155.0314  140.8025  160.0159 H   0  0  0  0  0  0  0  0  0  0  0  0
  153.6912  139.7994  160.5672 H   0  0  0  0  0  0  0  0  0  0  0  0
  153.0592  143.3654  161.8569 H   0  0  0  0  0  0  0  0  0  0  0  0
  151.2979  145.3575  161.1504 H   0  0  0  0  0  0  0  0  0  0  0  0
  150.0316  144.7168  160.1054 H   0  0  0  0  0  0  0  0  0  0  0  0
  151.3821  145.6164  159.4091 H   0  0  0  0  0  0  0  0  0  0  0  0
  150.2138  143.7482  157.8817 H   0  0  0  0  0  0  0  0  0  0  0  0
  151.6513  143.4628  156.9210 H   0  0  0  0  0  0  0  0  0  0  0  0
  149.2842  142.7326  155.8509 H   0  0  0  0  0  0  0  0  0  0  0  0
  148.2135  140.1621  156.3292 H   0  0  0  0  0  0  0  0  0  0  0  0
  147.4255  142.2085  154.8727 H   0  0  0  0  0  0  0  0  0  0  0  0
  148.4238  141.5700  153.6032 H   0  0  0  0  0  0  0  0  0  0  0  0
  146.0991  140.1398  155.0003 H   0  0  0  0  0  0  0  0  0  0  0  0
  146.0261  140.9061  153.4411 H   0  0  0  0  0  0  0  0  0  0  0  0
  146.1870  138.5093  153.1610 H   0  0  0  0  0  0  0  0  0  0  0  0
  147.6099  139.2527  152.4878 H   0  0  0  0  0  0  0  0  0  0  0  0
  147.5393  138.0360  155.3155 H   0  0  0  0  0  0  0  0  0  0  0  0
  147.9667  137.1259  153.8886 H   0  0  0  0  0  0  0  0  0  0  0  0
  150.0302  137.9617  153.9598 H   0  0  0  0  0  0  0  0  0  0  0  0
  1  2  1  0  0  0  0
  1 20  1  0  0  0  0
  1 21  1  0  0  0  0
  1 22  1  0  0  0  0
  2 19  2  0  0  0  0
  2  3  1  0  0  0  0
  3  4  2  0  0  0  0
  3 23  1  0  0  0  0
  4  5  1  0  0  0  0
  4  6  1  0  0  0  0
  5 24  1  0  0  0  0
  5 25  1  0  0  0  0
  5 26  1  0  0  0  0
  6  7  1  0  0  0  0
  6 19  1  0  0  0  0
  7  8  1  0  0  0  0
  7 27  1  0  0  0  0
  7 28  1  0  0  0  0
  8  9  2  0  0  0  0
  8 10  1  0  0  0  0
 10 11  1  0  0  0  0
 10 29  1  0  0  0  0
 11 17  1  0  0  0  0
 11 12  1  0  0  0  0
 11 30  1  0  0  0  0
 12 13  1  0  0  0  0
 12 31  1  0  0  0  0
 12 32  1  0  0  0  0
 13 14  1  0  0  0  0
 13 33  1  0  0  0  0
 13 34  1  0  0  0  0
 14 15  1  0  0  0  0
 14 35  1  0  0  0  0
 14 36  1  0  0  0  0
 15 16  1  0  0  0  0
 15 37  1  0  0  0  0
 15 38  1  0  0  0  0
 16 17  1  0  0  0  0
 16 39  1  0  0  0  0
 17 18  2  0  0  0  0
M  END
> <s_m_source_file>
AV-unprocessed.smi

> <i_m_source_file_index>
2180

> <i_lp_mmshare_version>
43012

> <i_f3d_flags>
0

> <s_epik_input>
W0NIM11jMVtjSF1jKFtDSDNdKW4objEpW0NIMl1DKD1PKVtOSF1bQ0BASF0yW0NIMl1bQ0gyXVtDSDJdW0NIMl1bTkhdQzI9Tw==

> <s_epik_cmdline>
J2VwaWtfcHl0aG9uJywgJy1waCcsICc3LjAnLCAnLXRuJywgJzgnLCAnLW1hJywgJzIwMCcsICctbWV0YWxfYmluZGluZycsICctaW1hZScsICc8aW5maWxlLm1hZT4nLCAnLW9tYWUnLCAnPG91dGZpbGUubWFlPic=

> <r_lp_tautomer_probability>
1

> <r_epik_Ionization_Penalty>
0.000287215

> <r_epik_Ionization_Penalty_Charging>
0

> <r_epik_Ionization_Penalty_Neutral>
0.000287215

> <r_epik_State_Penalty>
-0

> <r_epik_Charging_Adjusted_Penalty>
0

> <i_epik_Tot_Q>
0

> <i_epik_Tot_abs_Q>
0

> <r_epik_Metal_State_Penalty>
-0

> <b_epik_Metal_Only>
0

> <s_lp_Force_Field>
OPLS_2005

> <r_lp_Energy>
9.48422

> <b_lp_Chiralities_Consistent>
1

> <s_lp_Variant>
AV-unprocessed.smi:2180-2

> <Gold.Version>
5.8.1

> <Gold.Id.Protein>
6NUR|6NUR_protein|mol2

> <Gold.PLP.Fitness>
48.9511

> <Gold.PLP.PLP>
-43.7043

> <Gold.PLP.part.hbond>
-2.2033

> <Gold.PLP.part.metal>
0.0000

> <Gold.PLP.part.buried>
-6.8385

> <Gold.PLP.part.nonpolar>
-36.6960

> <Gold.PLP.part.repulsive>
0.2528

> <Gold.PLP.ligand.clash>
0.0000

> <Gold.PLP.ligand.torsion>
0.3661

> <Gold.PLP.Chemscore.Hbond>
1.9920

> <Gold.PLP.Chemscore.CHOScore>
0.0000

> <Gold.PLP.Chemscore.Metal>
0.0000

> <Gold.Chemscore.Hbonds>
donor molecule, donor type, donor heavy atom, donor atom, acceptor molecule, acceptor atom, score
      L1  H    10    29       P1  8028  0.99
      P1  H  7989  7998       L1    18  1.00

> <Gold.PLP.Chemscore.Internal.Correction>
0.0029

> <Gold.Rescore>
     Score         DG    S(hbond)    S(metal)    S(lipo)     H(rot)  DE(clash)    DE(int)     intcor
     16.66     -18.52       1.91        0.00      89.42       1.48       0.00       1.85       ----

> <Gold.Chemscore.Fitness>
16.6639

> <Gold.Chemscore.DG>
-18.5184

> <Gold.Chemscore.ZeroCoef>
-5.4800

> <Gold.Chemscore.Hbond>
1.9089

> <Gold.Chemscore.Metal>
0.0000

> <Gold.Chemscore.Lipo>
89.4156

> <Gold.Chemscore.Internal_Hbond>
0.0000

> <Gold.Chemscore.DEClash>
0.0000

> <Gold.Chemscore.DEInternal>
1.8545

> <Gold.Chemscore.Rot>
1.4840

> <Gold.Chemscore.Internal.Correction>
   9.000000E+99

> <Gold.Chemscore.Hbonds>
donor molecule, donor type, donor heavy atom, donor atom, acceptor molecule, acceptor atom, score
      L1  H    10    29       P1  8028  0.92
      P1  H  7989  7998       L1    18  0.98

> <Gold.Chemscore.Hbond.Weighted>
-6.3759

> <Gold.Chemscore.Metal.Weighted>
-0.0000

> <Gold.Chemscore.Lipo.Weighted>
-10.4616

> <Gold.Chemscore.Internal_Hbond.Weighted>
0.0000

> <Gold.Chemscore.DEClash.Weighted>
0.0000

> <Gold.Chemscore.DEInternal.Weighted>
1.8545

> <Gold.Chemscore.Rot.Weighted>
3.7991

> <Gold.Chemscore.Internal.Correction.Weighted>
   9.000000E+99

> <Gold.Protein.RotatedTorsions>
[ 6907 6896 6895 6894 ] final  121.85 input  -60.11 | X-H torsion
[ 7974 7965 7964 7962 ] final  158.77 input  175.53 | X-H torsion
[ 8008 7997 7996 7995 ] final  154.22 input   59.86 | X-H torsion
[ 10167 10162 10161 10158 ] final    3.30 input  -65.29 | X-H torsion
[ 10718 10713 10712 10709 ] final   72.96 input   66.30 | X-H torsion
[ 10763 10752 10751 10750 ] final  105.46 input  -60.55 | X-H torsion
[ 11005 11000 10999 10996 ] final  170.63 input  -57.11 | X-H torsion

> <Gold.Protein.ActiveResidues>
 VAL166  LYS551  ARG553  GLY616  TRP617  ASP618  TYR619  PRO620  LYS621  CYS622 
 ASP623  PHE694  ASN695  SER759  ASP760  ASP761  ALA762  ILE779  LEU786  VAL792 
 PHE793  MET794  SER795  GLU796  ALA797  LYS798  CYS799  TRP800  GLU811  SER814 

> <Gold.Protein.RotatedAtoms>
  152.4289  133.7244  159.6551 H   0  0  0  0  0  0  0  0  0  0  0  0  # atno 6907 bound_to 6896
  150.8167  133.8313  159.3163 H   0  0  0  0  0  0  0  0  0  0  0  0  # atno 6908 bound_to 6896
  151.6007  135.1049  160.0111 H   0  0  0  0  0  0  0  0  0  0  0  0  # atno 6909 bound_to 6896
  144.7827  139.7524  143.6253 H   0  0  0  0  0  0  0  0  0  0  0  0  # atno 7974 bound_to 7965
  156.2542  140.1972  156.6613 H   0  0  0  0  0  0  0  0  0  0  0  0  # atno 8008 bound_to 7997
  154.6462  140.0577  156.9929 H   0  0  0  0  0  0  0  0  0  0  0  0  # atno 8009 bound_to 7997
  155.1486  140.3249  155.4439 H   0  0  0  0  0  0  0  0  0  0  0  0  # atno 8010 bound_to 7997
  140.6593  143.7347  150.7709 H   0  0  0  0  0  0  0  0  0  0  0  0  # atno 10167 bound_to 10162
  157.6526  130.9605  150.1003 H   0  0  0  0  0  0  0  0  0  0  0  0  # atno 10718 bound_to 10713
  153.3797  135.3909  155.1848 H   0  0  0  0  0  0  0  0  0  0  0  0  # atno 10763 bound_to 10752
  154.8706  135.3722  154.4873 H   0  0  0  0  0  0  0  0  0  0  0  0  # atno 10764 bound_to 10752
  153.5349  135.7085  153.5726 H   0  0  0  0  0  0  0  0  0  0  0  0  # atno 10765 bound_to 10752
  140.3103  134.7522  157.3986 H   0  0  0  0  0  0  0  0  0  0  0  0  # atno 11005 bound_to 11000
  146.2044  139.5358  142.9722 LP  0  0  0  0  0  0  0  0  0  0  0  0  # atno 17320 bound_to 7965
  145.6006  141.0356  143.2020 LP  0  0  0  0  0  0  0  0  0  0  0  0  # atno 17321 bound_to 7965
  140.1012  143.4786  152.2424 LP  0  0  0  0  0  0  0  0  0  0  0  0  # atno 17342 bound_to 10162
  139.5822  144.7515  151.3610 LP  0  0  0  0  0  0  0  0  0  0  0  0  # atno 17343 bound_to 10162
  156.1927  130.3655  149.8889 LP  0  0  0  0  0  0  0  0  0  0  0  0  # atno 17370 bound_to 10713
  156.6813  130.8859  151.3576 LP  0  0  0  0  0  0  0  0  0  0  0  0  # atno 17371 bound_to 10713
  140.1030  134.5447  155.8335 LP  0  0  0  0  0  0  0  0  0  0  0  0  # atno 17394 bound_to 11000
  141.2109  133.6700  156.6546 LP  0  0  0  0  0  0  0  0  0  0  0  0  # atno 17395 bound_to 11000

$$$$
