AV-unprocessed.smi:632|AV-procd|sdf|3129|dock1
  -GOLD-   22720 0 53D 1   1.00000     0.00000
 Structure written by MMmdl.
 41 42  0  0  0  0  0  0  0  0  2 V2000
  150.2541  143.8523  159.1528 C   0  0  0  0  0  0  0  0  0  0  0  0
  151.6965  143.3276  159.0162 C   0  0  0  0  0  0  0  0  0  0  0  0
  152.5804  144.5081  158.5564 C   0  0  0  0  0  0  0  0  0  0  0  0
  152.2336  142.8538  160.3812 C   0  0  0  0  0  0  0  0  0  0  0  0
  151.7357  142.1881  158.0243 C   0  0  0  0  0  0  0  0  0  0  0  0
  152.2705  140.9991  158.3279 N   0  0  0  0  0  0  0  0  0  0  0  0
  152.2004  140.0963  157.2776 N   0  0  0  0  0  0  0  0  0  0  0  0
  151.6008  140.5999  156.1909 C   0  0  0  0  0  0  0  0  0  0  0  0
  151.4308  139.8904  155.0630 N   0  5  0  0  0  0  0  0  0  0  0  0
  151.6321  138.5527  155.0694 C   0  0  0  0  0  0  0  0  0  0  0  0
  152.7236  137.9794  155.0995 O   0  0  0  0  0  0  0  0  0  0  0  0
  150.4984  137.8366  155.0429 N   0  0  0  0  0  0  0  0  0  0  0  0
  150.3972  136.3792  155.0529 C   0  0  2  0  0  0  0  0  0  0  0  0
  148.9269  135.9391  154.9081 C   0  0  0  0  0  0  0  0  0  0  0  0
  148.7849  134.4085  154.9825 C   0  0  0  0  0  0  0  0  0  0  0  0
  149.4237  133.8210  156.2556 C   0  0  2  0  0  0  0  0  0  0  0  0
  148.6583  134.1724  157.3916 O   0  0  0  0  0  0  0  0  0  0  0  0
  150.8785  134.2963  156.4322 C   0  0  0  0  0  0  0  0  0  0  0  0
  151.0045  135.8280  156.3554 C   0  0  0  0  0  0  0  0  0  0  0  0
  151.0887  142.2736  156.3858 S   0  0  0  0  0  0  0  0  0  0  0  0
  150.1984  144.6863  159.8529 H   0  0  0  0  0  0  0  0  0  0  0  0
  149.5796  143.0769  159.5177 H   0  0  0  0  0  0  0  0  0  0  0  0
  149.8670  144.1995  158.1939 H   0  0  0  0  0  0  0  0  0  0  0  0
  152.2463  144.9136  157.6003 H   0  0  0  0  0  0  0  0  0  0  0  0
  153.6241  144.2106  158.4470 H   0  0  0  0  0  0  0  0  0  0  0  0
  152.5543  145.3262  159.2772 H   0  0  0  0  0  0  0  0  0  0  0  0
  152.2334  143.6629  161.1122 H   0  0  0  0  0  0  0  0  0  0  0  0
  153.2565  142.4843  160.2978 H   0  0  0  0  0  0  0  0  0  0  0  0
  151.6258  142.0468  160.7921 H   0  0  0  0  0  0  0  0  0  0  0  0
  149.6302  138.3507  155.0161 H   0  0  0  0  0  0  0  0  0  0  0  0
  150.9711  135.9721  154.2182 H   0  0  0  0  0  0  0  0  0  0  0  0
  148.3248  136.4001  155.6924 H   0  0  0  0  0  0  0  0  0  0  0  0
  148.5208  136.2960  153.9610 H   0  0  0  0  0  0  0  0  0  0  0  0
  147.7334  134.1261  154.9208 H   0  0  0  0  0  0  0  0  0  0  0  0
  149.2681  133.9690  154.1089 H   0  0  0  0  0  0  0  0  0  0  0  0
  149.4109  132.7324  156.1902 H   0  0  0  0  0  0  0  0  0  0  0  0
  147.9864  134.7808  157.1245 H   0  0  0  0  0  0  0  0  0  0  0  0
  151.2839  133.9333  157.3773 H   0  0  0  0  0  0  0  0  0  0  0  0
  151.4938  133.8530  155.6482 H   0  0  0  0  0  0  0  0  0  0  0  0
  152.0553  136.1113  156.4253 H   0  0  0  0  0  0  0  0  0  0  0  0
  150.5078  136.2786  157.2161 H   0  0  0  0  0  0  0  0  0  0  0  0
  1  2  1  0  0  0  0
  1 21  1  0  0  0  0
  1 22  1  0  0  0  0
  1 23  1  0  0  0  0
  2  3  1  0  0  0  0
  2  4  1  0  0  0  0
  2  5  1  0  0  0  0
  3 24  1  0  0  0  0
  3 25  1  0  0  0  0
  3 26  1  0  0  0  0
  4 27  1  0  0  0  0
  4 28  1  0  0  0  0
  4 29  1  0  0  0  0
  5 20  1  0  0  0  0
  5  6  2  0  0  0  0
  6  7  1  0  0  0  0
  7  8  2  0  0  0  0
  8  9  1  0  0  0  0
  8 20  1  0  0  0  0
  9 10  1  0  0  0  0
 10 11  2  0  0  0  0
 10 12  1  0  0  0  0
 12 13  1  0  0  0  0
 12 30  1  0  0  0  0
 13 19  1  0  0  0  0
 13 14  1  0  0  0  0
 13 31  1  0  0  0  0
 14 15  1  0  0  0  0
 14 32  1  0  0  0  0
 14 33  1  0  0  0  0
 15 16  1  0  0  0  0
 15 34  1  0  0  0  0
 15 35  1  0  0  0  0
 16 17  1  0  0  0  0
 16 18  1  0  0  0  0
 16 36  1  0  0  0  0
 17 37  1  0  0  0  0
 18 19  1  0  0  0  0
 18 38  1  0  0  0  0
 18 39  1  0  0  0  0
 19 40  1  0  0  0  0
 19 41  1  0  0  0  0
M  CHG  1   9  -1
M  END
> <s_m_source_file>
AV-unprocessed.smi

> <i_m_source_file_index>
632

> <i_lp_mmshare_version>
43012

> <i_f3d_flags>
0

> <s_epik_input>
W0NIM11DKFtDSDNdKShbQ0gzXSljMW5uYyhzMSlbTkhdQyg9TylbTkhdW0NAQEhdMltDSDJdW0NIMl1bQ0BASF0oW09IXSlbQ0gyXVtDSDJdMg==

> <s_epik_cmdline>
J2VwaWtfcHl0aG9uJywgJy1waCcsICc3LjAnLCAnLXRuJywgJzgnLCAnLW1hJywgJzIwMCcsICctbWV0YWxfYmluZGluZycsICctaW1hZScsICc8aW5maWxlLm1hZT4nLCAnLW9tYWUnLCAnPG91dGZpbGUubWFlPic=

> <r_lp_tautomer_probability>
1

> <r_epik_Ionization_Penalty>
4.62389

> <r_epik_Ionization_Penalty_Charging>
4.45204

> <r_epik_Ionization_Penalty_Neutral>
0.171842

> <r_epik_State_Penalty>
4.45172

> <r_epik_Charging_Adjusted_Penalty>
8.90376

> <i_epik_Tot_Q>
-1

> <i_epik_Tot_abs_Q>
1

> <r_epik_Metal_State_Penalty>
0.795834

> <b_epik_Metal_Only>
1

> <s_lp_Force_Field>
OPLS_2005

> <r_lp_Energy>
3.40986

> <b_lp_Chiralities_Consistent>
1

> <s_lp_Variant>
AV-unprocessed.smi:632-4

> <Gold.Version>
5.8.1

> <Gold.Id.Protein>
6NUR|6NUR_protein|mol2

> <Gold.PLP.Fitness>
43.4179

> <Gold.PLP.PLP>
-36.1081

> <Gold.PLP.part.hbond>
-3.7250

> <Gold.PLP.part.metal>
0.0000

> <Gold.PLP.part.buried>
-3.7766

> <Gold.PLP.part.nonpolar>
-26.3178

> <Gold.PLP.part.repulsive>
0.1268

> <Gold.PLP.ligand.clash>
0.0000

> <Gold.PLP.ligand.torsion>
0.8487

> <Gold.PLP.Chemscore.Hbond>
2.9750

> <Gold.PLP.Chemscore.CHOScore>
0.0000

> <Gold.PLP.Chemscore.Metal>
0.0000

> <Gold.Chemscore.Hbonds>
donor molecule, donor type, donor heavy atom, donor atom, acceptor molecule, acceptor atom, score
      P1  H  7989  7998       L1     9  1.00
      P1  H  7997  8010       L1     7  0.42

> <Gold.PLP.Chemscore.Internal.Correction>
0.0822

> <Gold.Rescore>
     Score         DG    S(hbond)    S(metal)    S(lipo)     H(rot)  DE(clash)    DE(int)     intcor
     16.20     -17.91       2.00        0.00      85.91       1.67       0.16       1.55       ----

> <Gold.Chemscore.Fitness>
16.1965

> <Gold.Chemscore.DG>
-17.9123

> <Gold.Chemscore.ZeroCoef>
-5.4800

> <Gold.Chemscore.Hbond>
1.9957

> <Gold.Chemscore.Metal>
0.0000

> <Gold.Chemscore.Lipo>
85.9090

> <Gold.Chemscore.Internal_Hbond>
0.0000

> <Gold.Chemscore.DEClash>
0.1639

> <Gold.Chemscore.DEInternal>
1.5519

> <Gold.Chemscore.Rot>
1.6737

> <Gold.Chemscore.Internal.Correction>
   9.000000E+99

> <Gold.Chemscore.Hbonds>
donor molecule, donor type, donor heavy atom, donor atom, acceptor molecule, acceptor atom, score
      P1  H  7989  7998       L1     9  0.85
      P1  H  7997  8010       L1     7  0.03

> <Gold.Chemscore.Hbond.Weighted>
-6.6657

> <Gold.Chemscore.Metal.Weighted>
-0.0000

> <Gold.Chemscore.Lipo.Weighted>
-10.0514

> <Gold.Chemscore.Internal_Hbond.Weighted>
0.0000

> <Gold.Chemscore.DEClash.Weighted>
0.1639

> <Gold.Chemscore.DEInternal.Weighted>
1.5519

> <Gold.Chemscore.Rot.Weighted>
4.2848

> <Gold.Chemscore.Internal.Correction.Weighted>
   9.000000E+99

> <Gold.Protein.RotatedTorsions>
[ 6907 6896 6895 6894 ] final -111.44 input  -60.11 | X-H torsion
[ 7974 7965 7964 7962 ] final  103.75 input  175.53 | X-H torsion
[ 8008 7997 7996 7995 ] final   61.42 input   59.86 | X-H torsion
[ 10167 10162 10161 10158 ] final  -50.17 input  -65.29 | X-H torsion
[ 10718 10713 10712 10709 ] final   83.54 input   66.30 | X-H torsion
[ 10763 10752 10751 10750 ] final  -21.58 input  -60.55 | X-H torsion
[ 11005 11000 10999 10996 ] final  -17.02 input  -57.11 | X-H torsion

> <Gold.Protein.ActiveResidues>
 VAL166  LYS551  ARG553  GLY616  TRP617  ASP618  TYR619  PRO620  LYS621  CYS622 
 ASP623  PHE694  ASN695  SER759  ASP760  ASP761  ALA762  ILE779  LEU786  VAL792 
 PHE793  MET794  SER795  GLU796  ALA797  LYS798  CYS799  TRP800  GLU811  SER814 

> <Gold.Protein.RotatedAtoms>
  150.7690  133.9235  159.3405 H   0  0  0  0  0  0  0  0  0  0  0  0  # atno 6907 bound_to 6896
  151.7126  135.0908  160.0280 H   0  0  0  0  0  0  0  0  0  0  0  0  # atno 6908 bound_to 6896
  152.3699  133.6368  159.6115 H   0  0  0  0  0  0  0  0  0  0  0  0  # atno 6909 bound_to 6896
  145.3419  139.2460  143.3605 H   0  0  0  0  0  0  0  0  0  0  0  0  # atno 7974 bound_to 7965
  155.5980  140.3493  155.4585 H   0  0  0  0  0  0  0  0  0  0  0  0  # atno 8008 bound_to 7997
  156.0250  140.1262  157.0343 H   0  0  0  0  0  0  0  0  0  0  0  0  # atno 8009 bound_to 7997
  154.4330  140.1055  156.6004 H   0  0  0  0  0  0  0  0  0  0  0  0  # atno 8010 bound_to 7997
  140.6650  143.2668  151.4320 H   0  0  0  0  0  0  0  0  0  0  0  0  # atno 10167 bound_to 10162
  157.6881  131.0095  150.2538 H   0  0  0  0  0  0  0  0  0  0  0  0  # atno 10718 bound_to 10713
  153.6383  135.6986  153.5250 H   0  0  0  0  0  0  0  0  0  0  0  0  # atno 10763 bound_to 10752
  153.2803  135.4188  155.1072 H   0  0  0  0  0  0  0  0  0  0  0  0  # atno 10764 bound_to 10752
  154.8506  135.3600  154.5927 H   0  0  0  0  0  0  0  0  0  0  0  0  # atno 10765 bound_to 10752
  140.8127  133.8128  155.9579 H   0  0  0  0  0  0  0  0  0  0  0  0  # atno 11005 bound_to 11000
  146.3004  140.4017  142.8706 LP  0  0  0  0  0  0  0  0  0  0  0  0  # atno 17320 bound_to 7965
  144.8784  140.7367  143.6002 LP  0  0  0  0  0  0  0  0  0  0  0  0  # atno 17321 bound_to 7965
  139.5896  144.1528  152.2072 LP  0  0  0  0  0  0  0  0  0  0  0  0  # atno 17342 bound_to 10162
  140.0878  144.5646  150.7076 LP  0  0  0  0  0  0  0  0  0  0  0  0  # atno 17343 bound_to 10162
  156.3130  130.3774  149.7644 LP  0  0  0  0  0  0  0  0  0  0  0  0  # atno 17370 bound_to 10713
  156.5238  130.8227  151.3213 LP  0  0  0  0  0  0  0  0  0  0  0  0  # atno 17371 bound_to 10713
  140.9181  134.2176  157.4944 LP  0  0  0  0  0  0  0  0  0  0  0  0  # atno 17394 bound_to 11000
  139.8713  134.9780  156.4981 LP  0  0  0  0  0  0  0  0  0  0  0  0  # atno 17395 bound_to 11000

$$$$
