#       Name:                AV-unprocessed.smi:2078
#       Creating user name   scv26
#       Creation time:       Fri Mar 27 11:17:12 2020


#       File generated by GOLD software.
#

@<TRIPOS>MOLECULE
AV-unprocessed.smi:2078
    47    48     1
SMALL
NO_CHARGES


@<TRIPOS>ATOM
      1 ****        -7.2753   3.6812  -1.6411 C.3            1 S1                 0.0000
      2 ****        -6.1972   3.0938  -0.7960 C.2            1 S1                 0.0000
      3 ****        -5.3933   1.9997  -0.9460 C.2            1 S1                 0.0000
      4 ****        -4.5884   2.0247   0.2253 C.2            1 S1                 0.0000
      5 ****        -3.6411   1.1303   0.5472 N.pl3          1 S1                -1.0000
      6 ****        -2.3687   1.3027   0.1220 C.2            1 S1                 0.0000
      7 ****        -1.9408   2.2447  -0.5487 O.2            1 S1                 0.0000
      8 ****        -1.5401   0.3184   0.4950 N.am           1 S1                 0.0000
      9 ****        -0.1230   0.2370   0.1673 C.3            1 S1                 0.0000
     10 ****         0.3796  -1.2046   0.3402 C.3            1 S1                 0.0000
     11 ****         1.8067  -1.3554  -0.0397 N.4            1 S1                 1.0000
     12 ****         2.1424  -2.7545  -0.4101 C.3            1 S1                 0.0000
     13 ****         3.5832  -2.8588  -0.9343 C.3            1 S1                 0.0000
     14 ****         4.5816  -2.3149   0.0949 C.3            1 S1                 0.0000
     15 ****         4.2075  -0.8771   0.4926 C.3            1 S1                 0.0000
     16 ****         5.1757  -0.3168   1.5441 C.3            1 S1                 0.0000
     17 ****         2.7460  -0.8200   0.9825 C.3            1 S1                 0.0000
     18 ****        -4.8873   3.0366   1.0232 N.2            1 S1                 0.0000
     19 ****        -5.9130   3.7318   0.3713 O.3            1 S1                 0.0000
     20 ****        -7.8889   2.8968  -2.0841 H              1 S1                 0.0000
     21 ****        -6.8499   4.2758  -2.4495 H              1 S1                 0.0000
     22 ****        -7.9272   4.3268  -1.0521 H              1 S1                 0.0000
     23 ****        -5.3817   1.2942  -1.7634 H              1 S1                 0.0000
     24 ****        -1.9308  -0.4314   1.0470 H              1 S1                 0.0000
     25 ****         0.0453   0.5629  -0.8606 H              1 S1                 0.0000
     26 ****         0.4137   0.9273   0.8177 H              1 S1                 0.0000
     27 ****         0.2285  -1.5513   1.3638 H              1 S1                 0.0000
     28 ****        -0.2298  -1.8486  -0.2959 H              1 S1                 0.0000
     29 ****         2.0075  -3.4043   0.4563 H              1 S1                 0.0000
     30 ****         1.4573  -3.1075  -1.1819 H              1 S1                 0.0000
     31 ****         3.8202  -3.8966  -1.1702 H              1 S1                 0.0000
     32 ****         3.6759  -2.3002  -1.8667 H              1 S1                 0.0000
     33 ****         4.5854  -2.9573   0.9768 H              1 S1                 0.0000
     34 ****         5.5911  -2.3443  -0.3167 H              1 S1                 0.0000
     35 ****         4.2888  -0.2486  -0.3957 H              1 S1                 0.0000
     36 ****         5.1445  -0.9010   2.4644 H              1 S1                 0.0000
     37 ****         4.9284   0.7148   1.7964 H              1 S1                 0.0000
     38 ****         6.2029  -0.3282   1.1781 H              1 S1                 0.0000
     39 ****         2.4931   0.2135   1.2165 H              1 S1                 0.0000
     40 ****         2.6359  -1.3873   1.9084 H              1 S1                 0.0000
     41 ****         1.9357  -0.8050  -0.8768 H              1 S1                 0.0000
     42 ****        -3.8768   0.3334   1.1034 LP             1 S1                 0.0000
     43 ****        -2.5584   2.9790  -0.8306 LP             1 S1                 0.0000
     44 ****        -0.9762   2.2744  -0.8108 LP             1 S1                 0.0000
     45 ****        -4.4696   3.2579   1.9044 LP             1 S1                 0.0000
     46 ****        -6.7275   3.7519   0.9510 LP             1 S1                 0.0000
     47 ****        -5.6169   4.6676   0.1801 LP             1 S1                 0.0000
@<TRIPOS>BOND
    1    1    2 1     
    2    1   20 1     
    3    1   21 1     
    4    1   22 1     
    5    2   19 1     
    6    2    3 2     
    7    3    4 1     
    8    3   23 1     
    9    4    5 1     
   10    4   18 2     
   11    5    6 1     
   12    6    7 2     
   13    6    8 am    
   14    8    9 1     
   15    8   24 1     
   16    9   10 1     
   17    9   25 1     
   18    9   26 1     
   19   10   11 1     
   20   10   27 1     
   21   10   28 1     
   22   11   17 1     
   23   11   12 1     
   24   11   41 1     
   25   12   13 1     
   26   12   29 1     
   27   12   30 1     
   28   13   14 1     
   29   13   31 1     
   30   13   32 1     
   31   14   15 1     
   32   14   33 1     
   33   14   34 1     
   34   15   16 1     
   35   15   17 1     
   36   15   35 1     
   37   16   36 1     
   38   16   37 1     
   39   16   38 1     
   40   17   39 1     
   41   17   40 1     
   42   18   19 1     
   43    5   42 1     
   44    7   43 1     
   45    7   44 1     
   46   18   45 1     
   47   19   46 1     
   48   19   47 1     
@<TRIPOS>SUBSTRUCTURE
      1 S1             1
@<TRIPOS>SET
LONE_PAIRS      STATIC     ATOMS    <user>   **** ""
6 42 43 44 45 46 47
DONOR_HYDROGENS      STATIC     ATOMS    <user>   **** ""
2 24 41
ATOM$BLUE        STATIC     ATOMS    COLORGROUP SYSTEM
6 42 43 44 45 46 47
ATOM$RED        STATIC     ATOMS    COLORGROUP SYSTEM
2 24 41
