AV-unprocessed.smi:1092|AV-procd|sdf|4737|dock4
  -GOLD-   22720 3273D 1   1.00000     0.00000
 Structure written by MMmdl.
 43 45  0  0  0  0  0  0  0  0  1 V2000
  153.8042  137.1314  162.6513 C   0  0  0  0  0  0  0  0  0  0  0  0
  154.4199  136.7728  161.2846 C   0  0  0  0  0  0  0  0  0  0  0  0
  155.0756  135.3826  161.3457 C   0  0  0  0  0  0  0  0  0  0  0  0
  153.3654  136.6535  160.3485 O   0  0  0  0  0  0  0  0  0  0  0  0
  155.4384  137.8133  160.7405 C   0  0  0  0  0  0  0  0  0  0  0  0
  154.8744  139.1555  160.5352 N   0  0  0  0  0  0  0  0  0  0  0  0
  153.9351  139.2228  159.5330 N   0  0  0  0  0  0  0  0  0  0  0  0
  153.3170  140.3248  159.2490 C   0  0  0  0  0  0  0  0  0  0  0  0
  152.3581  140.2749  158.1206 C   0  0  0  0  0  0  0  0  0  0  0  0
  152.5016  139.2695  157.1375 C   0  0  0  0  0  0  0  0  0  0  0  0
  151.5947  139.2200  156.0609 C   0  0  0  0  0  0  0  0  0  0  0  0
  150.5592  140.1713  155.9634 C   0  0  0  0  0  0  0  0  0  0  0  0
  150.4287  141.1795  156.9392 C   0  0  0  0  0  0  0  0  0  0  0  0
  151.3296  141.2385  158.0203 C   0  0  0  0  0  0  0  0  0  0  0  0
  153.6866  141.5232  160.0766 C   0  0  0  0  0  0  0  0  0  0  0  0
  153.0076  142.8420  159.9226 C   0  0  0  0  0  0  0  0  0  0  0  0
  152.2397  143.3650  160.9897 C   0  0  0  0  0  0  0  0  0  0  0  0
  151.5829  144.6037  160.8558 C   0  0  0  0  0  0  0  0  0  0  0  0
  151.6795  145.3276  159.6527 C   0  0  0  0  0  0  0  0  0  0  0  0
  152.4294  144.8095  158.5804 C   0  0  0  0  0  0  0  0  0  0  0  0
  153.0863  143.5709  158.7120 C   0  0  0  0  0  0  0  0  0  0  0  0
  154.5945  141.4412  160.9875 N   0  0  0  0  0  0  0  0  0  0  0  0
  155.2554  140.2417  161.2694 C   0  0  0  0  0  0  0  0  0  0  0  0
  156.1213  140.1625  162.1405 O   0  0  0  0  0  0  0  0  0  0  0  0
  154.5767  137.2579  163.4102 H   0  0  0  0  0  0  0  0  0  0  0  0
  153.1291  136.3486  162.9982 H   0  0  0  0  0  0  0  0  0  0  0  0
  153.2259  138.0549  162.6071 H   0  0  0  0  0  0  0  0  0  0  0  0
  155.8985  135.3683  162.0612 H   0  0  0  0  0  0  0  0  0  0  0  0
  155.4783  135.0879  160.3759 H   0  0  0  0  0  0  0  0  0  0  0  0
  154.3622  134.6168  161.6529 H   0  0  0  0  0  0  0  0  0  0  0  0
  153.6827  136.9264  159.5014 H   0  0  0  0  0  0  0  0  0  0  0  0
  156.2866  137.8730  161.4243 H   0  0  0  0  0  0  0  0  0  0  0  0
  155.8754  137.4577  159.8054 H   0  0  0  0  0  0  0  0  0  0  0  0
  153.2885  138.5312  157.2022 H   0  0  0  0  0  0  0  0  0  0  0  0
  151.6930  138.4510  155.3091 H   0  0  0  0  0  0  0  0  0  0  0  0
  149.8662  140.1302  155.1360 H   0  0  0  0  0  0  0  0  0  0  0  0
  149.6381  141.9108  156.8562 H   0  0  0  0  0  0  0  0  0  0  0  0
  151.2263  142.0260  158.7524 H   0  0  0  0  0  0  0  0  0  0  0  0
  152.1546  142.8257  161.9222 H   0  0  0  0  0  0  0  0  0  0  0  0
  151.0035  144.9980  161.6776 H   0  0  0  0  0  0  0  0  0  0  0  0
  151.1743  146.2765  159.5504 H   0  0  0  0  0  0  0  0  0  0  0  0
  152.4976  145.3600  157.6538 H   0  0  0  0  0  0  0  0  0  0  0  0
  153.6415  143.1841  157.8700 H   0  0  0  0  0  0  0  0  0  0  0  0
  1  2  1  0  0  0  0
  1 25  1  0  0  0  0
  1 26  1  0  0  0  0
  1 27  1  0  0  0  0
  2  3  1  0  0  0  0
  2  4  1  0  0  0  0
  2  5  1  0  0  0  0
  3 28  1  0  0  0  0
  3 29  1  0  0  0  0
  3 30  1  0  0  0  0
  4 31  1  0  0  0  0
  5  6  1  0  0  0  0
  5 32  1  0  0  0  0
  5 33  1  0  0  0  0
  6 23  1  0  0  0  0
  6  7  1  0  0  0  0
  7  8  2  0  0  0  0
  8  9  1  0  0  0  0
  8 15  1  0  0  0  0
  9 14  1  0  0  0  0
  9 10  2  0  0  0  0
 10 11  1  0  0  0  0
 10 34  1  0  0  0  0
 11 12  2  0  0  0  0
 11 35  1  0  0  0  0
 12 13  1  0  0  0  0
 12 36  1  0  0  0  0
 13 14  2  0  0  0  0
 13 37  1  0  0  0  0
 14 38  1  0  0  0  0
 15 16  1  0  0  0  0
 15 22  2  0  0  0  0
 16 21  1  0  0  0  0
 16 17  2  0  0  0  0
 17 18  1  0  0  0  0
 17 39  1  0  0  0  0
 18 19  2  0  0  0  0
 18 40  1  0  0  0  0
 19 20  1  0  0  0  0
 19 41  1  0  0  0  0
 20 21  2  0  0  0  0
 20 42  1  0  0  0  0
 21 43  1  0  0  0  0
 22 23  1  0  0  0  0
 23 24  2  0  0  0  0
M  END
> <s_m_source_file>
AV-unprocessed.smi

> <i_m_source_file_index>
1092

> <i_lp_mmshare_version>
43012

> <i_f3d_flags>
0

> <s_epik_input>
W2NIXTFbY0hdW2NIXVtjSF1bY0hdYzEtYyhubjJbQ0gyXUMoW0NIM10pKFtDSDNdKVtPSF0pYyhuYzI9TyktYzNbY0hdW2NIXVtjSF1bY0hdW2NIXTM=

> <s_epik_cmdline>
J2VwaWtfcHl0aG9uJywgJy1waCcsICc3LjAnLCAnLXRuJywgJzgnLCAnLW1hJywgJzIwMCcsICctbWV0YWxfYmluZGluZycsICctaW1hZScsICc8aW5maWxlLm1hZT4nLCAnLW9tYWUnLCAnPG91dGZpbGUubWFlPic=

> <r_lp_tautomer_probability>
1

> <r_epik_Ionization_Penalty>
4.51197e-08

> <r_epik_Ionization_Penalty_Charging>
4.64162e-09

> <r_epik_Ionization_Penalty_Neutral>
4.04781e-08

> <r_epik_State_Penalty>
-0

> <r_epik_Charging_Adjusted_Penalty>
4.64162e-09

> <i_epik_Tot_Q>
0

> <i_epik_Tot_abs_Q>
0

> <r_epik_Metal_State_Penalty>
-0

> <b_epik_Metal_Only>
0

> <s_lp_Force_Field>
OPLS_2005

> <r_lp_Energy>
39.3317

> <b_lp_Chiralities_Consistent>
1

> <s_lp_Variant>
AV-unprocessed.smi:1092-1

> <Gold.Version>
5.8.1

> <Gold.Id.Protein>
6NUR|6NUR_protein|mol2

> <Gold.PLP.Fitness>
55.1244

> <Gold.PLP.PLP>
-52.7676

> <Gold.PLP.part.hbond>
-2.9782

> <Gold.PLP.part.metal>
0.0000

> <Gold.PLP.part.buried>
-4.3759

> <Gold.PLP.part.nonpolar>
-46.0695

> <Gold.PLP.part.repulsive>
0.0000

> <Gold.PLP.ligand.clash>
0.0000

> <Gold.PLP.ligand.torsion>
1.4813

> <Gold.PLP.Chemscore.Hbond>
1.0000

> <Gold.PLP.Chemscore.CHOScore>
0.0000

> <Gold.PLP.Chemscore.Metal>
0.0000

> <Gold.Chemscore.Hbonds>
donor molecule, donor type, donor heavy atom, donor atom, acceptor molecule, acceptor atom, score
      P1  H  6896  6909       L1     4  0.86

> <Gold.PLP.Chemscore.Internal.Correction>
2.3194

> <Gold.Rescore>
     Score         DG    S(hbond)    S(metal)    S(lipo)     H(rot)  DE(clash)    DE(int)     intcor
     17.09     -21.42       0.93        0.00     144.61       1.59       0.01       4.31       ----

> <Gold.Chemscore.Fitness>
17.0906

> <Gold.Chemscore.DG>
-21.4152

> <Gold.Chemscore.ZeroCoef>
-5.4800

> <Gold.Chemscore.Hbond>
0.9253

> <Gold.Chemscore.Metal>
0.0000

> <Gold.Chemscore.Lipo>
144.6111

> <Gold.Chemscore.Internal_Hbond>
0.0000

> <Gold.Chemscore.DEClash>
0.0096

> <Gold.Chemscore.DEInternal>
4.3150

> <Gold.Chemscore.Rot>
1.5918

> <Gold.Chemscore.Internal.Correction>
   9.000000E+99

> <Gold.Chemscore.Hbonds>
donor molecule, donor type, donor heavy atom, donor atom, acceptor molecule, acceptor atom, score
      P1  H  6896  6909       L1     4  0.55

> <Gold.Chemscore.Hbond.Weighted>
-3.0906

> <Gold.Chemscore.Metal.Weighted>
-0.0000

> <Gold.Chemscore.Lipo.Weighted>
-16.9195

> <Gold.Chemscore.Internal_Hbond.Weighted>
0.0000

> <Gold.Chemscore.DEClash.Weighted>
0.0096

> <Gold.Chemscore.DEInternal.Weighted>
4.3150

> <Gold.Chemscore.Rot.Weighted>
4.0749

> <Gold.Chemscore.Internal.Correction.Weighted>
   9.000000E+99

> <Gold.Protein.RotatedTorsions>
[ 6907 6896 6895 6894 ] final  151.06 input  -60.11 | X-H torsion
[ 7974 7965 7964 7962 ] final   58.43 input  175.53 | X-H torsion
[ 8008 7997 7996 7995 ] final   35.30 input   59.86 | X-H torsion
[ 10167 10162 10161 10158 ] final  173.20 input  -65.29 | X-H torsion
[ 10718 10713 10712 10709 ] final  125.86 input   66.30 | X-H torsion
[ 10763 10752 10751 10750 ] final -179.78 input  -60.55 | X-H torsion
[ 11005 11000 10999 10996 ] final   96.07 input  -57.11 | X-H torsion

> <Gold.Protein.ActiveResidues>
 VAL166  LYS551  ARG553  GLY616  TRP617  ASP618  TYR619  PRO620  LYS621  CYS622 
 ASP623  PHE694  ASN695  SER759  ASP760  ASP761  ALA762  ILE779  LEU786  VAL792 
 PHE793  MET794  SER795  GLU796  ALA797  LYS798  CYS799  TRP800  GLU811  SER814 

> <Gold.Protein.RotatedAtoms>
  152.1059  133.4274  159.4608 H   0  0  0  0  0  0  0  0  0  0  0  0  # atno 6907 bound_to 6896
  150.6865  134.2706  159.4595 H   0  0  0  0  0  0  0  0  0  0  0  0  # atno 6908 bound_to 6896
  152.0570  134.9618  160.0625 H   0  0  0  0  0  0  0  0  0  0  0  0  # atno 6909 bound_to 6896
  145.9183  139.3709  143.0494 H   0  0  0  0  0  0  0  0  0  0  0  0  # atno 7974 bound_to 7965
  155.1688  140.3290  155.4397 H   0  0  0  0  0  0  0  0  0  0  0  0  # atno 8008 bound_to 7997
  156.2517  140.1947  156.6742 H   0  0  0  0  0  0  0  0  0  0  0  0  # atno 8009 bound_to 7997
  154.6352  140.0577  156.9766 H   0  0  0  0  0  0  0  0  0  0  0  0  # atno 8010 bound_to 7997
  139.5100  144.3288  152.0132 H   0  0  0  0  0  0  0  0  0  0  0  0  # atno 10167 bound_to 10162
  157.5467  131.1095  150.8769 H   0  0  0  0  0  0  0  0  0  0  0  0  # atno 10718 bound_to 10713
  154.5307  135.2799  155.1182 H   0  0  0  0  0  0  0  0  0  0  0  0  # atno 10763 bound_to 10752
  154.2704  135.6305  153.5311 H   0  0  0  0  0  0  0  0  0  0  0  0  # atno 10764 bound_to 10752
  152.9956  135.5627  154.5820 H   0  0  0  0  0  0  0  0  0  0  0  0  # atno 10765 bound_to 10752
  139.8784  134.8932  156.4105 H   0  0  0  0  0  0  0  0  0  0  0  0  # atno 11005 bound_to 11000
  145.8583  140.9490  143.0713 LP  0  0  0  0  0  0  0  0  0  0  0  0  # atno 17320 bound_to 7965
  144.6750  140.0497  143.7479 LP  0  0  0  0  0  0  0  0  0  0  0  0  # atno 17321 bound_to 7965
  140.2728  144.3945  150.6145 LP  0  0  0  0  0  0  0  0  0  0  0  0  # atno 17342 bound_to 10162
  140.6076  143.2168  151.6950 LP  0  0  0  0  0  0  0  0  0  0  0  0  # atno 17343 bound_to 10162
  156.9306  130.5348  149.5279 LP  0  0  0  0  0  0  0  0  0  0  0  0  # atno 17370 bound_to 10713
  156.0542  130.5606  150.9055 LP  0  0  0  0  0  0  0  0  0  0  0  0  # atno 17371 bound_to 10713
  140.9204  133.7649  155.9899 LP  0  0  0  0  0  0  0  0  0  0  0  0  # atno 17394 bound_to 11000
  140.8446  134.3026  157.5300 LP  0  0  0  0  0  0  0  0  0  0  0  0  # atno 17395 bound_to 11000

$$$$
