#       Name:                AV-unprocessed.smi:1993
#       Creating user name   scv26
#       Creation time:       Fri Mar 27 10:27:53 2020


#       File generated by GOLD software.
#

@<TRIPOS>MOLECULE
AV-unprocessed.smi:1993
    58    59     1
SMALL
NO_CHARGES


@<TRIPOS>ATOM
      1 ****        -3.1063  -4.0424  -3.0039 C.3            1 S1                 0.0000
      2 ****        -2.4136  -2.7732  -2.5188 C.2            1 S1                 0.0000
      3 ****        -1.8316  -2.0466  -3.3234 O.2            1 S1                 0.0000
      4 ****        -2.4805  -2.5174  -1.2024 N.am           1 S1                 0.0000
      5 ****        -1.8777  -1.3647  -0.5308 C.3            1 S1                 0.0000
      6 ****        -0.3983  -1.6872  -0.2498 C.2            1 S1                 0.0000
      7 ****        -0.0881  -2.6952   0.3876 O.2            1 S1                 0.0000
      8 ****         0.4999  -0.8081  -0.7183 N.am           1 S1                 0.0000
      9 ****         1.9402  -0.8933  -0.5139 C.3            1 S1                 0.0000
     10 ****         2.3726  -0.3427   0.8389 C.ar           1 S1                 0.0000
     11 ****         2.7017  -1.2364   1.8799 C.ar           1 S1                 0.0000
     12 ****         3.0975  -0.7209   3.1274 C.ar           1 S1                 0.0000
     13 ****         3.1487   0.6762   3.2857 C.ar           1 S1                 0.0000
     14 ****         2.8346   1.5435   2.3012 N.ar           1 S1                 0.0000
     15 ****         2.4530   1.0502   1.0980 C.ar           1 S1                 0.0000
     16 ****         2.1124   1.9763   0.0983 N.3            1 S1                 0.0000
     17 ****         3.1002   3.0193  -0.1508 C.3            1 S1                 0.0000
     18 ****         2.6771   3.8549  -1.3713 C.3            1 S1                 0.0000
     19 ****         1.3717   4.3856  -1.1573 O.3            1 S1                 0.0000
     20 ****         0.3979   3.3608  -0.9765 C.3            1 S1                 0.0000
     21 ****         0.7658   2.5100   0.2507 C.3            1 S1                 0.0000
     22 ****        -2.6329  -1.1090   0.8074 C.3            1 S1                 0.0000
     23 ****        -4.1393  -0.8728   0.5813 C.3            1 S1                 0.0000
     24 ****        -2.0545   0.0741   1.6113 C.3            1 S1                 0.0000
     25 ****        -2.3649  -4.7800  -3.3112 H              1 S1                 0.0000
     26 ****        -3.7446  -3.8203  -3.8595 H              1 S1                 0.0000
     27 ****        -3.7266  -4.4840  -2.2231 H              1 S1                 0.0000
     28 ****        -2.9729  -3.1758  -0.6163 H              1 S1                 0.0000
     29 ****        -1.9564  -0.4802  -1.1669 H              1 S1                 0.0000
     30 ****         0.1592  -0.0122  -1.2379 H              1 S1                 0.0000
     31 ****         2.2764  -1.9259  -0.6232 H              1 S1                 0.0000
     32 ****         2.4364  -0.3346  -1.3079 H              1 S1                 0.0000
     33 ****         2.6491  -2.3044   1.7269 H              1 S1                 0.0000
     34 ****         3.3550  -1.3804   3.9428 H              1 S1                 0.0000
     35 ****         3.4482   1.1093   4.2285 H              1 S1                 0.0000
     36 ****         3.1890   3.6652   0.7239 H              1 S1                 0.0000
     37 ****         4.0782   2.5685  -0.3232 H              1 S1                 0.0000
     38 ****         3.3753   4.6778  -1.5245 H              1 S1                 0.0000
     39 ****         2.6907   3.2510  -2.2801 H              1 S1                 0.0000
     40 ****        -0.5809   3.8195  -0.8362 H              1 S1                 0.0000
     41 ****         0.3351   2.7417  -1.8729 H              1 S1                 0.0000
     42 ****         0.0523   1.6957   0.3679 H              1 S1                 0.0000
     43 ****         0.7138   3.1163   1.1563 H              1 S1                 0.0000
     44 ****        -2.5417  -1.9988   1.4332 H              1 S1                 0.0000
     45 ****        -4.3106  -0.0140  -0.0686 H              1 S1                 0.0000
     46 ****        -4.6522  -0.6816   1.5245 H              1 S1                 0.0000
     47 ****        -4.6252  -1.7362   0.1267 H              1 S1                 0.0000
     48 ****        -2.1005   0.9988   1.0360 H              1 S1                 0.0000
     49 ****        -1.0166  -0.0891   1.9021 H              1 S1                 0.0000
     50 ****        -2.6168   0.2326   2.5319 H              1 S1                 0.0000
     51 ****        -1.8134  -2.2887  -4.2935 LP             1 S1                 0.0000
     52 ****        -1.3768  -1.2140  -3.0072 LP             1 S1                 0.0000
     53 ****        -0.7994  -3.3109   0.7267 LP             1 S1                 0.0000
     54 ****         0.8749  -2.8974   0.5658 LP             1 S1                 0.0000
     55 ****         2.8824   2.5303   2.4561 LP             1 S1                 0.0000
     56 ****         2.1183   1.4286  -0.7384 LP             1 S1                 0.0000
     57 ****         1.1146   4.9382  -1.9501 LP             1 S1                 0.0000
     58 ****         1.3882   4.9621  -0.3404 LP             1 S1                 0.0000
@<TRIPOS>BOND
    1    1    2 1     
    2    1   25 1     
    3    1   26 1     
    4    1   27 1     
    5    2    3 2     
    6    2    4 am    
    7    4    5 1     
    8    4   28 1     
    9    5    6 1     
   10    5   22 1     
   11    5   29 1     
   12    6    7 2     
   13    6    8 am    
   14    8    9 1     
   15    8   30 1     
   16    9   10 1     
   17    9   31 1     
   18    9   32 1     
   19   10   15 ar    
   20   10   11 ar    
   21   11   12 ar    
   22   11   33 1     
   23   12   13 ar    
   24   12   34 1     
   25   13   14 ar    
   26   13   35 1     
   27   14   15 ar    
   28   15   16 1     
   29   16   21 1     
   30   16   17 1     
   31   17   18 1     
   32   17   36 1     
   33   17   37 1     
   34   18   19 1     
   35   18   38 1     
   36   18   39 1     
   37   19   20 1     
   38   20   21 1     
   39   20   40 1     
   40   20   41 1     
   41   21   42 1     
   42   21   43 1     
   43   22   23 1     
   44   22   24 1     
   45   22   44 1     
   46   23   45 1     
   47   23   46 1     
   48   23   47 1     
   49   24   48 1     
   50   24   49 1     
   51   24   50 1     
   52    3   51 1     
   53    3   52 1     
   54    7   53 1     
   55    7   54 1     
   56   14   55 1     
   57   16   56 1     
   58   19   57 1     
   59   19   58 1     
@<TRIPOS>SUBSTRUCTURE
      1 S1             1
@<TRIPOS>SET
LONE_PAIRS      STATIC     ATOMS    <user>   **** ""
8 51 52 53 54 55 56 57 58
DONOR_HYDROGENS      STATIC     ATOMS    <user>   **** ""
2 28 30
ATOM$BLUE        STATIC     ATOMS    COLORGROUP SYSTEM
8 51 52 53 54 55 56 57 58
ATOM$RED        STATIC     ATOMS    COLORGROUP SYSTEM
2 28 30
