AV-unprocessed.smi:54|AV-procd|sdf|545|dock4
  -GOLD-   2262016433D 1   1.00000     0.00000
 Structure written by MMmdl.
 43 45  0  0  0  0  0  0  0  0  2 V2000
  147.4886  135.6166  162.6536 C   0  0  0  0  0  0  0  0  0  0  0  0
  147.1055  135.5523  161.1658 C   0  0  0  0  0  0  0  0  0  0  0  0
  147.3837  134.1586  160.5781 C   0  0  0  0  0  0  0  0  0  0  0  0
  147.8435  136.6370  160.3679 C   0  0  0  0  0  0  0  0  0  0  0  0
  147.2006  137.5838  159.9092 O   0  0  0  0  0  0  0  0  0  0  0  0
  149.1777  136.4557  160.2459 N   0  0  0  0  0  0  0  0  0  0  0  0
  150.1282  137.2566  159.6003 C   0  0  0  0  0  0  0  0  0  0  0  0
  149.5925  138.1249  158.7764 N   0  0  0  0  0  0  0  0  0  0  0  0
  150.5371  138.9166  158.1521 C   0  0  0  0  0  0  0  0  0  0  0  0
  151.8950  138.8867  158.3122 C   0  0  0  0  0  0  0  0  0  0  0  0
  152.5221  139.8411  157.5205 N   0  0  0  0  0  0  0  0  0  0  0  0
  151.4889  140.4138  156.9056 C   0  0  0  0  0  0  0  0  0  0  0  0
  150.2751  139.9205  157.2278 N   0  0  0  0  0  0  0  0  0  0  0  0
  148.9357  140.3565  156.7238 C   0  0  2  0  0  0  0  0  0  0  0  0
  148.3229  139.2527  156.1209 O   0  0  0  0  0  0  0  0  0  0  0  0
  148.0909  139.4871  154.7319 C   0  0  2  0  0  0  0  0  0  0  0  0
  148.2989  138.1877  153.9389 C   0  0  0  0  0  0  0  0  0  0  0  0
  147.9574  138.3883  152.5845 O   0  0  0  0  0  0  0  0  0  0  0  0
  149.0912  140.5884  154.3756 C   0  0  1  0  0  0  0  0  0  0  0  0
  148.7187  141.3334  153.2319 O   0  0  0  0  0  0  0  0  0  0  0  0
  149.1240  141.4280  155.6449 C   0  0  1  0  0  0  0  0  0  0  0  0
  148.0882  142.3911  155.7042 O   0  0  0  0  0  0  0  0  0  0  0  0
  152.4339  137.8895  159.2656 C   0  0  0  0  0  0  0  0  0  0  0  0
  153.6487  137.8271  159.4435 O   0  0  0  0  0  0  0  0  0  0  0  0
  151.5008  137.1051  159.8833 N   0  5  0  0  0  0  0  0  0  0  0  0
  148.4001  140.6910  157.6132 H   0  0  0  0  0  0  0  0  0  0  0  0
  147.0753  139.8675  154.6072 H   0  0  0  0  0  0  0  0  0  0  0  0
  150.0777  140.1525  154.2093 H   0  0  0  0  0  0  0  0  0  0  0  0
  150.0752  141.9478  155.7697 H   0  0  0  0  0  0  0  0  0  0  0  0
  147.2865  136.6033  163.0721 H   0  0  0  0  0  0  0  0  0  0  0  0
  148.5469  135.4001  162.8061 H   0  0  0  0  0  0  0  0  0  0  0  0
  146.9169  134.8924  163.2343 H   0  0  0  0  0  0  0  0  0  0  0  0
  146.0326  135.7372  161.0895 H   0  0  0  0  0  0  0  0  0  0  0  0
  147.1245  134.1164  159.5194 H   0  0  0  0  0  0  0  0  0  0  0  0
  146.7952  133.3964  161.0893 H   0  0  0  0  0  0  0  0  0  0  0  0
  148.4349  133.8834  160.6751 H   0  0  0  0  0  0  0  0  0  0  0  0
  149.5389  135.6492  160.7334 H   0  0  0  0  0  0  0  0  0  0  0  0
  151.6230  141.2212  156.2018 H   0  0  0  0  0  0  0  0  0  0  0  0
  149.3480  137.8925  153.9716 H   0  0  0  0  0  0  0  0  0  0  0  0
  147.7185  137.3659  154.3582 H   0  0  0  0  0  0  0  0  0  0  0  0
  148.6217  138.9276  152.1834 H   0  0  0  0  0  0  0  0  0  0  0  0
  148.4949  140.7279  152.5416 H   0  0  0  0  0  0  0  0  0  0  0  0
  148.4819  143.2481  155.7655 H   0  0  0  0  0  0  0  0  0  0  0  0
  1  2  1  0  0  0  0
  1 30  1  0  0  0  0
  1 31  1  0  0  0  0
  1 32  1  0  0  0  0
  2  3  1  0  0  0  0
  2  4  1  0  0  0  0
  2 33  1  0  0  0  0
  3 34  1  0  0  0  0
  3 35  1  0  0  0  0
  3 36  1  0  0  0  0
  4  5  2  0  0  0  0
  4  6  1  0  0  0  0
  6 37  1  0  0  0  0
  6  7  1  0  0  0  0
  7 25  1  0  0  0  0
  7  8  2  0  0  0  0
  8  9  1  0  0  0  0
  9 13  1  0  0  0  0
  9 10  2  0  0  0  0
 10 11  1  0  0  0  0
 10 23  1  0  0  0  0
 11 12  2  0  0  0  0
 12 13  1  0  0  0  0
 12 38  1  0  0  0  0
 13 14  1  0  0  0  0
 14 26  1  0  0  0  0
 14 21  1  0  0  0  0
 14 15  1  0  0  0  0
 15 16  1  0  0  0  0
 16 27  1  0  0  0  0
 16 17  1  0  0  0  0
 16 19  1  0  0  0  0
 17 18  1  0  0  0  0
 17 39  1  0  0  0  0
 17 40  1  0  0  0  0
 18 41  1  0  0  0  0
 19 28  1  0  0  0  0
 19 20  1  0  0  0  0
 19 21  1  0  0  0  0
 20 42  1  0  0  0  0
 21 29  1  0  0  0  0
 21 22  1  0  0  0  0
 22 43  1  0  0  0  0
 23 24  2  0  0  0  0
 23 25  1  0  0  0  0
M  CHG  1  25  -1
M  END
> <s_m_source_file>
AV-unprocessed.smi

> <i_m_source_file_index>
54

> <i_lp_mmshare_version>
43012

> <i_f3d_flags>
0

> <s_epik_input>
W0NIM11bQ0hdKFtDSDNdKUMoPU8pW05IXWMobjEpW25IXWMoPU8pYyhjMTIpbltjSF1uMltDQEBIXTNPW0NASF0oW0NIMl1bT0hdKVtDQEBIXShbT0hdKVtDQEhdM1tPSF0=

> <s_epik_cmdline>
J2VwaWtfcHl0aG9uJywgJy1waCcsICc3LjAnLCAnLXRuJywgJzgnLCAnLW1hJywgJzIwMCcsICctbWV0YWxfYmluZGluZycsICctaW1hZScsICc8aW5maWxlLm1hZT4nLCAnLW9tYWUnLCAnPG91dGZpbGUubWFlPic=

> <r_lp_tautomer_probability>
0.85571

> <r_epik_Ionization_Penalty>
1.75936

> <r_epik_Ionization_Penalty_Charging>
4.55893e-11

> <r_epik_Ionization_Penalty_Neutral>
1.75936

> <r_epik_State_Penalty>
1.72072

> <r_epik_Charging_Adjusted_Penalty>
1.72072

> <i_epik_Tot_Q>
-1

> <i_epik_Tot_abs_Q>
1

> <r_epik_Metal_State_Penalty>
0.400338

> <b_epik_Metal_Only>
1

> <s_epik_Chemistry_Notes>
This compound contains an acetal/aminal-like group ( X-CH(R)-Y where X, Y are N, S, or O) that may be acid/base labile, releasing an aldehyde.

> <s_lp_Force_Field>
OPLS_2005

> <r_lp_Energy>
58.3918

> <b_lp_Chiralities_Consistent>
1

> <s_lp_Variant>
AV-unprocessed.smi:54-17

> <Gold.Version>
5.8.1

> <Gold.Id.Protein>
6NUR|6NUR_protein|mol2

> <Gold.PLP.Fitness>
52.1089

> <Gold.PLP.PLP>
-30.1061

> <Gold.PLP.part.hbond>
-7.5413

> <Gold.PLP.part.metal>
0.0000

> <Gold.PLP.part.buried>
-1.3985

> <Gold.PLP.part.nonpolar>
-23.2996

> <Gold.PLP.part.repulsive>
0.2383

> <Gold.PLP.ligand.clash>
0.0000

> <Gold.PLP.ligand.torsion>
0.2210

> <Gold.PLP.Chemscore.Hbond>
7.4640

> <Gold.PLP.Chemscore.CHOScore>
0.0000

> <Gold.PLP.Chemscore.Metal>
0.0000

> <Gold.Chemscore.Hbonds>
donor molecule, donor type, donor heavy atom, donor atom, acceptor molecule, acceptor atom, score
      L1  H    18    41       P1  7957  1.00
      L1  H    20    42       P1  7957  0.58
      L1  H    22    43       P1  8028  0.98
      P1  H  6896  6908       L1    25  2.00
      P1  H  6934  6947       L1     5  0.96
      P1  H  7997  8009       L1    11  0.94
      P1  H  8011  8017       L1    20  0.88

> <Gold.PLP.Chemscore.Internal.Correction>
0.0529

> <Gold.Rescore>
     Score         DG    S(hbond)    S(metal)    S(lipo)     H(rot)  DE(clash)    DE(int)     intcor
     16.05     -19.10       5.45        0.00      48.81       4.02       1.32       1.72       ----

> <Gold.Chemscore.Fitness>
16.0536

> <Gold.Chemscore.DG>
-19.0997

> <Gold.Chemscore.ZeroCoef>
-5.4800

> <Gold.Chemscore.Hbond>
5.4487

> <Gold.Chemscore.Metal>
0.0000

> <Gold.Chemscore.Lipo>
48.8069

> <Gold.Chemscore.Internal_Hbond>
0.0000

> <Gold.Chemscore.DEClash>
1.3236

> <Gold.Chemscore.DEInternal>
1.7225

> <Gold.Chemscore.Rot>
4.0192

> <Gold.Chemscore.Internal.Correction>
   9.000000E+99

> <Gold.Chemscore.Hbonds>
donor molecule, donor type, donor heavy atom, donor atom, acceptor molecule, acceptor atom, score
      L1  H    18    41       P1  7957  0.97
      L1  H    20    42       P1  7957  0.58
      L1  H    22    43       P1  8028  0.89
      P1  H  6896  6908       L1    25  0.38
      P1  H  6934  6947       L1     5  0.85
      P1  H  7997  8009       L1    11  0.88
      P1  H  8011  8017       L1    20  0.19

> <Gold.Chemscore.Hbond.Weighted>
-18.1986

> <Gold.Chemscore.Metal.Weighted>
-0.0000

> <Gold.Chemscore.Lipo.Weighted>
-5.7104

> <Gold.Chemscore.Internal_Hbond.Weighted>
0.0000

> <Gold.Chemscore.DEClash.Weighted>
1.3236

> <Gold.Chemscore.DEInternal.Weighted>
1.7225

> <Gold.Chemscore.Rot.Weighted>
10.2893

> <Gold.Chemscore.Internal.Correction.Weighted>
   9.000000E+99

> <Gold.Protein.RotatedTorsions>
[ 6907 6896 6895 6894 ] final -110.88 input  -60.11 | X-H torsion
[ 7974 7965 7964 7962 ] final  -42.12 input  175.53 | X-H torsion
[ 8008 7997 7996 7995 ] final  172.84 input   59.86 | X-H torsion
[ 10167 10162 10161 10158 ] final   58.83 input  -65.29 | X-H torsion
[ 10718 10713 10712 10709 ] final  -47.21 input   66.30 | X-H torsion
[ 10763 10752 10751 10750 ] final  109.11 input  -60.55 | X-H torsion
[ 11005 11000 10999 10996 ] final  159.10 input  -57.11 | X-H torsion

> <Gold.Protein.ActiveResidues>
 VAL166  LYS551  ARG553  GLY616  TRP617  ASP618  TYR619  PRO620  LYS621  CYS622 
 ASP623  PHE694  ASN695  SER759  ASP760  ASP761  ALA762  ILE779  LEU786  VAL792 
 PHE793  MET794  SER795  GLU796  ALA797  LYS798  CYS799  TRP800  GLU811  SER814 

> <Gold.Protein.RotatedAtoms>
  150.7653  133.9317  159.3428 H   0  0  0  0  0  0  0  0  0  0  0  0  # atno 6907 bound_to 6896
  151.7216  135.0891  160.0294 H   0  0  0  0  0  0  0  0  0  0  0  0  # atno 6908 bound_to 6896
  152.3646  133.6302  159.6076 H   0  0  0  0  0  0  0  0  0  0  0  0  # atno 6909 bound_to 6896
  146.0146  140.6924  142.9208 H   0  0  0  0  0  0  0  0  0  0  0  0  # atno 7974 bound_to 7965
  156.1134  140.1475  156.9306 H   0  0  0  0  0  0  0  0  0  0  0  0  # atno 8008 bound_to 7997
  154.4783  140.0887  156.7359 H   0  0  0  0  0  0  0  0  0  0  0  0  # atno 8009 bound_to 7997
  155.4556  140.3436  155.4308 H   0  0  0  0  0  0  0  0  0  0  0  0  # atno 8010 bound_to 7997
  140.1830  144.4162  150.6606 H   0  0  0  0  0  0  0  0  0  0  0  0  # atno 10167 bound_to 10162
  156.2106  130.4160  149.9119 H   0  0  0  0  0  0  0  0  0  0  0  0  # atno 10718 bound_to 10713
  153.4301  135.3790  155.2165 H   0  0  0  0  0  0  0  0  0  0  0  0  # atno 10763 bound_to 10752
  154.8749  135.3838  154.4279 H   0  0  0  0  0  0  0  0  0  0  0  0  # atno 10764 bound_to 10752
  153.4810  135.7088  153.6001 H   0  0  0  0  0  0  0  0  0  0  0  0  # atno 10765 bound_to 10752
  140.1929  134.8394  157.2932 H   0  0  0  0  0  0  0  0  0  0  0  0  # atno 11005 bound_to 11000
  144.6966  140.3458  143.7191 LP  0  0  0  0  0  0  0  0  0  0  0  0  # atno 17320 bound_to 7965
  145.7289  139.1730  143.2442 LP  0  0  0  0  0  0  0  0  0  0  0  0  # atno 17321 bound_to 7965
  140.6507  143.2224  151.6084 LP  0  0  0  0  0  0  0  0  0  0  0  0  # atno 17342 bound_to 10162
  139.5288  144.2978  152.1098 LP  0  0  0  0  0  0  0  0  0  0  0  0  # atno 17343 bound_to 10162
  156.6799  130.8854  151.3574 LP  0  0  0  0  0  0  0  0  0  0  0  0  # atno 17370 bound_to 10713
  157.7036  130.9360  150.0862 LP  0  0  0  0  0  0  0  0  0  0  0  0  # atno 17371 bound_to 10713
  140.2139  134.4104  155.7599 LP  0  0  0  0  0  0  0  0  0  0  0  0  # atno 17394 bound_to 11000
  141.2226  133.7132  156.8383 LP  0  0  0  0  0  0  0  0  0  0  0  0  # atno 17395 bound_to 11000

$$$$
