AV-unprocessed.smi:2131|AV-procd|sdf|8689|dock3
  -GOLD-   2272011443D 1   1.00000     0.00000
 Structure written by MMmdl.
 41 43  0  0  0  0  0  0  0  0  2 V2000
  143.9464  145.9210  153.3457 N   0  0  0  0  0  0  0  0  0  0  0  0
  143.8792  144.9918  154.0318 C   0  0  0  0  0  0  0  0  0  0  0  0
  143.7939  143.8108  154.9044 C   0  0  0  0  0  0  0  0  0  0  0  0
  145.1057  143.0562  154.9694 C   0  0  0  0  0  0  0  0  0  0  0  0
  145.7909  142.7222  153.7851 C   0  0  0  0  0  0  0  0  0  0  0  0
  147.0089  142.0183  153.8484 C   0  0  0  0  0  0  0  0  0  0  0  0
  147.5603  141.6380  155.0896 C   0  0  0  0  0  0  0  0  0  0  0  0
  148.7550  140.9507  155.0594 O   0  0  0  0  0  0  0  0  0  0  0  0
  149.3853  140.6423  156.2958 C   0  0  0  0  0  0  0  0  0  0  0  0
  150.8527  141.0925  156.2380 C   0  0  2  0  0  0  0  0  0  0  0  0
  151.5289  140.2845  155.2952 O   0  0  0  0  0  0  0  0  0  0  0  0
  151.5518  141.0053  157.6093 C   0  0  0  0  0  0  0  0  0  0  0  0
  151.3318  142.2009  158.4358 N   0  0  0  0  0  0  0  0  0  0  0  0
  150.6023  143.3174  158.1672 C   0  0  0  0  0  0  0  0  0  0  0  0
  150.7065  144.1463  159.2425 N   0  3  0  0  0  0  0  0  0  0  0  0
  151.5153  143.5517  160.2130 C   0  0  0  0  0  0  0  0  0  0  0  0
  151.9129  144.0036  161.4675 C   0  0  0  0  0  0  0  0  0  0  0  0
  152.7501  143.1472  162.2126 C   0  0  0  0  0  0  0  0  0  0  0  0
  153.1604  141.8974  161.7049 C   0  0  0  0  0  0  0  0  0  0  0  0
  152.7508  141.4494  160.4317 C   0  0  0  0  0  0  0  0  0  0  0  0
  151.9218  142.3008  159.7016 C   0  0  0  0  0  0  0  0  0  0  0  0
  146.8647  141.9778  156.2778 C   0  0  0  0  0  0  0  0  0  0  0  0
  145.6464  142.6817  156.2149 C   0  0  0  0  0  0  0  0  0  0  0  0
  143.4994  144.1385  155.9017 H   0  0  0  0  0  0  0  0  0  0  0  0
  143.0051  143.1591  154.5277 H   0  0  0  0  0  0  0  0  0  0  0  0
  145.3831  143.0036  152.8253 H   0  0  0  0  0  0  0  0  0  0  0  0
  147.5253  141.7664  152.9337 H   0  0  0  0  0  0  0  0  0  0  0  0
  148.8741  141.1353  157.1247 H   0  0  0  0  0  0  0  0  0  0  0  0
  149.3413  139.5646  156.4637 H   0  0  0  0  0  0  0  0  0  0  0  0
  150.8948  142.1204  155.8755 H   0  0  0  0  0  0  0  0  0  0  0  0
  151.2948  139.3822  155.4517 H   0  0  0  0  0  0  0  0  0  0  0  0
  151.1634  140.1551  158.1714 H   0  0  0  0  0  0  0  0  0  0  0  0
  152.6225  140.8324  157.4995 H   0  0  0  0  0  0  0  0  0  0  0  0
  150.0431  143.5114  157.2631 H   0  0  0  0  0  0  0  0  0  0  0  0
  151.6012  144.9612  161.8582 H   0  0  0  0  0  0  0  0  0  0  0  0
  153.0852  143.4555  163.1923 H   0  0  0  0  0  0  0  0  0  0  0  0
  153.8042  141.2692  162.3035 H   0  0  0  0  0  0  0  0  0  0  0  0
  153.0768  140.4931  160.0508 H   0  0  0  0  0  0  0  0  0  0  0  0
  147.2439  141.7087  157.2518 H   0  0  0  0  0  0  0  0  0  0  0  0
  145.1259  142.9324  157.1276 H   0  0  0  0  0  0  0  0  0  0  0  0
  150.2590  145.0517  159.3060 H   0  0  0  0  0  0  0  0  0  0  0  0
  1  2  3  0  0  0  0
  2  3  1  0  0  0  0
  3  4  1  0  0  0  0
  3 24  1  0  0  0  0
  3 25  1  0  0  0  0
  4 23  1  0  0  0  0
  4  5  2  0  0  0  0
  5  6  1  0  0  0  0
  5 26  1  0  0  0  0
  6  7  2  0  0  0  0
  6 27  1  0  0  0  0
  7  8  1  0  0  0  0
  7 22  1  0  0  0  0
  8  9  1  0  0  0  0
  9 10  1  0  0  0  0
  9 28  1  0  0  0  0
  9 29  1  0  0  0  0
 10 11  1  0  0  0  0
 10 12  1  0  0  0  0
 10 30  1  0  0  0  0
 11 31  1  0  0  0  0
 12 13  1  0  0  0  0
 12 32  1  0  0  0  0
 12 33  1  0  0  0  0
 13 21  1  0  0  0  0
 13 14  1  0  0  0  0
 14 15  2  0  0  0  0
 14 34  1  0  0  0  0
 15 16  1  0  0  0  0
 15 41  1  0  0  0  0
 16 21  2  0  0  0  0
 16 17  1  0  0  0  0
 17 18  2  0  0  0  0
 17 35  1  0  0  0  0
 18 19  1  0  0  0  0
 18 36  1  0  0  0  0
 19 20  2  0  0  0  0
 19 37  1  0  0  0  0
 20 21  1  0  0  0  0
 20 38  1  0  0  0  0
 22 23  2  0  0  0  0
 22 39  1  0  0  0  0
 23 40  1  0  0  0  0
M  CHG  1  15   1
M  END
> <s_m_source_file>
AV-unprocessed.smi

> <i_m_source_file_index>
2131

> <i_lp_mmshare_version>
43012

> <i_f3d_flags>
0

> <s_epik_input>
TiNDW0NIMl1jMVtjSF1bY0hdYyhbY0hdW2NIXTEpT1tDSDJdW0NASF0oW09IXSlbQ0gyXW4oW2NIXW4yKWMoYzIzKVtjSF1bY0hdW2NIXVtjSF0z

> <s_epik_cmdline>
J2VwaWtfcHl0aG9uJywgJy1waCcsICc3LjAnLCAnLXRuJywgJzgnLCAnLW1hJywgJzIwMCcsICctbWV0YWxfYmluZGluZycsICctaW1hZScsICc8aW5maWxlLm1hZT4nLCAnLW9tYWUnLCAnPG91dGZpbGUubWFlPic=

> <r_lp_tautomer_probability>
1

> <r_epik_Ionization_Penalty>
1.3774

> <r_epik_Ionization_Penalty_Charging>
1.37739

> <r_epik_Ionization_Penalty_Neutral>
2.3994e-06

> <r_epik_State_Penalty>
1.45762

> <r_epik_Charging_Adjusted_Penalty>
2.83501

> <i_epik_Tot_Q>
1

> <i_epik_Tot_abs_Q>
1

> <r_epik_Metal_State_Penalty>
5.49752

> <b_epik_Metal_Only>
0

> <s_lp_Force_Field>
OPLS_2005

> <r_lp_Energy>
20.896

> <b_lp_Chiralities_Consistent>
1

> <s_lp_Variant>
AV-unprocessed.smi:2131-3

> <Gold.Version>
5.8.1

> <Gold.Id.Protein>
6NUR|6NUR_protein|mol2

> <Gold.PLP.Fitness>
57.7911

> <Gold.PLP.PLP>
-53.2273

> <Gold.PLP.part.hbond>
-3.0000

> <Gold.PLP.part.metal>
0.0000

> <Gold.PLP.part.buried>
-9.0703

> <Gold.PLP.part.nonpolar>
-42.4428

> <Gold.PLP.part.repulsive>
0.3077

> <Gold.PLP.ligand.clash>
0.0000

> <Gold.PLP.ligand.torsion>
0.8125

> <Gold.PLP.Chemscore.Hbond>
0.9760

> <Gold.PLP.Chemscore.CHOScore>
1.0000

> <Gold.PLP.Chemscore.Metal>
0.0000

> <Gold.Chemscore.Hbonds>
donor molecule, donor type, donor heavy atom, donor atom, acceptor molecule, acceptor atom, score
      P1  H  7989  7998       L1    11  0.93
      L1  C    14    34       P1  8028  1.00

> <Gold.PLP.Chemscore.Internal.Correction>
0.2606

> <Gold.Rescore>
     Score         DG    S(hbond)    S(metal)    S(lipo)     H(rot)  DE(clash)    DE(int)     intcor
     13.86     -14.58       0.90        0.00     113.68       2.81       0.13       0.58       ----

> <Gold.Chemscore.Fitness>
13.8621

> <Gold.Chemscore.DG>
-14.5753

> <Gold.Chemscore.ZeroCoef>
-5.4800

> <Gold.Chemscore.Hbond>
0.8979

> <Gold.Chemscore.Metal>
0.0000

> <Gold.Chemscore.Lipo>
113.6764

> <Gold.Chemscore.Internal_Hbond>
0.0000

> <Gold.Chemscore.DEClash>
0.1347

> <Gold.Chemscore.DEInternal>
0.5786

> <Gold.Chemscore.Rot>
2.8140

> <Gold.Chemscore.Internal.Correction>
   9.000000E+99

> <Gold.Chemscore.Hbonds>
donor molecule, donor type, donor heavy atom, donor atom, acceptor molecule, acceptor atom, score
      P1  H  7989  7998       L1    11  0.84

> <Gold.Chemscore.Hbond.Weighted>
-2.9991

> <Gold.Chemscore.Metal.Weighted>
-0.0000

> <Gold.Chemscore.Lipo.Weighted>
-13.3001

> <Gold.Chemscore.Internal_Hbond.Weighted>
0.0000

> <Gold.Chemscore.DEClash.Weighted>
0.1347

> <Gold.Chemscore.DEInternal.Weighted>
0.5786

> <Gold.Chemscore.Rot.Weighted>
7.2039

> <Gold.Chemscore.Internal.Correction.Weighted>
   9.000000E+99

> <Gold.Protein.RotatedTorsions>
[ 6907 6896 6895 6894 ] final  -74.57 input  -60.11 | X-H torsion
[ 7974 7965 7964 7962 ] final -136.64 input  175.53 | X-H torsion
[ 8008 7997 7996 7995 ] final -175.98 input   59.86 | X-H torsion
[ 10167 10162 10161 10158 ] final    5.72 input  -65.29 | X-H torsion
[ 10718 10713 10712 10709 ] final  105.06 input   66.30 | X-H torsion
[ 10763 10752 10751 10750 ] final  162.24 input  -60.55 | X-H torsion
[ 11005 11000 10999 10996 ] final  141.06 input  -57.11 | X-H torsion

> <Gold.Protein.ActiveResidues>
 VAL166  LYS551  ARG553  GLY616  TRP617  ASP618  TYR619  PRO620  LYS621  CYS622 
 ASP623  PHE694  ASN695  SER759  ASP760  ASP761  ALA762  ILE779  LEU786  VAL792 
 PHE793  MET794  SER795  GLU796  ALA797  LYS798  CYS799  TRP800  GLU811  SER814 

> <Gold.Protein.RotatedAtoms>
  150.7088  134.4850  159.5487 H   0  0  0  0  0  0  0  0  0  0  0  0  # atno 6907 bound_to 6896
  152.2479  134.8160  160.0459 H   0  0  0  0  0  0  0  0  0  0  0  0  # atno 6908 bound_to 6896
  151.8918  133.3482  159.3837 H   0  0  0  0  0  0  0  0  0  0  0  0  # atno 6909 bound_to 6896
  144.8910  140.6642  143.5145 H   0  0  0  0  0  0  0  0  0  0  0  0  # atno 7974 bound_to 7965
  155.9892  140.1197  157.0654 H   0  0  0  0  0  0  0  0  0  0  0  0  # atno 8008 bound_to 7997
  154.4206  140.1129  156.5611 H   0  0  0  0  0  0  0  0  0  0  0  0  # atno 8009 bound_to 7997
  155.6365  140.3473  155.4703 H   0  0  0  0  0  0  0  0  0  0  0  0  # atno 8010 bound_to 7997
  140.6467  143.7645  150.7510 H   0  0  0  0  0  0  0  0  0  0  0  0  # atno 10167 bound_to 10162
  157.6719  131.0819  150.5800 H   0  0  0  0  0  0  0  0  0  0  0  0  # atno 10718 bound_to 10713
  154.2754  135.2764  155.2720 H   0  0  0  0  0  0  0  0  0  0  0  0  # atno 10763 bound_to 10752
  154.5265  135.5741  153.6727 H   0  0  0  0  0  0  0  0  0  0  0  0  # atno 10764 bound_to 10752
  152.9938  135.6217  154.2910 H   0  0  0  0  0  0  0  0  0  0  0  0  # atno 10765 bound_to 10752
  140.0373  134.9322  157.0777 H   0  0  0  0  0  0  0  0  0  0  0  0  # atno 11005 bound_to 11000
  145.3783  139.1642  143.4294 LP  0  0  0  0  0  0  0  0  0  0  0  0  # atno 17320 bound_to 7965
  146.3053  140.3861  142.8689 LP  0  0  0  0  0  0  0  0  0  0  0  0  # atno 17321 bound_to 7965
  140.1287  143.4545  152.2268 LP  0  0  0  0  0  0  0  0  0  0  0  0  # atno 17342 bound_to 10162
  139.5678  144.7445  151.3974 LP  0  0  0  0  0  0  0  0  0  0  0  0  # atno 17343 bound_to 10162
  156.6101  130.4377  149.5862 LP  0  0  0  0  0  0  0  0  0  0  0  0  # atno 17370 bound_to 10713
  156.2437  130.6866  151.1580 LP  0  0  0  0  0  0  0  0  0  0  0  0  # atno 17371 bound_to 10713
  140.4126  134.1965  155.7163 LP  0  0  0  0  0  0  0  0  0  0  0  0  # atno 17394 bound_to 11000
  141.1864  133.8302  157.1068 LP  0  0  0  0  0  0  0  0  0  0  0  0  # atno 17395 bound_to 11000

$$$$
