AV-unprocessed.smi:1916|AV-procd|sdf|7766|dock2
  -GOLD-   22720 9513D 1   1.00000     0.00000
 Structure written by MMmdl.
 46 48  0  0  0  0  0  0  0  0  2 V2000
  151.3539  135.9097  155.8715 O   0  0  0  0  0  0  0  0  0  0  0  0
  150.6979  136.3330  154.9196 C   0  0  0  0  0  0  0  0  0  0  0  0
  149.5617  135.7611  154.4940 N   0  0  0  0  0  0  0  0  0  0  0  0
  148.9427  134.5736  155.0763 C   0  0  0  0  0  0  0  0  0  0  0  0
  149.1542  133.3235  154.2036 C   0  0  0  0  0  0  0  0  0  0  0  0
  147.8934  132.8450  153.5045 C   0  0  0  0  0  0  0  0  0  0  0  0
  147.3413  131.5693  153.7516 C   0  0  0  0  0  0  0  0  0  0  0  0
  146.1592  131.1881  153.0830 C   0  0  0  0  0  0  0  0  0  0  0  0
  145.5540  132.0898  152.1832 C   0  0  0  0  0  0  0  0  0  0  0  0
  146.1470  133.3516  151.9742 C   0  0  0  0  0  0  0  0  0  0  0  0
  147.2793  133.6801  152.6345 N   0  3  0  0  0  0  0  0  0  0  0  0
  151.1663  137.5785  154.1499 C   0  0  2  0  0  0  0  0  0  0  0  0
  152.3977  138.2183  154.8142 C   0  0  0  0  0  0  0  0  0  0  0  0
  151.8714  139.5269  155.3781 C   0  0  0  0  0  0  0  0  0  0  0  0
  152.5435  140.2378  156.1237 O   0  0  0  0  0  0  0  0  0  0  0  0
  150.6140  139.7655  154.9788 N   0  0  0  0  0  0  0  0  0  0  0  0
  149.7824  140.8903  155.4421 C   0  0  0  0  0  0  0  0  0  0  0  0
  149.4063  140.8571  156.9362 C   0  0  0  0  0  0  0  0  0  0  0  0
  148.0999  141.6406  157.0188 C   0  0  0  0  0  0  0  0  0  0  0  0
  147.3502  141.2336  155.7528 C   0  0  0  0  0  0  0  0  0  0  0  0
  148.4341  141.0005  154.6926 C   0  0  0  0  0  0  0  0  0  0  0  0
  150.1021  138.6964  154.1272 C   0  0  0  0  0  0  0  0  0  0  0  0
  149.0856  136.1874  153.7125 H   0  0  0  0  0  0  0  0  0  0  0  0
  149.3259  134.3765  156.0788 H   0  0  0  0  0  0  0  0  0  0  0  0
  147.8755  134.7701  155.1849 H   0  0  0  0  0  0  0  0  0  0  0  0
  149.9183  133.5277  153.4520 H   0  0  0  0  0  0  0  0  0  0  0  0
  149.5466  132.5118  154.8174 H   0  0  0  0  0  0  0  0  0  0  0  0
  147.8149  130.8913  154.4471 H   0  0  0  0  0  0  0  0  0  0  0  0
  145.7213  130.2163  153.2596 H   0  0  0  0  0  0  0  0  0  0  0  0
  144.6484  131.8173  151.6612 H   0  0  0  0  0  0  0  0  0  0  0  0
  145.7528  134.1020  151.3047 H   0  0  0  0  0  0  0  0  0  0  0  0
  151.4103  137.2919  153.1254 H   0  0  0  0  0  0  0  0  0  0  0  0
  152.8365  137.6091  155.6064 H   0  0  0  0  0  0  0  0  0  0  0  0
  153.1762  138.4278  154.0801 H   0  0  0  0  0  0  0  0  0  0  0  0
  150.3425  141.8102  155.2650 H   0  0  0  0  0  0  0  0  0  0  0  0
  149.2056  139.8403  157.2745 H   0  0  0  0  0  0  0  0  0  0  0  0
  150.1858  141.2738  157.5749 H   0  0  0  0  0  0  0  0  0  0  0  0
  147.5370  141.4268  157.9278 H   0  0  0  0  0  0  0  0  0  0  0  0
  148.3092  142.7109  156.9982 H   0  0  0  0  0  0  0  0  0  0  0  0
  146.8110  140.3027  155.9334 H   0  0  0  0  0  0  0  0  0  0  0  0
  146.6195  141.9821  155.4446 H   0  0  0  0  0  0  0  0  0  0  0  0
  148.4682  141.8300  153.9853 H   0  0  0  0  0  0  0  0  0  0  0  0
  148.2009  140.1015  154.1204 H   0  0  0  0  0  0  0  0  0  0  0  0
  149.9741  139.0746  153.1122 H   0  0  0  0  0  0  0  0  0  0  0  0
  149.1278  138.3507  154.4770 H   0  0  0  0  0  0  0  0  0  0  0  0
  147.6913  134.5986  152.4674 H   0  0  0  0  0  0  0  0  0  0  0  0
  1  2  2  0  0  0  0
  2  3  1  0  0  0  0
  2 12  1  0  0  0  0
  3  4  1  0  0  0  0
  3 23  1  0  0  0  0
  4  5  1  0  0  0  0
  4 24  1  0  0  0  0
  4 25  1  0  0  0  0
  5  6  1  0  0  0  0
  5 26  1  0  0  0  0
  5 27  1  0  0  0  0
  6 11  1  0  0  0  0
  6  7  2  0  0  0  0
  7  8  1  0  0  0  0
  7 28  1  0  0  0  0
  8  9  2  0  0  0  0
  8 29  1  0  0  0  0
  9 10  1  0  0  0  0
  9 30  1  0  0  0  0
 10 11  2  0  0  0  0
 10 31  1  0  0  0  0
 11 46  1  0  0  0  0
 12 22  1  0  0  0  0
 12 13  1  0  0  0  0
 12 32  1  0  0  0  0
 13 14  1  0  0  0  0
 13 33  1  0  0  0  0
 13 34  1  0  0  0  0
 14 15  2  0  0  0  0
 14 16  1  0  0  0  0
 16 17  1  0  0  0  0
 16 22  1  0  0  0  0
 17 21  1  0  0  0  0
 17 18  1  0  0  0  0
 17 35  1  0  0  0  0
 18 19  1  0  0  0  0
 18 36  1  0  0  0  0
 18 37  1  0  0  0  0
 19 20  1  0  0  0  0
 19 38  1  0  0  0  0
 19 39  1  0  0  0  0
 20 21  1  0  0  0  0
 20 40  1  0  0  0  0
 20 41  1  0  0  0  0
 21 42  1  0  0  0  0
 21 43  1  0  0  0  0
 22 44  1  0  0  0  0
 22 45  1  0  0  0  0
M  CHG  1  11   1
M  END
> <s_m_source_file>
AV-unprocessed.smi

> <i_m_source_file_index>
1916

> <i_lp_mmshare_version>
43012

> <i_f3d_flags>
0

> <s_epik_input>
W0NIMl0xW0NIMl1bQ0gyXVtDSDJdW0NIXTFOKFtDSDJdMilDKD1PKVtDSDJdW0NASF0yQyg9TylbTkhdW0NIMl1bQ0gyXWMzW2NIXVtjSF1bY0hdW2NIXW4z

> <s_epik_cmdline>
J2VwaWtfcHl0aG9uJywgJy1waCcsICc3LjAnLCAnLXRuJywgJzgnLCAnLW1hJywgJzIwMCcsICctbWV0YWxfYmluZGluZycsICctaW1hZScsICc8aW5maWxlLm1hZT4nLCAnLW9tYWUnLCAnPG91dGZpbGUubWFlPic=

> <r_epik_Ionization_Penalty>
1.88249

> <r_epik_Ionization_Penalty_Charging>
1.88249

> <r_epik_Ionization_Penalty_Neutral>
3.64574e-08

> <r_epik_State_Penalty>
2.00238

> <r_epik_Charging_Adjusted_Penalty>
3.88487

> <i_epik_Tot_Q>
1

> <i_epik_Tot_abs_Q>
1

> <r_epik_Metal_State_Penalty>
2.02676

> <b_epik_Metal_Only>
0

> <s_lp_Force_Field>
OPLS_2005

> <r_lp_Energy>
42.8241

> <b_lp_Chiralities_Consistent>
1

> <s_lp_Variant>
AV-unprocessed.smi:1916-3

> <Gold.Version>
5.8.1

> <Gold.Id.Protein>
6NUR|6NUR_protein|mol2

> <Gold.PLP.Fitness>
55.2968

> <Gold.PLP.PLP>
-41.5291

> <Gold.PLP.part.hbond>
-4.3363

> <Gold.PLP.part.metal>
0.0000

> <Gold.PLP.part.buried>
-0.1050

> <Gold.PLP.part.nonpolar>
-37.2415

> <Gold.PLP.part.repulsive>
0.1088

> <Gold.PLP.ligand.clash>
0.0000

> <Gold.PLP.ligand.torsion>
0.6597

> <Gold.PLP.Chemscore.Hbond>
5.0000

> <Gold.PLP.Chemscore.CHOScore>
0.0000

> <Gold.PLP.Chemscore.Metal>
0.0000

> <Gold.Chemscore.Hbonds>
donor molecule, donor type, donor heavy atom, donor atom, acceptor molecule, acceptor atom, score
      L1  H     3    23       P1  7948  0.86
      L1  H    11    46       P1  7948  1.59
      P1  H  7997  8008       L1    15  1.00
      P1  H 10752 10763       L1     1  0.96

> <Gold.PLP.Chemscore.Internal.Correction>
0.0870

> <Gold.Rescore>
     Score         DG    S(hbond)    S(metal)    S(lipo)     H(rot)  DE(clash)    DE(int)     intcor
     19.63     -20.12       3.00        0.00      76.98       1.72       0.04       0.44       ----

> <Gold.Chemscore.Fitness>
19.6333

> <Gold.Chemscore.DG>
-20.1154

> <Gold.Chemscore.ZeroCoef>
-5.4800

> <Gold.Chemscore.Hbond>
3.0005

> <Gold.Chemscore.Metal>
0.0000

> <Gold.Chemscore.Lipo>
76.9756

> <Gold.Chemscore.Internal_Hbond>
0.0000

> <Gold.Chemscore.DEClash>
0.0428

> <Gold.Chemscore.DEInternal>
0.4393

> <Gold.Chemscore.Rot>
1.7158

> <Gold.Chemscore.Internal.Correction>
   9.000000E+99

> <Gold.Chemscore.Hbonds>
donor molecule, donor type, donor heavy atom, donor atom, acceptor molecule, acceptor atom, score
      L1  H     3    23       P1  7948  0.81
      L1  H    11    46       P1  7948  0.58
      P1  H  7997  8008       L1    15  0.97
      P1  H 10752 10763       L1     1  0.49

> <Gold.Chemscore.Hbond.Weighted>
-10.0216

> <Gold.Chemscore.Metal.Weighted>
-0.0000

> <Gold.Chemscore.Lipo.Weighted>
-9.0061

> <Gold.Chemscore.Internal_Hbond.Weighted>
0.0000

> <Gold.Chemscore.DEClash.Weighted>
0.0428

> <Gold.Chemscore.DEInternal.Weighted>
0.4393

> <Gold.Chemscore.Rot.Weighted>
4.3924

> <Gold.Chemscore.Internal.Correction.Weighted>
   9.000000E+99

> <Gold.Protein.RotatedTorsions>
[ 6907 6896 6895 6894 ] final    3.98 input  -60.11 | X-H torsion
[ 7974 7965 7964 7962 ] final  -34.66 input  175.53 | X-H torsion
[ 8008 7997 7996 7995 ] final  -46.83 input   59.86 | X-H torsion
[ 10167 10162 10161 10158 ] final   77.84 input  -65.29 | X-H torsion
[ 10718 10713 10712 10709 ] final   74.39 input   66.30 | X-H torsion
[ 10763 10752 10751 10750 ] final   96.05 input  -60.55 | X-H torsion
[ 11005 11000 10999 10996 ] final  118.16 input  -57.11 | X-H torsion

> <Gold.Protein.ActiveResidues>
 VAL166  LYS551  ARG553  GLY616  TRP617  ASP618  TYR619  PRO620  LYS621  CYS622 
 ASP623  PHE694  ASN695  SER759  ASP760  ASP761  ALA762  ILE779  LEU786  VAL792 
 PHE793  MET794  SER795  GLU796  ALA797  LYS798  CYS799  TRP800  GLU811  SER814 

> <Gold.Protein.RotatedAtoms>
  151.6338  135.1020  160.0127 H   0  0  0  0  0  0  0  0  0  0  0  0  # atno 6907 bound_to 6896
  152.4092  133.6932  159.6391 H   0  0  0  0  0  0  0  0  0  0  0  0  # atno 6908 bound_to 6896
  150.7983  133.8572  159.3263 H   0  0  0  0  0  0  0  0  0  0  0  0  # atno 6909 bound_to 6896
  146.0811  140.6065  142.8908 H   0  0  0  0  0  0  0  0  0  0  0  0  # atno 7974 bound_to 7965
  154.4011  140.1361  156.4076 H   0  0  0  0  0  0  0  0  0  0  0  0  # atno 8008 bound_to 7997
  155.7764  140.3482  155.5254 H   0  0  0  0  0  0  0  0  0  0  0  0  # atno 8009 bound_to 7997
  155.8716  140.0973  157.1536 H   0  0  0  0  0  0  0  0  0  0  0  0  # atno 8010 bound_to 7997
  139.9773  144.5852  150.7932 H   0  0  0  0  0  0  0  0  0  0  0  0  # atno 10167 bound_to 10162
  157.6590  130.9675  150.1204 H   0  0  0  0  0  0  0  0  0  0  0  0  # atno 10718 bound_to 10713
  153.2603  135.4232  155.0888 H   0  0  0  0  0  0  0  0  0  0  0  0  # atno 10763 bound_to 10752
  154.8417  135.3447  154.6386 H   0  0  0  0  0  0  0  0  0  0  0  0  # atno 10764 bound_to 10752
  153.6807  135.7039  153.5176 H   0  0  0  0  0  0  0  0  0  0  0  0  # atno 10765 bound_to 10752
  139.9100  134.9617  156.7461 H   0  0  0  0  0  0  0  0  0  0  0  0  # atno 11005 bound_to 11000
  144.7294  140.4625  143.6949 LP  0  0  0  0  0  0  0  0  0  0  0  0  # atno 17320 bound_to 7965
  145.6216  139.1525  143.3019 LP  0  0  0  0  0  0  0  0  0  0  0  0  # atno 17321 bound_to 7965
  140.7501  143.2950  151.3229 LP  0  0  0  0  0  0  0  0  0  0  0  0  # atno 17342 bound_to 10162
  139.6436  144.0493  152.2573 LP  0  0  0  0  0  0  0  0  0  0  0  0  # atno 17343 bound_to 10162
  156.2077  130.3664  149.8709 LP  0  0  0  0  0  0  0  0  0  0  0  0  # atno 17370 bound_to 10713
  156.6596  130.8776  151.3545 LP  0  0  0  0  0  0  0  0  0  0  0  0  # atno 17371 bound_to 10713
  140.6811  133.9474  155.7911 LP  0  0  0  0  0  0  0  0  0  0  0  0  # atno 17394 bound_to 11000
  141.0510  134.0485  157.3784 LP  0  0  0  0  0  0  0  0  0  0  0  0  # atno 17395 bound_to 11000

$$$$
