AV-unprocessed.smi:3166|AV-procd|sdf|12095|dock7
  -GOLD-   2272017533D 1   1.00000     0.00000
 Structure written by MMmdl.
 40 41  0  0  0  0  0  0  0  0  1 V2000
  144.2502  135.9463  152.3563 C   0  0  0  0  0  0  0  0  0  0  0  0
  145.6983  135.6783  151.8958 C   0  0  2  0  0  0  0  0  0  0  0  0
  146.1942  134.2733  152.2968 C   0  0  0  0  0  0  0  0  0  0  0  0
  145.7075  133.2266  151.4145 N   0  0  0  0  0  0  0  0  0  0  0  0
  146.4333  132.4169  150.5659 C   0  0  0  0  0  0  0  0  0  0  0  0
  145.5490  131.5829  149.9440 C   0  0  0  0  0  0  0  0  0  0  0  0
  144.2898  131.9574  150.4909 C   0  0  0  0  0  0  0  0  0  0  0  0
  144.3881  132.9398  151.3720 N   0  0  0  0  0  0  0  0  0  0  0  0
  146.6315  136.6816  152.4176 N   0  0  0  0  0  0  0  0  0  0  0  0
  146.3154  138.0748  152.0882 C   0  0  0  0  0  0  0  0  0  0  0  0
  146.9733  139.0776  153.0633 C   0  0  0  0  0  0  0  0  0  0  0  0
  148.3592  138.7863  153.0800 O   0  0  0  0  0  0  0  0  0  0  0  0
  146.7487  140.5537  152.6452 C   0  0  0  0  0  0  0  0  0  0  0  0
  147.2742  141.5602  153.6849 C   0  0  0  0  0  0  0  0  0  0  0  0
  146.6833  141.2933  155.0759 C   0  0  0  0  0  0  0  0  0  0  0  0
  146.9635  139.8514  155.5201 C   0  0  0  0  0  0  0  0  0  0  0  0
  146.4292  138.8381  154.4921 C   0  0  0  0  0  0  0  0  0  0  0  0
  143.5648  135.1843  151.9854 H   0  0  0  0  0  0  0  0  0  0  0  0
  143.8742  136.8998  151.9877 H   0  0  0  0  0  0  0  0  0  0  0  0
  144.1770  135.9536  153.4442 H   0  0  0  0  0  0  0  0  0  0  0  0
  145.7135  135.7276  150.8062 H   0  0  0  0  0  0  0  0  0  0  0  0
  147.2845  134.2402  152.2816 H   0  0  0  0  0  0  0  0  0  0  0  0
  145.8914  134.0448  153.3205 H   0  0  0  0  0  0  0  0  0  0  0  0
  147.5058  132.5039  150.4736 H   0  0  0  0  0  0  0  0  0  0  0  0
  145.7683  130.8201  149.2117 H   0  0  0  0  0  0  0  0  0  0  0  0
  143.3141  131.5470  150.2758 H   0  0  0  0  0  0  0  0  0  0  0  0
  147.5719  136.4658  152.1026 H   0  0  0  0  0  0  0  0  0  0  0  0
  146.6605  138.2890  151.0759 H   0  0  0  0  0  0  0  0  0  0  0  0
  145.2372  138.2343  152.0852 H   0  0  0  0  0  0  0  0  0  0  0  0
  148.4721  137.8699  152.8781 H   0  0  0  0  0  0  0  0  0  0  0  0
  147.2218  140.7593  151.6843 H   0  0  0  0  0  0  0  0  0  0  0  0
  145.6813  140.7255  152.4998 H   0  0  0  0  0  0  0  0  0  0  0  0
  148.3624  141.5047  153.7338 H   0  0  0  0  0  0  0  0  0  0  0  0
  147.0335  142.5757  153.3699 H   0  0  0  0  0  0  0  0  0  0  0  0
  147.1023  141.9934  155.7993 H   0  0  0  0  0  0  0  0  0  0  0  0
  145.6071  141.4704  155.0592 H   0  0  0  0  0  0  0  0  0  0  0  0
  148.0367  139.7115  155.6556 H   0  0  0  0  0  0  0  0  0  0  0  0
  146.5061  139.6684  156.4928 H   0  0  0  0  0  0  0  0  0  0  0  0
  145.3404  138.9039  154.4772 H   0  0  0  0  0  0  0  0  0  0  0  0
  146.6634  137.8248  154.8213 H   0  0  0  0  0  0  0  0  0  0  0  0
  1  2  1  0  0  0  0
  1 18  1  0  0  0  0
  1 19  1  0  0  0  0
  1 20  1  0  0  0  0
  2  3  1  0  0  0  0
  2  9  1  0  0  0  0
  2 21  1  0  0  0  0
  3  4  1  0  0  0  0
  3 22  1  0  0  0  0
  3 23  1  0  0  0  0
  4  8  1  0  0  0  0
  4  5  1  0  0  0  0
  5  6  2  0  0  0  0
  5 24  1  0  0  0  0
  6  7  1  0  0  0  0
  6 25  1  0  0  0  0
  7  8  2  0  0  0  0
  7 26  1  0  0  0  0
  9 10  1  0  0  0  0
  9 27  1  0  0  0  0
 10 11  1  0  0  0  0
 10 28  1  0  0  0  0
 10 29  1  0  0  0  0
 11 17  1  0  0  0  0
 11 12  1  0  0  0  0
 11 13  1  0  0  0  0
 12 30  1  0  0  0  0
 13 14  1  0  0  0  0
 13 31  1  0  0  0  0
 13 32  1  0  0  0  0
 14 15  1  0  0  0  0
 14 33  1  0  0  0  0
 14 34  1  0  0  0  0
 15 16  1  0  0  0  0
 15 35  1  0  0  0  0
 15 36  1  0  0  0  0
 16 17  1  0  0  0  0
 16 37  1  0  0  0  0
 16 38  1  0  0  0  0
 17 39  1  0  0  0  0
 17 40  1  0  0  0  0
M  END
> <s_m_source_file>
AV-unprocessed.smi

> <i_m_source_file_index>
3166

> <i_lp_mmshare_version>
43012

> <i_f3d_flags>
0

> <s_epik_input>
bjFbY0hdW2NIXVtjSF1uMVtDSDJdW0NAQEhdKFtDSDNdKVtOSF1bQ0gyXUMyKFtPSF0pW0NIMl1bQ0gyXVtDSDJdW0NIMl1bQ0gyXTI=

> <s_epik_cmdline>
J2VwaWtfcHl0aG9uJywgJy1waCcsICc3LjAnLCAnLXRuJywgJzgnLCAnLW1hJywgJzIwMCcsICctbWV0YWxfYmluZGluZycsICctaW1hZScsICc8aW5maWxlLm1hZT4nLCAnLW9tYWUnLCAnPG91dGZpbGUubWFlPic=

> <r_lp_tautomer_probability>
1

> <r_epik_Ionization_Penalty>
2.35964

> <r_epik_Ionization_Penalty_Charging>
0

> <r_epik_Ionization_Penalty_Neutral>
2.35964

> <r_epik_State_Penalty>
2.51455

> <r_epik_Charging_Adjusted_Penalty>
2.51455

> <i_epik_Tot_Q>
0

> <i_epik_Tot_abs_Q>
0

> <r_epik_Metal_State_Penalty>
2.51451

> <b_epik_Metal_Only>
0

> <s_lp_Force_Field>
OPLS_2005

> <r_lp_Energy>
22.8123

> <b_lp_Chiralities_Consistent>
1

> <s_lp_Variant>
AV-unprocessed.smi:3166-3

> <Gold.Version>
5.8.1

> <Gold.Id.Protein>
6NUR|6NUR_protein|mol2

> <Gold.PLP.Fitness>
43.2582

> <Gold.PLP.PLP>
-33.0461

> <Gold.PLP.part.hbond>
-3.0000

> <Gold.PLP.part.metal>
0.0000

> <Gold.PLP.part.buried>
-4.5777

> <Gold.PLP.part.nonpolar>
-27.9933

> <Gold.PLP.part.repulsive>
0.1720

> <Gold.PLP.ligand.clash>
0.0000

> <Gold.PLP.ligand.torsion>
0.3792

> <Gold.PLP.Chemscore.Hbond>
2.0000

> <Gold.PLP.Chemscore.CHOScore>
1.6442

> <Gold.PLP.Chemscore.Metal>
0.0000

> <Gold.Chemscore.Hbonds>
donor molecule, donor type, donor heavy atom, donor atom, acceptor molecule, acceptor atom, score
      L1  H     9    27       P1  7948  0.68
      L1  H    12    30       P1  7948  1.00
      L1  C     5    24       P1 10747  0.96
      L1  C     7    26       P1 10952  0.19

> <Gold.PLP.Chemscore.Internal.Correction>
0.0379

> <Gold.Rescore>
     Score         DG    S(hbond)    S(metal)    S(lipo)     H(rot)  DE(clash)    DE(int)     intcor
     16.30     -17.08       1.98        0.00      88.96       2.12       0.18       0.60       ----

> <Gold.Chemscore.Fitness>
16.2973

> <Gold.Chemscore.DG>
-17.0762

> <Gold.Chemscore.ZeroCoef>
-5.4800

> <Gold.Chemscore.Hbond>
1.9814

> <Gold.Chemscore.Metal>
0.0000

> <Gold.Chemscore.Lipo>
88.9578

> <Gold.Chemscore.Internal_Hbond>
0.0000

> <Gold.Chemscore.DEClash>
0.1790

> <Gold.Chemscore.DEInternal>
0.5998

> <Gold.Chemscore.Rot>
2.1209

> <Gold.Chemscore.Internal.Correction>
   9.000000E+99

> <Gold.Chemscore.Hbonds>
donor molecule, donor type, donor heavy atom, donor atom, acceptor molecule, acceptor atom, score
      L1  H     9    27       P1  7948  0.69
      L1  H    12    30       P1  7948  0.97

> <Gold.Chemscore.Hbond.Weighted>
-6.6177

> <Gold.Chemscore.Metal.Weighted>
-0.0000

> <Gold.Chemscore.Lipo.Weighted>
-10.4081

> <Gold.Chemscore.Internal_Hbond.Weighted>
0.0000

> <Gold.Chemscore.DEClash.Weighted>
0.1790

> <Gold.Chemscore.DEInternal.Weighted>
0.5998

> <Gold.Chemscore.Rot.Weighted>
5.4296

> <Gold.Chemscore.Internal.Correction.Weighted>
   9.000000E+99

> <Gold.Protein.RotatedTorsions>
[ 6907 6896 6895 6894 ] final -128.54 input  -60.11 | X-H torsion
[ 7974 7965 7964 7962 ] final  -27.28 input  175.53 | X-H torsion
[ 8008 7997 7996 7995 ] final   82.42 input   59.86 | X-H torsion
[ 10167 10162 10161 10158 ] final  -28.71 input  -65.29 | X-H torsion
[ 10718 10713 10712 10709 ] final  -45.04 input   66.30 | X-H torsion
[ 10763 10752 10751 10750 ] final   49.11 input  -60.55 | X-H torsion
[ 11005 11000 10999 10996 ] final -148.85 input  -57.11 | X-H torsion

> <Gold.Protein.ActiveResidues>
 VAL166  LYS551  ARG553  GLY616  TRP617  ASP618  TYR619  PRO620  LYS621  CYS622 
 ASP623  PHE694  ASN695  SER759  ASP760  ASP761  ALA762  ILE779  LEU786  VAL792 
 PHE793  MET794  SER795  GLU796  ALA797  LYS798  CYS799  TRP800  GLU811  SER814 

> <Gold.Protein.RotatedAtoms>
  150.9190  133.6903  159.2836 H   0  0  0  0  0  0  0  0  0  0  0  0  # atno 6907 bound_to 6896
  151.4364  135.1014  159.9667 H   0  0  0  0  0  0  0  0  0  0  0  0  # atno 6908 bound_to 6896
  152.4970  133.8609  159.7304 H   0  0  0  0  0  0  0  0  0  0  0  0  # atno 6909 bound_to 6896
  146.1368  140.5131  142.8669 H   0  0  0  0  0  0  0  0  0  0  0  0  # atno 7974 bound_to 7965
  155.9103  140.3428  155.6094 H   0  0  0  0  0  0  0  0  0  0  0  0  # atno 8008 bound_to 7997
  155.7395  140.0806  157.2271 H   0  0  0  0  0  0  0  0  0  0  0  0  # atno 8009 bound_to 7997
  154.4055  140.1573  156.2587 H   0  0  0  0  0  0  0  0  0  0  0  0  # atno 8010 bound_to 7997
  140.7267  143.3987  151.1302 H   0  0  0  0  0  0  0  0  0  0  0  0  # atno 10167 bound_to 10162
  156.2324  130.4173  149.8859 H   0  0  0  0  0  0  0  0  0  0  0  0  # atno 10718 bound_to 10713
  152.9788  135.5922  154.4036 H   0  0  0  0  0  0  0  0  0  0  0  0  # atno 10763 bound_to 10752
  154.3679  135.2767  155.2285 H   0  0  0  0  0  0  0  0  0  0  0  0  # atno 10764 bound_to 10752
  154.4253  135.6049  153.6090 H   0  0  0  0  0  0  0  0  0  0  0  0  # atno 10765 bound_to 10752
  140.7569  134.3342  157.5111 H   0  0  0  0  0  0  0  0  0  0  0  0  # atno 11005 bound_to 11000
  144.7749  140.5717  143.6645 LP  0  0  0  0  0  0  0  0  0  0  0  0  # atno 17320 bound_to 7965
  145.5137  139.1478  143.3590 LP  0  0  0  0  0  0  0  0  0  0  0  0  # atno 17321 bound_to 7965
  139.7604  143.8644  152.3099 LP  0  0  0  0  0  0  0  0  0  0  0  0  # atno 17342 bound_to 10162
  139.8528  144.7156  150.9193 LP  0  0  0  0  0  0  0  0  0  0  0  0  # atno 17343 bound_to 10162
  156.6468  130.8727  151.3524 LP  0  0  0  0  0  0  0  0  0  0  0  0  # atno 17370 bound_to 10713
  157.7139  130.9473  150.1185 LP  0  0  0  0  0  0  0  0  0  0  0  0  # atno 17371 bound_to 10713
  139.8777  134.9178  156.3186 LP  0  0  0  0  0  0  0  0  0  0  0  0  # atno 17394 bound_to 11000
  140.9699  133.7334  156.0519 LP  0  0  0  0  0  0  0  0  0  0  0  0  # atno 17395 bound_to 11000

$$$$
