AV-unprocessed.smi:1967|AV-procd|sdf|7954|dock7
  -GOLD-   2272010123D 1   1.00000     0.00000
 Structure written by MMmdl.
 37 38  0  0  0  0  0  0  0  0  1 V2000
  151.8770  138.6250  155.5627 O   0  0  0  0  0  0  0  0  0  0  0  0
  151.1769  138.6785  156.8553 S   0  0  0  0  0  0  0  0  0  0  0  0
  151.1730  137.5201  157.7620 O   0  0  0  0  0  0  0  0  0  0  0  0
  151.7557  140.0390  157.7380 N   0  0  0  0  0  0  0  0  0  0  0  0
  151.8158  139.9498  159.1961 C   0  0  0  0  0  0  0  0  0  0  0  0
  152.9507  140.8243  159.7526 C   0  0  0  0  0  0  0  0  0  0  0  0
  152.5173  142.2504  160.0459 C   0  0  0  0  0  0  0  0  0  0  0  0
  152.7149  142.8164  161.3239 C   0  0  0  0  0  0  0  0  0  0  0  0
  152.3027  144.1457  161.5403 C   0  0  0  0  0  0  0  0  0  0  0  0
  151.7114  144.8539  160.4763 C   0  0  0  0  0  0  0  0  0  0  0  0
  151.5592  144.1991  159.2379 C   0  0  0  0  0  0  0  0  0  0  0  0
  151.9523  142.9256  159.0196 N   0  0  0  0  0  0  0  0  0  0  0  0
  149.5431  139.1872  156.5807 N   0  0  0  0  0  0  0  0  0  0  0  0
  149.2904  140.6430  156.5126 C   0  0  0  0  0  0  0  0  0  0  0  0
  147.7904  140.9653  156.6151 C   0  0  0  0  0  0  0  0  0  0  0  0
  146.9873  140.2050  155.5569 C   0  0  0  0  0  0  0  0  0  0  0  0
  147.2565  138.7054  155.7052 C   0  0  0  0  0  0  0  0  0  0  0  0
  148.7600  138.3963  155.6097 C   0  0  0  0  0  0  0  0  0  0  0  0
  151.3327  140.9090  157.4151 H   0  0  0  0  0  0  0  0  0  0  0  0
  150.8555  140.2515  159.6159 H   0  0  0  0  0  0  0  0  0  0  0  0
  151.9771  138.9092  159.4785 H   0  0  0  0  0  0  0  0  0  0  0  0
  153.3323  140.3802  160.6729 H   0  0  0  0  0  0  0  0  0  0  0  0
  153.7886  140.8350  159.0542 H   0  0  0  0  0  0  0  0  0  0  0  0
  153.1747  142.2478  162.1190 H   0  0  0  0  0  0  0  0  0  0  0  0
  152.4383  144.6135  162.5043 H   0  0  0  0  0  0  0  0  0  0  0  0
  151.3820  145.8743  160.6053 H   0  0  0  0  0  0  0  0  0  0  0  0
  151.1096  144.7120  158.4006 H   0  0  0  0  0  0  0  0  0  0  0  0
  149.8231  141.1528  157.3146 H   0  0  0  0  0  0  0  0  0  0  0  0
  149.6949  141.0269  155.5752 H   0  0  0  0  0  0  0  0  0  0  0  0
  147.4273  140.7044  157.6101 H   0  0  0  0  0  0  0  0  0  0  0  0
  147.6338  142.0382  156.5004 H   0  0  0  0  0  0  0  0  0  0  0  0
  145.9226  140.4120  155.6683 H   0  0  0  0  0  0  0  0  0  0  0  0
  147.2723  140.5400  154.5588 H   0  0  0  0  0  0  0  0  0  0  0  0
  146.8728  138.3568  156.6651 H   0  0  0  0  0  0  0  0  0  0  0  0
  146.7149  138.1525  154.9371 H   0  0  0  0  0  0  0  0  0  0  0  0
  149.1283  138.6058  154.6045 H   0  0  0  0  0  0  0  0  0  0  0  0
  148.9200  137.3332  155.7890 H   0  0  0  0  0  0  0  0  0  0  0  0
  1  2  2  0  0  0  0
  2  3  2  0  0  0  0
  2  4  1  0  0  0  0
  2 13  1  0  0  0  0
  4  5  1  0  0  0  0
  4 19  1  0  0  0  0
  5  6  1  0  0  0  0
  5 20  1  0  0  0  0
  5 21  1  0  0  0  0
  6  7  1  0  0  0  0
  6 22  1  0  0  0  0
  6 23  1  0  0  0  0
  7 12  1  0  0  0  0
  7  8  2  0  0  0  0
  8  9  1  0  0  0  0
  8 24  1  0  0  0  0
  9 10  2  0  0  0  0
  9 25  1  0  0  0  0
 10 11  1  0  0  0  0
 10 26  1  0  0  0  0
 11 12  2  0  0  0  0
 11 27  1  0  0  0  0
 13 18  1  0  0  0  0
 13 14  1  0  0  0  0
 14 15  1  0  0  0  0
 14 28  1  0  0  0  0
 14 29  1  0  0  0  0
 15 16  1  0  0  0  0
 15 30  1  0  0  0  0
 15 31  1  0  0  0  0
 16 17  1  0  0  0  0
 16 32  1  0  0  0  0
 16 33  1  0  0  0  0
 17 18  1  0  0  0  0
 17 34  1  0  0  0  0
 17 35  1  0  0  0  0
 18 36  1  0  0  0  0
 18 37  1  0  0  0  0
M  END
> <s_m_source_file>
AV-unprocessed.smi

> <i_m_source_file_index>
1967

> <i_lp_mmshare_version>
43012

> <i_f3d_flags>
0

> <s_epik_input>
W0NIMl0xW0NIMl1bQ0gyXVtDSDJdW0NIMl1OMVMoPU8pKD1PKVtOSF1bQ0gyXVtDSDJdYzJbY0hdW2NIXVtjSF1bY0hdbjI=

> <s_epik_cmdline>
J2VwaWtfcHl0aG9uJywgJy1waCcsICc3LjAnLCAnLXRuJywgJzgnLCAnLW1hJywgJzIwMCcsICctbWV0YWxfYmluZGluZycsICctaW1hZScsICc8aW5maWxlLm1hZT4nLCAnLW9tYWUnLCAnPG91dGZpbGUubWFlPic=

> <r_epik_Ionization_Penalty>
0.0252758

> <r_epik_Ionization_Penalty_Charging>
0

> <r_epik_Ionization_Penalty_Neutral>
0.0252758

> <r_epik_State_Penalty>
0.0138562

> <r_epik_Charging_Adjusted_Penalty>
0.0138562

> <i_epik_Tot_Q>
0

> <i_epik_Tot_abs_Q>
0

> <r_epik_Metal_State_Penalty>
0.204365

> <b_epik_Metal_Only>
0

> <s_lp_Force_Field>
OPLS_2005

> <r_lp_Energy>
9.86341

> <b_lp_Chiralities_Consistent>
1

> <s_lp_Variant>
AV-unprocessed.smi:1967-1

> <Gold.Version>
5.8.1

> <Gold.Id.Protein>
6NUR|6NUR_protein|mol2

> <Gold.PLP.Fitness>
44.0033

> <Gold.PLP.PLP>
-43.3025

> <Gold.PLP.part.hbond>
-2.0000

> <Gold.PLP.part.metal>
0.0000

> <Gold.PLP.part.buried>
-3.9447

> <Gold.PLP.part.nonpolar>
-36.9437

> <Gold.PLP.part.repulsive>
0.0176

> <Gold.PLP.ligand.clash>
0.0000

> <Gold.PLP.ligand.torsion>
1.5293

> <Gold.PLP.Chemscore.Hbond>
1.0000

> <Gold.PLP.Chemscore.CHOScore>
0.0000

> <Gold.PLP.Chemscore.Metal>
0.0000

> <Gold.PLP.Chemscore.Internal.Correction>
0.7593

> <Gold.Rescore>
     Score         DG    S(hbond)    S(metal)    S(lipo)     H(rot)  DE(clash)    DE(int)     intcor
     13.81     -15.82       0.62        0.00     107.60       1.69       0.03       1.98       ----

> <Gold.Chemscore.Fitness>
13.8146

> <Gold.Chemscore.DG>
-15.8250

> <Gold.Chemscore.ZeroCoef>
-5.4800

> <Gold.Chemscore.Hbond>
0.6227

> <Gold.Chemscore.Metal>
0.0000

> <Gold.Chemscore.Lipo>
107.6002

> <Gold.Chemscore.Internal_Hbond>
0.0000

> <Gold.Chemscore.DEClash>
0.0299

> <Gold.Chemscore.DEInternal>
1.9804

> <Gold.Chemscore.Rot>
1.6891

> <Gold.Chemscore.Internal.Correction>
   9.000000E+99

> <Gold.Chemscore.Hbond.Weighted>
-2.0799

> <Gold.Chemscore.Metal.Weighted>
-0.0000

> <Gold.Chemscore.Lipo.Weighted>
-12.5892

> <Gold.Chemscore.Internal_Hbond.Weighted>
0.0000

> <Gold.Chemscore.DEClash.Weighted>
0.0299

> <Gold.Chemscore.DEInternal.Weighted>
1.9804

> <Gold.Chemscore.Rot.Weighted>
4.3241

> <Gold.Chemscore.Internal.Correction.Weighted>
   9.000000E+99

> <Gold.Protein.RotatedTorsions>
[ 6907 6896 6895 6894 ] final   -8.23 input  -60.11 | X-H torsion
[ 7974 7965 7964 7962 ] final  -45.02 input  175.53 | X-H torsion
[ 8008 7997 7996 7995 ] final  -12.74 input   59.86 | X-H torsion
[ 10167 10162 10161 10158 ] final    6.71 input  -65.29 | X-H torsion
[ 10718 10713 10712 10709 ] final  104.81 input   66.30 | X-H torsion
[ 10763 10752 10751 10750 ] final  148.50 input  -60.55 | X-H torsion
[ 11005 11000 10999 10996 ] final -177.73 input  -57.11 | X-H torsion

> <Gold.Protein.ActiveResidues>
 VAL166  LYS551  ARG553  GLY616  TRP617  ASP618  TYR619  PRO620  LYS621  CYS622 
 ASP623  PHE694  ASN695  SER759  ASP760  ASP761  ALA762  ILE779  LEU786  VAL792 
 PHE793  MET794  SER795  GLU796  ALA797  LYS798  CYS799  TRP800  GLU811  SER814 

> <Gold.Protein.RotatedAtoms>
  151.4370  135.1016  159.9658 H   0  0  0  0  0  0  0  0  0  0  0  0  # atno 6907 bound_to 6896
  152.4936  133.8564  159.7238 H   0  0  0  0  0  0  0  0  0  0  0  0  # atno 6908 bound_to 6896
  150.9115  133.6934  159.2881 H   0  0  0  0  0  0  0  0  0  0  0  0  # atno 6909 bound_to 6896
  145.9862  140.7230  142.9339 H   0  0  0  0  0  0  0  0  0  0  0  0  # atno 7974 bound_to 7965
  154.5352  140.2268  155.8736 H   0  0  0  0  0  0  0  0  0  0  0  0  # atno 8008 bound_to 7997
  156.1804  140.3101  155.9100 H   0  0  0  0  0  0  0  0  0  0  0  0  # atno 8009 bound_to 7997
  155.3370  140.0448  157.3034 H   0  0  0  0  0  0  0  0  0  0  0  0  # atno 8010 bound_to 7997
  140.6412  143.7769  150.7431 H   0  0  0  0  0  0  0  0  0  0  0  0  # atno 10167 bound_to 10162
  157.6727  131.0812  150.5762 H   0  0  0  0  0  0  0  0  0  0  0  0  # atno 10718 bound_to 10713
  154.0558  135.2878  155.3333 H   0  0  0  0  0  0  0  0  0  0  0  0  # atno 10763 bound_to 10752
  154.6840  135.5252  153.8304 H   0  0  0  0  0  0  0  0  0  0  0  0  # atno 10764 bound_to 10752
  153.0542  135.6588  154.0751 H   0  0  0  0  0  0  0  0  0  0  0  0  # atno 10765 bound_to 10752
  140.4377  134.6460  157.4742 H   0  0  0  0  0  0  0  0  0  0  0  0  # atno 11005 bound_to 11000
  144.6875  140.2992  143.7266 LP  0  0  0  0  0  0  0  0  0  0  0  0  # atno 17320 bound_to 7965
  145.7697  139.1853  143.2219 LP  0  0  0  0  0  0  0  0  0  0  0  0  # atno 17321 bound_to 7965
  140.1401  143.4449  152.2199 LP  0  0  0  0  0  0  0  0  0  0  0  0  # atno 17342 bound_to 10162
  139.5622  144.7412  151.4124 LP  0  0  0  0  0  0  0  0  0  0  0  0  # atno 17343 bound_to 10162
  156.6063  130.4368  149.5877 LP  0  0  0  0  0  0  0  0  0  0  0  0  # atno 17370 bound_to 10713
  156.2466  130.6883  151.1606 LP  0  0  0  0  0  0  0  0  0  0  0  0  # atno 17371 bound_to 10713
  140.0091  134.6718  155.9409 LP  0  0  0  0  0  0  0  0  0  0  0  0  # atno 17394 bound_to 11000
  141.1719  133.6538  156.4682 LP  0  0  0  0  0  0  0  0  0  0  0  0  # atno 17395 bound_to 11000

$$$$
