#       Name:                AV-unprocessed.smi:2454
#       Creating user name   scv26
#       Creation time:       Fri Mar 27 13:33:36 2020


#       File generated by GOLD software.
#

@<TRIPOS>MOLECULE
AV-unprocessed.smi:2454
    48    49     1
SMALL
NO_CHARGES


@<TRIPOS>ATOM
      1 ****        -7.8532   0.7632  -2.4185 C.3            1 S1                 0.0000
      2 ****        -6.5083   0.5925  -2.8300 O.3            1 S1                 0.0000
      3 ****        -5.7381   1.7718  -2.6707 C.3            1 S1                 0.0000
      4 ****        -4.3096   1.5638  -3.1290 C.ar           1 S1                 0.0000
      5 ****        -3.3056   1.1444  -2.2309 C.ar           1 S1                 0.0000
      6 ****        -2.0025   0.9680  -2.7492 C.ar           1 S1                 0.0000
      7 ****        -1.0256   0.5451  -1.8003 N.am           1 S1                 0.0000
      8 ****         0.2918   0.2786  -1.9317 C.2            1 S1                 0.0000
      9 ****         0.8546   0.3868  -3.0200 O.2            1 S1                 0.0000
     10 ****         0.9348  -0.1054  -0.8167 N.am           1 S1                 0.0000
     11 ****         2.3529  -0.4348  -0.7192 C.3            1 S1                 0.0000
     12 ****         2.6039  -1.8903  -1.1601 C.3            1 S1                 0.0000
     13 ****         4.0794  -2.2785  -0.9835 C.3            1 S1                 0.0000
     14 ****         4.5485  -2.0490   0.4618 C.3            1 S1                 0.0000
     15 ****         4.3151  -0.5910   0.9109 C.3            1 S1                 0.0000
     16 ****         4.8007  -0.3453   2.3543 C.3            1 S1                 0.0000
     17 ****         4.1249  -1.1030   3.2187 F              1 S1                 0.0000
     18 ****         6.0987  -0.6318   2.4535 F              1 S1                 0.0000
     19 ****         4.6328   0.9361   2.6813 F              1 S1                 0.0000
     20 ****         2.8300  -0.2120   0.7281 C.3            1 S1                 0.0000
     21 ****        -1.7666   1.2022  -4.0657 N.ar           1 S1                 0.0000
     22 ****        -2.7893   1.5944  -4.8293 C.ar           1 S1                 0.0000
     23 ****        -4.0475   1.7887  -4.4340 N.ar           1 S1                 0.0000
     24 ****        -8.4006  -0.1685  -2.5604 H              1 S1                 0.0000
     25 ****        -8.3500   1.5381  -3.0042 H              1 S1                 0.0000
     26 ****        -7.9114   1.0307  -1.3627 H              1 S1                 0.0000
     27 ****        -6.1839   2.5894  -3.2401 H              1 S1                 0.0000
     28 ****        -5.7354   2.0760  -1.6227 H              1 S1                 0.0000
     29 ****        -3.5300   0.9640  -1.1894 H              1 S1                 0.0000
     30 ****        -1.3818   0.4257  -0.8633 H              1 S1                 0.0000
     31 ****         0.3938  -0.1685   0.0347 H              1 S1                 0.0000
     32 ****         2.9184   0.2350  -1.3698 H              1 S1                 0.0000
     33 ****         1.9794  -2.5674  -0.5754 H              1 S1                 0.0000
     34 ****         2.3137  -2.0252  -2.2026 H              1 S1                 0.0000
     35 ****         4.2232  -3.3236  -1.2590 H              1 S1                 0.0000
     36 ****         4.6958  -1.6914  -1.6655 H              1 S1                 0.0000
     37 ****         4.0175  -2.7309   1.1270 H              1 S1                 0.0000
     38 ****         5.6060  -2.3019   0.5420 H              1 S1                 0.0000
     39 ****         4.9029   0.0544   0.2565 H              1 S1                 0.0000
     40 ****         2.6783   0.8325   1.0028 H              1 S1                 0.0000
     41 ****         2.2160  -0.8011   1.4112 H              1 S1                 0.0000
     42 ****        -2.5750   1.7732  -5.8725 H              1 S1                 0.0000
     43 ****        -6.4990   0.3313  -3.7953 LP             1 S1                 0.0000
     44 ****        -6.0958  -0.1363  -2.2835 LP             1 S1                 0.0000
     45 ****         0.3359   0.6759  -3.8246 LP             1 S1                 0.0000
     46 ****         1.8309   0.1857  -3.1002 LP             1 S1                 0.0000
     47 ****        -0.8521   1.0841  -4.4527 LP             1 S1                 0.0000
     48 ****        -4.7595   2.0852  -5.0705 LP             1 S1                 0.0000
@<TRIPOS>BOND
    1    1    2 1     
    2    1   24 1     
    3    1   25 1     
    4    1   26 1     
    5    2    3 1     
    6    3    4 1     
    7    3   27 1     
    8    3   28 1     
    9    4   23 ar    
   10    4    5 ar    
   11    5    6 ar    
   12    5   29 1     
   13    6    7 1     
   14    6   21 ar    
   15    7    8 am    
   16    7   30 1     
   17    8    9 2     
   18    8   10 am    
   19   10   11 1     
   20   10   31 1     
   21   11   20 1     
   22   11   12 1     
   23   11   32 1     
   24   12   13 1     
   25   12   33 1     
   26   12   34 1     
   27   13   14 1     
   28   13   35 1     
   29   13   36 1     
   30   14   15 1     
   31   14   37 1     
   32   14   38 1     
   33   15   16 1     
   34   15   20 1     
   35   15   39 1     
   36   16   17 1     
   37   16   18 1     
   38   16   19 1     
   39   20   40 1     
   40   20   41 1     
   41   21   22 ar    
   42   22   23 ar    
   43   22   42 1     
   44    2   43 1     
   45    2   44 1     
   46    9   45 1     
   47    9   46 1     
   48   21   47 1     
   49   23   48 1     
@<TRIPOS>SUBSTRUCTURE
      1 S1             1
@<TRIPOS>SET
LONE_PAIRS      STATIC     ATOMS    <user>   **** ""
6 43 44 45 46 47 48
DONOR_HYDROGENS      STATIC     ATOMS    <user>   **** ""
2 30 31
ATOM$BLUE        STATIC     ATOMS    COLORGROUP SYSTEM
6 43 44 45 46 47 48
ATOM$RED        STATIC     ATOMS    COLORGROUP SYSTEM
2 30 31
