AV-unprocessed.smi:2881|AV-procd|sdf|11066|dock10
  -GOLD-   2272015543D 1   1.00000     0.00000
 Structure written by MMmdl.
 40 42  0  0  0  0  0  0  0  0  1 V2000
  152.1144  145.8338  160.0773 C   0  0  0  0  0  0  0  0  0  0  0  0
  152.3347  144.3968  159.7052 C   0  0  0  0  0  0  0  0  0  0  0  0
  152.5286  143.2858  160.5770 C   0  0  0  0  0  0  0  0  0  0  0  0
  152.6723  142.2171  159.7368 C   0  0  0  0  0  0  0  0  0  0  0  0
  152.8742  140.7612  160.0167 C   0  0  0  0  0  0  0  0  0  0  0  0
  152.9751  139.9711  158.7114 C   0  0  0  0  0  0  0  0  0  0  0  0
  153.8957  139.1722  158.5433 O   0  0  0  0  0  0  0  0  0  0  0  0
  152.0364  140.2286  157.7870 N   0  0  0  0  0  0  0  0  0  0  0  0
  152.0104  139.6958  156.4258 C   0  0  1  0  0  0  0  0  0  0  0  0
  151.3571  138.2970  156.4141 C   0  0  2  0  0  0  0  0  0  0  0  0
  151.6697  137.6071  155.0738 C   0  0  0  0  0  0  0  0  0  0  0  0
  150.7944  138.3950  154.0806 C   0  0  0  0  0  0  0  0  0  0  0  0
  150.0943  139.4295  154.9848 C   0  0  1  0  0  0  0  0  0  0  0  0
  149.8760  138.6206  156.2572 C   0  0  0  0  0  0  0  0  0  0  0  0
  151.1199  140.5013  155.4298 C   0  0  1  0  0  0  0  0  0  0  0  0
  150.4599  141.7848  155.9878 C   0  0  0  0  0  0  0  0  0  0  0  0
  149.7033  142.4298  154.9855 O   0  0  0  0  0  0  0  0  0  0  0  0
  152.5736  142.7191  158.4587 N   0  0  0  0  0  0  0  0  0  0  0  0
  152.3639  144.0478  158.4274 N   0  0  0  0  0  0  0  0  0  0  0  0
  152.6368  142.1722  157.6116 H   0  0  0  0  0  0  0  0  0  0  0  0
  151.4721  145.9153  160.9544 H   0  0  0  0  0  0  0  0  0  0  0  0
  151.6398  146.3914  159.2690 H   0  0  0  0  0  0  0  0  0  0  0  0
  153.0592  146.3244  160.3109 H   0  0  0  0  0  0  0  0  0  0  0  0
  152.5483  143.2750  161.6566 H   0  0  0  0  0  0  0  0  0  0  0  0
  152.0449  140.3716  160.6082 H   0  0  0  0  0  0  0  0  0  0  0  0
  153.7791  140.6141  160.6080 H   0  0  0  0  0  0  0  0  0  0  0  0
  151.3175  140.8975  158.0225 H   0  0  0  0  0  0  0  0  0  0  0  0
  153.0333  139.6247  156.0509 H   0  0  0  0  0  0  0  0  0  0  0  0
  151.6061  137.6825  157.2802 H   0  0  0  0  0  0  0  0  0  0  0  0
  152.7297  137.6467  154.8199 H   0  0  0  0  0  0  0  0  0  0  0  0
  151.3716  136.5582  155.0982 H   0  0  0  0  0  0  0  0  0  0  0  0
  151.3795  138.8626  153.2880 H   0  0  0  0  0  0  0  0  0  0  0  0
  150.0644  137.7356  153.6095 H   0  0  0  0  0  0  0  0  0  0  0  0
  149.1859  139.8373  154.5408 H   0  0  0  0  0  0  0  0  0  0  0  0
  149.2540  137.7365  156.1063 H   0  0  0  0  0  0  0  0  0  0  0  0
  149.4674  139.2047  157.0830 H   0  0  0  0  0  0  0  0  0  0  0  0
  151.7301  140.7983  154.5751 H   0  0  0  0  0  0  0  0  0  0  0  0
  149.8131  141.5694  156.8387 H   0  0  0  0  0  0  0  0  0  0  0  0
  151.2193  142.4888  156.3276 H   0  0  0  0  0  0  0  0  0  0  0  0
  149.6630  143.3524  155.1877 H   0  0  0  0  0  0  0  0  0  0  0  0
  1 21  1  0  0  0  0
  1 22  1  0  0  0  0
  1 23  1  0  0  0  0
  1  2  1  0  0  0  0
  2 19  2  0  0  0  0
  2  3  1  0  0  0  0
  3  4  2  0  0  0  0
  3 24  1  0  0  0  0
  4 18  1  0  0  0  0
  4  5  1  0  0  0  0
  5  6  1  0  0  0  0
  5 25  1  0  0  0  0
  5 26  1  0  0  0  0
  6  7  2  0  0  0  0
  6  8  1  0  0  0  0
  8  9  1  0  0  0  0
  8 27  1  0  0  0  0
  9 15  1  0  0  0  0
  9 10  1  0  0  0  0
  9 28  1  0  0  0  0
 10 14  1  0  0  0  0
 10 11  1  0  0  0  0
 10 29  1  0  0  0  0
 11 12  1  0  0  0  0
 11 30  1  0  0  0  0
 11 31  1  0  0  0  0
 12 13  1  0  0  0  0
 12 32  1  0  0  0  0
 12 33  1  0  0  0  0
 13 14  1  0  0  0  0
 13 15  1  0  0  0  0
 13 34  1  0  0  0  0
 14 35  1  0  0  0  0
 14 36  1  0  0  0  0
 15 16  1  0  0  0  0
 15 37  1  0  0  0  0
 16 17  1  0  0  0  0
 16 38  1  0  0  0  0
 16 39  1  0  0  0  0
 17 40  1  0  0  0  0
 18 19  1  0  0  0  0
 18 20  1  0  0  0  0
M  END
> <s_m_source_file>
AV-unprocessed.smi

> <i_m_source_file_index>
2881

> <i_lp_mmshare_version>
43012

> <i_f3d_flags>
0

> <s_epik_input>
W0NIM11jMVtjSF1jKG5bbkhdMSlbQ0gyXUMoPU8pW05IXVtDQEhdKFtDQEBIXTIzKVtDQEhdKFtDSDJdW09IXSlbQ0BASF0oW0NIMl0zKVtDSDJdW0NIMl0y

> <s_epik_cmdline>
J2VwaWtfcHl0aG9uJywgJy1waCcsICc3LjAnLCAnLXRuJywgJzgnLCAnLW1hJywgJzIwMCcsICctbWV0YWxfYmluZGluZycsICctaW1hZScsICc8aW5maWxlLm1hZT4nLCAnLW9tYWUnLCAnPG91dGZpbGUubWFlPic=

> <r_lp_tautomer_probability>
0.5

> <r_epik_Ionization_Penalty>
0.00013396

> <r_epik_Ionization_Penalty_Charging>
0

> <r_epik_Ionization_Penalty_Neutral>
0.00013396

> <r_epik_State_Penalty>
0.41068

> <r_epik_Charging_Adjusted_Penalty>
0.41068

> <i_epik_Tot_Q>
0

> <i_epik_Tot_abs_Q>
0

> <r_epik_Metal_State_Penalty>
0.41066

> <b_epik_Metal_Only>
0

> <s_lp_Force_Field>
OPLS_2005

> <r_lp_Energy>
46.6503

> <b_lp_Chiralities_Consistent>
1

> <s_lp_Variant>
AV-unprocessed.smi:2881-12

> <Gold.Version>
5.8.1

> <Gold.Id.Protein>
6NUR|6NUR_protein|mol2

> <Gold.PLP.Fitness>
43.6273

> <Gold.PLP.PLP>
-38.4837

> <Gold.PLP.part.hbond>
-2.4638

> <Gold.PLP.part.metal>
0.0000

> <Gold.PLP.part.buried>
-2.7576

> <Gold.PLP.part.nonpolar>
-32.8891

> <Gold.PLP.part.repulsive>
0.1718

> <Gold.PLP.ligand.clash>
0.0000

> <Gold.PLP.ligand.torsion>
0.4395

> <Gold.PLP.Chemscore.Hbond>
2.0000

> <Gold.PLP.Chemscore.CHOScore>
0.0000

> <Gold.PLP.Chemscore.Metal>
0.0000

> <Gold.Chemscore.Hbonds>
donor molecule, donor type, donor heavy atom, donor atom, acceptor molecule, acceptor atom, score
      L1  H    17    40       P1  8028  1.00
      P1  H  7997  8008       L1     7  1.00

> <Gold.PLP.Chemscore.Internal.Correction>
0.0226

> <Gold.Rescore>
     Score         DG    S(hbond)    S(metal)    S(lipo)     H(rot)  DE(clash)    DE(int)     intcor
     15.69     -17.65       1.82        0.00     101.92       2.28       0.05       1.91       ----

> <Gold.Chemscore.Fitness>
15.6869

> <Gold.Chemscore.DG>
-17.6478

> <Gold.Chemscore.ZeroCoef>
-5.4800

> <Gold.Chemscore.Hbond>
1.8167

> <Gold.Chemscore.Metal>
0.0000

> <Gold.Chemscore.Lipo>
101.9239

> <Gold.Chemscore.Internal_Hbond>
0.0000

> <Gold.Chemscore.DEClash>
0.0491

> <Gold.Chemscore.DEInternal>
1.9118

> <Gold.Chemscore.Rot>
2.2755

> <Gold.Chemscore.Internal.Correction>
   9.000000E+99

> <Gold.Chemscore.Hbonds>
donor molecule, donor type, donor heavy atom, donor atom, acceptor molecule, acceptor atom, score
      L1  H    17    40       P1  8028  0.97
      P1  H  7997  8008       L1     7  0.53

> <Gold.Chemscore.Hbond.Weighted>
-6.0679

> <Gold.Chemscore.Metal.Weighted>
-0.0000

> <Gold.Chemscore.Lipo.Weighted>
-11.9251

> <Gold.Chemscore.Internal_Hbond.Weighted>
0.0000

> <Gold.Chemscore.DEClash.Weighted>
0.0491

> <Gold.Chemscore.DEInternal.Weighted>
1.9118

> <Gold.Chemscore.Rot.Weighted>
5.8252

> <Gold.Chemscore.Internal.Correction.Weighted>
   9.000000E+99

> <Gold.Protein.RotatedTorsions>
[ 6907 6896 6895 6894 ] final  131.65 input  -60.11 | X-H torsion
[ 7974 7965 7964 7962 ] final -126.68 input  175.53 | X-H torsion
[ 8008 7997 7996 7995 ] final -119.87 input   59.86 | X-H torsion
[ 10167 10162 10161 10158 ] final  -79.55 input  -65.29 | X-H torsion
[ 10718 10713 10712 10709 ] final   65.25 input   66.30 | X-H torsion
[ 10763 10752 10751 10750 ] final  -63.91 input  -60.55 | X-H torsion
[ 11005 11000 10999 10996 ] final   -2.71 input  -57.11 | X-H torsion

> <Gold.Protein.ActiveResidues>
 VAL166  LYS551  ARG553  GLY616  TRP617  ASP618  TYR619  PRO620  LYS621  CYS622 
 ASP623  PHE694  ASN695  SER759  ASP760  ASP761  ALA762  ILE779  LEU786  VAL792 
 PHE793  MET794  SER795  GLU796  ALA797  LYS798  CYS799  TRP800  GLU811  SER814 

> <Gold.Protein.RotatedAtoms>
  152.3404  133.6060  159.5872 H   0  0  0  0  0  0  0  0  0  0  0  0  # atno 6907 bound_to 6896
  150.7475  133.9731  159.3561 H   0  0  0  0  0  0  0  0  0  0  0  0  # atno 6908 bound_to 6896
  151.7595  135.0814  160.0394 H   0  0  0  0  0  0  0  0  0  0  0  0  # atno 6909 bound_to 6896
  144.9848  140.7675  143.4590 H   0  0  0  0  0  0  0  0  0  0  0  0  # atno 7974 bound_to 7965
  155.1226  140.0399  157.2754 H   0  0  0  0  0  0  0  0  0  0  0  0  # atno 8008 bound_to 7997
  154.6602  140.2589  155.7091 H   0  0  0  0  0  0  0  0  0  0  0  0  # atno 8009 bound_to 7997
  156.2616  140.2818  156.1071 H   0  0  0  0  0  0  0  0  0  0  0  0  # atno 8010 bound_to 7997
  140.4583  143.2461  151.8387 H   0  0  0  0  0  0  0  0  0  0  0  0  # atno 10167 bound_to 10162
  157.6093  130.9204  149.9952 H   0  0  0  0  0  0  0  0  0  0  0  0  # atno 10718 bound_to 10713
  154.3222  135.6194  153.5513 H   0  0  0  0  0  0  0  0  0  0  0  0  # atno 10763 bound_to 10752
  152.9819  135.5726  154.5057 H   0  0  0  0  0  0  0  0  0  0  0  0  # atno 10764 bound_to 10752
  154.4727  135.2860  155.1607 H   0  0  0  0  0  0  0  0  0  0  0  0  # atno 10765 bound_to 10752
  140.6613  133.9317  155.8438 H   0  0  0  0  0  0  0  0  0  0  0  0  # atno 11005 bound_to 11000
  145.2369  139.2089  143.5013 LP  0  0  0  0  0  0  0  0  0  0  0  0  # atno 17320 bound_to 7965
  146.3417  140.2257  142.8592 LP  0  0  0  0  0  0  0  0  0  0  0  0  # atno 17321 bound_to 7965
  139.4803  144.5039  151.9024 LP  0  0  0  0  0  0  0  0  0  0  0  0  # atno 17342 bound_to 10162
  140.4125  144.2351  150.5888 LP  0  0  0  0  0  0  0  0  0  0  0  0  # atno 17343 bound_to 10162
  156.1191  130.3646  149.9918 LP  0  0  0  0  0  0  0  0  0  0  0  0  # atno 17370 bound_to 10713
  156.8002  130.9288  151.3646 LP  0  0  0  0  0  0  0  0  0  0  0  0  # atno 17371 bound_to 10713
  141.0463  134.0550  157.3840 LP  0  0  0  0  0  0  0  0  0  0  0  0  # atno 17394 bound_to 11000
  139.9012  135.0165  156.7276 LP  0  0  0  0  0  0  0  0  0  0  0  0  # atno 17395 bound_to 11000

$$$$
