#       Name:                AV-unprocessed.smi:924
#       Creating user name   scv26
#       Creation time:       Fri Mar 27 02:08:36 2020


#       File generated by GOLD software.
#

@<TRIPOS>MOLECULE
AV-unprocessed.smi:924
    52    55     1
SMALL
NO_CHARGES


@<TRIPOS>ATOM
      1 ****         0.5248   1.6782   2.2980 O.2            1 S1                 0.0000
      2 ****         1.2077   0.6643   2.1484 C.2            1 S1                 0.0000
      3 ****         2.7398   0.7424   2.1348 C.3            1 S1                 0.0000
      4 ****         3.2339   1.9705   1.4920 N.am           1 S1                 0.0000
      5 ****         3.3552   1.9560   0.0911 C.2            1 S1                 0.0000
      6 ****         3.7822   3.0314  -0.5972 C.2            1 S1                 0.0000
      7 ****         4.1248   4.2358   0.1486 C.2            1 S1                 0.0000
      8 ****         4.5216   5.2262  -0.4626 O.2            1 S1                 0.0000
      9 ****         3.9857   4.2025   1.5063 N.pl3          1 S1                -1.0000
     10 ****         3.5448   3.1026   2.1930 C.2            1 S1                 0.0000
     11 ****         3.4196   3.0987   3.4179 O.2            1 S1                 0.0000
     12 ****         0.6810  -0.5592   1.9871 N.am           1 S1                 0.0000
     13 ****        -0.7447  -0.8681   1.9056 C.3            1 S1                 0.0000
     14 ****        -1.2597  -1.0130   0.4500 C.3            1 S1                 0.0000
     15 ****        -1.1158   0.3130  -0.3485 C.3            1 S1                 0.0000
     16 ****        -1.6732   0.1465  -1.7780 C.3            1 S1                 0.0000
     17 ****        -0.8892  -0.9630  -2.5096 C.3            1 S1                 0.0000
     18 ****        -1.0486  -2.2909  -1.7394 C.3            1 S1                 0.0000
     19 ****        -2.5413  -2.6744  -1.6732 C.3            1 S1                 0.0000
     20 ****        -3.3190  -1.5598  -0.9433 C.3            1 S1                 0.0000
     21 ****        -3.1670  -0.2307  -1.7109 C.3            1 S1                 0.0000
     22 ****        -2.7631  -1.3951   0.4870 C.3            1 S1                 0.0000
     23 ****        -0.4903  -2.1292  -0.3087 C.3            1 S1                 0.0000
     24 ****         3.1025   0.6494   3.1595 H              1 S1                 0.0000
     25 ****         3.1447  -0.1245   1.6098 H              1 S1                 0.0000
     26 ****         3.0740   1.0267  -0.3830 H              1 S1                 0.0000
     27 ****         3.8655   3.0045  -1.6737 H              1 S1                 0.0000
     28 ****         1.3186  -1.3348   1.8821 H              1 S1                 0.0000
     29 ****        -0.9017  -1.8039   2.4430 H              1 S1                 0.0000
     30 ****        -1.3300  -0.1184   2.4411 H              1 S1                 0.0000
     31 ****        -1.6378   1.1218   0.1644 H              1 S1                 0.0000
     32 ****        -0.0705   0.6163  -0.4120 H              1 S1                 0.0000
     33 ****        -1.5614   1.0858  -2.3205 H              1 S1                 0.0000
     34 ****        -1.2536  -1.0725  -3.5318 H              1 S1                 0.0000
     35 ****         0.1651  -0.6937  -2.5850 H              1 S1                 0.0000
     36 ****        -0.4968  -3.0768  -2.2560 H              1 S1                 0.0000
     37 ****        -2.9401  -2.8184  -2.6781 H              1 S1                 0.0000
     38 ****        -2.6651  -3.6252  -1.1531 H              1 S1                 0.0000
     39 ****        -4.3743  -1.8290  -0.8923 H              1 S1                 0.0000
     40 ****        -3.7345   0.5589  -1.2167 H              1 S1                 0.0000
     41 ****        -3.5790  -0.3247  -2.7164 H              1 S1                 0.0000
     42 ****        -2.9038  -2.3220   1.0447 H              1 S1                 0.0000
     43 ****        -3.3336  -0.6315   1.0178 H              1 S1                 0.0000
     44 ****         0.5740  -1.8965  -0.3614 H              1 S1                 0.0000
     45 ****        -0.5695  -3.0750   0.2290 H              1 S1                 0.0000
     46 ****         0.9681   2.5672   2.4127 LP             1 S1                 0.0000
     47 ****        -0.4731   1.6124   2.3048 LP             1 S1                 0.0000
     48 ****         4.6057   5.1985  -1.4587 LP             1 S1                 0.0000
     49 ****         4.7601   6.0593   0.0364 LP             1 S1                 0.0000
     50 ****         4.2179   5.0242   2.0267 LP             1 S1                 0.0000
     51 ****         3.0949   2.2761   3.8847 LP             1 S1                 0.0000
     52 ****         3.6425   3.9181   3.9459 LP             1 S1                 0.0000
@<TRIPOS>BOND
    1    1    2 2     
    2    2    3 1     
    3    2   12 am    
    4    3    4 1     
    5    3   24 1     
    6    3   25 1     
    7    4   10 am    
    8    4    5 1     
    9    5    6 2     
   10    5   26 1     
   11    6    7 1     
   12    6   27 1     
   13    7    8 2     
   14    7    9 1     
   15    9   10 1     
   16   10   11 2     
   17   12   13 1     
   18   12   28 1     
   19   13   14 1     
   20   13   29 1     
   21   13   30 1     
   22   14   22 1     
   23   14   23 1     
   24   14   15 1     
   25   15   16 1     
   26   15   31 1     
   27   15   32 1     
   28   16   21 1     
   29   16   17 1     
   30   16   33 1     
   31   17   18 1     
   32   17   34 1     
   33   17   35 1     
   34   18   19 1     
   35   18   23 1     
   36   18   36 1     
   37   19   20 1     
   38   19   37 1     
   39   19   38 1     
   40   20   21 1     
   41   20   22 1     
   42   20   39 1     
   43   21   40 1     
   44   21   41 1     
   45   22   42 1     
   46   22   43 1     
   47   23   44 1     
   48   23   45 1     
   49    1   46 1     
   50    1   47 1     
   51    8   48 1     
   52    8   49 1     
   53    9   50 1     
   54   11   51 1     
   55   11   52 1     
@<TRIPOS>SUBSTRUCTURE
      1 S1             1
@<TRIPOS>SET
LONE_PAIRS      STATIC     ATOMS    <user>   **** ""
7 46 47 48 49 50 51 52
DONOR_HYDROGENS      STATIC     ATOMS    <user>   **** ""
1 28
ATOM$BLUE        STATIC     ATOMS    COLORGROUP SYSTEM
7 46 47 48 49 50 51 52
ATOM$RED        STATIC     ATOMS    COLORGROUP SYSTEM
1 28
