AV-unprocessed.smi:1383|AV-procd|sdf|5622|dock7
  -GOLD-   22720 5233D 1   1.00000     0.00000
 Structure written by MMmdl.
 31 31  0  0  0  0  0  0  0  0  1 V2000
  151.7767  144.3424  158.6905 C   0  0  0  0  0  0  0  0  0  0  0  0
  153.0170  143.5881  159.1954 C   0  0  0  0  0  0  0  0  0  0  0  0
  152.7128  142.2016  159.8046 C   0  0  2  0  0  0  0  0  0  0  0  0
  153.8964  141.7013  160.6507 C   0  0  0  0  0  0  0  0  0  0  0  0
  152.3583  141.1664  158.7255 C   0  0  0  0  0  0  0  0  0  0  0  0
  153.0748  140.1764  158.5727 O   0  0  0  0  0  0  0  0  0  0  0  0
  151.2549  141.4300  158.0004 N   0  0  0  0  0  0  0  0  0  0  0  0
  150.6911  140.6666  156.9455 C   0  0  0  0  0  0  0  0  0  0  0  0
  149.4989  140.9109  156.3903 N   0  0  0  0  0  0  0  0  0  0  0  0
  149.1954  140.0078  155.3657 C   0  0  0  0  0  0  0  0  0  0  0  0
  147.8967  140.1249  154.6202 C   0  0  0  0  0  0  0  0  0  0  0  0
  146.7345  140.3650  155.5876 C   0  0  0  0  0  0  0  0  0  0  0  0
  146.7459  141.5007  156.2918 N   0  0  0  0  0  0  0  0  0  0  0  0
  145.8291  139.5403  155.6904 O   0  0  0  0  0  0  0  0  0  0  0  0
  150.1774  139.0670  155.1662 C   0  0  0  0  0  0  0  0  0  0  0  0
  151.5266  139.2887  156.2473 S   0  0  0  0  0  0  0  0  0  0  0  0
  152.0494  145.3352  158.3323 H   0  0  0  0  0  0  0  0  0  0  0  0
  151.0414  144.4677  159.4857 H   0  0  0  0  0  0  0  0  0  0  0  0
  151.2939  143.8193  157.8648 H   0  0  0  0  0  0  0  0  0  0  0  0
  153.7354  143.4897  158.3802 H   0  0  0  0  0  0  0  0  0  0  0  0
  153.5071  144.2049  159.9495 H   0  0  0  0  0  0  0  0  0  0  0  0
  151.8573  142.3084  160.4740 H   0  0  0  0  0  0  0  0  0  0  0  0
  153.7007  140.7106  161.0631 H   0  0  0  0  0  0  0  0  0  0  0  0
  154.0858  142.3708  161.4901 H   0  0  0  0  0  0  0  0  0  0  0  0
  154.8136  141.6421  160.0632 H   0  0  0  0  0  0  0  0  0  0  0  0
  150.7626  142.2804  158.2315 H   0  0  0  0  0  0  0  0  0  0  0  0
  147.9359  140.9443  153.9013 H   0  0  0  0  0  0  0  0  0  0  0  0
  147.7040  139.2197  154.0426 H   0  0  0  0  0  0  0  0  0  0  0  0
  145.9950  141.7044  156.9348 H   0  0  0  0  0  0  0  0  0  0  0  0
  147.5042  142.1563  156.1701 H   0  0  0  0  0  0  0  0  0  0  0  0
  150.1894  138.2605  154.4483 H   0  0  0  0  0  0  0  0  0  0  0  0
  1  2  1  0  0  0  0
  1 17  1  0  0  0  0
  1 18  1  0  0  0  0
  1 19  1  0  0  0  0
  2  3  1  0  0  0  0
  2 20  1  0  0  0  0
  2 21  1  0  0  0  0
  3  4  1  0  0  0  0
  3  5  1  0  0  0  0
  3 22  1  0  0  0  0
  4 23  1  0  0  0  0
  4 24  1  0  0  0  0
  4 25  1  0  0  0  0
  5  6  2  0  0  0  0
  5  7  1  0  0  0  0
  7  8  1  0  0  0  0
  7 26  1  0  0  0  0
  8 16  1  0  0  0  0
  8  9  2  0  0  0  0
  9 10  1  0  0  0  0
 10 11  1  0  0  0  0
 10 15  2  0  0  0  0
 11 12  1  0  0  0  0
 11 27  1  0  0  0  0
 11 28  1  0  0  0  0
 12 13  1  0  0  0  0
 12 14  2  0  0  0  0
 13 29  1  0  0  0  0
 13 30  1  0  0  0  0
 15 16  1  0  0  0  0
 15 31  1  0  0  0  0
M  END
> <s_m_source_file>
AV-unprocessed.smi

> <i_m_source_file_index>
1383

> <i_lp_mmshare_version>
43012

> <i_f3d_flags>
0

> <s_epik_input>
W0NIM11bQ0gyXVtDQEhdKFtDSDNdKUMoPU8pW05IXWMxbmMoW2NIXXMxKVtDSDJdQyg9TylbTkgyXQ==

> <s_epik_cmdline>
J2VwaWtfcHl0aG9uJywgJy1waCcsICc3LjAnLCAnLXRuJywgJzgnLCAnLW1hJywgJzIwMCcsICctbWV0YWxfYmluZGluZycsICctaW1hZScsICc8aW5maWxlLm1hZT4nLCAnLW9tYWUnLCAnPG91dGZpbGUubWFlPic=

> <r_lp_tautomer_probability>
1

> <r_epik_Ionization_Penalty>
0.00017492

> <r_epik_Ionization_Penalty_Charging>
0

> <r_epik_Ionization_Penalty_Neutral>
0.00017492

> <r_epik_State_Penalty>
-0

> <r_epik_Charging_Adjusted_Penalty>
0

> <i_epik_Tot_Q>
0

> <i_epik_Tot_abs_Q>
0

> <r_epik_Metal_State_Penalty>
0.109333

> <b_epik_Metal_Only>
0

> <s_lp_Force_Field>
OPLS_2005

> <r_lp_Energy>
2.98053

> <b_lp_Chiralities_Consistent>
1

> <s_lp_Variant>
AV-unprocessed.smi:1383-1

> <Gold.Version>
5.8.1

> <Gold.Id.Protein>
6NUR|6NUR_protein|mol2

> <Gold.PLP.Fitness>
42.7193

> <Gold.PLP.PLP>
-35.1619

> <Gold.PLP.part.hbond>
-2.0000

> <Gold.PLP.part.metal>
0.0000

> <Gold.PLP.part.buried>
-0.8268

> <Gold.PLP.part.nonpolar>
-32.7029

> <Gold.PLP.part.repulsive>
0.9507

> <Gold.PLP.ligand.clash>
0.0000

> <Gold.PLP.ligand.torsion>
0.3787

> <Gold.PLP.Chemscore.Hbond>
1.9516

> <Gold.PLP.Chemscore.CHOScore>
0.8059

> <Gold.PLP.Chemscore.Metal>
0.0000

> <Gold.Chemscore.Hbonds>
donor molecule, donor type, donor heavy atom, donor atom, acceptor molecule, acceptor atom, score
      P1  H  7997  8010       L1     6  0.57

> <Gold.PLP.Chemscore.Internal.Correction>
0.0422

> <Gold.Rescore>
     Score         DG    S(hbond)    S(metal)    S(lipo)     H(rot)  DE(clash)    DE(int)     intcor
     11.77     -13.89       1.46        0.00      78.17       2.19       0.41       1.71       ----

> <Gold.Chemscore.Fitness>
11.7694

> <Gold.Chemscore.DG>
-13.8883

> <Gold.Chemscore.ZeroCoef>
-5.4800

> <Gold.Chemscore.Hbond>
1.4613

> <Gold.Chemscore.Metal>
0.0000

> <Gold.Chemscore.Lipo>
78.1714

> <Gold.Chemscore.Internal_Hbond>
0.0000

> <Gold.Chemscore.DEClash>
0.4072

> <Gold.Chemscore.DEInternal>
1.7117

> <Gold.Chemscore.Rot>
2.1948

> <Gold.Chemscore.Internal.Correction>
   9.000000E+99

> <Gold.Chemscore.Hbonds>
donor molecule, donor type, donor heavy atom, donor atom, acceptor molecule, acceptor atom, score
      P1  H  7997  8010       L1     6  0.55

> <Gold.Chemscore.Hbond.Weighted>
-4.8809

> <Gold.Chemscore.Metal.Weighted>
-0.0000

> <Gold.Chemscore.Lipo.Weighted>
-9.1461

> <Gold.Chemscore.Internal_Hbond.Weighted>
0.0000

> <Gold.Chemscore.DEClash.Weighted>
0.4072

> <Gold.Chemscore.DEInternal.Weighted>
1.7117

> <Gold.Chemscore.Rot.Weighted>
5.6186

> <Gold.Chemscore.Internal.Correction.Weighted>
   9.000000E+99

> <Gold.Protein.RotatedTorsions>
[ 6907 6896 6895 6894 ] final  -43.05 input  -60.11 | X-H torsion
[ 7974 7965 7964 7962 ] final -100.93 input  175.53 | X-H torsion
[ 8008 7997 7996 7995 ] final   42.14 input   59.86 | X-H torsion
[ 10167 10162 10161 10158 ] final  -87.38 input  -65.29 | X-H torsion
[ 10718 10713 10712 10709 ] final -129.78 input   66.30 | X-H torsion
[ 10763 10752 10751 10750 ] final  -14.82 input  -60.55 | X-H torsion
[ 11005 11000 10999 10996 ] final  -30.29 input  -57.11 | X-H torsion

> <Gold.Protein.ActiveResidues>
 VAL166  LYS551  ARG553  GLY616  TRP617  ASP618  TYR619  PRO620  LYS621  CYS622 
 ASP623  PHE694  ASN695  SER759  ASP760  ASP761  ALA762  ILE779  LEU786  VAL792 
 PHE793  MET794  SER795  GLU796  ALA797  LYS798  CYS799  TRP800  GLU811  SER814 

> <Gold.Protein.RotatedAtoms>
  150.9483  134.8885  159.7655 H   0  0  0  0  0  0  0  0  0  0  0  0  # atno 6907 bound_to 6896
  152.5109  134.3843  159.9372 H   0  0  0  0  0  0  0  0  0  0  0  0  # atno 6908 bound_to 6896
  151.3861  133.3764  159.2750 H   0  0  0  0  0  0  0  0  0  0  0  0  # atno 6909 bound_to 6896
  145.2881  140.9345  143.2893 H   0  0  0  0  0  0  0  0  0  0  0  0  # atno 7974 bound_to 7965
  155.2813  140.3372  155.4258 H   0  0  0  0  0  0  0  0  0  0  0  0  # atno 8008 bound_to 7997
  156.2088  140.1762  156.7781 H   0  0  0  0  0  0  0  0  0  0  0  0  # atno 8009 bound_to 7997
  154.5658  140.0679  156.8873 H   0  0  0  0  0  0  0  0  0  0  0  0  # atno 8010 bound_to 7997
  140.3850  143.2731  151.9336 H   0  0  0  0  0  0  0  0  0  0  0  0  # atno 10167 bound_to 10162
  156.2080  130.6900  151.0616 H   0  0  0  0  0  0  0  0  0  0  0  0  # atno 10718 bound_to 10713
  153.5340  135.7014  153.5669 H   0  0  0  0  0  0  0  0  0  0  0  0  # atno 10763 bound_to 10752
  153.3664  135.3956  155.1756 H   0  0  0  0  0  0  0  0  0  0  0  0  # atno 10764 bound_to 10752
  154.8681  135.3801  154.4839 H   0  0  0  0  0  0  0  0  0  0  0  0  # atno 10765 bound_to 10752
  140.9370  133.7302  156.1020 H   0  0  0  0  0  0  0  0  0  0  0  0  # atno 11005 bound_to 11000
  144.9196  139.4428  143.6548 LP  0  0  0  0  0  0  0  0  0  0  0  0  # atno 17320 bound_to 7965
  146.3194  139.8048  142.8958 LP  0  0  0  0  0  0  0  0  0  0  0  0  # atno 17321 bound_to 7965
  139.4792  144.5782  151.7976 LP  0  0  0  0  0  0  0  0  0  0  0  0  # atno 17342 bound_to 10162
  140.4899  144.1326  150.5948 LP  0  0  0  0  0  0  0  0  0  0  0  0  # atno 17343 bound_to 10162
  157.7023  131.0771  150.6782 LP  0  0  0  0  0  0  0  0  0  0  0  0  # atno 17370 bound_to 10713
  156.6841  130.4575  149.5619 LP  0  0  0  0  0  0  0  0  0  0  0  0  # atno 17371 bound_to 10713
  140.7785  134.3752  157.5492 LP  0  0  0  0  0  0  0  0  0  0  0  0  # atno 17394 bound_to 11000
  139.8810  134.9067  156.2928 LP  0  0  0  0  0  0  0  0  0  0  0  0  # atno 17395 bound_to 11000

$$$$
