AV-unprocessed.smi:1406|AV-procd|sdf|5710|dock8
  -GOLD-   22720 5343D 1   1.00000     0.00000
 Structure written by MMmdl.
 41 43  0  0  0  0  0  0  0  0  2 V2000
  153.1247  141.3876  160.5779 C   0  0  0  0  0  0  0  0  0  0  0  0
  152.8438  141.7096  159.0961 C   0  0  1  0  0  0  0  0  0  0  0  0
  151.9591  140.6560  158.4066 C   0  0  0  0  0  0  0  0  0  0  0  0
  151.4501  139.7367  159.0490 O   0  0  0  0  0  0  0  0  0  0  0  0
  151.7811  140.8032  157.0845 N   0  0  0  0  0  0  0  0  0  0  0  0
  150.9259  139.9572  156.2606 C   0  0  2  0  0  0  0  0  0  0  0  0
  151.6035  138.6701  155.7672 C   0  0  0  0  0  0  0  0  0  0  0  0
  151.0808  138.4607  154.3315 C   0  0  0  0  0  0  0  0  0  0  0  0
  150.1064  139.5454  154.0680 N   0  3  1  0  0  0  0  0  0  0  0  0
  148.7004  139.0939  154.2600 C   0  0  0  0  0  0  0  0  0  0  0  0
  147.7078  140.2632  154.2239 C   0  0  0  0  0  0  0  0  0  0  0  0
  148.0644  141.2925  155.2994 C   0  0  0  0  0  0  0  0  0  0  0  0
  149.4935  141.7959  155.0705 C   0  0  0  0  0  0  0  0  0  0  0  0
  150.5287  140.6544  154.9573 C   0  0  1  0  0  0  0  0  0  0  0  0
  152.2728  143.0419  158.9325 N   0  0  0  0  0  0  0  0  0  0  0  0
  152.7597  144.2343  159.2831 C   0  0  0  0  0  0  0  0  0  0  0  0
  151.9896  145.2546  158.9330 N   0  0  0  0  0  0  0  0  0  0  0  0
  150.9717  144.5748  158.3264 C   0  0  0  0  0  0  0  0  0  0  0  0
  151.0965  143.2484  158.2891 N   0  0  0  0  0  0  0  0  0  0  0  0
  153.6228  140.4232  160.6849 H   0  0  0  0  0  0  0  0  0  0  0  0
  152.2084  141.3549  161.1690 H   0  0  0  0  0  0  0  0  0  0  0  0
  153.7765  142.1405  161.0222 H   0  0  0  0  0  0  0  0  0  0  0  0
  153.8023  141.7051  158.5749 H   0  0  0  0  0  0  0  0  0  0  0  0
  152.2366  141.5802  156.6280 H   0  0  0  0  0  0  0  0  0  0  0  0
  150.0245  139.6968  156.8186 H   0  0  0  0  0  0  0  0  0  0  0  0
  152.6898  138.7703  155.7546 H   0  0  0  0  0  0  0  0  0  0  0  0
  151.3597  137.8275  156.4151 H   0  0  0  0  0  0  0  0  0  0  0  0
  151.9051  138.5609  153.6244 H   0  0  0  0  0  0  0  0  0  0  0  0
  150.6513  137.4684  154.1860 H   0  0  0  0  0  0  0  0  0  0  0  0
  148.4505  138.3725  153.4812 H   0  0  0  0  0  0  0  0  0  0  0  0
  148.6043  138.5687  155.2118 H   0  0  0  0  0  0  0  0  0  0  0  0
  147.7172  140.7316  153.2389 H   0  0  0  0  0  0  0  0  0  0  0  0
  146.6939  139.8950  154.3839 H   0  0  0  0  0  0  0  0  0  0  0  0
  147.3639  142.1274  155.2688 H   0  0  0  0  0  0  0  0  0  0  0  0
  147.9743  140.8468  156.2907 H   0  0  0  0  0  0  0  0  0  0  0  0
  149.5116  142.3744  154.1458 H   0  0  0  0  0  0  0  0  0  0  0  0
  149.7796  142.4896  155.8623 H   0  0  0  0  0  0  0  0  0  0  0  0
  151.4344  141.0772  154.5169 H   0  0  0  0  0  0  0  0  0  0  0  0
  153.7010  144.3597  159.7979 H   0  0  0  0  0  0  0  0  0  0  0  0
  150.1169  145.0729  157.8926 H   0  0  0  0  0  0  0  0  0  0  0  0
  150.1936  139.8488  153.1084 H   0  0  0  0  0  0  0  0  0  0  0  0
  1  2  1  0  0  0  0
  1 20  1  0  0  0  0
  1 21  1  0  0  0  0
  1 22  1  0  0  0  0
  2  3  1  0  0  0  0
  2 15  1  0  0  0  0
  2 23  1  0  0  0  0
  3  4  2  0  0  0  0
  3  5  1  0  0  0  0
  5  6  1  0  0  0  0
  5 24  1  0  0  0  0
  6 14  1  0  0  0  0
  6  7  1  0  0  0  0
  6 25  1  0  0  0  0
  7  8  1  0  0  0  0
  7 26  1  0  0  0  0
  7 27  1  0  0  0  0
  8  9  1  0  0  0  0
  8 28  1  0  0  0  0
  8 29  1  0  0  0  0
  9 14  1  0  0  0  0
  9 10  1  0  0  0  0
  9 41  1  0  0  0  0
 10 11  1  0  0  0  0
 10 30  1  0  0  0  0
 10 31  1  0  0  0  0
 11 12  1  0  0  0  0
 11 32  1  0  0  0  0
 11 33  1  0  0  0  0
 12 13  1  0  0  0  0
 12 34  1  0  0  0  0
 12 35  1  0  0  0  0
 13 14  1  0  0  0  0
 13 36  1  0  0  0  0
 13 37  1  0  0  0  0
 14 38  1  0  0  0  0
 15 19  1  0  0  0  0
 15 16  1  0  0  0  0
 16 17  2  0  0  0  0
 16 39  1  0  0  0  0
 17 18  1  0  0  0  0
 18 19  2  0  0  0  0
 18 40  1  0  0  0  0
M  CHG  1   9   1
M  END
> <s_m_source_file>
AV-unprocessed.smi

> <i_m_source_file_index>
1406

> <i_lp_mmshare_version>
43012

> <i_f3d_flags>
0

> <s_epik_input>
bjFbY0hdbltjSF1uMVtDQEhdKFtDSDNdKUMoPU8pW05IXVtDQEhdKFtDSDJdW0NIMl0yKVtDQEBIXShOMjMpW0NIMl1bQ0gyXVtDSDJdW0NIMl0z

> <s_epik_cmdline>
J2VwaWtfcHl0aG9uJywgJy1waCcsICc3LjAnLCAnLXRuJywgJzgnLCAnLW1hJywgJzIwMCcsICctbWV0YWxfYmluZGluZycsICctaW1hZScsICc8aW5maWxlLm1hZT4nLCAnLW9tYWUnLCAnPG91dGZpbGUubWFlPic=

> <r_lp_tautomer_probability>
1

> <r_epik_Ionization_Penalty>
0.00197066

> <r_epik_Ionization_Penalty_Charging>
0.00196223

> <r_epik_Ionization_Penalty_Neutral>
8.43107e-06

> <r_epik_State_Penalty>
0.00133866

> <r_epik_Charging_Adjusted_Penalty>
0.00330089

> <i_epik_Tot_Q>
1

> <i_epik_Tot_abs_Q>
1

> <r_epik_Metal_State_Penalty>
-0

> <b_epik_Metal_Only>
0

> <s_lp_Force_Field>
OPLS_2005

> <r_lp_Energy>
42.7017

> <b_lp_Chiralities_Consistent>
1

> <s_lp_Variant>
AV-unprocessed.smi:1406-2

> <Gold.Version>
5.8.1

> <Gold.Id.Protein>
6NUR|6NUR_protein|mol2

> <Gold.PLP.Fitness>
39.8728

> <Gold.PLP.PLP>
-34.6432

> <Gold.PLP.part.hbond>
-1.0000

> <Gold.PLP.part.metal>
0.0000

> <Gold.PLP.part.buried>
-2.2957

> <Gold.PLP.part.nonpolar>
-32.2628

> <Gold.PLP.part.repulsive>
1.0424

> <Gold.PLP.ligand.clash>
0.0000

> <Gold.PLP.ligand.torsion>
0.3907

> <Gold.PLP.Chemscore.Hbond>
1.0000

> <Gold.PLP.Chemscore.CHOScore>
0.9687

> <Gold.PLP.Chemscore.Metal>
0.0000

> <Gold.Chemscore.Hbonds>
donor molecule, donor type, donor heavy atom, donor atom, acceptor molecule, acceptor atom, score
      L1  H     9    41       P1  7957  0.99
      L1  C    18    40       P1  8028  0.40
      L1  C    18    40       P1  8029  0.58

> <Gold.PLP.Chemscore.Internal.Correction>
0.1048

> <Gold.Rescore>
     Score         DG    S(hbond)    S(metal)    S(lipo)     H(rot)  DE(clash)    DE(int)     intcor
      9.16     -12.20       0.98        0.00      70.68       1.89       1.35       1.70       ----

> <Gold.Chemscore.Fitness>
9.1578

> <Gold.Chemscore.DG>
-12.2049

> <Gold.Chemscore.ZeroCoef>
-5.4800

> <Gold.Chemscore.Hbond>
0.9834

> <Gold.Chemscore.Metal>
0.0000

> <Gold.Chemscore.Lipo>
70.6811

> <Gold.Chemscore.Internal_Hbond>
0.0000

> <Gold.Chemscore.DEClash>
1.3478

> <Gold.Chemscore.DEInternal>
1.6993

> <Gold.Chemscore.Rot>
1.8865

> <Gold.Chemscore.Internal.Correction>
   9.000000E+99

> <Gold.Chemscore.Hbonds>
donor molecule, donor type, donor heavy atom, donor atom, acceptor molecule, acceptor atom, score
      L1  H     9    41       P1  7957  0.91

> <Gold.Chemscore.Hbond.Weighted>
-3.2847

> <Gold.Chemscore.Metal.Weighted>
-0.0000

> <Gold.Chemscore.Lipo.Weighted>
-8.2697

> <Gold.Chemscore.Internal_Hbond.Weighted>
0.0000

> <Gold.Chemscore.DEClash.Weighted>
1.3478

> <Gold.Chemscore.DEInternal.Weighted>
1.6993

> <Gold.Chemscore.Rot.Weighted>
4.8295

> <Gold.Chemscore.Internal.Correction.Weighted>
   9.000000E+99

> <Gold.Protein.RotatedTorsions>
[ 6907 6896 6895 6894 ] final  -32.46 input  -60.11 | X-H torsion
[ 7974 7965 7964 7962 ] final  156.04 input  175.53 | X-H torsion
[ 8008 7997 7996 7995 ] final -151.37 input   59.86 | X-H torsion
[ 10167 10162 10161 10158 ] final  114.72 input  -65.29 | X-H torsion
[ 10718 10713 10712 10709 ] final -106.80 input   66.30 | X-H torsion
[ 10763 10752 10751 10750 ] final -170.03 input  -60.55 | X-H torsion
[ 11005 11000 10999 10996 ] final  149.02 input  -57.11 | X-H torsion

> <Gold.Protein.ActiveResidues>
 VAL166  LYS551  ARG553  GLY616  TRP617  ASP618  TYR619  PRO620  LYS621  CYS622 
 ASP623  PHE694  ASN695  SER759  ASP760  ASP761  ALA762  ILE779  LEU786  VAL792 
 PHE793  MET794  SER795  GLU796  ALA797  LYS798  CYS799  TRP800  GLU811  SER814 

> <Gold.Protein.RotatedAtoms>
  151.0785  134.9843  159.8343 H   0  0  0  0  0  0  0  0  0  0  0  0  # atno 6907 bound_to 6896
  152.5417  134.2211  159.8798 H   0  0  0  0  0  0  0  0  0  0  0  0  # atno 6908 bound_to 6896
  151.2240  133.4443  159.2635 H   0  0  0  0  0  0  0  0  0  0  0  0  # atno 6909 bound_to 6896
  144.7987  139.7150  143.6191 H   0  0  0  0  0  0  0  0  0  0  0  0  # atno 7974 bound_to 7965
  155.6383  140.0699  157.2627 H   0  0  0  0  0  0  0  0  0  0  0  0  # atno 8008 bound_to 7997
  154.4189  140.1755  156.1595 H   0  0  0  0  0  0  0  0  0  0  0  0  # atno 8009 bound_to 7997
  155.9876  140.3348  155.6726 H   0  0  0  0  0  0  0  0  0  0  0  0  # atno 8010 bound_to 7997
  139.6368  144.7120  151.2318 H   0  0  0  0  0  0  0  0  0  0  0  0  # atno 10167 bound_to 10162
  156.0406  130.5631  150.7731 H   0  0  0  0  0  0  0  0  0  0  0  0  # atno 10718 bound_to 10713
  154.6459  135.2905  155.0046 H   0  0  0  0  0  0  0  0  0  0  0  0  # atno 10763 bound_to 10752
  154.1156  135.6556  153.4897 H   0  0  0  0  0  0  0  0  0  0  0  0  # atno 10764 bound_to 10752
  153.0351  135.5275  154.7346 H   0  0  0  0  0  0  0  0  0  0  0  0  # atno 10765 bound_to 10752
  140.1009  134.8984  157.1794 H   0  0  0  0  0  0  0  0  0  0  0  0  # atno 11005 bound_to 11000
  146.2263  139.5729  142.9585 LP  0  0  0  0  0  0  0  0  0  0  0  0  # atno 17320 bound_to 7965
  145.5607  141.0404  143.2228 LP  0  0  0  0  0  0  0  0  0  0  0  0  # atno 17321 bound_to 7965
  140.7470  143.6381  150.8360 LP  0  0  0  0  0  0  0  0  0  0  0  0  # atno 17342 bound_to 10162
  140.0014  143.5740  152.2874 LP  0  0  0  0  0  0  0  0  0  0  0  0  # atno 17343 bound_to 10162
  157.5220  131.0932  151.0067 LP  0  0  0  0  0  0  0  0  0  0  0  0  # atno 17370 bound_to 10713
  157.0395  130.5743  149.5354 LP  0  0  0  0  0  0  0  0  0  0  0  0  # atno 17371 bound_to 10713
  140.3222  134.2904  155.7244 LP  0  0  0  0  0  0  0  0  0  0  0  0  # atno 17394 bound_to 11000
  141.2105  133.7717  156.9926 LP  0  0  0  0  0  0  0  0  0  0  0  0  # atno 17395 bound_to 11000

$$$$
