AV-unprocessed.smi:2366|AV-procd|sdf|9423|dock2
  -GOLD-   2272013 63D 1   1.00000     0.00000
 Structure written by MMmdl.
 31 32  0  0  0  0  0  0  0  0  1 V2000
  150.0355  140.5302  156.5974 O   0  0  0  0  0  0  0  0  0  0  0  0
  149.7534  141.6701  156.2258 C   0  0  0  0  0  0  0  0  0  0  0  0
  150.2489  142.8042  156.7527 N   0  0  0  0  0  0  0  0  0  0  0  0
  151.1776  142.9436  157.8183 C   0  0  0  0  0  0  0  0  0  0  0  0
  151.5135  144.2738  158.1535 C   0  0  0  0  0  0  0  0  0  0  0  0
  152.4255  144.5141  159.1987 C   0  0  0  0  0  0  0  0  0  0  0  0
  152.9789  143.4171  159.8828 C   0  0  0  0  0  0  0  0  0  0  0  0
  152.5980  142.1199  159.4914 C   0  0  0  0  0  0  0  0  0  0  0  0
  153.1390  141.0402  160.1590 O   0  0  0  0  0  0  0  0  0  0  0  0
  153.7833  141.2691  161.4091 C   0  0  0  0  0  0  0  0  0  0  0  0
  154.4620  139.9721  161.8604 C   0  0  0  0  0  0  0  0  0  0  0  0
  155.4040  139.6205  160.9861 F   0  0  0  0  0  0  0  0  0  0  0  0
  155.0175  140.1300  163.0615 F   0  0  0  0  0  0  0  0  0  0  0  0
  151.7194  141.8942  158.4840 N   0  0  0  0  0  0  0  0  0  0  0  0
  148.8979  141.9342  155.2281 N   0  0  0  0  0  0  0  0  0  0  0  0
  148.1925  140.9582  154.4616 C   0  0  0  0  0  0  0  0  0  0  0  0
  146.8093  141.3191  153.9640 C   0  0  0  0  0  0  0  0  0  0  0  0
  146.9655  140.3289  155.0851 C   0  0  0  0  0  0  0  0  0  0  0  0
  149.9226  143.6680  156.3457 H   0  0  0  0  0  0  0  0  0  0  0  0
  151.0786  145.1056  157.6182 H   0  0  0  0  0  0  0  0  0  0  0  0
  152.6960  145.5235  159.4709 H   0  0  0  0  0  0  0  0  0  0  0  0
  153.6811  143.5672  160.6895 H   0  0  0  0  0  0  0  0  0  0  0  0
  154.5374  142.0496  161.2947 H   0  0  0  0  0  0  0  0  0  0  0  0
  153.0682  141.6004  162.1642 H   0  0  0  0  0  0  0  0  0  0  0  0
  153.7526  139.1465  161.9232 H   0  0  0  0  0  0  0  0  0  0  0  0
  148.7284  142.9010  154.9932 H   0  0  0  0  0  0  0  0  0  0  0  0
  148.7810  140.3112  153.8123 H   0  0  0  0  0  0  0  0  0  0  0  0
  146.4169  142.3027  154.2152 H   0  0  0  0  0  0  0  0  0  0  0  0
  146.5106  140.9339  152.9911 H   0  0  0  0  0  0  0  0  0  0  0  0
  146.7710  139.2818  154.8616 H   0  0  0  0  0  0  0  0  0  0  0  0
  146.6782  140.6524  156.0839 H   0  0  0  0  0  0  0  0  0  0  0  0
  1  2  2  0  0  0  0
  2  3  1  0  0  0  0
  2 15  1  0  0  0  0
  3  4  1  0  0  0  0
  3 19  1  0  0  0  0
  4 14  1  0  0  0  0
  4  5  2  0  0  0  0
  5  6  1  0  0  0  0
  5 20  1  0  0  0  0
  6  7  2  0  0  0  0
  6 21  1  0  0  0  0
  7  8  1  0  0  0  0
  7 22  1  0  0  0  0
  8  9  1  0  0  0  0
  8 14  2  0  0  0  0
  9 10  1  0  0  0  0
 10 11  1  0  0  0  0
 10 23  1  0  0  0  0
 10 24  1  0  0  0  0
 11 12  1  0  0  0  0
 11 13  1  0  0  0  0
 11 25  1  0  0  0  0
 15 16  1  0  0  0  0
 15 26  1  0  0  0  0
 16 18  1  0  0  0  0
 16 17  1  0  0  0  0
 16 27  1  0  0  0  0
 17 18  1  0  0  0  0
 17 28  1  0  0  0  0
 17 29  1  0  0  0  0
 18 30  1  0  0  0  0
 18 31  1  0  0  0  0
M  END
> <s_m_source_file>
AV-unprocessed.smi

> <i_m_source_file_index>
2366

> <i_lp_mmshare_version>
43012

> <i_f3d_flags>
0

> <s_epik_input>
W0NIMl0xW0NIMl1bQ0hdMVtOSF1DKD1PKVtOSF1jMltjSF1bY0hdW2NIXWMobjIpT1tDSDJdW0NIXShGKUY=

> <s_epik_cmdline>
J2VwaWtfcHl0aG9uJywgJy1waCcsICc3LjAnLCAnLXRuJywgJzgnLCAnLW1hJywgJzIwMCcsICctbWV0YWxfYmluZGluZycsICctaW1hZScsICc8aW5maWxlLm1hZT4nLCAnLW9tYWUnLCAnPG91dGZpbGUubWFlPic=

> <r_lp_tautomer_probability>
1

> <r_epik_Ionization_Penalty>
4.14306e-05

> <r_epik_Ionization_Penalty_Charging>
0

> <r_epik_Ionization_Penalty_Neutral>
4.14306e-05

> <r_epik_State_Penalty>
-0

> <r_epik_Charging_Adjusted_Penalty>
0

> <i_epik_Tot_Q>
0

> <i_epik_Tot_abs_Q>
0

> <r_epik_Metal_State_Penalty>
-0

> <b_epik_Metal_Only>
0

> <s_lp_Force_Field>
OPLS_2005

> <r_lp_Energy>
17.3665

> <b_lp_Chiralities_Consistent>
1

> <s_lp_Variant>
AV-unprocessed.smi:2366-1

> <Gold.Version>
5.8.1

> <Gold.Id.Protein>
6NUR|6NUR_protein|mol2

> <Gold.PLP.Fitness>
46.1085

> <Gold.PLP.PLP>
-41.5106

> <Gold.PLP.part.hbond>
-2.0000

> <Gold.PLP.part.metal>
0.0000

> <Gold.PLP.part.buried>
-5.6866

> <Gold.PLP.part.nonpolar>
-34.3995

> <Gold.PLP.part.repulsive>
0.3085

> <Gold.PLP.ligand.clash>
0.0000

> <Gold.PLP.ligand.torsion>
0.5280

> <Gold.PLP.Chemscore.Hbond>
1.8640

> <Gold.PLP.Chemscore.CHOScore>
0.0000

> <Gold.PLP.Chemscore.Metal>
0.0000

> <Gold.Chemscore.Hbonds>
donor molecule, donor type, donor heavy atom, donor atom, acceptor molecule, acceptor atom, score
      L1  H     3    19       P1  8028  1.00
      L1  H    15    26       P1  8028  0.90

> <Gold.PLP.Chemscore.Internal.Correction>
0.0619

> <Gold.Rescore>
     Score         DG    S(hbond)    S(metal)    S(lipo)     H(rot)  DE(clash)    DE(int)     intcor
     14.97     -16.77       1.95        0.00      77.30       1.66       0.12       1.68       ----

> <Gold.Chemscore.Fitness>
14.9679

> <Gold.Chemscore.DG>
-16.7688

> <Gold.Chemscore.ZeroCoef>
-5.4800

> <Gold.Chemscore.Hbond>
1.9472

> <Gold.Chemscore.Metal>
0.0000

> <Gold.Chemscore.Lipo>
77.2976

> <Gold.Chemscore.Internal_Hbond>
0.0000

> <Gold.Chemscore.DEClash>
0.1218

> <Gold.Chemscore.DEInternal>
1.6791

> <Gold.Chemscore.Rot>
1.6635

> <Gold.Chemscore.Internal.Correction>
   9.000000E+99

> <Gold.Chemscore.Hbonds>
donor molecule, donor type, donor heavy atom, donor atom, acceptor molecule, acceptor atom, score
      L1  H     3    19       P1  8028  0.99
      L1  H    15    26       P1  8028  0.88

> <Gold.Chemscore.Hbond.Weighted>
-6.5035

> <Gold.Chemscore.Metal.Weighted>
-0.0000

> <Gold.Chemscore.Lipo.Weighted>
-9.0438

> <Gold.Chemscore.Internal_Hbond.Weighted>
0.0000

> <Gold.Chemscore.DEClash.Weighted>
0.1218

> <Gold.Chemscore.DEInternal.Weighted>
1.6791

> <Gold.Chemscore.Rot.Weighted>
4.2585

> <Gold.Chemscore.Internal.Correction.Weighted>
   9.000000E+99

> <Gold.Protein.RotatedTorsions>
[ 6907 6896 6895 6894 ] final  -93.81 input  -60.11 | X-H torsion
[ 7974 7965 7964 7962 ] final -103.11 input  175.53 | X-H torsion
[ 8008 7997 7996 7995 ] final -167.24 input   59.86 | X-H torsion
[ 10167 10162 10161 10158 ] final  126.26 input  -65.29 | X-H torsion
[ 10718 10713 10712 10709 ] final -103.54 input   66.30 | X-H torsion
[ 10763 10752 10751 10750 ] final   77.87 input  -60.55 | X-H torsion
[ 11005 11000 10999 10996 ] final   -9.46 input  -57.11 | X-H torsion

> <Gold.Protein.ActiveResidues>
 VAL166  LYS551  ARG553  GLY616  TRP617  ASP618  TYR619  PRO620  LYS621  CYS622 
 ASP623  PHE694  ASN695  SER759  ASP760  ASP761  ALA762  ILE779  LEU786  VAL792 
 PHE793  MET794  SER795  GLU796  ALA797  LYS798  CYS799  TRP800  GLU811  SER814 

> <Gold.Protein.RotatedAtoms>
  150.6929  134.1910  159.4284 H   0  0  0  0  0  0  0  0  0  0  0  0  # atno 6907 bound_to 6896
  151.9881  134.9991  160.0569 H   0  0  0  0  0  0  0  0  0  0  0  0  # atno 6908 bound_to 6896
  152.1693  133.4598  159.4938 H   0  0  0  0  0  0  0  0  0  0  0  0  # atno 6909 bound_to 6896
  145.2601  140.9266  143.3045 H   0  0  0  0  0  0  0  0  0  0  0  0  # atno 7974 bound_to 7965
  155.8750  140.0999  157.1524 H   0  0  0  0  0  0  0  0  0  0  0  0  # atno 8008 bound_to 7997
  154.4000  140.1340  156.4188 H   0  0  0  0  0  0  0  0  0  0  0  0  # atno 8009 bound_to 7997
  155.7708  140.3461  155.5248 H   0  0  0  0  0  0  0  0  0  0  0  0  # atno 8010 bound_to 7997
  139.5641  144.6900  151.3961 H   0  0  0  0  0  0  0  0  0  0  0  0  # atno 10167 bound_to 10162
  156.0269  130.5472  150.7268 H   0  0  0  0  0  0  0  0  0  0  0  0  # atno 10718 bound_to 10713
  153.0831  135.4898  154.8542 H   0  0  0  0  0  0  0  0  0  0  0  0  # atno 10763 bound_to 10752
  154.7176  135.3032  154.9101 H   0  0  0  0  0  0  0  0  0  0  0  0  # atno 10764 bound_to 10752
  153.9776  135.6793  153.4802 H   0  0  0  0  0  0  0  0  0  0  0  0  # atno 10765 bound_to 10752
  140.7343  133.8722  155.8918 H   0  0  0  0  0  0  0  0  0  0  0  0  # atno 11005 bound_to 11000
  144.9426  139.4172  143.6441 LP  0  0  0  0  0  0  0  0  0  0  0  0  # atno 17320 bound_to 7965
  146.3277  139.8393  142.8893 LP  0  0  0  0  0  0  0  0  0  0  0  0  # atno 17321 bound_to 7965
  140.6923  143.7832  150.7274 LP  0  0  0  0  0  0  0  0  0  0  0  0  # atno 17342 bound_to 10162
  140.1318  143.4519  152.2249 LP  0  0  0  0  0  0  0  0  0  0  0  0  # atno 17343 bound_to 10162
  157.4870  131.0907  151.0471 LP  0  0  0  0  0  0  0  0  0  0  0  0  # atno 17370 bound_to 10713
  157.0888  130.5933  149.5435 LP  0  0  0  0  0  0  0  0  0  0  0  0  # atno 17371 bound_to 10713
  140.9893  134.1300  157.4423 LP  0  0  0  0  0  0  0  0  0  0  0  0  # atno 17394 bound_to 11000
  139.8819  135.0035  156.6192 LP  0  0  0  0  0  0  0  0  0  0  0  0  # atno 17395 bound_to 11000

$$$$
