AV-unprocessed.smi:1836|AV-procd|sdf|7477|dock2
  -GOLD-   22720 9173D 1   1.00000     0.00000
 Structure written by MMmdl.
 33 34  0  0  0  0  0  0  0  0  1 V2000
  147.1102  140.4009  153.2034 C   0  0  0  0  0  0  0  0  0  0  0  0
  147.7524  139.2286  153.9584 C   0  0  2  0  0  0  0  0  0  0  0  0
  149.2742  139.4381  154.1202 C   0  0  0  0  0  0  0  0  0  0  0  0
  149.5933  140.3299  155.2341 N   0  0  0  0  0  0  0  0  0  0  0  0
  148.5406  141.0523  155.9282 C   0  0  0  0  0  0  0  0  0  0  0  0
  149.2317  141.6943  157.1391 C   0  0  0  0  0  0  0  0  0  0  0  0
  150.7348  141.6077  156.8533 C   0  0  0  0  0  0  0  0  0  0  0  0
  150.8150  140.6382  155.6865 C   0  0  0  0  0  0  0  0  0  0  0  0
  151.8817  140.2129  155.2455 O   0  0  0  0  0  0  0  0  0  0  0  0
  147.4777  138.0029  153.2110 N   0  0  0  0  0  0  0  0  0  0  0  0
  146.2754  137.4238  153.0762 C   0  0  0  0  0  0  0  0  0  0  0  0
  145.2420  137.8779  153.5677 O   0  0  0  0  0  0  0  0  0  0  0  0
  146.3599  136.2968  152.3516 N   0  0  0  0  0  0  0  0  0  0  0  0
  145.3232  135.3835  152.0371 C   0  0  0  0  0  0  0  0  0  0  0  0
  145.6688  134.1530  151.6403 N   0  0  0  0  0  0  0  0  0  0  0  0
  144.5588  133.3634  151.3663 N   0  0  0  0  0  0  0  0  0  0  0  0
  143.4181  134.0292  151.5706 C   0  0  0  0  0  0  0  0  0  0  0  0
  143.5853  135.6874  152.1198 S   0  0  0  0  0  0  0  0  0  0  0  0
  147.2591  141.3400  153.7373 H   0  0  0  0  0  0  0  0  0  0  0  0
  146.0349  140.2558  153.0927 H   0  0  0  0  0  0  0  0  0  0  0  0
  147.5361  140.5141  152.2057 H   0  0  0  0  0  0  0  0  0  0  0  0
  147.2876  139.1906  154.9454 H   0  0  0  0  0  0  0  0  0  0  0  0
  149.7904  138.4824  154.2287 H   0  0  0  0  0  0  0  0  0  0  0  0
  149.6787  139.8913  153.2139 H   0  0  0  0  0  0  0  0  0  0  0  0
  148.1279  141.8131  155.2641 H   0  0  0  0  0  0  0  0  0  0  0  0
  147.7317  140.3859  156.2301 H   0  0  0  0  0  0  0  0  0  0  0  0
  148.9022  142.7222  157.2941 H   0  0  0  0  0  0  0  0  0  0  0  0
  148.9953  141.1340  158.0447 H   0  0  0  0  0  0  0  0  0  0  0  0
  151.1404  142.5740  156.5524 H   0  0  0  0  0  0  0  0  0  0  0  0
  151.2967  141.2422  157.7134 H   0  0  0  0  0  0  0  0  0  0  0  0
  148.2697  137.5529  152.7758 H   0  0  0  0  0  0  0  0  0  0  0  0
  147.2729  136.0554  151.9955 H   0  0  0  0  0  0  0  0  0  0  0  0
  142.4714  133.5391  151.3975 H   0  0  0  0  0  0  0  0  0  0  0  0
  1  2  1  0  0  0  0
  1 19  1  0  0  0  0
  1 20  1  0  0  0  0
  1 21  1  0  0  0  0
  2  3  1  0  0  0  0
  2 10  1  0  0  0  0
  2 22  1  0  0  0  0
  3  4  1  0  0  0  0
  3 23  1  0  0  0  0
  3 24  1  0  0  0  0
  4  8  1  0  0  0  0
  4  5  1  0  0  0  0
  5  6  1  0  0  0  0
  5 25  1  0  0  0  0
  5 26  1  0  0  0  0
  6  7  1  0  0  0  0
  6 27  1  0  0  0  0
  6 28  1  0  0  0  0
  7  8  1  0  0  0  0
  7 29  1  0  0  0  0
  7 30  1  0  0  0  0
  8  9  2  0  0  0  0
 10 11  1  0  0  0  0
 10 31  1  0  0  0  0
 11 12  2  0  0  0  0
 11 13  1  0  0  0  0
 13 14  1  0  0  0  0
 13 32  1  0  0  0  0
 14 18  1  0  0  0  0
 14 15  2  0  0  0  0
 15 16  1  0  0  0  0
 16 17  2  0  0  0  0
 17 18  1  0  0  0  0
 17 33  1  0  0  0  0
M  END
> <s_m_source_file>
AV-unprocessed.smi

> <i_m_source_file_index>
1836

> <i_lp_mmshare_version>
43012

> <i_f3d_flags>
0

> <s_epik_input>
Tz1DMVtDSDJdW0NIMl1bQ0gyXU4xW0NIMl1bQ0BASF0oW0NIM10pW05IXUMoPU8pW05IXWMybm5bY0hdczI=

> <s_epik_cmdline>
J2VwaWtfcHl0aG9uJywgJy1waCcsICc3LjAnLCAnLXRuJywgJzgnLCAnLW1hJywgJzIwMCcsICctbWV0YWxfYmluZGluZycsICctaW1hZScsICc8aW5maWxlLm1hZT4nLCAnLW9tYWUnLCAnPG91dGZpbGUubWFlPic=

> <r_lp_tautomer_probability>
1

> <r_epik_Ionization_Penalty>
0.00192022

> <r_epik_Ionization_Penalty_Charging>
0

> <r_epik_Ionization_Penalty_Neutral>
0.00192022

> <r_epik_State_Penalty>
-0

> <r_epik_Charging_Adjusted_Penalty>
0

> <i_epik_Tot_Q>
0

> <i_epik_Tot_abs_Q>
0

> <r_epik_Metal_State_Penalty>
0.336618

> <b_epik_Metal_Only>
0

> <s_lp_Force_Field>
OPLS_2005

> <r_lp_Energy>
16.7835

> <b_lp_Chiralities_Consistent>
1

> <s_lp_Variant>
AV-unprocessed.smi:1836-1

> <Gold.Version>
5.8.1

> <Gold.Id.Protein>
6NUR|6NUR_protein|mol2

> <Gold.PLP.Fitness>
34.4875

> <Gold.PLP.PLP>
-24.9393

> <Gold.PLP.part.hbond>
-3.0000

> <Gold.PLP.part.metal>
0.0000

> <Gold.PLP.part.buried>
-1.7152

> <Gold.PLP.part.nonpolar>
-20.7776

> <Gold.PLP.part.repulsive>
0.4911

> <Gold.PLP.ligand.clash>
0.0000

> <Gold.PLP.ligand.torsion>
0.4217

> <Gold.PLP.Chemscore.Hbond>
2.6936

> <Gold.PLP.Chemscore.CHOScore>
0.7566

> <Gold.PLP.Chemscore.Metal>
0.0000

> <Gold.Chemscore.Hbonds>
donor molecule, donor type, donor heavy atom, donor atom, acceptor molecule, acceptor atom, score
      L1  H    10    31       P1  7948  1.00
      L1  H    13    32       P1  7948  1.00
      P1  H  7989  7998       L1     9  0.65
      L1  C    17    33       P1 10186  0.77

> <Gold.PLP.Chemscore.Internal.Correction>
0.0408

> <Gold.Rescore>
     Score         DG    S(hbond)    S(metal)    S(lipo)     H(rot)  DE(clash)    DE(int)     intcor
     14.09     -14.66       2.67        0.00      40.67       1.76       0.06       0.51       ----

> <Gold.Chemscore.Fitness>
14.0916

> <Gold.Chemscore.DG>
-14.6622

> <Gold.Chemscore.ZeroCoef>
-5.4800

> <Gold.Chemscore.Hbond>
2.6715

> <Gold.Chemscore.Metal>
0.0000

> <Gold.Chemscore.Lipo>
40.6651

> <Gold.Chemscore.Internal_Hbond>
0.0000

> <Gold.Chemscore.DEClash>
0.0565

> <Gold.Chemscore.DEInternal>
0.5141

> <Gold.Chemscore.Rot>
1.7571

> <Gold.Chemscore.Internal.Correction>
   9.000000E+99

> <Gold.Chemscore.Hbonds>
donor molecule, donor type, donor heavy atom, donor atom, acceptor molecule, acceptor atom, score
      L1  H    10    31       P1  7948  0.95
      L1  H    13    32       P1  7948  0.98
      P1  H  7989  7998       L1     9  0.10

> <Gold.Chemscore.Hbond.Weighted>
-8.9227

> <Gold.Chemscore.Metal.Weighted>
-0.0000

> <Gold.Chemscore.Lipo.Weighted>
-4.7578

> <Gold.Chemscore.Internal_Hbond.Weighted>
0.0000

> <Gold.Chemscore.DEClash.Weighted>
0.0565

> <Gold.Chemscore.DEInternal.Weighted>
0.5141

> <Gold.Chemscore.Rot.Weighted>
4.4983

> <Gold.Chemscore.Internal.Correction.Weighted>
   9.000000E+99

> <Gold.Protein.RotatedTorsions>
[ 6907 6896 6895 6894 ] final  114.61 input  -60.11 | X-H torsion
[ 7974 7965 7964 7962 ] final -139.07 input  175.53 | X-H torsion
[ 8008 7997 7996 7995 ] final -139.40 input   59.86 | X-H torsion
[ 10167 10162 10161 10158 ] final  -86.96 input  -65.29 | X-H torsion
[ 10718 10713 10712 10709 ] final  178.41 input   66.30 | X-H torsion
[ 10763 10752 10751 10750 ] final  168.51 input  -60.55 | X-H torsion
[ 11005 11000 10999 10996 ] final   20.27 input  -57.11 | X-H torsion

> <Gold.Protein.ActiveResidues>
 VAL166  LYS551  ARG553  GLY616  TRP617  ASP618  TYR619  PRO620  LYS621  CYS622 
 ASP623  PHE694  ASN695  SER759  ASP760  ASP761  ALA762  ILE779  LEU786  VAL792 
 PHE793  MET794  SER795  GLU796  ALA797  LYS798  CYS799  TRP800  GLU811  SER814 

> <Gold.Protein.RotatedAtoms>
  152.4792  133.8212  159.7053 H   0  0  0  0  0  0  0  0  0  0  0  0  # atno 6907 bound_to 6896
  150.8829  133.7338  159.2933 H   0  0  0  0  0  0  0  0  0  0  0  0  # atno 6908 bound_to 6896
  151.4836  135.1057  159.9836 H   0  0  0  0  0  0  0  0  0  0  0  0  # atno 6909 bound_to 6896
  144.8707  140.6362  143.5269 H   0  0  0  0  0  0  0  0  0  0  0  0  # atno 7974 bound_to 7965
  155.4442  140.0534  157.3007 H   0  0  0  0  0  0  0  0  0  0  0  0  # atno 8008 bound_to 7997
  154.4805  140.2079  155.9732 H   0  0  0  0  0  0  0  0  0  0  0  0  # atno 8009 bound_to 7997
  156.1198  140.3190  155.8196 H   0  0  0  0  0  0  0  0  0  0  0  0  # atno 8010 bound_to 7997
  140.3891  143.2713  151.9287 H   0  0  0  0  0  0  0  0  0  0  0  0  # atno 10167 bound_to 10162
  156.8910  130.9847  151.3049 H   0  0  0  0  0  0  0  0  0  0  0  0  # atno 10718 bound_to 10713
  154.3696  135.2753  155.2274 H   0  0  0  0  0  0  0  0  0  0  0  0  # atno 10763 bound_to 10752
  154.4427  135.5950  153.6143 H   0  0  0  0  0  0  0  0  0  0  0  0  # atno 10764 bound_to 10752
  152.9839  135.6022  154.3925 H   0  0  0  0  0  0  0  0  0  0  0  0  # atno 10765 bound_to 10752
  140.4044  134.1684  155.7665 H   0  0  0  0  0  0  0  0  0  0  0  0  # atno 11005 bound_to 11000
  145.4136  139.1576  143.4112 LP  0  0  0  0  0  0  0  0  0  0  0  0  # atno 17320 bound_to 7965
  146.2928  140.4242  142.8733 LP  0  0  0  0  0  0  0  0  0  0  0  0  # atno 17321 bound_to 7965
  139.4790  144.5745  151.8034 LP  0  0  0  0  0  0  0  0  0  0  0  0  # atno 17342 bound_to 10162
  140.4858  144.1382  150.5941 LP  0  0  0  0  0  0  0  0  0  0  0  0  # atno 17343 bound_to 10162
  157.6084  130.8564  149.8912 LP  0  0  0  0  0  0  0  0  0  0  0  0  # atno 17370 bound_to 10713
  156.0629  130.3697  150.0942 LP  0  0  0  0  0  0  0  0  0  0  0  0  # atno 17371 bound_to 10713
  141.1844  133.8343  157.1139 LP  0  0  0  0  0  0  0  0  0  0  0  0  # atno 17394 bound_to 11000
  140.0312  134.9900  157.0785 LP  0  0  0  0  0  0  0  0  0  0  0  0  # atno 17395 bound_to 11000

$$$$
