AV-unprocessed.smi:1029|AV-procd|sdf|4475|dock7
  -GOLD-   22720 2453D 1   1.00000     0.00000
 Structure written by MMmdl.
 46 47  0  0  0  0  0  0  0  0  2 V2000
  152.0060  140.8635  158.4259 C   0  0  0  0  0  0  0  0  0  0  0  0
  151.5883  140.4646  157.0414 C   0  0  0  0  0  0  0  0  0  0  0  0
  150.3407  140.6898  156.3952 C   0  0  0  0  0  0  0  0  0  0  0  0
  150.5296  140.1192  155.1646 C   0  0  0  0  0  0  0  0  0  0  0  0
  149.6545  140.0347  154.1288 N   0  0  0  0  0  0  0  0  0  0  0  0
  148.3169  139.9026  154.1621 C   0  0  0  0  0  0  0  0  0  0  0  0
  147.6272  139.8585  155.1812 O   0  0  0  0  0  0  0  0  0  0  0  0
  147.8071  139.8263  152.9242 N   0  0  0  0  0  0  0  0  0  0  0  0
  146.3905  139.6714  152.6105 C   0  0  0  0  0  0  0  0  0  0  0  0
  146.0884  138.3016  151.9690 C   0  0  1  0  0  0  0  0  0  0  0  0
  147.0780  138.0291  150.9955 O   0  0  0  0  0  0  0  0  0  0  0  0
  146.1448  137.1641  153.0098 C   0  0  0  0  0  0  0  0  0  0  0  0
  146.1756  135.8170  152.3828 N   0  3  2  0  0  0  0  0  0  0  0  0
  145.1516  135.6360  151.3195 C   0  0  0  0  0  0  0  0  0  0  0  0
  145.3183  134.2792  150.6148 C   0  0  0  0  0  0  0  0  0  0  0  0
  145.2595  133.1158  151.6188 C   0  0  1  0  0  0  0  0  0  0  0  0
  145.4577  131.7587  150.9290 C   0  0  0  0  0  0  0  0  0  0  0  0
  146.3017  133.3495  152.7250 C   0  0  0  0  0  0  0  0  0  0  0  0
  146.1151  134.7248  153.3877 C   0  0  0  0  0  0  0  0  0  0  0  0
  151.7697  139.5838  155.0566 O   0  0  0  0  0  0  0  0  0  0  0  0
  152.4406  139.8134  156.2635 N   0  0  0  0  0  0  0  0  0  0  0  0
  151.2231  141.4360  158.9237 H   0  0  0  0  0  0  0  0  0  0  0  0
  152.9043  141.4809  158.4031 H   0  0  0  0  0  0  0  0  0  0  0  0
  152.2179  139.9877  159.0398 H   0  0  0  0  0  0  0  0  0  0  0  0
  149.4669  141.1876  156.7874 H   0  0  0  0  0  0  0  0  0  0  0  0
  150.0734  140.0811  153.2117 H   0  0  0  0  0  0  0  0  0  0  0  0
  148.4447  139.8772  152.1430 H   0  0  0  0  0  0  0  0  0  0  0  0
  145.7616  139.8540  153.4841 H   0  0  0  0  0  0  0  0  0  0  0  0
  146.1530  140.4639  151.9001 H   0  0  0  0  0  0  0  0  0  0  0  0
  145.1102  138.3309  151.4895 H   0  0  0  0  0  0  0  0  0  0  0  0
  147.5046  137.2145  151.2151 H   0  0  0  0  0  0  0  0  0  0  0  0
  147.0339  137.3058  153.6266 H   0  0  0  0  0  0  0  0  0  0  0  0
  145.2937  137.2212  153.6900 H   0  0  0  0  0  0  0  0  0  0  0  0
  144.1541  135.7107  151.7557 H   0  0  0  0  0  0  0  0  0  0  0  0
  145.2294  136.4288  150.5765 H   0  0  0  0  0  0  0  0  0  0  0  0
  144.5406  134.1605  149.8596 H   0  0  0  0  0  0  0  0  0  0  0  0
  146.2702  134.2612  150.0817 H   0  0  0  0  0  0  0  0  0  0  0  0
  144.2700  133.1125  152.0785 H   0  0  0  0  0  0  0  0  0  0  0  0
  146.4347  131.6949  150.4489 H   0  0  0  0  0  0  0  0  0  0  0  0
  144.6993  131.5933  150.1633 H   0  0  0  0  0  0  0  0  0  0  0  0
  145.3850  130.9401  151.6456 H   0  0  0  0  0  0  0  0  0  0  0  0
  146.2281  132.5660  153.4801 H   0  0  0  0  0  0  0  0  0  0  0  0
  147.3070  133.2817  152.3068 H   0  0  0  0  0  0  0  0  0  0  0  0
  146.8970  134.8671  154.1349 H   0  0  0  0  0  0  0  0  0  0  0  0
  145.1606  134.7647  153.9151 H   0  0  0  0  0  0  0  0  0  0  0  0
  147.0793  135.7375  151.9378 H   0  0  0  0  0  0  0  0  0  0  0  0
  1  2  1  0  0  0  0
  1 22  1  0  0  0  0
  1 23  1  0  0  0  0
  1 24  1  0  0  0  0
  2 21  2  0  0  0  0
  2  3  1  0  0  0  0
  3  4  2  0  0  0  0
  3 25  1  0  0  0  0
  4  5  1  0  0  0  0
  4 20  1  0  0  0  0
  5  6  1  0  0  0  0
  5 26  1  0  0  0  0
  6  7  2  0  0  0  0
  6  8  1  0  0  0  0
  8  9  1  0  0  0  0
  8 27  1  0  0  0  0
  9 10  1  0  0  0  0
  9 28  1  0  0  0  0
  9 29  1  0  0  0  0
 10 11  1  0  0  0  0
 10 12  1  0  0  0  0
 10 30  1  0  0  0  0
 11 31  1  0  0  0  0
 12 13  1  0  0  0  0
 12 32  1  0  0  0  0
 12 33  1  0  0  0  0
 13 19  1  0  0  0  0
 13 14  1  0  0  0  0
 13 46  1  0  0  0  0
 14 15  1  0  0  0  0
 14 34  1  0  0  0  0
 14 35  1  0  0  0  0
 15 16  1  0  0  0  0
 15 36  1  0  0  0  0
 15 37  1  0  0  0  0
 16 17  1  0  0  0  0
 16 18  1  0  0  0  0
 16 38  1  0  0  0  0
 17 39  1  0  0  0  0
 17 40  1  0  0  0  0
 17 41  1  0  0  0  0
 18 19  1  0  0  0  0
 18 42  1  0  0  0  0
 18 43  1  0  0  0  0
 19 44  1  0  0  0  0
 19 45  1  0  0  0  0
 20 21  1  0  0  0  0
M  CHG  1  13   1
M  END
> <s_m_source_file>
AV-unprocessed.smi

> <i_m_source_file_index>
1029

> <i_lp_mmshare_version>
43012

> <i_f3d_flags>
0

> <s_epik_input>
W0NIM11jMVtjSF1jKG9uMSlbTkhdQyg9TylbTkhdW0NIMl1bQ0BIXShbT0hdKVtDSDJdTjJbQ0gyXVtDSDJdW0NIXShbQ0gzXSlbQ0gyXVtDSDJdMg==

> <s_epik_cmdline>
J2VwaWtfcHl0aG9uJywgJy1waCcsICc3LjAnLCAnLXRuJywgJzgnLCAnLW1hJywgJzIwMCcsICctbWV0YWxfYmluZGluZycsICctaW1hZScsICc8aW5maWxlLm1hZT4nLCAnLW9tYWUnLCAnPG91dGZpbGUubWFlPic=

> <r_lp_tautomer_probability>
1

> <r_epik_Ionization_Penalty>
0.00211787

> <r_epik_Ionization_Penalty_Charging>
0.00153238

> <r_epik_Ionization_Penalty_Neutral>
0.000585488

> <r_epik_State_Penalty>
-0

> <r_epik_Charging_Adjusted_Penalty>
0.00153238

> <i_epik_Tot_Q>
1

> <i_epik_Tot_abs_Q>
1

> <r_epik_Metal_State_Penalty>
-0

> <b_epik_Metal_Only>
0

> <s_lp_Force_Field>
OPLS_2005

> <r_lp_Energy>
20.5913

> <b_lp_Chiralities_Consistent>
1

> <s_lp_Variant>
AV-unprocessed.smi:1029-2

> <Gold.Version>
5.8.1

> <Gold.Id.Protein>
6NUR|6NUR_protein|mol2

> <Gold.PLP.Fitness>
50.1395

> <Gold.PLP.PLP>
-33.6035

> <Gold.PLP.part.hbond>
-7.4177

> <Gold.PLP.part.metal>
0.0000

> <Gold.PLP.part.buried>
0.4800

> <Gold.PLP.part.nonpolar>
-27.6943

> <Gold.PLP.part.repulsive>
0.9504

> <Gold.PLP.ligand.clash>
0.0000

> <Gold.PLP.ligand.torsion>
0.4895

> <Gold.PLP.Chemscore.Hbond>
5.8148

> <Gold.PLP.Chemscore.CHOScore>
0.0000

> <Gold.PLP.Chemscore.Metal>
0.0000

> <Gold.Chemscore.Hbonds>
donor molecule, donor type, donor heavy atom, donor atom, acceptor molecule, acceptor atom, score
      L1  H     5    26       P1  7957  0.72
      L1  H     8    27       P1  7957  0.98
      L1  H    11    31       P1  7948  1.00
      L1  H    13    46       P1  7948  2.00
      P1  H  7997  8008       L1    21  1.00

> <Gold.PLP.Chemscore.Internal.Correction>
0.0705

> <Gold.Rescore>
     Score         DG    S(hbond)    S(metal)    S(lipo)     H(rot)  DE(clash)    DE(int)     intcor
     20.77     -23.10       4.64        0.00      72.11       2.46       1.84       0.50       ----

> <Gold.Chemscore.Fitness>
20.7688

> <Gold.Chemscore.DG>
-23.1043

> <Gold.Chemscore.ZeroCoef>
-5.4800

> <Gold.Chemscore.Hbond>
4.6380

> <Gold.Chemscore.Metal>
0.0000

> <Gold.Chemscore.Lipo>
72.1109

> <Gold.Chemscore.Internal_Hbond>
0.0000

> <Gold.Chemscore.DEClash>
1.8351

> <Gold.Chemscore.DEInternal>
0.5004

> <Gold.Chemscore.Rot>
2.4624

> <Gold.Chemscore.Internal.Correction>
   9.000000E+99

> <Gold.Chemscore.Hbonds>
donor molecule, donor type, donor heavy atom, donor atom, acceptor molecule, acceptor atom, score
      L1  H     5    26       P1  7957  0.70
      L1  H     8    27       P1  7957  0.91
      L1  H    11    31       P1  7948  0.96
      L1  H    13    46       P1  7948  0.95
      P1  H  7997  8008       L1    21  0.97

> <Gold.Chemscore.Hbond.Weighted>
-15.4911

> <Gold.Chemscore.Metal.Weighted>
-0.0000

> <Gold.Chemscore.Lipo.Weighted>
-8.4370

> <Gold.Chemscore.Internal_Hbond.Weighted>
0.0000

> <Gold.Chemscore.DEClash.Weighted>
1.8351

> <Gold.Chemscore.DEInternal.Weighted>
0.5004

> <Gold.Chemscore.Rot.Weighted>
6.3037

> <Gold.Chemscore.Internal.Correction.Weighted>
   9.000000E+99

> <Gold.Protein.RotatedTorsions>
[ 6907 6896 6895 6894 ] final   -3.82 input  -60.11 | X-H torsion
[ 7974 7965 7964 7962 ] final  -55.33 input  175.53 | X-H torsion
[ 8008 7997 7996 7995 ] final  -37.11 input   59.86 | X-H torsion
[ 10167 10162 10161 10158 ] final -137.91 input  -65.29 | X-H torsion
[ 10718 10713 10712 10709 ] final  -10.88 input   66.30 | X-H torsion
[ 10763 10752 10751 10750 ] final  152.45 input  -60.55 | X-H torsion
[ 11005 11000 10999 10996 ] final -115.87 input  -57.11 | X-H torsion

> <Gold.Protein.ActiveResidues>
 VAL166  LYS551  ARG553  GLY616  TRP617  ASP618  TYR619  PRO620  LYS621  CYS622 
 ASP623  PHE694  ASN695  SER759  ASP760  ASP761  ALA762  ILE779  LEU786  VAL792 
 PHE793  MET794  SER795  GLU796  ALA797  LYS798  CYS799  TRP800  GLU811  SER814 

> <Gold.Protein.RotatedAtoms>
  151.5076  135.1064  159.9845 H   0  0  0  0  0  0  0  0  0  0  0  0  # atno 6907 bound_to 6896
  152.4675  133.7952  159.6934 H   0  0  0  0  0  0  0  0  0  0  0  0  # atno 6908 bound_to 6896
  150.8667  133.7501  159.3000 H   0  0  0  0  0  0  0  0  0  0  0  0  # atno 6909 bound_to 6896
  145.8754  140.8185  142.9867 H   0  0  0  0  0  0  0  0  0  0  0  0  # atno 7974 bound_to 7965
  154.4059  140.1613  156.2484 H   0  0  0  0  0  0  0  0  0  0  0  0  # atno 8008 bound_to 7997
  155.9140  140.3425  155.6098 H   0  0  0  0  0  0  0  0  0  0  0  0  # atno 8009 bound_to 7997
  155.7302  140.0779  157.2283 H   0  0  0  0  0  0  0  0  0  0  0  0  # atno 8010 bound_to 7997
  139.8531  143.7173  152.2656 H   0  0  0  0  0  0  0  0  0  0  0  0  # atno 10167 bound_to 10162
  156.6671  130.4998  149.6012 H   0  0  0  0  0  0  0  0  0  0  0  0  # atno 10718 bound_to 10713
  154.1202  135.2833  155.3210 H   0  0  0  0  0  0  0  0  0  0  0  0  # atno 10763 bound_to 10752
  154.6428  135.5396  153.7813 H   0  0  0  0  0  0  0  0  0  0  0  0  # atno 10764 bound_to 10752
  153.0315  135.6490  154.1357 H   0  0  0  0  0  0  0  0  0  0  0  0  # atno 10765 bound_to 10752
  141.0459  133.9763  157.2918 H   0  0  0  0  0  0  0  0  0  0  0  0  # atno 11005 bound_to 11000
  144.6726  140.1302  143.7444 LP  0  0  0  0  0  0  0  0  0  0  0  0  # atno 17320 bound_to 7965
  145.9087  139.2474  143.1450 LP  0  0  0  0  0  0  0  0  0  0  0  0  # atno 17321 bound_to 7965
  139.7446  144.7550  151.0599 LP  0  0  0  0  0  0  0  0  0  0  0  0  # atno 17342 bound_to 10162
  140.7785  143.4931  150.9867 LP  0  0  0  0  0  0  0  0  0  0  0  0  # atno 17343 bound_to 10162
  156.1967  130.6594  151.1122 LP  0  0  0  0  0  0  0  0  0  0  0  0  # atno 17370 bound_to 10713
  157.7090  131.0743  150.6568 LP  0  0  0  0  0  0  0  0  0  0  0  0  # atno 17371 bound_to 10713
  139.9312  135.0200  156.8405 LP  0  0  0  0  0  0  0  0  0  0  0  0  # atno 17394 bound_to 11000
  140.6147  134.0050  155.7592 LP  0  0  0  0  0  0  0  0  0  0  0  0  # atno 17395 bound_to 11000

$$$$
