AV-unprocessed.smi:1292|AV-procd|sdf|5398|dock1
  -GOLD-   22720 4553D 1   1.00000     0.00000
 Structure written by MMmdl.
 39 40  0  0  0  0  0  0  0  0  2 V2000
  155.9981  138.7223  165.7715 C   0  0  0  0  0  0  0  0  0  0  0  0
  155.8134  137.9792  164.4410 C   0  0  1  0  0  0  0  0  0  0  0  0
  154.6518  136.9789  164.5141 C   0  0  0  0  0  0  0  0  0  0  0  0
  154.5126  136.2583  163.1712 C   0  0  0  0  0  0  0  0  0  0  0  0
  154.3200  137.2592  162.0223 C   0  0  0  0  0  0  0  0  0  0  0  0
  155.4108  138.2592  161.9873 N   0  0  0  0  0  0  0  0  0  0  0  0
  155.6007  139.1954  160.5337 S   0  0  0  0  0  0  0  0  0  0  0  0
  156.5485  140.2712  160.8666 O   0  0  0  0  0  0  0  0  0  0  0  0
  155.9878  138.2488  159.4744 O   0  0  0  0  0  0  0  0  0  0  0  0
  154.0635  139.7008  160.4074 N   0  5  0  0  0  0  0  0  0  0  0  0
  153.7665  141.1224  160.4898 C   0  0  0  0  0  0  0  0  0  0  0  0
  153.0361  141.6214  159.2188 C   0  0  0  0  0  0  0  0  0  0  0  0
  152.3651  142.9881  159.3309 C   0  0  0  0  0  0  0  0  0  0  0  0
  152.4067  143.7176  160.5415 C   0  0  0  0  0  0  0  0  0  0  0  0
  151.7820  144.9784  160.5910 C   0  0  0  0  0  0  0  0  0  0  0  0
  151.1336  145.4608  159.4383 C   0  0  0  0  0  0  0  0  0  0  0  0
  151.1367  144.6555  158.2823 C   0  0  0  0  0  0  0  0  0  0  0  0
  151.7287  143.4440  158.2246 N   0  0  0  0  0  0  0  0  0  0  0  0
  155.6087  138.9632  163.2715 C   0  0  0  0  0  0  0  0  0  0  0  0
  155.1131  139.3075  166.0243 H   0  0  0  0  0  0  0  0  0  0  0  0
  156.8468  139.4052  165.7249 H   0  0  0  0  0  0  0  0  0  0  0  0
  156.1814  138.0243  166.5888 H   0  0  0  0  0  0  0  0  0  0  0  0
  156.7300  137.4188  164.2489 H   0  0  0  0  0  0  0  0  0  0  0  0
  154.8243  136.2526  165.3090 H   0  0  0  0  0  0  0  0  0  0  0  0
  153.7228  137.4970  164.7556 H   0  0  0  0  0  0  0  0  0  0  0  0
  155.4015  135.6545  162.9827 H   0  0  0  0  0  0  0  0  0  0  0  0
  153.6705  135.5667  163.2052 H   0  0  0  0  0  0  0  0  0  0  0  0
  154.2709  136.7150  161.0799 H   0  0  0  0  0  0  0  0  0  0  0  0
  153.3681  137.7804  162.1299 H   0  0  0  0  0  0  0  0  0  0  0  0
  153.1257  141.3250  161.3483 H   0  0  0  0  0  0  0  0  0  0  0  0
  154.6598  141.7268  160.6524 H   0  0  0  0  0  0  0  0  0  0  0  0
  153.7320  141.6341  158.3784 H   0  0  0  0  0  0  0  0  0  0  0  0
  152.2680  140.8959  158.9492 H   0  0  0  0  0  0  0  0  0  0  0  0
  152.9179  143.3244  161.4078 H   0  0  0  0  0  0  0  0  0  0  0  0
  151.8021  145.5662  161.4968 H   0  0  0  0  0  0  0  0  0  0  0  0
  150.6464  146.4245  159.4388 H   0  0  0  0  0  0  0  0  0  0  0  0
  150.6474  144.9924  157.3804 H   0  0  0  0  0  0  0  0  0  0  0  0
  154.7484  139.6081  163.4552 H   0  0  0  0  0  0  0  0  0  0  0  0
  156.4807  139.6130  163.2025 H   0  0  0  0  0  0  0  0  0  0  0  0
  1  2  1  0  0  0  0
  1 20  1  0  0  0  0
  1 21  1  0  0  0  0
  1 22  1  0  0  0  0
  2 19  1  0  0  0  0
  2  3  1  0  0  0  0
  2 23  1  0  0  0  0
  3  4  1  0  0  0  0
  3 24  1  0  0  0  0
  3 25  1  0  0  0  0
  4  5  1  0  0  0  0
  4 26  1  0  0  0  0
  4 27  1  0  0  0  0
  5  6  1  0  0  0  0
  5 28  1  0  0  0  0
  5 29  1  0  0  0  0
  6  7  1  0  0  0  0
  6 19  1  0  0  0  0
  7  8  2  0  0  0  0
  7  9  2  0  0  0  0
  7 10  1  0  0  0  0
 10 11  1  0  0  0  0
 11 12  1  0  0  0  0
 11 30  1  0  0  0  0
 11 31  1  0  0  0  0
 12 13  1  0  0  0  0
 12 32  1  0  0  0  0
 12 33  1  0  0  0  0
 13 18  1  0  0  0  0
 13 14  2  0  0  0  0
 14 15  1  0  0  0  0
 14 34  1  0  0  0  0
 15 16  2  0  0  0  0
 15 35  1  0  0  0  0
 16 17  1  0  0  0  0
 16 36  1  0  0  0  0
 17 18  2  0  0  0  0
 17 37  1  0  0  0  0
 19 38  1  0  0  0  0
 19 39  1  0  0  0  0
M  CHG  1  10  -1
M  END
> <s_m_source_file>
AV-unprocessed.smi

> <i_m_source_file_index>
1292

> <i_lp_mmshare_version>
43012

> <i_f3d_flags>
0

> <s_epik_input>
W0NIM11bQ0BASF0xW0NIMl1bQ0gyXVtDSDJdTihbQ0gyXTEpUyg9TykoPU8pW05IXVtDSDJdW0NIMl1jMltjSF1bY0hdW2NIXVtjSF1uMg==

> <s_epik_cmdline>
J2VwaWtfcHl0aG9uJywgJy1waCcsICc3LjAnLCAnLXRuJywgJzgnLCAnLW1hJywgJzIwMCcsICctbWV0YWxfYmluZGluZycsICctaW1hZScsICc8aW5maWxlLm1hZT4nLCAnLW9tYWUnLCAnPG91dGZpbGUubWFlPic=

> <r_epik_Ionization_Penalty>
2.02944

> <r_epik_Ionization_Penalty_Charging>
1.95606

> <r_epik_Ionization_Penalty_Neutral>
0.0733799

> <r_epik_State_Penalty>
2.47711

> <r_epik_Charging_Adjusted_Penalty>
4.43317

> <i_epik_Tot_Q>
-1

> <i_epik_Tot_abs_Q>
1

> <r_epik_Metal_State_Penalty>
0.729901

> <b_epik_Metal_Only>
0

> <s_lp_Force_Field>
OPLS_2005

> <r_lp_Energy>
9.691

> <b_lp_Chiralities_Consistent>
1

> <s_lp_Variant>
AV-unprocessed.smi:1292-4

> <Gold.Version>
5.8.1

> <Gold.Id.Protein>
6NUR|6NUR_protein|mol2

> <Gold.PLP.Fitness>
45.9572

> <Gold.PLP.PLP>
-43.8084

> <Gold.PLP.part.hbond>
-0.9505

> <Gold.PLP.part.metal>
0.0000

> <Gold.PLP.part.buried>
-4.8628

> <Gold.PLP.part.nonpolar>
-37.2773

> <Gold.PLP.part.repulsive>
0.0689

> <Gold.PLP.ligand.clash>
0.0000

> <Gold.PLP.ligand.torsion>
1.2270

> <Gold.PLP.Chemscore.Hbond>
0.0000

> <Gold.PLP.Chemscore.CHOScore>
1.0000

> <Gold.PLP.Chemscore.Metal>
0.0000

> <Gold.Chemscore.Hbonds>
donor molecule, donor type, donor heavy atom, donor atom, acceptor molecule, acceptor atom, score
      L1  C    17    37       P1  8028  1.00

> <Gold.PLP.Chemscore.Internal.Correction>
1.6028

> <Gold.Rescore>
     Score         DG    S(hbond)    S(metal)    S(lipo)     H(rot)  DE(clash)    DE(int)     intcor
     15.31     -16.66       0.00        0.00     126.65       1.42       0.08       1.27       ----

> <Gold.Chemscore.Fitness>
15.3100

> <Gold.Chemscore.DG>
-16.6583

> <Gold.Chemscore.ZeroCoef>
-5.4800

> <Gold.Chemscore.Hbond>
0.0000

> <Gold.Chemscore.Metal>
0.0000

> <Gold.Chemscore.Lipo>
126.6455

> <Gold.Chemscore.Internal_Hbond>
0.0000

> <Gold.Chemscore.DEClash>
0.0833

> <Gold.Chemscore.DEInternal>
1.2650

> <Gold.Chemscore.Rot>
1.4216

> <Gold.Chemscore.Internal.Correction>
   9.000000E+99

> <Gold.Chemscore.Hbond.Weighted>
-0.0000

> <Gold.Chemscore.Metal.Weighted>
-0.0000

> <Gold.Chemscore.Lipo.Weighted>
-14.8175

> <Gold.Chemscore.Internal_Hbond.Weighted>
0.0000

> <Gold.Chemscore.DEClash.Weighted>
0.0833

> <Gold.Chemscore.DEInternal.Weighted>
1.2650

> <Gold.Chemscore.Rot.Weighted>
3.6392

> <Gold.Chemscore.Internal.Correction.Weighted>
   9.000000E+99

> <Gold.Protein.RotatedTorsions>
[ 6907 6896 6895 6894 ] final  -86.92 input  -60.11 | X-H torsion
[ 7974 7965 7964 7962 ] final -149.77 input  175.53 | X-H torsion
[ 8008 7997 7996 7995 ] final  -39.36 input   59.86 | X-H torsion
[ 10167 10162 10161 10158 ] final  106.18 input  -65.29 | X-H torsion
[ 10718 10713 10712 10709 ] final -109.11 input   66.30 | X-H torsion
[ 10763 10752 10751 10750 ] final -125.85 input  -60.55 | X-H torsion
[ 11005 11000 10999 10996 ] final  162.72 input  -57.11 | X-H torsion

> <Gold.Protein.ActiveResidues>
 VAL166  LYS551  ARG553  GLY616  TRP617  ASP618  TYR619  PRO620  LYS621  CYS622 
 ASP623  PHE694  ASN695  SER759  ASP760  ASP761  ALA762  ILE779  LEU786  VAL792 
 PHE793  MET794  SER795  GLU796  ALA797  LYS798  CYS799  TRP800  GLU811  SER814 

> <Gold.Protein.RotatedAtoms>
  150.6866  134.2975  159.4692 H   0  0  0  0  0  0  0  0  0  0  0  0  # atno 6907 bound_to 6896
  152.0874  134.9427  160.0581 H   0  0  0  0  0  0  0  0  0  0  0  0  # atno 6908 bound_to 6896
  152.0756  133.4093  159.4515 H   0  0  0  0  0  0  0  0  0  0  0  0  # atno 6909 bound_to 6896
  144.7947  140.5020  143.5748 H   0  0  0  0  0  0  0  0  0  0  0  0  # atno 7974 bound_to 7965
  154.4024  140.1553  156.2851 H   0  0  0  0  0  0  0  0  0  0  0  0  # atno 8008 bound_to 7997
  155.8835  140.3442  155.5883 H   0  0  0  0  0  0  0  0  0  0  0  0  # atno 8009 bound_to 7997
  155.7639  140.0821  157.2132 H   0  0  0  0  0  0  0  0  0  0  0  0  # atno 8010 bound_to 7997
  139.7031  144.7091  151.1152 H   0  0  0  0  0  0  0  0  0  0  0  0  # atno 10167 bound_to 10162
  156.0520  130.5747  150.8054 H   0  0  0  0  0  0  0  0  0  0  0  0  # atno 10718 bound_to 10713
  154.8740  135.4015  154.3335 H   0  0  0  0  0  0  0  0  0  0  0  0  # atno 10763 bound_to 10752
  153.4145  135.7021  153.6341 H   0  0  0  0  0  0  0  0  0  0  0  0  # atno 10764 bound_to 10752
  153.5030  135.3723  155.2519 H   0  0  0  0  0  0  0  0  0  0  0  0  # atno 10765 bound_to 10752
  140.2286  134.8141  157.3294 H   0  0  0  0  0  0  0  0  0  0  0  0  # atno 11005 bound_to 11000
  145.5704  139.1483  143.3292 LP  0  0  0  0  0  0  0  0  0  0  0  0  # atno 17320 bound_to 7965
  146.2211  140.5837  142.9016 LP  0  0  0  0  0  0  0  0  0  0  0  0  # atno 17321 bound_to 7965
  140.7714  143.5397  150.9327 LP  0  0  0  0  0  0  0  0  0  0  0  0  # atno 17342 bound_to 10162
  139.9079  143.6756  152.3120 LP  0  0  0  0  0  0  0  0  0  0  0  0  # atno 17343 bound_to 10162
  157.5455  131.0942  150.9769 LP  0  0  0  0  0  0  0  0  0  0  0  0  # atno 17370 bound_to 10713
  157.0041  130.5611  149.5314 LP  0  0  0  0  0  0  0  0  0  0  0  0  # atno 17371 bound_to 10713
  140.1774  134.4532  155.7793 LP  0  0  0  0  0  0  0  0  0  0  0  0  # atno 17394 bound_to 11000
  141.2219  133.6968  156.7811 LP  0  0  0  0  0  0  0  0  0  0  0  0  # atno 17395 bound_to 11000

$$$$
