AV-unprocessed.smi:2413|AV-procd|sdf|9534|dock6
  -GOLD-   2272013163D 1   1.00000     0.00000
 Structure written by MMmdl.
 45 46  0  0  0  0  0  0  0  0  1 V2000
  149.2244  134.9981  154.7846 C   0  0  0  0  0  0  0  0  0  0  0  0
  150.5200  135.7906  154.9302 C   0  0  0  0  0  0  0  0  0  0  0  0
  151.3513  135.4527  155.7719 O   0  0  0  0  0  0  0  0  0  0  0  0
  150.6783  136.8400  154.1089 N   0  0  0  0  0  0  0  0  0  0  0  0
  151.8314  137.7347  154.0952 C   0  0  0  0  0  0  0  0  0  0  0  0
  151.4470  139.1630  154.5166 C   0  0  2  0  0  0  0  0  0  0  0  0
  151.8302  139.4493  155.9822 C   0  0  0  0  0  0  0  0  0  0  0  0
  151.3855  140.7837  156.3642 N   0  0  0  0  0  0  0  0  0  0  0  0
  151.7917  141.1791  157.6450 C   0  0  0  0  0  0  0  0  0  0  0  0
  152.5217  140.3266  158.5028 C   0  0  0  0  0  0  0  0  0  0  0  0
  152.8637  140.8542  159.7623 C   0  0  0  0  0  0  0  0  0  0  0  0
  152.5086  142.1035  160.1295 N   0  0  0  0  0  0  0  0  0  0  0  0
  151.7824  142.8224  159.2628 C   0  0  0  0  0  0  0  0  0  0  0  0
  151.5108  144.2934  159.6221 C   0  0  0  0  0  0  0  0  0  0  0  0
  152.0751  144.6376  161.0208 C   0  0  0  0  0  0  0  0  0  0  0  0
  149.9934  144.5536  159.6001 C   0  0  0  0  0  0  0  0  0  0  0  0
  152.2151  145.2481  158.6295 C   0  0  0  0  0  0  0  0  0  0  0  0
  151.4410  142.4247  158.0295 N   0  0  0  0  0  0  0  0  0  0  0  0
  149.9617  140.9880  156.1371 C   0  0  0  0  0  0  0  0  0  0  0  0
  149.6093  140.6512  154.6792 C   0  0  0  0  0  0  0  0  0  0  0  0
  150.0354  139.3251  154.3819 O   0  0  0  0  0  0  0  0  0  0  0  0
  148.6036  135.3859  153.9760 H   0  0  0  0  0  0  0  0  0  0  0  0
  148.6493  135.0461  155.7095 H   0  0  0  0  0  0  0  0  0  0  0  0
  149.4450  133.9517  154.5726 H   0  0  0  0  0  0  0  0  0  0  0  0
  149.9394  137.0399  153.4504 H   0  0  0  0  0  0  0  0  0  0  0  0
  152.6353  137.3498  154.7249 H   0  0  0  0  0  0  0  0  0  0  0  0
  152.2197  137.7477  153.0765 H   0  0  0  0  0  0  0  0  0  0  0  0
  151.9571  139.8740  153.8633 H   0  0  0  0  0  0  0  0  0  0  0  0
  151.3758  138.7035  156.6357 H   0  0  0  0  0  0  0  0  0  0  0  0
  152.9110  139.3752  156.1093 H   0  0  0  0  0  0  0  0  0  0  0  0
  152.8071  139.3252  158.2165 H   0  0  0  0  0  0  0  0  0  0  0  0
  153.4284  140.2734  160.4766 H   0  0  0  0  0  0  0  0  0  0  0  0
  151.9304  145.6920  161.2590 H   0  0  0  0  0  0  0  0  0  0  0  0
  153.1447  144.4323  161.0791 H   0  0  0  0  0  0  0  0  0  0  0  0
  151.5852  144.0674  161.8109 H   0  0  0  0  0  0  0  0  0  0  0  0
  149.4721  143.9152  160.3143 H   0  0  0  0  0  0  0  0  0  0  0  0
  149.5721  144.3549  158.6139 H   0  0  0  0  0  0  0  0  0  0  0  0
  149.7627  145.5886  159.8542 H   0  0  0  0  0  0  0  0  0  0  0  0
  152.0651  146.2917  158.9084 H   0  0  0  0  0  0  0  0  0  0  0  0
  151.8330  145.1369  157.6142 H   0  0  0  0  0  0  0  0  0  0  0  0
  153.2903  145.0681  158.6003 H   0  0  0  0  0  0  0  0  0  0  0  0
  149.3868  140.3541  156.8138 H   0  0  0  0  0  0  0  0  0  0  0  0
  149.6954  142.0225  156.3575 H   0  0  0  0  0  0  0  0  0  0  0  0
  148.5324  140.7216  154.5261 H   0  0  0  0  0  0  0  0  0  0  0  0
  150.0763  141.3583  153.9915 H   0  0  0  0  0  0  0  0  0  0  0  0
  1  2  1  0  0  0  0
  1 22  1  0  0  0  0
  1 23  1  0  0  0  0
  1 24  1  0  0  0  0
  2  3  2  0  0  0  0
  2  4  1  0  0  0  0
  4  5  1  0  0  0  0
  4 25  1  0  0  0  0
  5  6  1  0  0  0  0
  5 26  1  0  0  0  0
  5 27  1  0  0  0  0
  6 21  1  0  0  0  0
  6  7  1  0  0  0  0
  6 28  1  0  0  0  0
  7  8  1  0  0  0  0
  7 29  1  0  0  0  0
  7 30  1  0  0  0  0
  8  9  1  0  0  0  0
  8 19  1  0  0  0  0
  9 18  1  0  0  0  0
  9 10  2  0  0  0  0
 10 11  1  0  0  0  0
 10 31  1  0  0  0  0
 11 12  2  0  0  0  0
 11 32  1  0  0  0  0
 12 13  1  0  0  0  0
 13 14  1  0  0  0  0
 13 18  2  0  0  0  0
 14 15  1  0  0  0  0
 14 16  1  0  0  0  0
 14 17  1  0  0  0  0
 15 33  1  0  0  0  0
 15 34  1  0  0  0  0
 15 35  1  0  0  0  0
 16 36  1  0  0  0  0
 16 37  1  0  0  0  0
 16 38  1  0  0  0  0
 17 39  1  0  0  0  0
 17 40  1  0  0  0  0
 17 41  1  0  0  0  0
 19 20  1  0  0  0  0
 19 42  1  0  0  0  0
 19 43  1  0  0  0  0
 20 21  1  0  0  0  0
 20 44  1  0  0  0  0
 20 45  1  0  0  0  0
M  END
> <s_m_source_file>
AV-unprocessed.smi

> <i_m_source_file_index>
2413

> <i_lp_mmshare_version>
43012

> <i_f3d_flags>
0

> <s_epik_input>
W0NIM11DKD1PKVtOSF1bQ0gyXVtDQEBIXTFbQ0gyXU4oW0NIMl1bQ0gyXU8xKWMyW2NIXVtjSF1uYyhuMilDKFtDSDNdKShbQ0gzXSlbQ0gzXQ==

> <s_epik_cmdline>
J2VwaWtfcHl0aG9uJywgJy1waCcsICc3LjAnLCAnLXRuJywgJzgnLCAnLW1hJywgJzIwMCcsICctbWV0YWxfYmluZGluZycsICctaW1hZScsICc8aW5maWxlLm1hZT4nLCAnLW9tYWUnLCAnPG91dGZpbGUubWFlPic=

> <r_lp_tautomer_probability>
1

> <r_epik_Ionization_Penalty>
0.0132021

> <r_epik_Ionization_Penalty_Charging>
0

> <r_epik_Ionization_Penalty_Neutral>
0.0132021

> <r_epik_State_Penalty>
0.0102452

> <r_epik_Charging_Adjusted_Penalty>
0.0102452

> <i_epik_Tot_Q>
0

> <i_epik_Tot_abs_Q>
0

> <r_epik_Metal_State_Penalty>
0.0100219

> <b_epik_Metal_Only>
0

> <s_lp_Force_Field>
OPLS_2005

> <r_lp_Energy>
13.0347

> <b_lp_Chiralities_Consistent>
1

> <s_lp_Variant>
AV-unprocessed.smi:2413-1

> <Gold.Version>
5.8.1

> <Gold.Id.Protein>
6NUR|6NUR_protein|mol2

> <Gold.PLP.Fitness>
45.4885

> <Gold.PLP.PLP>
-41.4079

> <Gold.PLP.part.hbond>
-3.0000

> <Gold.PLP.part.metal>
0.0000

> <Gold.PLP.part.buried>
-5.7306

> <Gold.PLP.part.nonpolar>
-33.5113

> <Gold.PLP.part.repulsive>
0.3119

> <Gold.PLP.ligand.clash>
0.0000

> <Gold.PLP.ligand.torsion>
0.7328

> <Gold.PLP.Chemscore.Hbond>
1.7670

> <Gold.PLP.Chemscore.CHOScore>
0.0000

> <Gold.PLP.Chemscore.Metal>
0.0000

> <Gold.Chemscore.Hbonds>
donor molecule, donor type, donor heavy atom, donor atom, acceptor molecule, acceptor atom, score
      L1  H     4    25       P1  7948  0.82
      P1  H 10752 10765       L1     3  1.00

> <Gold.PLP.Chemscore.Internal.Correction>
0.2451

> <Gold.Rescore>
     Score         DG    S(hbond)    S(metal)    S(lipo)     H(rot)  DE(clash)    DE(int)     intcor
     15.82     -17.13       1.21        0.00     103.06       1.73       0.48       0.83       ----

> <Gold.Chemscore.Fitness>
15.8171

> <Gold.Chemscore.DG>
-17.1305

> <Gold.Chemscore.ZeroCoef>
-5.4800

> <Gold.Chemscore.Hbond>
1.2064

> <Gold.Chemscore.Metal>
0.0000

> <Gold.Chemscore.Lipo>
103.0621

> <Gold.Chemscore.Internal_Hbond>
0.0000

> <Gold.Chemscore.DEClash>
0.4818

> <Gold.Chemscore.DEInternal>
0.8316

> <Gold.Chemscore.Rot>
1.7332

> <Gold.Chemscore.Internal.Correction>
   9.000000E+99

> <Gold.Chemscore.Hbonds>
donor molecule, donor type, donor heavy atom, donor atom, acceptor molecule, acceptor atom, score
      L1  H     4    25       P1  7948  0.27
      P1  H 10752 10765       L1     3  0.69

> <Gold.Chemscore.Hbond.Weighted>
-4.0293

> <Gold.Chemscore.Metal.Weighted>
-0.0000

> <Gold.Chemscore.Lipo.Weighted>
-12.0583

> <Gold.Chemscore.Internal_Hbond.Weighted>
0.0000

> <Gold.Chemscore.DEClash.Weighted>
0.4818

> <Gold.Chemscore.DEInternal.Weighted>
0.8316

> <Gold.Chemscore.Rot.Weighted>
4.4370

> <Gold.Chemscore.Internal.Correction.Weighted>
   9.000000E+99

> <Gold.Protein.RotatedTorsions>
[ 6907 6896 6895 6894 ] final  -35.14 input  -60.11 | X-H torsion
[ 7974 7965 7964 7962 ] final   11.19 input  175.53 | X-H torsion
[ 8008 7997 7996 7995 ] final  105.93 input   59.86 | X-H torsion
[ 10167 10162 10161 10158 ] final   61.41 input  -65.29 | X-H torsion
[ 10718 10713 10712 10709 ] final   43.39 input   66.30 | X-H torsion
[ 10763 10752 10751 10750 ] final -155.15 input  -60.55 | X-H torsion
[ 11005 11000 10999 10996 ] final  110.47 input  -57.11 | X-H torsion

> <Gold.Protein.ActiveResidues>
 VAL166  LYS551  ARG553  GLY616  TRP617  ASP618  TYR619  PRO620  LYS621  CYS622 
 ASP623  PHE694  ASN695  SER759  ASP760  ASP761  ALA762  ILE779  LEU786  VAL792 
 PHE793  MET794  SER795  GLU796  ALA797  LYS798  CYS799  TRP800  GLU811  SER814 

> <Gold.Protein.RotatedAtoms>
  151.0437  134.9625  159.8174 H   0  0  0  0  0  0  0  0  0  0  0  0  # atno 6907 bound_to 6896
  152.5368  134.2626  159.8951 H   0  0  0  0  0  0  0  0  0  0  0  0  # atno 6908 bound_to 6896
  151.2639  133.4246  159.2651 H   0  0  0  0  0  0  0  0  0  0  0  0  # atno 6909 bound_to 6896
  146.2375  139.9522  142.8469 H   0  0  0  0  0  0  0  0  0  0  0  0  # atno 7974 bound_to 7965
  156.1700  140.3122  155.8957 H   0  0  0  0  0  0  0  0  0  0  0  0  # atno 8008 bound_to 7997
  155.3606  140.0476  157.3063 H   0  0  0  0  0  0  0  0  0  0  0  0  # atno 8009 bound_to 7997
  154.5231  140.2205  155.8949 H   0  0  0  0  0  0  0  0  0  0  0  0  # atno 8010 bound_to 7997
  140.1550  144.4425  150.6739 H   0  0  0  0  0  0  0  0  0  0  0  0  # atno 10167 bound_to 10162
  157.4154  130.7938  149.7467 H   0  0  0  0  0  0  0  0  0  0  0  0  # atno 10718 bound_to 10713
  154.7808  135.3174  154.7994 H   0  0  0  0  0  0  0  0  0  0  0  0  # atno 10763 bound_to 10752
  153.8706  135.6844  153.4779 H   0  0  0  0  0  0  0  0  0  0  0  0  # atno 10764 bound_to 10752
  153.1444  135.4725  154.9481 H   0  0  0  0  0  0  0  0  0  0  0  0  # atno 10765 bound_to 10752
  139.8882  134.9485  156.6284 H   0  0  0  0  0  0  0  0  0  0  0  0  # atno 11005 bound_to 11000
  145.1851  140.9785  143.4244 LP  0  0  0  0  0  0  0  0  0  0  0  0  # atno 17320 bound_to 7965
  144.9907  139.3692  143.6216 LP  0  0  0  0  0  0  0  0  0  0  0  0  # atno 17321 bound_to 7965
  140.6678  143.2274  151.5699 LP  0  0  0  0  0  0  0  0  0  0  0  0  # atno 17342 bound_to 10162
  139.5408  144.2654  152.1346 LP  0  0  0  0  0  0  0  0  0  0  0  0  # atno 17343 bound_to 10162
  155.9863  130.3975  150.3217 LP  0  0  0  0  0  0  0  0  0  0  0  0  # atno 17370 bound_to 10713
  157.1360  131.0284  151.2949 LP  0  0  0  0  0  0  0  0  0  0  0  0  # atno 17371 bound_to 10713
  140.7685  133.8758  155.8473 LP  0  0  0  0  0  0  0  0  0  0  0  0  # atno 17394 bound_to 11000
  140.9862  134.1340  157.4450 LP  0  0  0  0  0  0  0  0  0  0  0  0  # atno 17395 bound_to 11000

$$$$
