AV-unprocessed.smi:1240|AV-procd|sdf|5207|dock9
  -GOLD-   22720 4293D 1   1.00000     0.00000
 Structure written by MMmdl.
 49 51  0  0  0  0  0  0  0  0  3 V2000
  147.3760  133.8234  153.4567 O   0  0  0  0  0  0  0  0  0  0  0  0
  147.7533  132.8006  152.8865 C   0  0  0  0  0  0  0  0  0  0  0  0
  148.9007  132.1736  153.1780 N   0  0  0  0  0  0  0  0  0  0  0  0
  149.8340  132.5771  154.2235 C   0  0  0  0  0  0  0  0  0  0  0  0
  149.7458  131.6690  155.4798 C   0  0  2  0  0  0  0  0  0  0  0  0
  149.5788  132.4571  156.8107 C   0  0  2  0  0  0  0  0  0  0  0  0
  148.1521  132.8967  157.0994 C   0  0  0  0  0  0  0  0  0  0  0  0
  148.3558  133.9739  158.1564 C   0  0  0  0  0  0  0  0  0  0  0  0
  149.5578  134.6314  157.7810 O   0  0  0  0  0  0  0  0  0  0  0  0
  150.3031  133.8091  156.8882 C   0  0  0  0  0  0  0  0  0  0  0  0
  150.9160  130.7450  155.5821 N   0  3  0  0  0  0  0  0  0  0  0  0
  151.0141  129.7643  154.4733 C   0  0  0  0  0  0  0  0  0  0  0  0
  152.1241  128.7411  154.7694 C   0  0  0  0  0  0  0  0  0  0  0  0
  153.3570  129.4172  154.9874 O   0  0  0  0  0  0  0  0  0  0  0  0
  153.2943  130.3012  156.1004 C   0  0  0  0  0  0  0  0  0  0  0  0
  152.2333  131.3824  155.8368 C   0  0  0  0  0  0  0  0  0  0  0  0
  147.0966  132.1730  151.8955 N   0  0  0  0  0  0  0  0  0  0  0  0
  145.8286  132.4821  151.3314 C   0  0  0  0  0  0  0  0  0  0  0  0
  145.5527  131.9838  150.0385 C   0  0  0  0  0  0  0  0  0  0  0  0
  144.3019  132.2458  149.4435 C   0  0  0  0  0  0  0  0  0  0  0  0
  143.3747  132.9616  150.1148 N   0  3  0  0  0  0  0  0  0  0  0  0
  143.5866  133.4478  151.3566 C   0  0  0  0  0  0  0  0  0  0  0  0
  144.8184  133.2182  152.0026 C   0  0  0  0  0  0  0  0  0  0  0  0
  149.1390  131.3469  152.6495 H   0  0  0  0  0  0  0  0  0  0  0  0
  150.8348  132.5484  153.7926 H   0  0  0  0  0  0  0  0  0  0  0  0
  149.6409  133.6139  154.5036 H   0  0  0  0  0  0  0  0  0  0  0  0
  148.8604  131.0396  155.3743 H   0  0  0  0  0  0  0  0  0  0  0  0
  149.9221  131.8459  157.6466 H   0  0  0  0  0  0  0  0  0  0  0  0
  147.6960  133.3295  156.2076 H   0  0  0  0  0  0  0  0  0  0  0  0
  147.5135  132.0860  157.4517 H   0  0  0  0  0  0  0  0  0  0  0  0
  147.5191  134.6700  158.2162 H   0  0  0  0  0  0  0  0  0  0  0  0
  148.4953  133.5224  159.1396 H   0  0  0  0  0  0  0  0  0  0  0  0
  151.3313  133.7071  157.2356 H   0  0  0  0  0  0  0  0  0  0  0  0
  150.3216  134.3009  155.9150 H   0  0  0  0  0  0  0  0  0  0  0  0
  150.0643  129.2434  154.3479 H   0  0  0  0  0  0  0  0  0  0  0  0
  151.2270  130.2762  153.5345 H   0  0  0  0  0  0  0  0  0  0  0  0
  151.8713  128.1331  155.6396 H   0  0  0  0  0  0  0  0  0  0  0  0
  152.2398  128.0585  153.9272 H   0  0  0  0  0  0  0  0  0  0  0  0
  153.0670  129.7451  157.0113 H   0  0  0  0  0  0  0  0  0  0  0  0
  154.2726  130.7604  156.2428 H   0  0  0  0  0  0  0  0  0  0  0  0
  152.5380  131.9811  154.9777 H   0  0  0  0  0  0  0  0  0  0  0  0
  152.1767  132.0518  156.6946 H   0  0  0  0  0  0  0  0  0  0  0  0
  147.5787  131.3947  151.4699 H   0  0  0  0  0  0  0  0  0  0  0  0
  146.2925  131.4077  149.5015 H   0  0  0  0  0  0  0  0  0  0  0  0
  144.0169  131.9039  148.4593 H   0  0  0  0  0  0  0  0  0  0  0  0
  142.7671  133.9970  151.7967 H   0  0  0  0  0  0  0  0  0  0  0  0
  144.9557  133.5997  153.0026 H   0  0  0  0  0  0  0  0  0  0  0  0
  150.7258  130.1857  156.4015 H   0  0  0  0  0  0  0  0  0  0  0  0
  142.4749  133.1386  149.6673 H   0  0  0  0  0  0  0  0  0  0  0  0
  1  2  2  0  0  0  0
  2  3  1  0  0  0  0
  2 17  1  0  0  0  0
  3  4  1  0  0  0  0
  3 24  1  0  0  0  0
  4  5  1  0  0  0  0
  4 25  1  0  0  0  0
  4 26  1  0  0  0  0
  5  6  1  0  0  0  0
  5 11  1  0  0  0  0
  5 27  1  0  0  0  0
  6 10  1  0  0  0  0
  6  7  1  0  0  0  0
  6 28  1  0  0  0  0
  7  8  1  0  0  0  0
  7 29  1  0  0  0  0
  7 30  1  0  0  0  0
  8  9  1  0  0  0  0
  8 31  1  0  0  0  0
  8 32  1  0  0  0  0
  9 10  1  0  0  0  0
 10 33  1  0  0  0  0
 10 34  1  0  0  0  0
 11 16  1  0  0  0  0
 11 12  1  0  0  0  0
 11 48  1  0  0  0  0
 12 13  1  0  0  0  0
 12 35  1  0  0  0  0
 12 36  1  0  0  0  0
 13 14  1  0  0  0  0
 13 37  1  0  0  0  0
 13 38  1  0  0  0  0
 14 15  1  0  0  0  0
 15 16  1  0  0  0  0
 15 39  1  0  0  0  0
 15 40  1  0  0  0  0
 16 41  1  0  0  0  0
 16 42  1  0  0  0  0
 17 18  1  0  0  0  0
 17 43  1  0  0  0  0
 18 23  1  0  0  0  0
 18 19  2  0  0  0  0
 19 20  1  0  0  0  0
 19 44  1  0  0  0  0
 20 21  2  0  0  0  0
 20 45  1  0  0  0  0
 21 22  1  0  0  0  0
 21 49  1  0  0  0  0
 22 23  2  0  0  0  0
 22 46  1  0  0  0  0
 23 47  1  0  0  0  0
M  CHG  1  11   1
M  CHG  1  21   1
M  END
> <s_m_source_file>
AV-unprocessed.smi

> <i_m_source_file_index>
1240

> <i_lp_mmshare_version>
43012

> <i_f3d_flags>
0

> <s_epik_input>
W2NIXTFbY0hdbltjSF1bY0hdYzFbTkhdQyg9TylbTkhdW0NIMl1bQ0BIXShbQ0BASF0yW0NIMl1bQ0gyXU9bQ0gyXTIpTjNbQ0gyXVtDSDJdT1tDSDJdW0NIMl0z

> <s_epik_cmdline>
J2VwaWtfcHl0aG9uJywgJy1waCcsICc3LjAnLCAnLXRuJywgJzgnLCAnLW1hJywgJzIwMCcsICctbWV0YWxfYmluZGluZycsICctaW1hZScsICc8aW5maWxlLm1hZT4nLCAnLW9tYWUnLCAnPG91dGZpbGUubWFlPic=

> <r_epik_Ionization_Penalty>
2.08105

> <r_epik_Ionization_Penalty_Charging>
2.08103

> <r_epik_Ionization_Penalty_Neutral>
2.04144e-05

> <r_epik_State_Penalty>
2.15598

> <r_epik_Charging_Adjusted_Penalty>
4.23701

> <i_epik_Tot_Q>
2

> <i_epik_Tot_abs_Q>
2

> <r_epik_Metal_State_Penalty>
2.25158

> <b_epik_Metal_Only>
0

> <s_lp_Force_Field>
OPLS_2005

> <r_lp_Energy>
50.7828

> <b_lp_Chiralities_Consistent>
1

> <s_lp_Variant>
AV-unprocessed.smi:1240-13

> <Gold.Version>
5.8.1

> <Gold.Id.Protein>
6NUR|6NUR_protein|mol2

> <Gold.PLP.Fitness>
43.4054

> <Gold.PLP.PLP>
-34.1950

> <Gold.PLP.part.hbond>
-3.4731

> <Gold.PLP.part.metal>
0.0000

> <Gold.PLP.part.buried>
-4.5978

> <Gold.PLP.part.nonpolar>
-25.8734

> <Gold.PLP.part.repulsive>
0.2293

> <Gold.PLP.ligand.clash>
0.0000

> <Gold.PLP.ligand.torsion>
1.5480

> <Gold.PLP.Chemscore.Hbond>
4.0126

> <Gold.PLP.Chemscore.CHOScore>
0.0000

> <Gold.PLP.Chemscore.Metal>
0.0000

> <Gold.Chemscore.Hbonds>
donor molecule, donor type, donor heavy atom, donor atom, acceptor molecule, acceptor atom, score
      L1  H     3    24       P1 10747  0.05
      L1  H    17    43       P1 10747  0.93
      L1  H    21    49       P1 10186  1.76
      P1  H  6896  6908       L1     9  0.95

> <Gold.PLP.Chemscore.Internal.Correction>
0.2684

> <Gold.Rescore>
     Score         DG    S(hbond)    S(metal)    S(lipo)     H(rot)  DE(clash)    DE(int)     intcor
     16.43     -19.23       2.54        0.00      83.04       1.74       0.41       2.39       ----

> <Gold.Chemscore.Fitness>
16.4286

> <Gold.Chemscore.DG>
-19.2297

> <Gold.Chemscore.ZeroCoef>
-5.4800

> <Gold.Chemscore.Hbond>
2.5432

> <Gold.Chemscore.Metal>
0.0000

> <Gold.Chemscore.Lipo>
83.0361

> <Gold.Chemscore.Internal_Hbond>
0.0000

> <Gold.Chemscore.DEClash>
0.4074

> <Gold.Chemscore.DEInternal>
2.3936

> <Gold.Chemscore.Rot>
1.7421

> <Gold.Chemscore.Internal.Correction>
   9.000000E+99

> <Gold.Chemscore.Hbonds>
donor molecule, donor type, donor heavy atom, donor atom, acceptor molecule, acceptor atom, score
      L1  H     3    24       P1 10747  0.03
      L1  H    17    43       P1 10747  0.89
      L1  H    21    49       P1 10186  0.86
      P1  H  6896  6908       L1     9  0.05

> <Gold.Chemscore.Hbond.Weighted>
-8.4942

> <Gold.Chemscore.Metal.Weighted>
-0.0000

> <Gold.Chemscore.Lipo.Weighted>
-9.7152

> <Gold.Chemscore.Internal_Hbond.Weighted>
0.0000

> <Gold.Chemscore.DEClash.Weighted>
0.4074

> <Gold.Chemscore.DEInternal.Weighted>
2.3936

> <Gold.Chemscore.Rot.Weighted>
4.4597

> <Gold.Chemscore.Internal.Correction.Weighted>
   9.000000E+99

> <Gold.Protein.RotatedTorsions>
[ 6907 6896 6895 6894 ] final  155.18 input  -60.11 | X-H torsion
[ 7974 7965 7964 7962 ] final  -90.83 input  175.53 | X-H torsion
[ 8008 7997 7996 7995 ] final  147.50 input   59.86 | X-H torsion
[ 10167 10162 10161 10158 ] final  -69.44 input  -65.29 | X-H torsion
[ 10718 10713 10712 10709 ] final -132.93 input   66.30 | X-H torsion
[ 10763 10752 10751 10750 ] final  119.06 input  -60.55 | X-H torsion
[ 11005 11000 10999 10996 ] final -155.16 input  -57.11 | X-H torsion

> <Gold.Protein.ActiveResidues>
 VAL166  LYS551  ARG553  GLY616  TRP617  ASP618  TYR619  PRO620  LYS621  CYS622 
 ASP623  PHE694  ASN695  SER759  ASP760  ASP761  ALA762  ILE779  LEU786  VAL792 
 PHE793  MET794  SER795  GLU796  ALA797  LYS798  CYS799  TRP800  GLU811  SER814 

> <Gold.Protein.RotatedAtoms>
  152.0479  133.4006  159.4364 H   0  0  0  0  0  0  0  0  0  0  0  0  # atno 6907 bound_to 6896
  150.6872  134.3341  159.4849 H   0  0  0  0  0  0  0  0  0  0  0  0  # atno 6908 bound_to 6896
  152.1147  134.9248  160.0616 H   0  0  0  0  0  0  0  0  0  0  0  0  # atno 6909 bound_to 6896
  145.4213  140.9551  143.2179 H   0  0  0  0  0  0  0  0  0  0  0  0  # atno 7974 bound_to 7965
  156.2822  140.2154  156.5547 H   0  0  0  0  0  0  0  0  0  0  0  0  # atno 8008 bound_to 7997
  154.7262  140.0499  157.0707 H   0  0  0  0  0  0  0  0  0  0  0  0  # atno 8009 bound_to 7997
  155.0414  140.3146  155.4726 H   0  0  0  0  0  0  0  0  0  0  0  0  # atno 8010 bound_to 7997
  140.5430  143.2314  151.7054 H   0  0  0  0  0  0  0  0  0  0  0  0  # atno 10167 bound_to 10162
  156.2397  130.7088  151.0944 H   0  0  0  0  0  0  0  0  0  0  0  0  # atno 10718 bound_to 10713
  153.5772  135.3491  155.2861 H   0  0  0  0  0  0  0  0  0  0  0  0  # atno 10763 bound_to 10752
  154.8673  135.4173  154.2660 H   0  0  0  0  0  0  0  0  0  0  0  0  # atno 10764 bound_to 10752
  153.3439  135.7051  153.6914 H   0  0  0  0  0  0  0  0  0  0  0  0  # atno 10765 bound_to 10752
  140.6895  134.4056  157.5220 H   0  0  0  0  0  0  0  0  0  0  0  0  # atno 11005 bound_to 11000
  144.8243  139.5736  143.6972 LP  0  0  0  0  0  0  0  0  0  0  0  0  # atno 17320 bound_to 7965
  146.2655  139.6510  142.9332 LP  0  0  0  0  0  0  0  0  0  0  0  0  # atno 17321 bound_to 7965
  139.4996  144.3939  152.0251 LP  0  0  0  0  0  0  0  0  0  0  0  0  # atno 17342 bound_to 10162
  140.3049  144.3604  150.6049 LP  0  0  0  0  0  0  0  0  0  0  0  0  # atno 17343 bound_to 10162
  157.7170  131.0704  150.6289 LP  0  0  0  0  0  0  0  0  0  0  0  0  # atno 17370 bound_to 10713
  156.6361  130.4445  149.5769 LP  0  0  0  0  0  0  0  0  0  0  0  0  # atno 17371 bound_to 10713
  139.8927  134.8747  156.2256 LP  0  0  0  0  0  0  0  0  0  0  0  0  # atno 17394 bound_to 11000
  141.0252  133.7019  156.1336 LP  0  0  0  0  0  0  0  0  0  0  0  0  # atno 17395 bound_to 11000

$$$$
