#       Name:                AV-unprocessed.smi:3292
#       Creating user name   scv26
#       Creation time:       Fri Mar 27 18:56:26 2020


#       File generated by GOLD software.
#

@<TRIPOS>MOLECULE
AV-unprocessed.smi:3292
    43    44     1
SMALL
NO_CHARGES


@<TRIPOS>ATOM
      1 ****        -2.4103  -1.6634  -2.2689 C.3            1 S1                 0.0000
      2 ****        -1.8343  -0.7058  -1.2129 C.3            1 S1                 0.0000
      3 ****        -2.1774  -1.1190   0.2349 C.3            1 S1                 0.0000
      4 ****        -3.6060  -1.2053   0.4699 N.pl3          1 S1                 0.0000
      5 ****        -4.4934  -0.1476   0.6177 C.2            1 S1                 0.0000
      6 ****        -5.7357  -0.7030   0.8260 C.2            1 S1                 0.0000
      7 ****        -5.6358  -2.0924   0.8143 N.2            1 S1                 0.0000
      8 ****        -4.3453  -2.3154   0.6013 C.2            1 S1                 0.0000
      9 ****        -0.3859  -0.6221  -1.3787 N.am           1 S1                 0.0000
     10 ****         0.3706   0.4295  -1.0333 C.2            1 S1                 0.0000
     11 ****        -0.0745   1.4676  -0.5435 O.2            1 S1                 0.0000
     12 ****         1.6705   0.2083  -1.2747 N.am           1 S1                 0.0000
     13 ****         2.7536   1.1453  -0.9919 C.3            1 S1                 0.0000
     14 ****         3.3942   0.8859   0.3849 C.3            1 S1                 0.0000
     15 ****         4.5662   1.7943   0.6950 C.3            1 S1                 0.0000
     16 ****         4.6905   1.6458   2.2085 C.3            1 S1                 0.0000
     17 ****         3.3716   1.3958   2.6857 O.3            1 S1                 0.0000
     18 ****         2.4924   1.1624   1.5900 C.3            1 S1                 0.0000
     19 ****        -3.5000  -1.6832  -2.2389 H              1 S1                 0.0000
     20 ****        -2.0539  -2.6826  -2.1166 H              1 S1                 0.0000
     21 ****        -2.1218  -1.3563  -3.2748 H              1 S1                 0.0000
     22 ****        -2.2622   0.2804  -1.4031 H              1 S1                 0.0000
     23 ****        -1.7272  -2.0845   0.4710 H              1 S1                 0.0000
     24 ****        -1.7645  -0.4014   0.9451 H              1 S1                 0.0000
     25 ****        -4.1760   0.8835   0.5624 H              1 S1                 0.0000
     26 ****        -6.6853  -0.2136   0.9839 H              1 S1                 0.0000
     27 ****        -3.9291  -3.3099   0.5351 H              1 S1                 0.0000
     28 ****         0.0733  -1.4291  -1.7751 H              1 S1                 0.0000
     29 ****         1.9335  -0.6786  -1.6788 H              1 S1                 0.0000
     30 ****         3.5069   1.0222  -1.7704 H              1 S1                 0.0000
     31 ****         2.4044   2.1766  -1.0679 H              1 S1                 0.0000
     32 ****         3.7390  -0.1484   0.4351 H              1 S1                 0.0000
     33 ****         5.4779   1.5160   0.1656 H              1 S1                 0.0000
     34 ****         4.3251   2.8277   0.4405 H              1 S1                 0.0000
     35 ****         5.3158   0.7872   2.4561 H              1 S1                 0.0000
     36 ****         5.1248   2.5283   2.6787 H              1 S1                 0.0000
     37 ****         1.8990   2.0637   1.4303 H              1 S1                 0.0000
     38 ****         1.8078   0.3400   1.7993 H              1 S1                 0.0000
     39 ****        -6.3659  -2.7645   0.9375 LP             1 S1                 0.0000
     40 ****        -1.0566   1.5629  -0.3811 LP             1 S1                 0.0000
     41 ****         0.5461   2.2156  -0.3082 LP             1 S1                 0.0000
     42 ****         3.0513   2.1887   3.2040 LP             1 S1                 0.0000
     43 ****         3.3814   0.5913   3.2794 LP             1 S1                 0.0000
@<TRIPOS>BOND
    1    1    2 1     
    2    1   19 1     
    3    1   20 1     
    4    1   21 1     
    5    2    3 1     
    6    2    9 1     
    7    2   22 1     
    8    3    4 1     
    9    3   23 1     
   10    3   24 1     
   11    4    8 1     
   12    4    5 1     
   13    5    6 2     
   14    5   25 1     
   15    6    7 1     
   16    6   26 1     
   17    7    8 2     
   18    8   27 1     
   19    9   10 am    
   20    9   28 1     
   21   10   11 2     
   22   10   12 am    
   23   12   13 1     
   24   12   29 1     
   25   13   14 1     
   26   13   30 1     
   27   13   31 1     
   28   14   18 1     
   29   14   15 1     
   30   14   32 1     
   31   15   16 1     
   32   15   33 1     
   33   15   34 1     
   34   16   17 1     
   35   16   35 1     
   36   16   36 1     
   37   17   18 1     
   38   18   37 1     
   39   18   38 1     
   40    7   39 1     
   41   11   40 1     
   42   11   41 1     
   43   17   42 1     
   44   17   43 1     
@<TRIPOS>SUBSTRUCTURE
      1 S1             1
@<TRIPOS>SET
LONE_PAIRS      STATIC     ATOMS    <user>   **** ""
5 39 40 41 42 43
DONOR_HYDROGENS      STATIC     ATOMS    <user>   **** ""
2 28 29
ATOM$BLUE        STATIC     ATOMS    COLORGROUP SYSTEM
5 39 40 41 42 43
ATOM$RED        STATIC     ATOMS    COLORGROUP SYSTEM
2 28 29
