AV-unprocessed.smi:1900|AV-procd|sdf|7714|dock3
  -GOLD-   22720 9453D 1   1.00000     0.00000
 Structure written by MMmdl.
 43 44  0  0  0  0  0  0  0  0  1 V2000
  152.4965  137.8868  156.6942 C   0  0  0  0  0  0  0  0  0  0  0  0
  152.0530  139.1846  156.0107 C   0  0  1  0  0  0  0  0  0  0  0  0
  150.8317  138.9729  155.0964 C   0  0  0  0  0  0  0  0  0  0  0  0
  150.3654  140.2216  154.5041 N   0  0  0  0  0  0  0  0  0  0  0  0
  149.2093  139.9868  153.6401 C   0  0  0  0  0  0  0  0  0  0  0  0
  147.9735  139.4016  154.3449 C   0  0  0  0  0  0  0  0  0  0  0  0
  146.7874  139.2355  153.3818 C   0  0  0  0  0  0  0  0  0  0  0  0
  146.8036  137.9314  152.7286 N   0  0  0  0  0  0  0  0  0  0  0  0
  145.7142  137.2171  152.4116 C   0  0  0  0  0  0  0  0  0  0  0  0
  144.5648  137.5865  152.6515 O   0  0  0  0  0  0  0  0  0  0  0  0
  146.0449  136.0644  151.8070 N   0  0  0  0  0  0  0  0  0  0  0  0
  145.1621  135.0748  151.3065 C   0  0  0  0  0  0  0  0  0  0  0  0
  145.3475  133.6641  151.2126 C   0  0  0  0  0  0  0  0  0  0  0  0
  144.2828  133.0746  150.6871 N   0  0  0  0  0  0  0  0  0  0  0  0
  143.4233  134.0902  150.4465 N   0  0  0  0  0  0  0  0  0  0  0  0
  143.9184  135.3237  150.8080 C   0  0  0  0  0  0  0  0  0  0  0  0
  150.0819  141.1748  155.5747 C   0  0  0  0  0  0  0  0  0  0  0  0
  151.2980  141.3884  156.4972 C   0  0  1  0  0  0  0  0  0  0  0  0
  150.9771  142.3164  157.6736 C   0  0  0  0  0  0  0  0  0  0  0  0
  151.7158  140.1308  157.0212 O   0  0  0  0  0  0  0  0  0  0  0  0
  142.5130  133.9268  150.0402 H   0  0  0  0  0  0  0  0  0  0  0  0
  152.7773  137.1327  155.9585 H   0  0  0  0  0  0  0  0  0  0  0  0
  151.6981  137.4731  157.3113 H   0  0  0  0  0  0  0  0  0  0  0  0
  153.3591  138.0605  157.3378 H   0  0  0  0  0  0  0  0  0  0  0  0
  152.8866  139.5747  155.4239 H   0  0  0  0  0  0  0  0  0  0  0  0
  151.0927  138.2664  154.3073 H   0  0  0  0  0  0  0  0  0  0  0  0
  150.0247  138.5138  155.6699 H   0  0  0  0  0  0  0  0  0  0  0  0
  148.9115  140.9362  153.1924 H   0  0  0  0  0  0  0  0  0  0  0  0
  149.4959  139.3417  152.8081 H   0  0  0  0  0  0  0  0  0  0  0  0
  148.2093  138.4317  154.7824 H   0  0  0  0  0  0  0  0  0  0  0  0
  147.6874  140.0552  155.1701 H   0  0  0  0  0  0  0  0  0  0  0  0
  145.8427  139.3807  153.9084 H   0  0  0  0  0  0  0  0  0  0  0  0
  146.8300  140.0014  152.6069 H   0  0  0  0  0  0  0  0  0  0  0  0
  147.7086  137.5499  152.4956 H   0  0  0  0  0  0  0  0  0  0  0  0
  147.0294  135.8822  151.6797 H   0  0  0  0  0  0  0  0  0  0  0  0
  146.1916  133.0545  151.4985 H   0  0  0  0  0  0  0  0  0  0  0  0
  143.3585  136.2389  150.6829 H   0  0  0  0  0  0  0  0  0  0  0  0
  149.7919  142.1376  155.1554 H   0  0  0  0  0  0  0  0  0  0  0  0
  149.2350  140.8226  156.1661 H   0  0  0  0  0  0  0  0  0  0  0  0
  152.1191  141.8218  155.9233 H   0  0  0  0  0  0  0  0  0  0  0  0
  150.6606  143.2991  157.3233 H   0  0  0  0  0  0  0  0  0  0  0  0
  151.8519  142.4563  158.3089 H   0  0  0  0  0  0  0  0  0  0  0  0
  150.1780  141.9075  158.2926 H   0  0  0  0  0  0  0  0  0  0  0  0
  1  2  1  0  0  0  0
  1 22  1  0  0  0  0
  1 23  1  0  0  0  0
  1 24  1  0  0  0  0
  2 20  1  0  0  0  0
  2  3  1  0  0  0  0
  2 25  1  0  0  0  0
  3  4  1  0  0  0  0
  3 26  1  0  0  0  0
  3 27  1  0  0  0  0
  4  5  1  0  0  0  0
  4 17  1  0  0  0  0
  5  6  1  0  0  0  0
  5 28  1  0  0  0  0
  5 29  1  0  0  0  0
  6  7  1  0  0  0  0
  6 30  1  0  0  0  0
  6 31  1  0  0  0  0
  7  8  1  0  0  0  0
  7 32  1  0  0  0  0
  7 33  1  0  0  0  0
  8  9  1  0  0  0  0
  8 34  1  0  0  0  0
  9 10  2  0  0  0  0
  9 11  1  0  0  0  0
 11 12  1  0  0  0  0
 11 35  1  0  0  0  0
 12 16  2  0  0  0  0
 12 13  1  0  0  0  0
 13 14  2  0  0  0  0
 13 36  1  0  0  0  0
 14 15  1  0  0  0  0
 15 21  1  0  0  0  0
 15 16  1  0  0  0  0
 16 37  1  0  0  0  0
 17 18  1  0  0  0  0
 17 38  1  0  0  0  0
 17 39  1  0  0  0  0
 18 19  1  0  0  0  0
 18 20  1  0  0  0  0
 18 40  1  0  0  0  0
 19 41  1  0  0  0  0
 19 42  1  0  0  0  0
 19 43  1  0  0  0  0
M  END
> <s_m_source_file>
AV-unprocessed.smi

> <i_m_source_file_index>
1900

> <i_lp_mmshare_version>
43012

> <i_f3d_flags>
0

> <s_epik_input>
W0NIM11bQ0BASF0xW0NIMl1OKFtDSDJdW0NASF0oTzEpW0NIM10pW0NIMl1bQ0gyXVtDSDJdW05IXUMoPU8pW05IXWMyW2NIXW5bbkhdW2NIXTI=

> <s_epik_cmdline>
J2VwaWtfcHl0aG9uJywgJy1waCcsICc3LjAnLCAnLXRuJywgJzgnLCAnLW1hJywgJzIwMCcsICctbWV0YWxfYmluZGluZycsICctaW1hZScsICc8aW5maWxlLm1hZT4nLCAnLW9tYWUnLCAnPG91dGZpbGUubWFlPic=

> <r_lp_tautomer_probability>
0.5

> <r_epik_Ionization_Penalty>
0.594715

> <r_epik_Ionization_Penalty_Charging>
0

> <r_epik_Ionization_Penalty_Neutral>
0.594715

> <r_epik_State_Penalty>
0.608529

> <r_epik_Charging_Adjusted_Penalty>
0.608529

> <i_epik_Tot_Q>
0

> <i_epik_Tot_abs_Q>
0

> <r_epik_Metal_State_Penalty>
0.608528

> <b_epik_Metal_Only>
0

> <s_lp_Force_Field>
OPLS_2005

> <r_lp_Energy>
22.5064

> <b_lp_Chiralities_Consistent>
1

> <s_lp_Variant>
AV-unprocessed.smi:1900-6

> <Gold.Version>
5.8.1

> <Gold.Id.Protein>
6NUR|6NUR_protein|mol2

> <Gold.PLP.Fitness>
46.0034

> <Gold.PLP.PLP>
-32.2097

> <Gold.PLP.part.hbond>
-4.0000

> <Gold.PLP.part.metal>
0.0000

> <Gold.PLP.part.buried>
-2.7342

> <Gold.PLP.part.nonpolar>
-26.9952

> <Gold.PLP.part.repulsive>
0.8040

> <Gold.PLP.ligand.clash>
0.0000

> <Gold.PLP.ligand.torsion>
0.5518

> <Gold.PLP.Chemscore.Hbond>
3.9520

> <Gold.PLP.Chemscore.CHOScore>
1.0000

> <Gold.PLP.Chemscore.Metal>
0.0000

> <Gold.Chemscore.Hbonds>
donor molecule, donor type, donor heavy atom, donor atom, acceptor molecule, acceptor atom, score
      L1  H     8    34       P1  7948  1.00
      L1  H    11    35       P1  7948  1.00
      L1  H    15    21       P1 10186  1.00
      P1  H  7989  7998       L1     4  1.00
      L1  C    16    37       P1 10171  1.00

> <Gold.PLP.Chemscore.Internal.Correction>
0.0413

> <Gold.Rescore>
     Score         DG    S(hbond)    S(metal)    S(lipo)     H(rot)  DE(clash)    DE(int)     intcor
     16.92     -20.20       3.05        0.00      79.97       1.88       1.76       1.52       ----

> <Gold.Chemscore.Fitness>
16.9243

> <Gold.Chemscore.DG>
-20.2044

> <Gold.Chemscore.ZeroCoef>
-5.4800

> <Gold.Chemscore.Hbond>
3.0481

> <Gold.Chemscore.Metal>
0.0000

> <Gold.Chemscore.Lipo>
79.9690

> <Gold.Chemscore.Internal_Hbond>
0.0000

> <Gold.Chemscore.DEClash>
1.7617

> <Gold.Chemscore.DEInternal>
1.5184

> <Gold.Chemscore.Rot>
1.8799

> <Gold.Chemscore.Internal.Correction>
   9.000000E+99

> <Gold.Chemscore.Hbonds>
donor molecule, donor type, donor heavy atom, donor atom, acceptor molecule, acceptor atom, score
      L1  H     8    34       P1  7948  0.99
      L1  H    11    35       P1  7948  0.98
      L1  H    15    21       P1 10186  0.96
      P1  H  7989  7998       L1     4  0.27

> <Gold.Chemscore.Hbond.Weighted>
-10.1806

> <Gold.Chemscore.Metal.Weighted>
-0.0000

> <Gold.Chemscore.Lipo.Weighted>
-9.3564

> <Gold.Chemscore.Internal_Hbond.Weighted>
0.0000

> <Gold.Chemscore.DEClash.Weighted>
1.7617

> <Gold.Chemscore.DEInternal.Weighted>
1.5184

> <Gold.Chemscore.Rot.Weighted>
4.8126

> <Gold.Chemscore.Internal.Correction.Weighted>
   9.000000E+99

> <Gold.Protein.RotatedTorsions>
[ 6907 6896 6895 6894 ] final   68.02 input  -60.11 | X-H torsion
[ 7974 7965 7964 7962 ] final   -9.97 input  175.53 | X-H torsion
[ 8008 7997 7996 7995 ] final   29.20 input   59.86 | X-H torsion
[ 10167 10162 10161 10158 ] final   -1.53 input  -65.29 | X-H torsion
[ 10718 10713 10712 10709 ] final  152.30 input   66.30 | X-H torsion
[ 10763 10752 10751 10750 ] final  -21.48 input  -60.55 | X-H torsion
[ 11005 11000 10999 10996 ] final  -54.79 input  -57.11 | X-H torsion

> <Gold.Protein.ActiveResidues>
 VAL166  LYS551  ARG553  GLY616  TRP617  ASP618  TYR619  PRO620  LYS621  CYS622 
 ASP623  PHE694  ASN695  SER759  ASP760  ASP761  ALA762  ILE779  LEU786  VAL792 
 PHE793  MET794  SER795  GLU796  ALA797  LYS798  CYS799  TRP800  GLU811  SER814 

> <Gold.Protein.RotatedAtoms>
  152.4592  134.5222  159.9785 H   0  0  0  0  0  0  0  0  0  0  0  0  # atno 6907 bound_to 6896
  151.5275  133.3449  159.2920 H   0  0  0  0  0  0  0  0  0  0  0  0  # atno 6908 bound_to 6896
  150.8548  134.7914  159.7100 H   0  0  0  0  0  0  0  0  0  0  0  0  # atno 6909 bound_to 6896
  146.2235  140.2695  142.8356 H   0  0  0  0  0  0  0  0  0  0  0  0  # atno 7974 bound_to 7965
  155.0708  140.3200  155.4631 H   0  0  0  0  0  0  0  0  0  0  0  0  # atno 8008 bound_to 7997
  156.2791  140.2112  156.5781 H   0  0  0  0  0  0  0  0  0  0  0  0  # atno 8009 bound_to 7997
  154.7056  140.0503  157.0488 H   0  0  0  0  0  0  0  0  0  0  0  0  # atno 8010 bound_to 7997
  140.6814  143.6764  150.8142 H   0  0  0  0  0  0  0  0  0  0  0  0  # atno 10167 bound_to 10162
  157.2596  131.0795  151.1675 H   0  0  0  0  0  0  0  0  0  0  0  0  # atno 10718 bound_to 10713
  153.6368  135.6987  153.5256 H   0  0  0  0  0  0  0  0  0  0  0  0  # atno 10763 bound_to 10752
  153.2815  135.4184  155.1082 H   0  0  0  0  0  0  0  0  0  0  0  0  # atno 10764 bound_to 10752
  154.8509  135.3603  154.5911 H   0  0  0  0  0  0  0  0  0  0  0  0  # atno 10765 bound_to 10752
  141.1043  133.6615  156.4373 H   0  0  0  0  0  0  0  0  0  0  0  0  # atno 11005 bound_to 11000
  144.9279  140.7942  143.5708 LP  0  0  0  0  0  0  0  0  0  0  0  0  # atno 17320 bound_to 7965
  145.2636  139.1982  143.4879 LP  0  0  0  0  0  0  0  0  0  0  0  0  # atno 17321 bound_to 7965
  140.0465  143.5293  152.2694 LP  0  0  0  0  0  0  0  0  0  0  0  0  # atno 17342 bound_to 10162
  139.6139  144.7615  151.2890 LP  0  0  0  0  0  0  0  0  0  0  0  0  # atno 17343 bound_to 10162
  157.3190  130.6927  149.6258 LP  0  0  0  0  0  0  0  0  0  0  0  0  # atno 17370 bound_to 10713
  155.9664  130.4341  150.5034 LP  0  0  0  0  0  0  0  0  0  0  0  0  # atno 17371 bound_to 10713
  140.4943  134.6546  157.5223 LP  0  0  0  0  0  0  0  0  0  0  0  0  # atno 17394 bound_to 11000
  139.9906  134.6991  155.9696 LP  0  0  0  0  0  0  0  0  0  0  0  0  # atno 17395 bound_to 11000

$$$$
