#       Name:                AV-unprocessed.smi:2202
#       Creating user name   scv26
#       Creation time:       Fri Mar 27 12:14:30 2020


#       File generated by GOLD software.
#

@<TRIPOS>MOLECULE
AV-unprocessed.smi:2202
    49    51     1
SMALL
NO_CHARGES


@<TRIPOS>ATOM
      1 ****         0.7028   0.3342  -0.4219 O.2            1 S1                 0.0000
      2 ****         0.1213  -0.7183  -0.1535 C.2            1 S1                 0.0000
      3 ****        -1.4123  -0.7863  -0.1047 C.3            1 S1                 0.0000
      4 ****        -2.0658   0.4564  -0.5411 N.am           1 S1                 0.0000
      5 ****        -2.3754   1.4692   0.2787 C.2            1 S1                 0.0000
      6 ****        -2.1794   1.4983   1.4942 O.2            1 S1                 0.0000
      7 ****        -3.0068   2.6355  -0.4851 C.3            1 S1                 0.0000
      8 ****        -4.3886   3.0235   0.1040 C.3            1 S1                 0.0000
      9 ****        -5.5100   2.1418  -0.4053 C.2            1 S1                 0.0000
     10 ****        -5.5190   1.6917  -1.6669 C.2            1 S1                 0.0000
     11 ****        -4.4083   2.0466  -2.6337 C.3            1 S1                 0.0000
     12 ****        -3.0171   2.1141  -1.9498 C.3            1 S1                 0.0000
     13 ****        -2.3887   0.7255  -1.8126 C.2            1 S1                 0.0000
     14 ****        -2.2061  -0.0200  -2.7756 O.2            1 S1                 0.0000
     15 ****         0.7673  -1.8620   0.1185 N.am           1 S1                 0.0000
     16 ****         2.2176  -2.0150   0.1353 C.3            1 S1                 0.0000
     17 ****         2.8234  -1.5147   1.4575 C.3            1 S1                 0.0000
     18 ****         4.3339  -1.6484   1.4834 C.ar           1 S1                 0.0000
     19 ****         4.9513  -2.7415   2.1284 C.ar           1 S1                 0.0000
     20 ****         6.3576  -2.8200   2.1161 C.ar           1 S1                 0.0000
     21 ****         7.0879  -1.8090   1.4620 C.ar           1 S1                 0.0000
     22 ****         6.3764  -0.7599   0.8462 C.ar           1 S1                 0.0000
     23 ****         5.0287  -0.6757   0.8514 N.ar           1 S1                 0.0000
     24 ****        -1.7480  -1.6210  -0.7228 H              1 S1                 0.0000
     25 ****        -1.7173  -1.0334   0.9135 H              1 S1                 0.0000
     26 ****        -2.3292   3.4859  -0.3968 H              1 S1                 0.0000
     27 ****        -4.3751   2.9824   1.1940 H              1 S1                 0.0000
     28 ****        -4.6280   4.0552  -0.1554 H              1 S1                 0.0000
     29 ****        -6.3312   1.9298   0.2637 H              1 S1                 0.0000
     30 ****        -6.3478   1.1081  -2.0402 H              1 S1                 0.0000
     31 ****        -4.4084   1.3239  -3.4507 H              1 S1                 0.0000
     32 ****        -4.6496   3.0100  -3.0839 H              1 S1                 0.0000
     33 ****        -2.3453   2.7145  -2.5647 H              1 S1                 0.0000
     34 ****         0.2172  -2.6825   0.3286 H              1 S1                 0.0000
     35 ****         2.4512  -3.0710  -0.0037 H              1 S1                 0.0000
     36 ****         2.6568  -1.4861  -0.7126 H              1 S1                 0.0000
     37 ****         2.5641  -0.4675   1.6210 H              1 S1                 0.0000
     38 ****         2.3985  -2.0688   2.2956 H              1 S1                 0.0000
     39 ****         4.3634  -3.5025   2.6203 H              1 S1                 0.0000
     40 ****         6.8669  -3.6407   2.5994 H              1 S1                 0.0000
     41 ****         8.1671  -1.8363   1.4326 H              1 S1                 0.0000
     42 ****         6.9033   0.0324   0.3354 H              1 S1                 0.0000
     43 ****         0.1755   1.1623  -0.6123 LP             1 S1                 0.0000
     44 ****         1.7021   0.3605  -0.4493 LP             1 S1                 0.0000
     45 ****        -1.7534   0.7173   1.9508 LP             1 S1                 0.0000
     46 ****        -2.4462   2.3030   2.0246 LP             1 S1                 0.0000
     47 ****        -1.7818  -0.9155  -2.6412 LP             1 S1                 0.0000
     48 ****        -2.4821   0.2702  -3.6919 LP             1 S1                 0.0000
     49 ****         4.5585   0.0835   0.4013 LP             1 S1                 0.0000
@<TRIPOS>BOND
    1    1    2 2     
    2    2    3 1     
    3    2   15 am    
    4    3    4 1     
    5    3   24 1     
    6    3   25 1     
    7    4   13 am    
    8    4    5 am    
    9    5    6 2     
   10    5    7 1     
   11    7   12 1     
   12    7    8 1     
   13    7   26 1     
   14    8    9 1     
   15    8   27 1     
   16    8   28 1     
   17    9   10 2     
   18    9   29 1     
   19   10   11 1     
   20   10   30 1     
   21   11   12 1     
   22   11   31 1     
   23   11   32 1     
   24   12   13 1     
   25   12   33 1     
   26   13   14 2     
   27   15   16 1     
   28   15   34 1     
   29   16   17 1     
   30   16   35 1     
   31   16   36 1     
   32   17   18 1     
   33   17   37 1     
   34   17   38 1     
   35   18   23 ar    
   36   18   19 ar    
   37   19   20 ar    
   38   19   39 1     
   39   20   21 ar    
   40   20   40 1     
   41   21   22 ar    
   42   21   41 1     
   43   22   23 ar    
   44   22   42 1     
   45    1   43 1     
   46    1   44 1     
   47    6   45 1     
   48    6   46 1     
   49   14   47 1     
   50   14   48 1     
   51   23   49 1     
@<TRIPOS>SUBSTRUCTURE
      1 S1             1
@<TRIPOS>SET
LONE_PAIRS      STATIC     ATOMS    <user>   **** ""
7 43 44 45 46 47 48 49
DONOR_HYDROGENS      STATIC     ATOMS    <user>   **** ""
1 34
ATOM$BLUE        STATIC     ATOMS    COLORGROUP SYSTEM
7 43 44 45 46 47 48 49
ATOM$RED        STATIC     ATOMS    COLORGROUP SYSTEM
1 34
