#       Name:                AV-unprocessed.smi:601
#       Creating user name   scv26
#       Creation time:       Thu Mar 26 23:55:04 2020


#       File generated by GOLD software.
#

@<TRIPOS>MOLECULE
AV-unprocessed.smi:601
    58    59     1
SMALL
NO_CHARGES


@<TRIPOS>ATOM
      1 ****        -2.1666  -4.3730  -0.3275 C.3            1 S1                 0.0000
      2 ****        -3.0599  -3.1747  -0.6755 C.3            1 S1                 0.0000
      3 ****        -2.3199  -1.8276  -0.6627 C.3            1 S1                 0.0000
      4 ****        -1.9051  -1.3653   0.7474 C.3            1 S1                 0.0000
      5 ****        -1.2374  -0.0546   0.7256 N.am           1 S1                 0.0000
      6 ****        -1.9589   1.0983   0.6964 C.2            1 S1                 0.0000
      7 ****        -3.1902   1.0902   0.6375 O.2            1 S1                 0.0000
      8 ****        -1.2208   2.4555   0.7170 C.3            1 S1                 0.0000
      9 ****        -2.0979   3.7076   0.5519 C.3            1 S1                 0.0000
     10 ****        -1.3882   4.7672   1.3867 C.3            1 S1                 0.0000
     11 ****        -0.2318   4.0167   2.0478 C.3            1 S1                 0.0000
     12 ****        -0.6320   2.6588   1.9924 O.3            1 S1                 0.0000
     13 ****         0.1689  -0.0615   0.7923 C.2            1 S1                 0.0000
     14 ****         0.9533   0.0742  -0.3102 C.2            1 S1                 0.0000
     15 ****         0.3920   0.2167  -1.5714 N.pl3          1 S1                 0.0000
     16 ****         2.3684   0.0699  -0.1805 N.am           1 S1                 0.0000
     17 ****         3.1971   0.2360  -1.3968 C.3            1 S1                 0.0000
     18 ****         3.3598  -1.0719  -2.2001 C.3            1 S1                 0.0000
     19 ****         4.0974  -2.1886  -1.4494 C.3            1 S1                 0.0000
     20 ****         2.9563  -0.0789   1.0475 C.2            1 S1                 0.0000
     21 ****         4.1850  -0.0883   1.1332 O.2            1 S1                 0.0000
     22 ****         2.1650  -0.2186   2.1492 N.pl3          1 S1                -1.0000
     23 ****         0.8070  -0.2207   2.1035 C.2            1 S1                 0.0000
     24 ****         0.1170  -0.3508   3.1150 O.2            1 S1                 0.0000
     25 ****        -2.7223  -5.3067  -0.4150 H              1 S1                 0.0000
     26 ****        -1.7905  -4.3112   0.6935 H              1 S1                 0.0000
     27 ****        -1.3095  -4.4332  -0.9991 H              1 S1                 0.0000
     28 ****        -3.4770  -3.3338  -1.6704 H              1 S1                 0.0000
     29 ****        -3.9104  -3.1371   0.0060 H              1 S1                 0.0000
     30 ****        -1.4426  -1.8923  -1.3065 H              1 S1                 0.0000
     31 ****        -2.9691  -1.0747  -1.1109 H              1 S1                 0.0000
     32 ****        -2.7745  -1.3340   1.4064 H              1 S1                 0.0000
     33 ****        -1.2367  -2.1041   1.1908 H              1 S1                 0.0000
     34 ****        -0.4405   2.4734  -0.0451 H              1 S1                 0.0000
     35 ****        -2.1829   4.0019  -0.4945 H              1 S1                 0.0000
     36 ****        -3.1074   3.5677   0.9400 H              1 S1                 0.0000
     37 ****        -1.0279   5.5997   0.7817 H              1 S1                 0.0000
     38 ****        -2.0674   5.1687   2.1397 H              1 S1                 0.0000
     39 ****         0.6911   4.1437   1.4793 H              1 S1                 0.0000
     40 ****        -0.0504   4.3394   3.0731 H              1 S1                 0.0000
     41 ****        -0.6084   0.2240  -1.7088 H              1 S1                 0.0000
     42 ****         0.9577   0.1705  -2.4068 H              1 S1                 0.0000
     43 ****         2.7614   1.0038  -2.0365 H              1 S1                 0.0000
     44 ****         4.1850   0.6371  -1.1663 H              1 S1                 0.0000
     45 ****         2.3850  -1.4408  -2.5188 H              1 S1                 0.0000
     46 ****         3.9074  -0.8488  -3.1160 H              1 S1                 0.0000
     47 ****         4.2396  -3.0579  -2.0913 H              1 S1                 0.0000
     48 ****         3.5387  -2.5169  -0.5728 H              1 S1                 0.0000
     49 ****         5.0808  -1.8557  -1.1167 H              1 S1                 0.0000
     50 ****        -3.6837   0.2209   0.6099 LP             1 S1                 0.0000
     51 ****        -3.6955   1.9529   0.6173 LP             1 S1                 0.0000
     52 ****         0.1620   2.0612   2.1041 LP             1 S1                 0.0000
     53 ****        -1.2978   2.4666   2.7134 LP             1 S1                 0.0000
     54 ****         4.7444   0.0122   0.3104 LP             1 S1                 0.0000
     55 ****         4.6232  -0.1964   2.0256 LP             1 S1                 0.0000
     56 ****         2.6083  -0.3253   3.0392 LP             1 S1                 0.0000
     57 ****        -0.8804  -0.3481   3.0436 LP             1 S1                 0.0000
     58 ****         0.5541  -0.4592   4.0079 LP             1 S1                 0.0000
@<TRIPOS>BOND
    1    1    2 1     
    2    1   25 1     
    3    1   26 1     
    4    1   27 1     
    5    2    3 1     
    6    2   28 1     
    7    2   29 1     
    8    3    4 1     
    9    3   30 1     
   10    3   31 1     
   11    4    5 1     
   12    4   32 1     
   13    4   33 1     
   14    5    6 am    
   15    5   13 1     
   16    6    7 2     
   17    6    8 1     
   18    8   12 1     
   19    8    9 1     
   20    8   34 1     
   21    9   10 1     
   22    9   35 1     
   23    9   36 1     
   24   10   11 1     
   25   10   37 1     
   26   10   38 1     
   27   11   12 1     
   28   11   39 1     
   29   11   40 1     
   30   13   23 1     
   31   13   14 2     
   32   14   15 1     
   33   14   16 1     
   34   15   41 1     
   35   15   42 1     
   36   16   17 1     
   37   16   20 am    
   38   17   18 1     
   39   17   43 1     
   40   17   44 1     
   41   18   19 1     
   42   18   45 1     
   43   18   46 1     
   44   19   47 1     
   45   19   48 1     
   46   19   49 1     
   47   20   21 2     
   48   20   22 1     
   49   22   23 1     
   50   23   24 2     
   51    7   50 1     
   52    7   51 1     
   53   12   52 1     
   54   12   53 1     
   55   21   54 1     
   56   21   55 1     
   57   22   56 1     
   58   24   57 1     
   59   24   58 1     
@<TRIPOS>SUBSTRUCTURE
      1 S1             1
@<TRIPOS>SET
LONE_PAIRS      STATIC     ATOMS    <user>   **** ""
9 50 51 52 53 54 55 56 57 58
DONOR_HYDROGENS      STATIC     ATOMS    <user>   **** ""
2 41 42
ATOM$BLUE        STATIC     ATOMS    COLORGROUP SYSTEM
9 50 51 52 53 54 55 56 57 58
ATOM$RED        STATIC     ATOMS    COLORGROUP SYSTEM
2 41 42
