#       Name:                AV-unprocessed.smi:2221
#       Creating user name   scv26
#       Creation time:       Fri Mar 27 12:19:29 2020


#       File generated by GOLD software.
#

@<TRIPOS>MOLECULE
AV-unprocessed.smi:2221
    57    58     1
SMALL
NO_CHARGES


@<TRIPOS>ATOM
      1 ****        -4.2740   5.0822  -1.2194 C.3            1 S1                 0.0000
      2 ****        -3.7386   3.7718  -0.6813 C.ar           1 S1                 0.0000
      3 ****        -3.7586   3.4989   0.6996 C.ar           1 S1                 0.0000
      4 ****        -3.2422   2.2653   1.1416 C.ar           1 S1                 0.0000
      5 ****        -3.2324   1.9060   2.6127 C.3            1 S1                 0.0000
      6 ****        -2.7296   1.3384   0.3039 N.ar           1 S1                 0.0000
      7 ****        -2.7088   1.5894  -1.0290 C.ar           1 S1                 0.0000
      8 ****        -2.1894   0.6830  -1.9911 N.am           1 S1                 0.0000
      9 ****        -1.6514  -0.5303  -1.7780 C.2            1 S1                 0.0000
     10 ****        -1.5686  -1.0908  -0.6846 O.2            1 S1                 0.0000
     11 ****        -1.1845  -1.0665  -2.9156 N.am           1 S1                 0.0000
     12 ****        -0.5235  -2.3652  -3.0342 C.3            1 S1                 0.0000
     13 ****         0.9979  -2.2795  -2.7880 C.3            1 S1                 0.0000
     14 ****         1.3338  -1.7901  -1.4265 N.4            1 S1                 1.0000
     15 ****         2.6397  -1.0946  -1.3592 C.3            1 S1                 0.0000
     16 ****         2.8384  -0.4407   0.0186 C.3            1 S1                 0.0000
     17 ****         2.7323  -1.4623   1.1791 C.3            1 S1                 0.0000
     18 ****         2.8444  -0.8143   2.5257 N.4            1 S1                 1.0000
     19 ****         2.7877  -1.7789   3.6528 C.3            1 S1                 0.0000
     20 ****         4.0235   0.0756   2.6716 C.3            1 S1                 0.0000
     21 ****         1.3989  -2.2340   1.0209 C.3            1 S1                 0.0000
     22 ****         1.2347  -2.8393  -0.3833 C.3            1 S1                 0.0000
     23 ****        -3.2047   2.8031  -1.5551 C.ar           1 S1                 0.0000
     24 ****        -4.9917   5.5248  -0.5280 H              1 S1                 0.0000
     25 ****        -4.7755   4.9296  -2.1755 H              1 S1                 0.0000
     26 ****        -3.4579   5.7896  -1.3673 H              1 S1                 0.0000
     27 ****        -4.1591   4.2167   1.4007 H              1 S1                 0.0000
     28 ****        -3.6173   2.7237   3.2227 H              1 S1                 0.0000
     29 ****        -2.2173   1.6842   2.9428 H              1 S1                 0.0000
     30 ****        -3.8523   1.0269   2.7914 H              1 S1                 0.0000
     31 ****        -2.2089   1.0080  -2.9467 H              1 S1                 0.0000
     32 ****        -1.2991  -0.5386  -3.7692 H              1 S1                 0.0000
     33 ****        -0.9901  -3.0917  -2.3676 H              1 S1                 0.0000
     34 ****        -0.7015  -2.7335  -4.0448 H              1 S1                 0.0000
     35 ****         1.4701  -3.2476  -2.9611 H              1 S1                 0.0000
     36 ****         1.4174  -1.6016  -3.5328 H              1 S1                 0.0000
     37 ****         3.4448  -1.8012  -1.5673 H              1 S1                 0.0000
     38 ****         2.6864  -0.3222  -2.1280 H              1 S1                 0.0000
     39 ****         3.8150   0.0424   0.0117 H              1 S1                 0.0000
     40 ****         2.0981   0.3497   0.1532 H              1 S1                 0.0000
     41 ****         3.5560  -2.1717   1.0810 H              1 S1                 0.0000
     42 ****         3.5604  -2.5427   3.5546 H              1 S1                 0.0000
     43 ****         1.8183  -2.2708   3.7177 H              1 S1                 0.0000
     44 ****         2.9352  -1.2733   4.6080 H              1 S1                 0.0000
     45 ****         4.9472  -0.4552   2.4376 H              1 S1                 0.0000
     46 ****         4.1029   0.4571   3.6901 H              1 S1                 0.0000
     47 ****         3.9487   0.9509   2.0270 H              1 S1                 0.0000
     48 ****         1.3313  -3.0508   1.7382 H              1 S1                 0.0000
     49 ****         0.5599  -1.5676   1.2279 H              1 S1                 0.0000
     50 ****         0.2675  -3.3379  -0.4447 H              1 S1                 0.0000
     51 ****         1.9944  -3.6033  -0.5566 H              1 S1                 0.0000
     52 ****        -3.1771   2.9928  -2.6187 H              1 S1                 0.0000
     53 ****         2.0356  -0.2176   2.6283 H              1 S1                 0.0000
     54 ****         0.6345  -1.0942  -1.2067 H              1 S1                 0.0000
     55 ****        -2.3695   0.4769   0.6621 LP             1 S1                 0.0000
     56 ****        -1.9186  -0.6397   0.1363 LP             1 S1                 0.0000
     57 ****        -1.1514  -1.9972  -0.6176 LP             1 S1                 0.0000
@<TRIPOS>BOND
    1    1    2 1     
    2    1   24 1     
    3    1   25 1     
    4    1   26 1     
    5    2   23 ar    
    6    2    3 ar    
    7    3    4 ar    
    8    3   27 1     
    9    4    5 1     
   10    4    6 ar    
   11    5   28 1     
   12    5   29 1     
   13    5   30 1     
   14    6    7 ar    
   15    7    8 1     
   16    7   23 ar    
   17    8    9 am    
   18    8   31 1     
   19    9   10 2     
   20    9   11 am    
   21   11   12 1     
   22   11   32 1     
   23   12   13 1     
   24   12   33 1     
   25   12   34 1     
   26   13   14 1     
   27   13   35 1     
   28   13   36 1     
   29   14   22 1     
   30   14   15 1     
   31   14   54 1     
   32   15   16 1     
   33   15   37 1     
   34   15   38 1     
   35   16   17 1     
   36   16   39 1     
   37   16   40 1     
   38   17   18 1     
   39   17   21 1     
   40   17   41 1     
   41   18   19 1     
   42   18   20 1     
   43   18   53 1     
   44   19   42 1     
   45   19   43 1     
   46   19   44 1     
   47   20   45 1     
   48   20   46 1     
   49   20   47 1     
   50   21   22 1     
   51   21   48 1     
   52   21   49 1     
   53   22   50 1     
   54   22   51 1     
   55   23   52 1     
   56    6   55 1     
   57   10   56 1     
   58   10   57 1     
@<TRIPOS>SUBSTRUCTURE
      1 S1             1
@<TRIPOS>SET
LONE_PAIRS      STATIC     ATOMS    <user>   **** ""
3 55 56 57
DONOR_HYDROGENS      STATIC     ATOMS    <user>   **** ""
4 31 32 54 53
ATOM$BLUE        STATIC     ATOMS    COLORGROUP SYSTEM
3 55 56 57
ATOM$RED        STATIC     ATOMS    COLORGROUP SYSTEM
4 31 32 54 53
