AV-unprocessed.smi:2531|AV-procd|sdf|9967|dock10
  -GOLD-   2272014 13D 1   1.00000     0.00000
 Structure written by MMmdl.
 46 48  0  0  0  0  0  0  0  0  3 V2000
  152.4998  140.3982  157.2583 O   0  0  0  0  0  0  0  0  0  0  0  0
  151.6103  141.2492  157.2111 C   0  0  0  0  0  0  0  0  0  0  0  0
  151.3056  142.1363  158.4357 C   0  0  0  0  0  0  0  0  0  0  0  0
  151.2020  143.6360  158.0721 C   0  0  0  0  0  0  0  0  0  0  0  0
  152.3811  144.3485  158.7518 C   0  0  0  0  0  0  0  0  0  0  0  0
  153.3427  143.2432  159.1848 C   0  0  0  0  0  0  0  0  0  0  0  0
  152.4313  142.0538  159.4818 C   0  0  0  0  0  0  0  0  0  0  0  0
  150.7865  141.3811  156.0892 N   0  0  0  0  0  0  0  0  0  0  0  0
  150.5946  140.2705  155.1676 C   0  0  0  0  0  0  0  0  0  0  0  0
  149.2135  140.8771  154.8947 C   0  0  0  0  0  0  0  0  0  0  0  0
  147.8613  139.6164  154.8889 S   0  0  0  0  0  0  0  0  0  0  0  0
  148.2291  138.6321  155.9198 O   0  0  0  0  0  0  0  0  0  0  0  0
  146.5969  140.3434  155.0888 O   0  0  0  0  0  0  0  0  0  0  0  0
  148.0117  139.0286  153.3837 N   0  5  0  0  0  0  0  0  0  0  0  0
  146.8438  138.9081  152.5261 C   0  0  0  0  0  0  0  0  0  0  0  0
  145.7417  138.0618  153.2028 C   0  0  0  0  0  0  0  0  0  0  0  0
  145.2929  136.8623  152.3790 C   0  0  0  0  0  0  0  0  0  0  0  0
  143.9417  136.4501  152.3277 C   0  0  0  0  0  0  0  0  0  0  0  0
  143.5909  135.3244  151.5536 C   0  0  0  0  0  0  0  0  0  0  0  0
  144.5961  134.6297  150.8495 C   0  0  0  0  0  0  0  0  0  0  0  0
  145.9294  135.0782  150.9380 C   0  0  0  0  0  0  0  0  0  0  0  0
  146.2260  136.1608  151.6898 N   0  3  0  0  0  0  0  0  0  0  0  0
  149.3611  141.6526  156.2109 C   0  0  0  0  0  0  0  0  0  0  0  0
  150.3641  141.8156  158.8827 H   0  0  0  0  0  0  0  0  0  0  0  0
  151.2310  143.8032  156.9943 H   0  0  0  0  0  0  0  0  0  0  0  0
  150.2570  144.0541  158.4207 H   0  0  0  0  0  0  0  0  0  0  0  0
  152.8597  145.0786  158.0981 H   0  0  0  0  0  0  0  0  0  0  0  0
  152.0231  144.8832  159.6327 H   0  0  0  0  0  0  0  0  0  0  0  0
  154.0175  142.9965  158.3640 H   0  0  0  0  0  0  0  0  0  0  0  0
  153.9523  143.5295  160.0422 H   0  0  0  0  0  0  0  0  0  0  0  0
  152.0071  142.1550  160.4815 H   0  0  0  0  0  0  0  0  0  0  0  0
  152.9787  141.1100  159.4597 H   0  0  0  0  0  0  0  0  0  0  0  0
  151.2711  140.2808  154.3127 H   0  0  0  0  0  0  0  0  0  0  0  0
  150.5550  139.2968  155.6606 H   0  0  0  0  0  0  0  0  0  0  0  0
  149.1883  141.5044  154.0024 H   0  0  0  0  0  0  0  0  0  0  0  0
  146.4302  139.8916  152.3009 H   0  0  0  0  0  0  0  0  0  0  0  0
  147.0924  138.4695  151.5591 H   0  0  0  0  0  0  0  0  0  0  0  0
  146.0869  137.6892  154.1671 H   0  0  0  0  0  0  0  0  0  0  0  0
  144.8718  138.6855  153.4131 H   0  0  0  0  0  0  0  0  0  0  0  0
  143.1829  136.9924  152.8732 H   0  0  0  0  0  0  0  0  0  0  0  0
  142.5627  134.9976  151.5017 H   0  0  0  0  0  0  0  0  0  0  0  0
  144.3477  133.7652  150.2512 H   0  0  0  0  0  0  0  0  0  0  0  0
  146.7618  134.6083  150.4348 H   0  0  0  0  0  0  0  0  0  0  0  0
  148.8987  141.1722  157.0741 H   0  0  0  0  0  0  0  0  0  0  0  0
  149.1045  142.7097  156.1373 H   0  0  0  0  0  0  0  0  0  0  0  0
  147.1978  136.4688  151.7397 H   0  0  0  0  0  0  0  0  0  0  0  0
  1  2  2  0  0  0  0
  2  3  1  0  0  0  0
  2  8  1  0  0  0  0
  3  7  1  0  0  0  0
  3  4  1  0  0  0  0
  3 24  1  0  0  0  0
  4  5  1  0  0  0  0
  4 25  1  0  0  0  0
  4 26  1  0  0  0  0
  5  6  1  0  0  0  0
  5 27  1  0  0  0  0
  5 28  1  0  0  0  0
  6  7  1  0  0  0  0
  6 29  1  0  0  0  0
  6 30  1  0  0  0  0
  7 31  1  0  0  0  0
  7 32  1  0  0  0  0
  8 23  1  0  0  0  0
  8  9  1  0  0  0  0
  9 10  1  0  0  0  0
  9 33  1  0  0  0  0
  9 34  1  0  0  0  0
 10 11  1  0  0  0  0
 10 23  1  0  0  0  0
 10 35  1  0  0  0  0
 11 12  2  0  0  0  0
 11 13  2  0  0  0  0
 11 14  1  0  0  0  0
 14 15  1  0  0  0  0
 15 16  1  0  0  0  0
 15 36  1  0  0  0  0
 15 37  1  0  0  0  0
 16 17  1  0  0  0  0
 16 38  1  0  0  0  0
 16 39  1  0  0  0  0
 17 22  1  0  0  0  0
 17 18  2  0  0  0  0
 18 19  1  0  0  0  0
 18 40  1  0  0  0  0
 19 20  2  0  0  0  0
 19 41  1  0  0  0  0
 20 21  1  0  0  0  0
 20 42  1  0  0  0  0
 21 22  2  0  0  0  0
 21 43  1  0  0  0  0
 22 46  1  0  0  0  0
 23 44  1  0  0  0  0
 23 45  1  0  0  0  0
M  CHG  1  14  -1
M  CHG  1  22   1
M  END
> <s_m_source_file>
AV-unprocessed.smi

> <i_m_source_file_index>
2531

> <i_lp_mmshare_version>
43012

> <i_f3d_flags>
0

> <s_epik_input>
W0NIMl0xW0NIMl1bQ0gyXVtDSDJdW0NIXTFDKD1PKU4yW0NIMl1bQ0hdKFtDSDJdMilTKD1PKSg9TylbTkhdW0NIMl1bQ0gyXWMzW2NIXVtjSF1bY0hdW2NIXW4z

> <s_epik_cmdline>
J2VwaWtfcHl0aG9uJywgJy1waCcsICc3LjAnLCAnLXRuJywgJzgnLCAnLW1hJywgJzIwMCcsICctbWV0YWxfYmluZGluZycsICctaW1hZScsICc8aW5maWxlLm1hZT4nLCAnLW9tYWUnLCAnPG91dGZpbGUubWFlPic=

> <r_epik_Ionization_Penalty>
6.66855

> <r_epik_Ionization_Penalty_Charging>
6.66855

> <r_epik_Ionization_Penalty_Neutral>
2.37876e-07

> <r_epik_State_Penalty>
7.51815

> <r_epik_Charging_Adjusted_Penalty>
14.1867

> <i_epik_Tot_Q>
0

> <i_epik_Tot_abs_Q>
2

> <r_epik_Metal_State_Penalty>
3.5378

> <b_epik_Metal_Only>
1

> <s_lp_Force_Field>
OPLS_2005

> <r_lp_Energy>
33.2094

> <b_lp_Chiralities_Consistent>
1

> <s_lp_Variant>
AV-unprocessed.smi:2531-4

> <Gold.Version>
5.8.1

> <Gold.Id.Protein>
6NUR|6NUR_protein|mol2

> <Gold.PLP.Fitness>
49.4951

> <Gold.PLP.PLP>
-42.7236

> <Gold.PLP.part.hbond>
-2.0000

> <Gold.PLP.part.metal>
0.0000

> <Gold.PLP.part.buried>
-3.8951

> <Gold.PLP.part.nonpolar>
-37.9376

> <Gold.PLP.part.repulsive>
1.1378

> <Gold.PLP.ligand.clash>
0.0000

> <Gold.PLP.ligand.torsion>
2.3349

> <Gold.PLP.Chemscore.Hbond>
2.9675

> <Gold.PLP.Chemscore.CHOScore>
0.0000

> <Gold.PLP.Chemscore.Metal>
0.0000

> <Gold.Chemscore.Hbonds>
donor molecule, donor type, donor heavy atom, donor atom, acceptor molecule, acceptor atom, score
      L1  H    22    46       P1  7948  2.00
      P1  H  7997  8010       L1     1  0.91

> <Gold.PLP.Chemscore.Internal.Correction>
2.5389

> <Gold.Rescore>
     Score         DG    S(hbond)    S(metal)    S(lipo)     H(rot)  DE(clash)    DE(int)     intcor
     18.42     -21.05       1.95        0.00     114.99       1.72       0.45       2.18       ----

> <Gold.Chemscore.Fitness>
18.4226

> <Gold.Chemscore.DG>
-21.0543

> <Gold.Chemscore.ZeroCoef>
-5.4800

> <Gold.Chemscore.Hbond>
1.9498

> <Gold.Chemscore.Metal>
0.0000

> <Gold.Chemscore.Lipo>
114.9939

> <Gold.Chemscore.Internal_Hbond>
0.0000

> <Gold.Chemscore.DEClash>
0.4510

> <Gold.Chemscore.DEInternal>
2.1807

> <Gold.Chemscore.Rot>
1.7158

> <Gold.Chemscore.Internal.Correction>
   9.000000E+99

> <Gold.Chemscore.Hbonds>
donor molecule, donor type, donor heavy atom, donor atom, acceptor molecule, acceptor atom, score
      L1  H    22    46       P1  7948  0.98
      P1  H  7997  8010       L1     1  0.85

> <Gold.Chemscore.Hbond.Weighted>
-6.5124

> <Gold.Chemscore.Metal.Weighted>
-0.0000

> <Gold.Chemscore.Lipo.Weighted>
-13.4543

> <Gold.Chemscore.Internal_Hbond.Weighted>
0.0000

> <Gold.Chemscore.DEClash.Weighted>
0.4510

> <Gold.Chemscore.DEInternal.Weighted>
2.1807

> <Gold.Chemscore.Rot.Weighted>
4.3924

> <Gold.Chemscore.Internal.Correction.Weighted>
   9.000000E+99

> <Gold.Protein.RotatedTorsions>
[ 6907 6896 6895 6894 ] final  -11.76 input  -60.11 | X-H torsion
[ 7974 7965 7964 7962 ] final -109.42 input  175.53 | X-H torsion
[ 8008 7997 7996 7995 ] final   53.08 input   59.86 | X-H torsion
[ 10167 10162 10161 10158 ] final   -0.04 input  -65.29 | X-H torsion
[ 10718 10713 10712 10709 ] final  -88.38 input   66.30 | X-H torsion
[ 10763 10752 10751 10750 ] final -117.93 input  -60.55 | X-H torsion
[ 11005 11000 10999 10996 ] final  165.08 input  -57.11 | X-H torsion

> <Gold.Protein.ActiveResidues>
 VAL166  LYS551  ARG553  GLY616  TRP617  ASP618  TYR619  PRO620  LYS621  CYS622 
 ASP623  PHE694  ASN695  SER759  ASP760  ASP761  ALA762  ILE779  LEU786  VAL792 
 PHE793  MET794  SER795  GLU796  ALA797  LYS798  CYS799  TRP800  GLU811  SER814 

> <Gold.Protein.RotatedAtoms>
  151.3811  135.0940  159.9496 H   0  0  0  0  0  0  0  0  0  0  0  0  # atno 6907 bound_to 6896
  152.5108  133.9071  159.7480 H   0  0  0  0  0  0  0  0  0  0  0  0  # atno 6908 bound_to 6896
  150.9505  133.6500  159.2802 H   0  0  0  0  0  0  0  0  0  0  0  0  # atno 6909 bound_to 6896
  145.1807  140.8970  143.3481 H   0  0  0  0  0  0  0  0  0  0  0  0  # atno 7974 bound_to 7965
  155.4623  140.3462  155.4314 H   0  0  0  0  0  0  0  0  0  0  0  0  # atno 8008 bound_to 7997
  156.1153  140.1472  156.9311 H   0  0  0  0  0  0  0  0  0  0  0  0  # atno 8009 bound_to 7997
  154.4784  140.0877  156.7298 H   0  0  0  0  0  0  0  0  0  0  0  0  # atno 8010 bound_to 7997
  140.6750  143.6942  150.8003 H   0  0  0  0  0  0  0  0  0  0  0  0  # atno 10167 bound_to 10162
  155.9984  130.4834  150.5011 H   0  0  0  0  0  0  0  0  0  0  0  0  # atno 10718 bound_to 10713
  154.8571  135.4292  154.2059 H   0  0  0  0  0  0  0  0  0  0  0  0  # atno 10763 bound_to 10752
  153.3095  135.6974  153.7134 H   0  0  0  0  0  0  0  0  0  0  0  0  # atno 10764 bound_to 10752
  153.6233  135.3498  155.2992 H   0  0  0  0  0  0  0  0  0  0  0  0  # atno 10765 bound_to 10752
  140.2525  134.7966  157.3514 H   0  0  0  0  0  0  0  0  0  0  0  0  # atno 11005 bound_to 11000
  145.0139  139.3485  143.6106 LP  0  0  0  0  0  0  0  0  0  0  0  0  # atno 17320 bound_to 7965
  146.3453  139.9412  142.8740 LP  0  0  0  0  0  0  0  0  0  0  0  0  # atno 17321 bound_to 7965
  140.0634  143.5132  152.2616 LP  0  0  0  0  0  0  0  0  0  0  0  0  # atno 17342 bound_to 10162
  139.6037  144.7590  151.3111 LP  0  0  0  0  0  0  0  0  0  0  0  0  # atno 17343 bound_to 10162
  157.2995  131.0642  151.2078 LP  0  0  0  0  0  0  0  0  0  0  0  0  # atno 17370 bound_to 10713
  157.3062  130.6867  149.6191 LP  0  0  0  0  0  0  0  0  0  0  0  0  # atno 17371 bound_to 10713
  140.1544  134.4808  155.7938 LP  0  0  0  0  0  0  0  0  0  0  0  0  # atno 17394 bound_to 11000
  141.2200  133.6875  156.7435 LP  0  0  0  0  0  0  0  0  0  0  0  0  # atno 17395 bound_to 11000

$$$$
