AV-unprocessed.smi:109|AV-procd|sdf|1042|dock6
  -GOLD-   2262018 73D 1   1.00000     0.00000
 Structure written by MMmdl.
 58 61  0  0  0  0  0  0  0  0  1 V2000
  146.7608  142.7331  155.4203 O   0  0  0  0  0  0  0  0  0  0  0  0
  146.7631  142.7357  154.0090 C   0  0  0  0  0  0  0  0  0  0  0  0
  147.8244  141.7533  153.4888 C   0  0  0  0  0  0  0  0  0  0  0  0
  147.7428  140.3638  154.1594 C   0  0  1  0  0  0  0  0  0  0  0  0
  147.6205  139.3268  153.1350 N   0  0  0  0  0  0  0  0  0  0  0  0
  146.7972  138.2670  153.2959 C   0  0  0  0  0  0  0  0  0  0  0  0
  146.3341  137.9112  154.5223 N   0  0  0  0  0  0  0  0  0  0  0  0
  145.5225  136.8578  154.6496 C   0  0  0  0  0  0  0  0  0  0  0  0
  145.0605  136.0424  153.6997 N   0  0  0  0  0  0  0  0  0  0  0  0
  145.5206  136.3939  152.4642 C   0  0  0  0  0  0  0  0  0  0  0  0
  146.3847  137.4893  152.1834 C   0  0  0  0  0  0  0  0  0  0  0  0
  146.6418  137.5503  150.8205 N   0  0  0  0  0  0  0  0  0  0  0  0
  145.9686  136.5458  150.3281 C   0  0  0  0  0  0  0  0  0  0  0  0
  145.2639  135.7966  151.2442 N   0  0  0  0  0  0  0  0  0  0  0  0
  144.4105  134.5956  150.9599 C   0  0  1  0  0  0  0  0  0  0  0  0
  144.2880  134.4208  149.5792 O   0  0  0  0  0  0  0  0  0  0  0  0
  144.8273  133.1608  149.1822 C   0  0  2  0  0  0  0  0  0  0  0  0
  144.1105  132.6206  147.9324 C   0  0  0  0  0  0  0  0  0  0  0  0
  144.0027  133.6353  146.9570 O   0  0  0  0  0  0  0  0  0  0  0  0
  144.7078  132.2926  150.4428 C   0  0  2  0  0  0  0  0  0  0  0  0
  143.4080  131.7436  150.5706 O   0  0  0  0  0  0  0  0  0  0  0  0
  144.9741  133.2908  151.5582 C   0  0  1  0  0  0  0  0  0  0  0  0
  146.3579  133.3457  151.8584 O   0  0  0  0  0  0  0  0  0  0  0  0
  148.9260  140.0547  155.1190 C   0  0  0  0  0  0  0  0  0  0  0  0
  149.5926  141.3296  155.6802 C   0  0  0  0  0  0  0  0  0  0  0  0
  150.6838  140.9857  156.7075 C   0  0  0  0  0  0  0  0  0  0  0  0
  151.7378  140.0433  156.1051 C   0  0  0  0  0  0  0  0  0  0  0  0
  151.0866  138.7725  155.5374 C   0  0  0  0  0  0  0  0  0  0  0  0
  149.9933  139.1156  154.5122 C   0  0  0  0  0  0  0  0  0  0  0  0
  143.4312  134.8538  151.3649 H   0  0  0  0  0  0  0  0  0  0  0  0
  145.8902  133.2852  148.9706 H   0  0  0  0  0  0  0  0  0  0  0  0
  145.4225  131.4684  150.4391 H   0  0  0  0  0  0  0  0  0  0  0  0
  144.4386  133.0464  152.4768 H   0  0  0  0  0  0  0  0  0  0  0  0
  147.5339  143.1843  155.7234 H   0  0  0  0  0  0  0  0  0  0  0  0
  145.7716  142.4553  153.6519 H   0  0  0  0  0  0  0  0  0  0  0  0
  146.9617  143.7494  153.6602 H   0  0  0  0  0  0  0  0  0  0  0  0
  147.7269  141.6539  152.4069 H   0  0  0  0  0  0  0  0  0  0  0  0
  148.8041  142.1951  153.6661 H   0  0  0  0  0  0  0  0  0  0  0  0
  146.8292  140.3628  154.7552 H   0  0  0  0  0  0  0  0  0  0  0  0
  148.2813  139.3891  152.3738 H   0  0  0  0  0  0  0  0  0  0  0  0
  145.1974  136.6359  155.6552 H   0  0  0  0  0  0  0  0  0  0  0  0
  145.9665  136.3222  149.2710 H   0  0  0  0  0  0  0  0  0  0  0  0
  144.6871  131.8070  147.4911 H   0  0  0  0  0  0  0  0  0  0  0  0
  143.1240  132.2266  148.1782 H   0  0  0  0  0  0  0  0  0  0  0  0
  144.8377  134.0710  146.8819 H   0  0  0  0  0  0  0  0  0  0  0  0
  142.8444  132.3942  150.9606 H   0  0  0  0  0  0  0  0  0  0  0  0
  146.8417  133.2800  151.0494 H   0  0  0  0  0  0  0  0  0  0  0  0
  148.5075  139.5366  155.9832 H   0  0  0  0  0  0  0  0  0  0  0  0
  150.0392  141.9148  154.8769 H   0  0  0  0  0  0  0  0  0  0  0  0
  148.8420  141.9677  156.1476 H   0  0  0  0  0  0  0  0  0  0  0  0
  151.1615  141.8994  157.0617 H   0  0  0  0  0  0  0  0  0  0  0  0
  150.2290  140.5159  157.5805 H   0  0  0  0  0  0  0  0  0  0  0  0
  152.2803  140.5608  155.3129 H   0  0  0  0  0  0  0  0  0  0  0  0
  152.4752  139.7769  156.8625 H   0  0  0  0  0  0  0  0  0  0  0  0
  151.8454  138.1415  155.0741 H   0  0  0  0  0  0  0  0  0  0  0  0
  150.6540  138.1887  156.3509 H   0  0  0  0  0  0  0  0  0  0  0  0
  149.5300  138.1940  154.1585 H   0  0  0  0  0  0  0  0  0  0  0  0
  150.4573  139.5830  153.6432 H   0  0  0  0  0  0  0  0  0  0  0  0
  1  2  1  0  0  0  0
  1 34  1  0  0  0  0
  2  3  1  0  0  0  0
  2 35  1  0  0  0  0
  2 36  1  0  0  0  0
  3  4  1  0  0  0  0
  3 37  1  0  0  0  0
  3 38  1  0  0  0  0
  4  5  1  0  0  0  0
  4 24  1  0  0  0  0
  4 39  1  0  0  0  0
  5  6  1  0  0  0  0
  5 40  1  0  0  0  0
  6 11  1  0  0  0  0
  6  7  2  0  0  0  0
  7  8  1  0  0  0  0
  8  9  2  0  0  0  0
  8 41  1  0  0  0  0
  9 10  1  0  0  0  0
 10 14  1  0  0  0  0
 10 11  2  0  0  0  0
 11 12  1  0  0  0  0
 12 13  2  0  0  0  0
 13 14  1  0  0  0  0
 13 42  1  0  0  0  0
 14 15  1  0  0  0  0
 15 30  1  0  0  0  0
 15 22  1  0  0  0  0
 15 16  1  0  0  0  0
 16 17  1  0  0  0  0
 17 31  1  0  0  0  0
 17 18  1  0  0  0  0
 17 20  1  0  0  0  0
 18 19  1  0  0  0  0
 18 43  1  0  0  0  0
 18 44  1  0  0  0  0
 19 45  1  0  0  0  0
 20 32  1  0  0  0  0
 20 21  1  0  0  0  0
 20 22  1  0  0  0  0
 21 46  1  0  0  0  0
 22 33  1  0  0  0  0
 22 23  1  0  0  0  0
 23 47  1  0  0  0  0
 24 29  1  0  0  0  0
 24 25  1  0  0  0  0
 24 48  1  0  0  0  0
 25 26  1  0  0  0  0
 25 49  1  0  0  0  0
 25 50  1  0  0  0  0
 26 27  1  0  0  0  0
 26 51  1  0  0  0  0
 26 52  1  0  0  0  0
 27 28  1  0  0  0  0
 27 53  1  0  0  0  0
 27 54  1  0  0  0  0
 28 29  1  0  0  0  0
 28 55  1  0  0  0  0
 28 56  1  0  0  0  0
 29 57  1  0  0  0  0
 29 58  1  0  0  0  0
M  END
> <s_m_source_file>
AV-unprocessed.smi

> <i_m_source_file_index>
109

> <i_lp_mmshare_version>
43012

> <i_f3d_flags>
0

> <s_epik_input>
W0NIMl0xW0NIMl1bQ0gyXVtDSDJdW0NIMl1bQ0hdMVtDQEhdKFtDSDJdW0NIMl1bT0hdKVtOSF1jKG5bY0hdbjIpYyhjMjMpbltjSF1uM1tDQEBIXTRPW0NASF0oW0NIMl1bT0hdKVtDQEBIXShbT0hdKVtDQEhdNFtPSF0=

> <s_epik_cmdline>
J2VwaWtfcHl0aG9uJywgJy1waCcsICc3LjAnLCAnLXRuJywgJzgnLCAnLW1hJywgJzIwMCcsICctbWV0YWxfYmluZGluZycsICctaW1hZScsICc8aW5maWxlLm1hZT4nLCAnLW9tYWUnLCAnPG91dGZpbGUubWFlPic=

> <r_lp_tautomer_probability>
1

> <r_epik_Ionization_Penalty>
0.000793976

> <r_epik_Ionization_Penalty_Charging>
0

> <r_epik_Ionization_Penalty_Neutral>
0.000793976

> <r_epik_State_Penalty>
-0

> <r_epik_Charging_Adjusted_Penalty>
0

> <i_epik_Tot_Q>
0

> <i_epik_Tot_abs_Q>
0

> <r_epik_Metal_State_Penalty>
-0

> <b_epik_Metal_Only>
0

> <s_epik_Chemistry_Notes>
This compound contains an acetal/aminal-like group ( X-CH(R)-Y where X, Y are N, S, or O) that may be acid/base labile, releasing an aldehyde.

> <s_lp_Force_Field>
OPLS_2005

> <r_lp_Energy>
56.1563

> <b_lp_Chiralities_Consistent>
1

> <s_lp_Variant>
AV-unprocessed.smi:109-12

> <Gold.Version>
5.8.1

> <Gold.Id.Protein>
6NUR|6NUR_protein|mol2

> <Gold.PLP.Fitness>
58.0916

> <Gold.PLP.PLP>
-44.6750

> <Gold.PLP.part.hbond>
-7.1235

> <Gold.PLP.part.metal>
0.0000

> <Gold.PLP.part.buried>
3.5421

> <Gold.PLP.part.nonpolar>
-43.3644

> <Gold.PLP.part.repulsive>
3.8557

> <Gold.PLP.ligand.clash>
0.0000

> <Gold.PLP.ligand.torsion>
2.3283

> <Gold.PLP.Chemscore.Hbond>
4.9513

> <Gold.PLP.Chemscore.CHOScore>
1.0000

> <Gold.PLP.Chemscore.Metal>
0.0000

> <Gold.Chemscore.Hbonds>
donor molecule, donor type, donor heavy atom, donor atom, acceptor molecule, acceptor atom, score
      L1  H     1    34       P1  8028  0.85
      L1  H     5    40       P1  7957  1.00
      L1  H    19    45       P1  7921  1.00
      P1  H  7954  7966       L1    12  1.00
      L1  C    13    42       P1  7921  1.00

> <Gold.PLP.Chemscore.Internal.Correction>
0.2194

> <Gold.Rescore>
     Score         DG    S(hbond)    S(metal)    S(lipo)     H(rot)  DE(clash)    DE(int)     intcor
      7.98     -17.86       4.04        0.00     110.25       5.47       7.44       2.44       ----

> <Gold.Chemscore.Fitness>
7.9830

> <Gold.Chemscore.DG>
-17.8629

> <Gold.Chemscore.ZeroCoef>
-5.4800

> <Gold.Chemscore.Hbond>
4.0352

> <Gold.Chemscore.Metal>
0.0000

> <Gold.Chemscore.Lipo>
110.2463

> <Gold.Chemscore.Internal_Hbond>
0.0000

> <Gold.Chemscore.DEClash>
7.4376

> <Gold.Chemscore.DEInternal>
2.4423

> <Gold.Chemscore.Rot>
5.4662

> <Gold.Chemscore.Internal.Correction>
   9.000000E+99

> <Gold.Chemscore.Hbonds>
donor molecule, donor type, donor heavy atom, donor atom, acceptor molecule, acceptor atom, score
      L1  H     1    34       P1  8028  0.13
      L1  H     5    40       P1  7957  1.00
      L1  H    19    45       P1  7921  0.81
      P1  H  7954  7966       L1    12  0.78
      P1  H 10192 10197       L1    19  0.01
      P1  H 10785 10796       L1    21  0.03

> <Gold.Chemscore.Hbond.Weighted>
-13.4776

> <Gold.Chemscore.Metal.Weighted>
-0.0000

> <Gold.Chemscore.Lipo.Weighted>
-12.8988

> <Gold.Chemscore.Internal_Hbond.Weighted>
0.0000

> <Gold.Chemscore.DEClash.Weighted>
7.4376

> <Gold.Chemscore.DEInternal.Weighted>
2.4423

> <Gold.Chemscore.Rot.Weighted>
13.9935

> <Gold.Chemscore.Internal.Correction.Weighted>
   9.000000E+99

> <Gold.Protein.RotatedTorsions>
[ 6907 6896 6895 6894 ] final  144.97 input  -60.11 | X-H torsion
[ 7974 7965 7964 7962 ] final   93.79 input  175.53 | X-H torsion
[ 8008 7997 7996 7995 ] final   -8.36 input   59.86 | X-H torsion
[ 10167 10162 10161 10158 ] final  -83.65 input  -65.29 | X-H torsion
[ 10718 10713 10712 10709 ] final   48.66 input   66.30 | X-H torsion
[ 10763 10752 10751 10750 ] final  153.39 input  -60.55 | X-H torsion
[ 11005 11000 10999 10996 ] final  -82.44 input  -57.11 | X-H torsion

> <Gold.Protein.ActiveResidues>
 VAL166  LYS551  ARG553  GLY616  TRP617  ASP618  TYR619  PRO620  LYS621  CYS622 
 ASP623  PHE694  ASN695  SER759  ASP760  ASP761  ALA762  ILE779  LEU786  VAL792 
 PHE793  MET794  SER795  GLU796  ALA797  LYS798  CYS799  TRP800  GLU811  SER814 

> <Gold.Protein.RotatedAtoms>
  152.1868  133.4745  159.4986 H   0  0  0  0  0  0  0  0  0  0  0  0  # atno 6907 bound_to 6896
  150.6944  134.1763  159.4240 H   0  0  0  0  0  0  0  0  0  0  0  0  # atno 6908 bound_to 6896
  151.9676  135.0092  160.0602 H   0  0  0  0  0  0  0  0  0  0  0  0  # atno 6909 bound_to 6896
  145.4742  139.2281  143.2918 H   0  0  0  0  0  0  0  0  0  0  0  0  # atno 7974 bound_to 7965
  154.5749  140.2383  155.8137 H   0  0  0  0  0  0  0  0  0  0  0  0  # atno 8008 bound_to 7997
  156.2135  140.3019  155.9744 H   0  0  0  0  0  0  0  0  0  0  0  0  # atno 8009 bound_to 7997
  155.2645  140.0416  157.2991 H   0  0  0  0  0  0  0  0  0  0  0  0  # atno 8010 bound_to 7997
  140.4206  143.2586  151.8894 H   0  0  0  0  0  0  0  0  0  0  0  0  # atno 10167 bound_to 10162
  157.4709  130.8254  149.7986 H   0  0  0  0  0  0  0  0  0  0  0  0  # atno 10718 bound_to 10713
  154.1354  135.2824  155.3174 H   0  0  0  0  0  0  0  0  0  0  0  0  # atno 10763 bound_to 10752
  154.6325  135.5430  153.7700 H   0  0  0  0  0  0  0  0  0  0  0  0  # atno 10764 bound_to 10752
  153.0268  135.6466  154.1503 H   0  0  0  0  0  0  0  0  0  0  0  0  # atno 10765 bound_to 10752
  141.1663  133.7245  156.8572 H   0  0  0  0  0  0  0  0  0  0  0  0  # atno 11005 bound_to 11000
  146.2379  140.5523  142.8947 LP  0  0  0  0  0  0  0  0  0  0  0  0  # atno 17320 bound_to 7965
  144.7927  140.6063  143.6530 LP  0  0  0  0  0  0  0  0  0  0  0  0  # atno 17321 bound_to 7965
  139.4782  144.5441  151.8485 LP  0  0  0  0  0  0  0  0  0  0  0  0  # atno 17342 bound_to 10162
  140.4537  144.1819  150.5899 LP  0  0  0  0  0  0  0  0  0  0  0  0  # atno 17343 bound_to 10162
  156.0073  130.3849  150.2387 LP  0  0  0  0  0  0  0  0  0  0  0  0  # atno 17370 bound_to 10713
  157.0569  131.0079  151.3235 LP  0  0  0  0  0  0  0  0  0  0  0  0  # atno 17371 bound_to 10713
  140.1874  134.8990  157.3020 LP  0  0  0  0  0  0  0  0  0  0  0  0  # atno 17394 bound_to 11000
  140.2328  134.3889  155.7514 LP  0  0  0  0  0  0  0  0  0  0  0  0  # atno 17395 bound_to 11000

$$$$
