#       Name:                AV-unprocessed.smi:944
#       Creating user name   scv26
#       Creation time:       Fri Mar 27 02:14:07 2020


#       File generated by GOLD software.
#

@<TRIPOS>MOLECULE
AV-unprocessed.smi:944
    34    34     1
SMALL
NO_CHARGES


@<TRIPOS>ATOM
      1 ****        -3.5280   2.2709   0.4318 C.3            1 S1                 0.0000
      2 ****        -2.9680   0.9715   0.0939 N.am           1 S1                 0.0000
      3 ****        -1.8773   0.7942  -0.6650 C.2            1 S1                 0.0000
      4 ****        -1.2439   1.7278  -1.1607 O.2            1 S1                 0.0000
      5 ****        -1.4519  -0.6627  -0.9133 C.3            1 S1                 0.0000
      6 ****        -1.9982  -1.0899  -2.2858 C.3            1 S1                 0.0000
      7 ****         0.0055  -0.7758  -0.9531 N.am           1 S1                 0.0000
      8 ****         0.8052  -0.8820   0.1198 C.2            1 S1                 0.0000
      9 ****         0.3796  -0.9197   1.2752 O.2            1 S1                 0.0000
     10 ****         2.3084  -0.9592  -0.1707 C.3            1 S1                 0.0000
     11 ****         3.1161  -0.5147   0.9529 N.pl3          1 S1                 0.0000
     12 ****         3.3433   0.7116   1.4283 C.2            1 S1                 0.0000
     13 ****         4.1480   0.7372   2.4817 N.2            1 S1                 0.0000
     14 ****         4.3973  -0.6001   2.6104 C.2            1 S1                 0.0000
     15 ****         3.8066  -1.3939   1.7169 N.2            1 S1                 0.0000
     16 ****        -4.4053   2.1442   1.0659 H              1 S1                 0.0000
     17 ****        -3.8320   2.8087  -0.4673 H              1 S1                 0.0000
     18 ****        -2.8009   2.8784   0.9727 H              1 S1                 0.0000
     19 ****        -3.4355   0.1558   0.4627 H              1 S1                 0.0000
     20 ****        -1.8588  -1.3141  -0.1371 H              1 S1                 0.0000
     21 ****        -3.0865  -1.0221  -2.3189 H              1 S1                 0.0000
     22 ****        -1.7325  -2.1247  -2.5036 H              1 S1                 0.0000
     23 ****        -1.6014  -0.4711  -3.0925 H              1 S1                 0.0000
     24 ****         0.4373  -0.7475  -1.8652 H              1 S1                 0.0000
     25 ****         2.5738  -1.9863  -0.4255 H              1 S1                 0.0000
     26 ****         2.5537  -0.3382  -1.0336 H              1 S1                 0.0000
     27 ****         2.9098   1.6020   0.9965 H              1 S1                 0.0000
     28 ****         5.0362  -1.0005   3.3839 H              1 S1                 0.0000
     29 ****        -1.5379   2.6706  -1.0036 LP             1 S1                 0.0000
     30 ****        -0.4359   1.5426  -1.7200 LP             1 S1                 0.0000
     31 ****        -0.6042  -0.8705   1.4475 LP             1 S1                 0.0000
     32 ****         1.0179  -0.9995   2.0408 LP             1 S1                 0.0000
     33 ****         4.4768   1.5103   3.0242 LP             1 S1                 0.0000
     34 ****         3.8600  -2.3889   1.6322 LP             1 S1                 0.0000
@<TRIPOS>BOND
    1    1    2 1     
    2    1   16 1     
    3    1   17 1     
    4    1   18 1     
    5    2    3 am    
    6    2   19 1     
    7    3    4 2     
    8    3    5 1     
    9    5    6 1     
   10    5    7 1     
   11    5   20 1     
   12    6   21 1     
   13    6   22 1     
   14    6   23 1     
   15    7    8 am    
   16    7   24 1     
   17    8    9 2     
   18    8   10 1     
   19   10   11 1     
   20   10   25 1     
   21   10   26 1     
   22   11   15 1     
   23   11   12 1     
   24   12   13 2     
   25   12   27 1     
   26   13   14 1     
   27   14   15 2     
   28   14   28 1     
   29    4   29 1     
   30    4   30 1     
   31    9   31 1     
   32    9   32 1     
   33   13   33 1     
   34   15   34 1     
@<TRIPOS>SUBSTRUCTURE
      1 S1             1
@<TRIPOS>SET
LONE_PAIRS      STATIC     ATOMS    <user>   **** ""
6 29 30 31 32 33 34
DONOR_HYDROGENS      STATIC     ATOMS    <user>   **** ""
2 19 24
ATOM$BLUE        STATIC     ATOMS    COLORGROUP SYSTEM
6 29 30 31 32 33 34
ATOM$RED        STATIC     ATOMS    COLORGROUP SYSTEM
2 19 24
