AV-unprocessed.smi:2047|AV-procd|sdf|8318|dock8
  -GOLD-   2272010583D 1   1.00000     0.00000
 Structure written by MMmdl.
 43 45  0  0  0  0  0  0  0  0  2 V2000
  147.1666  138.6989  155.1424 O   0  0  0  0  0  0  0  0  0  0  0  0
  147.5430  137.9702  154.2251 C   0  0  0  0  0  0  0  0  0  0  0  0
  146.7472  137.1790  153.4859 N   0  0  0  0  0  0  0  0  0  0  0  0
  145.3333  137.0178  153.5634 C   0  0  0  0  0  0  0  0  0  0  0  0
  144.4820  137.9657  154.1881 C   0  0  0  0  0  0  0  0  0  0  0  0
  143.0899  137.7494  154.2073 C   0  0  0  0  0  0  0  0  0  0  0  0
  142.5669  136.5966  153.5936 C   0  0  0  0  0  0  0  0  0  0  0  0
  143.4007  135.7215  152.9941 N   0  3  0  0  0  0  0  0  0  0  0  0
  144.7462  135.8820  152.9483 C   0  0  0  0  0  0  0  0  0  0  0  0
  145.5260  134.9074  152.3017 N   0  0  0  0  0  0  0  0  0  0  0  0
  145.2445  134.7046  150.8902 C   0  0  0  0  0  0  0  0  0  0  0  0
  145.9133  133.3759  150.5291 C   0  0  0  0  0  0  0  0  0  0  0  0
  146.0633  132.6346  151.8634 C   0  0  0  0  0  0  0  0  0  0  0  0
  145.4887  133.5897  152.9131 C   0  0  0  0  0  0  0  0  0  0  0  0
  148.8244  137.8589  153.8476 N   0  0  0  0  0  0  0  0  0  0  0  0
  149.9390  138.5886  154.4452 C   0  0  1  0  0  0  0  0  0  0  0  0
  149.7946  138.6679  155.9763 C   0  0  0  0  0  0  0  0  0  0  0  0
  151.1355  139.1114  156.5738 C   0  0  0  0  0  0  0  0  0  0  0  0
  152.4322  138.4498  155.4597 S   0  0  0  0  0  0  0  0  0  0  0  0
  153.2617  139.5648  154.9787 O   0  0  0  0  0  0  0  0  0  0  0  0
  153.0434  137.2581  156.0675 O   0  0  0  0  0  0  0  0  0  0  0  0
  151.2874  137.9209  154.1301 C   0  0  0  0  0  0  0  0  0  0  0  0
  147.2151  136.5734  152.8273 H   0  0  0  0  0  0  0  0  0  0  0  0
  144.8671  138.8656  154.6420 H   0  0  0  0  0  0  0  0  0  0  0  0
  142.4322  138.4627  154.6829 H   0  0  0  0  0  0  0  0  0  0  0  0
  141.5151  136.3523  153.5588 H   0  0  0  0  0  0  0  0  0  0  0  0
  144.1698  134.6415  150.7152 H   0  0  0  0  0  0  0  0  0  0  0  0
  145.6365  135.5267  150.2904 H   0  0  0  0  0  0  0  0  0  0  0  0
  145.3237  132.8136  149.8045 H   0  0  0  0  0  0  0  0  0  0  0  0
  146.8965  133.5531  150.0912 H   0  0  0  0  0  0  0  0  0  0  0  0
  145.5418  131.6770  151.8663 H   0  0  0  0  0  0  0  0  0  0  0  0
  147.1173  132.4384  152.0639 H   0  0  0  0  0  0  0  0  0  0  0  0
  146.0689  133.5680  153.8362 H   0  0  0  0  0  0  0  0  0  0  0  0
  144.4622  133.3092  153.1535 H   0  0  0  0  0  0  0  0  0  0  0  0
  149.0478  137.2297  153.0901 H   0  0  0  0  0  0  0  0  0  0  0  0
  149.9572  139.6102  154.0603 H   0  0  0  0  0  0  0  0  0  0  0  0
  148.9850  139.3351  156.2742 H   0  0  0  0  0  0  0  0  0  0  0  0
  149.5513  137.6784  156.3664 H   0  0  0  0  0  0  0  0  0  0  0  0
  151.2170  140.1987  156.5748 H   0  0  0  0  0  0  0  0  0  0  0  0
  151.2903  138.7500  157.5905 H   0  0  0  0  0  0  0  0  0  0  0  0
  151.2106  136.8338  154.1724 H   0  0  0  0  0  0  0  0  0  0  0  0
  151.6868  138.2038  153.1557 H   0  0  0  0  0  0  0  0  0  0  0  0
  142.9958  134.8957  152.5525 H   0  0  0  0  0  0  0  0  0  0  0  0
  1  2  2  0  0  0  0
  2  3  1  0  0  0  0
  2 15  1  0  0  0  0
  3  4  1  0  0  0  0
  3 23  1  0  0  0  0
  4  9  1  0  0  0  0
  4  5  2  0  0  0  0
  5  6  1  0  0  0  0
  5 24  1  0  0  0  0
  6  7  2  0  0  0  0
  6 25  1  0  0  0  0
  7  8  1  0  0  0  0
  7 26  1  0  0  0  0
  8  9  2  0  0  0  0
  8 43  1  0  0  0  0
  9 10  1  0  0  0  0
 10 14  1  0  0  0  0
 10 11  1  0  0  0  0
 11 12  1  0  0  0  0
 11 27  1  0  0  0  0
 11 28  1  0  0  0  0
 12 13  1  0  0  0  0
 12 29  1  0  0  0  0
 12 30  1  0  0  0  0
 13 14  1  0  0  0  0
 13 31  1  0  0  0  0
 13 32  1  0  0  0  0
 14 33  1  0  0  0  0
 14 34  1  0  0  0  0
 15 16  1  0  0  0  0
 15 35  1  0  0  0  0
 16 22  1  0  0  0  0
 16 17  1  0  0  0  0
 16 36  1  0  0  0  0
 17 18  1  0  0  0  0
 17 37  1  0  0  0  0
 17 38  1  0  0  0  0
 18 19  1  0  0  0  0
 18 39  1  0  0  0  0
 18 40  1  0  0  0  0
 19 20  2  0  0  0  0
 19 21  2  0  0  0  0
 19 22  1  0  0  0  0
 22 41  1  0  0  0  0
 22 42  1  0  0  0  0
M  CHG  1   8   1
M  END
> <s_m_source_file>
AV-unprocessed.smi

> <i_m_source_file_index>
2047

> <i_lp_mmshare_version>
43012

> <i_f3d_flags>
0

> <s_epik_input>
Tz1TMSg9TylbQ0gyXVtDSDJdW0NASF0oW0NIMl0xKVtOSF1DKD1PKVtOSF1jMltjSF1bY0hdW2NIXW5jMk4zW0NIMl1bQ0gyXVtDSDJdW0NIMl0z

> <s_epik_cmdline>
J2VwaWtfcHl0aG9uJywgJy1waCcsICc3LjAnLCAnLXRuJywgJzgnLCAnLW1hJywgJzIwMCcsICctbWV0YWxfYmluZGluZycsICctaW1hZScsICc8aW5maWxlLm1hZT4nLCAnLW9tYWUnLCAnPG91dGZpbGUubWFlPic=

> <r_lp_tautomer_probability>
0.999994

> <r_epik_Ionization_Penalty>
1.20225

> <r_epik_Ionization_Penalty_Charging>
1.20223

> <r_epik_Ionization_Penalty_Neutral>
2.10783e-05

> <r_epik_State_Penalty>
1.26794

> <r_epik_Charging_Adjusted_Penalty>
2.47017

> <i_epik_Tot_Q>
1

> <i_epik_Tot_abs_Q>
1

> <r_epik_Metal_State_Penalty>
1.34322

> <b_epik_Metal_Only>
0

> <s_lp_Force_Field>
OPLS_2005

> <r_lp_Energy>
42.594

> <b_lp_Chiralities_Consistent>
1

> <s_lp_Variant>
AV-unprocessed.smi:2047-4

> <Gold.Version>
5.8.1

> <Gold.Id.Protein>
6NUR|6NUR_protein|mol2

> <Gold.PLP.Fitness>
36.5288

> <Gold.PLP.PLP>
-26.7077

> <Gold.PLP.part.hbond>
-4.8604

> <Gold.PLP.part.metal>
0.0000

> <Gold.PLP.part.buried>
-2.2703

> <Gold.PLP.part.nonpolar>
-19.2942

> <Gold.PLP.part.repulsive>
0.1729

> <Gold.PLP.ligand.clash>
0.0000

> <Gold.PLP.ligand.torsion>
0.3560

> <Gold.PLP.Chemscore.Hbond>
3.5040

> <Gold.PLP.Chemscore.CHOScore>
0.0000

> <Gold.PLP.Chemscore.Metal>
0.0000

> <Gold.Chemscore.Hbonds>
donor molecule, donor type, donor heavy atom, donor atom, acceptor molecule, acceptor atom, score
      L1  H     3    23       P1  7948  0.90
      L1  H    15    35       P1  7948  1.00
      P1  H  7997  8009       L1    20  1.00
      P1  H 10752 10765       L1    21  0.61

> <Gold.PLP.Chemscore.Internal.Correction>
0.0211

> <Gold.Rescore>
     Score         DG    S(hbond)    S(metal)    S(lipo)     H(rot)  DE(clash)    DE(int)     intcor
     17.66     -20.61       3.52        0.00      56.45       1.26       0.01       2.94       ----

> <Gold.Chemscore.Fitness>
17.6601

> <Gold.Chemscore.DG>
-20.6058

> <Gold.Chemscore.ZeroCoef>
-5.4800

> <Gold.Chemscore.Hbond>
3.5164

> <Gold.Chemscore.Metal>
0.0000

> <Gold.Chemscore.Lipo>
56.4452

> <Gold.Chemscore.Internal_Hbond>
0.0000

> <Gold.Chemscore.DEClash>
0.0103

> <Gold.Chemscore.DEInternal>
2.9353

> <Gold.Chemscore.Rot>
1.2590

> <Gold.Chemscore.Internal.Correction>
   9.000000E+99

> <Gold.Chemscore.Hbonds>
donor molecule, donor type, donor heavy atom, donor atom, acceptor molecule, acceptor atom, score
      L1  H     3    23       P1  7948  0.84
      L1  H    15    35       P1  7948  0.97
      P1  H  7997  8009       L1    20  0.98
      P1  H 10752 10765       L1    21  0.56

> <Gold.Chemscore.Hbond.Weighted>
-11.7447

> <Gold.Chemscore.Metal.Weighted>
-0.0000

> <Gold.Chemscore.Lipo.Weighted>
-6.6041

> <Gold.Chemscore.Internal_Hbond.Weighted>
0.0000

> <Gold.Chemscore.DEClash.Weighted>
0.0103

> <Gold.Chemscore.DEInternal.Weighted>
2.9353

> <Gold.Chemscore.Rot.Weighted>
3.2231

> <Gold.Chemscore.Internal.Correction.Weighted>
   9.000000E+99

> <Gold.Protein.RotatedTorsions>
[ 6907 6896 6895 6894 ] final  -79.90 input  -60.11 | X-H torsion
[ 7974 7965 7964 7962 ] final   38.43 input  175.53 | X-H torsion
[ 8008 7997 7996 7995 ] final -134.39 input   59.86 | X-H torsion
[ 10167 10162 10161 10158 ] final  112.10 input  -65.29 | X-H torsion
[ 10718 10713 10712 10709 ] final  174.37 input   66.30 | X-H torsion
[ 10763 10752 10751 10750 ] final -143.29 input  -60.55 | X-H torsion
[ 11005 11000 10999 10996 ] final  -76.08 input  -57.11 | X-H torsion

> <Gold.Protein.ActiveResidues>
 VAL166  LYS551  ARG553  GLY616  TRP617  ASP618  TYR619  PRO620  LYS621  CYS622 
 ASP623  PHE694  ASN695  SER759  ASP760  ASP761  ALA762  ILE779  LEU786  VAL792 
 PHE793  MET794  SER795  GLU796  ALA797  LYS798  CYS799  TRP800  GLU811  SER814 

> <Gold.Protein.RotatedAtoms>
  150.6940  134.4050  159.5135 H   0  0  0  0  0  0  0  0  0  0  0  0  # atno 6907 bound_to 6896
  152.1818  134.8745  160.0535 H   0  0  0  0  0  0  0  0  0  0  0  0  # atno 6908 bound_to 6896
  151.9732  133.3698  159.4116 H   0  0  0  0  0  0  0  0  0  0  0  0  # atno 6909 bound_to 6896
  146.1062  139.5773  142.9382 H   0  0  0  0  0  0  0  0  0  0  0  0  # atno 7974 bound_to 7965
  155.3613  140.0483  157.3046 H   0  0  0  0  0  0  0  0  0  0  0  0  # atno 8008 bound_to 7997
  154.5177  140.2214  155.8999 H   0  0  0  0  0  0  0  0  0  0  0  0  # atno 8009 bound_to 7997
  156.1654  140.3107  155.8886 H   0  0  0  0  0  0  0  0  0  0  0  0  # atno 8010 bound_to 7997
  139.6561  144.7129  151.1954 H   0  0  0  0  0  0  0  0  0  0  0  0  # atno 10167 bound_to 10162
  156.9506  131.0030  151.2949 H   0  0  0  0  0  0  0  0  0  0  0  0  # atno 10718 bound_to 10713
  154.8475  135.3472  154.6164 H   0  0  0  0  0  0  0  0  0  0  0  0  # atno 10763 bound_to 10752
  153.6773  135.6982  153.5133 H   0  0  0  0  0  0  0  0  0  0  0  0  # atno 10764 bound_to 10752
  153.2696  135.4297  155.0930 H   0  0  0  0  0  0  0  0  0  0  0  0  # atno 10765 bound_to 10752
  141.1651  133.6970  156.7614 H   0  0  0  0  0  0  0  0  0  0  0  0  # atno 11005 bound_to 11000
  145.5755  141.0389  143.2151 LP  0  0  0  0  0  0  0  0  0  0  0  0  # atno 17320 bound_to 7965
  144.7473  139.7286  143.7287 LP  0  0  0  0  0  0  0  0  0  0  0  0  # atno 17321 bound_to 7965
  140.7560  143.6069  150.8643 LP  0  0  0  0  0  0  0  0  0  0  0  0  # atno 17342 bound_to 10162
  139.9722  143.6043  152.2970 LP  0  0  0  0  0  0  0  0  0  0  0  0  # atno 17343 bound_to 10162
  157.5724  130.8320  149.8410 LP  0  0  0  0  0  0  0  0  0  0  0  0  # atno 17370 bound_to 10713
  156.0364  130.3750  150.1549 LP  0  0  0  0  0  0  0  0  0  0  0  0  # atno 17371 bound_to 10713
  140.2531  134.8525  157.3687 LP  0  0  0  0  0  0  0  0  0  0  0  0  # atno 17394 bound_to 11000
  140.1683  134.4641  155.7848 LP  0  0  0  0  0  0  0  0  0  0  0  0  # atno 17395 bound_to 11000

$$$$
