#       Name:                AV-unprocessed.smi:2931
#       Creating user name   scv26
#       Creation time:       Fri Mar 27 16:13:45 2020


#       File generated by GOLD software.
#

@<TRIPOS>MOLECULE
AV-unprocessed.smi:2931
    45    46     1
SMALL
NO_CHARGES


@<TRIPOS>ATOM
      1 ****        -4.1672   1.6855  -2.8002 C.3            1 S1                 0.0000
      2 ****        -3.2211   1.7784  -1.6677 N.4            1 S1                 1.0000
      3 ****        -3.8679   1.4891  -0.3635 C.3            1 S1                 0.0000
      4 ****        -2.8911   1.7284   0.7996 C.3            1 S1                 0.0000
      5 ****        -1.6086   0.9036   0.6231 C.3            1 S1                 0.0000
      6 ****        -0.9784   1.1861  -0.7531 C.3            1 S1                 0.0000
      7 ****         0.1880   0.3348  -0.9648 N.am           1 S1                 0.0000
      8 ****         1.4391   0.6345  -0.5900 C.2            1 S1                 0.0000
      9 ****         1.7631   1.6910  -0.0482 O.2            1 S1                 0.0000
     10 ****         2.2900  -0.3649  -0.8584 N.am           1 S1                 0.0000
     11 ****         3.7110  -0.3705  -0.5226 C.3            1 S1                 0.0000
     12 ****         3.9743  -0.5165   0.9904 C.3            1 S1                 0.0000
     13 ****         3.2039  -1.6562   1.6358 C.ar           1 S1                 0.0000
     14 ****         2.1015  -1.3976   2.4772 C.ar           1 S1                 0.0000
     15 ****         1.4159  -2.4915   3.0417 C.ar           1 S1                 0.0000
     16 ****         1.7595  -3.7780   2.8172 N.ar           1 S1                 0.0000
     17 ****         2.8167  -4.0179   2.0121 C.ar           1 S1                 0.0000
     18 ****         3.5701  -2.9969   1.3985 C.ar           1 S1                 0.0000
     19 ****        -2.0049   0.9540  -1.8779 C.3            1 S1                 0.0000
     20 ****        -4.5422   0.6677  -2.9146 H              1 S1                 0.0000
     21 ****        -3.6820   1.9789  -3.7317 H              1 S1                 0.0000
     22 ****        -5.0186   2.3493  -2.6464 H              1 S1                 0.0000
     23 ****        -4.7438   2.1272  -0.2399 H              1 S1                 0.0000
     24 ****        -4.2221   0.4570  -0.3513 H              1 S1                 0.0000
     25 ****        -2.6395   2.7884   0.8539 H              1 S1                 0.0000
     26 ****        -3.3691   1.4753   1.7466 H              1 S1                 0.0000
     27 ****        -0.9030   1.1381   1.4213 H              1 S1                 0.0000
     28 ****        -1.8426  -0.1581   0.7159 H              1 S1                 0.0000
     29 ****        -0.6710   2.2333  -0.7912 H              1 S1                 0.0000
     30 ****         0.0269  -0.5624  -1.3986 H              1 S1                 0.0000
     31 ****         1.9263  -1.1953  -1.3029 H              1 S1                 0.0000
     32 ****         4.1622  -1.2117  -1.0493 H              1 S1                 0.0000
     33 ****         4.1932   0.5285  -0.9089 H              1 S1                 0.0000
     34 ****         5.0397  -0.6703   1.1639 H              1 S1                 0.0000
     35 ****         3.7210   0.4146   1.4987 H              1 S1                 0.0000
     36 ****         1.7836  -0.3861   2.6839 H              1 S1                 0.0000
     37 ****         0.5673  -2.3282   3.6893 H              1 S1                 0.0000
     38 ****         3.0692  -5.0551   1.8499 H              1 S1                 0.0000
     39 ****         4.4063  -3.2397   0.7593 H              1 S1                 0.0000
     40 ****        -2.2845  -0.0998  -1.9291 H              1 S1                 0.0000
     41 ****        -1.5575   1.2111  -2.8393 H              1 S1                 0.0000
     42 ****        -2.9144   2.7402  -1.6300 H              1 S1                 0.0000
     43 ****         1.0725   2.3900   0.1377 LP             1 S1                 0.0000
     44 ****         2.7170   1.8505   0.2062 LP             1 S1                 0.0000
     45 ****         1.2474  -4.5290   3.2339 LP             1 S1                 0.0000
@<TRIPOS>BOND
    1    1    2 1     
    2    1   20 1     
    3    1   21 1     
    4    1   22 1     
    5    2   19 1     
    6    2    3 1     
    7    2   42 1     
    8    3    4 1     
    9    3   23 1     
   10    3   24 1     
   11    4    5 1     
   12    4   25 1     
   13    4   26 1     
   14    5    6 1     
   15    5   27 1     
   16    5   28 1     
   17    6    7 1     
   18    6   19 1     
   19    6   29 1     
   20    7    8 am    
   21    7   30 1     
   22    8    9 2     
   23    8   10 am    
   24   10   11 1     
   25   10   31 1     
   26   11   12 1     
   27   11   32 1     
   28   11   33 1     
   29   12   13 1     
   30   12   34 1     
   31   12   35 1     
   32   13   18 ar    
   33   13   14 ar    
   34   14   15 ar    
   35   14   36 1     
   36   15   16 ar    
   37   15   37 1     
   38   16   17 ar    
   39   17   18 ar    
   40   17   38 1     
   41   18   39 1     
   42   19   40 1     
   43   19   41 1     
   44    9   43 1     
   45    9   44 1     
   46   16   45 1     
@<TRIPOS>SUBSTRUCTURE
      1 S1             1
@<TRIPOS>SET
LONE_PAIRS      STATIC     ATOMS    <user>   **** ""
3 43 44 45
DONOR_HYDROGENS      STATIC     ATOMS    <user>   **** ""
3 42 30 31
ATOM$BLUE        STATIC     ATOMS    COLORGROUP SYSTEM
3 43 44 45
ATOM$RED        STATIC     ATOMS    COLORGROUP SYSTEM
3 42 30 31
