AV-unprocessed.smi:171|AV-procd|sdf|1418|dock9
  -GOLD-   2262019183D 1   1.00000     0.00000
 Structure written by MMmdl.
 56 59  0  0  0  0  0  0  0  0  1 V2000
  153.6265  141.4901  160.3001 C   0  0  0  0  0  0  0  0  0  0  0  0
  152.4691  142.4917  160.1512 C   0  0  0  0  0  0  0  0  0  0  0  0
  152.1400  143.1256  161.5121 C   0  0  0  0  0  0  0  0  0  0  0  0
  151.2016  141.8561  159.5190 C   0  0  0  0  0  0  0  0  0  0  0  0
  151.2436  141.5996  157.9839 C   0  0  2  0  0  0  0  0  0  0  0  0
  151.2220  142.9040  157.1544 C   0  0  0  0  0  0  0  0  0  0  0  0
  151.9575  143.8388  157.4658 O   0  0  0  0  0  0  0  0  0  0  0  0
  150.4161  142.9841  156.0817 N   0  0  0  0  0  0  0  0  0  0  0  0
  149.5025  141.9392  155.6285 C   0  0  0  0  0  0  0  0  0  0  0  0
  149.8969  140.5521  156.1541 C   0  0  0  0  0  0  0  0  0  0  0  0
  150.2106  140.6333  157.5742 N   0  0  0  0  0  0  0  0  0  0  0  0
  150.2404  139.4212  158.1717 C   0  0  0  0  0  0  0  0  0  0  0  0
  151.4138  138.9160  158.6333 N   0  0  0  0  0  0  0  0  0  0  0  0
  151.4301  137.7270  159.2441 C   0  0  0  0  0  0  0  0  0  0  0  0
  150.4104  136.9016  159.4938 N   0  0  0  0  0  0  0  0  0  0  0  0
  149.2338  137.4102  159.0262 C   0  0  0  0  0  0  0  0  0  0  0  0
  149.0646  138.6481  158.3480 C   0  0  0  0  0  0  0  0  0  0  0  0
  147.7301  138.8345  158.0131 N   0  0  0  0  0  0  0  0  0  0  0  0
  147.1385  137.7688  158.4788 C   0  0  0  0  0  0  0  0  0  0  0  0
  147.9640  136.8669  159.1124 N   0  0  0  0  0  0  0  0  0  0  0  0
  147.5671  135.6150  159.7353 C   0  0  0  0  0  0  0  0  0  0  0  0
  146.8787  135.8080  161.1076 C   0  0  1  0  0  0  0  0  0  0  0  0
  147.7269  136.5907  161.9324 O   0  0  0  0  0  0  0  0  0  0  0  0
  145.5192  136.4870  161.0340 C   0  0  0  0  0  0  0  0  0  0  0  0
  144.8475  136.0247  162.3214 C   0  0  0  0  0  0  0  0  0  0  0  0
  145.3120  134.6957  162.5229 O   0  0  0  0  0  0  0  0  0  0  0  0
  146.5213  134.4747  161.7982 C   0  0  2  0  0  0  0  0  0  0  0  0
  147.6013  133.8560  162.6996 C   0  0  0  0  0  0  0  0  0  0  0  0
  153.3342  140.6310  160.9045 H   0  0  0  0  0  0  0  0  0  0  0  0
  154.4865  141.9557  160.7821 H   0  0  0  0  0  0  0  0  0  0  0  0
  153.9676  141.1196  159.3346 H   0  0  0  0  0  0  0  0  0  0  0  0
  152.8226  143.3019  159.5144 H   0  0  0  0  0  0  0  0  0  0  0  0
  151.7741  142.3804  162.2189 H   0  0  0  0  0  0  0  0  0  0  0  0
  151.3754  143.8971  161.4124 H   0  0  0  0  0  0  0  0  0  0  0  0
  153.0203  143.5974  161.9497 H   0  0  0  0  0  0  0  0  0  0  0  0
  150.9531  140.9351  160.0481 H   0  0  0  0  0  0  0  0  0  0  0  0
  150.3480  142.5054  159.7179 H   0  0  0  0  0  0  0  0  0  0  0  0
  152.2141  141.1561  157.7557 H   0  0  0  0  0  0  0  0  0  0  0  0
  150.4274  143.8416  155.5485 H   0  0  0  0  0  0  0  0  0  0  0  0
  148.5034  142.1956  155.9825 H   0  0  0  0  0  0  0  0  0  0  0  0
  149.4617  141.9368  154.5391 H   0  0  0  0  0  0  0  0  0  0  0  0
  149.0866  139.8439  155.9711 H   0  0  0  0  0  0  0  0  0  0  0  0
  150.7721  140.1833  155.6163 H   0  0  0  0  0  0  0  0  0  0  0  0
  152.3976  137.3912  159.5871 H   0  0  0  0  0  0  0  0  0  0  0  0
  146.0735  137.6153  158.3817 H   0  0  0  0  0  0  0  0  0  0  0  0
  146.8979  135.0980  159.0464 H   0  0  0  0  0  0  0  0  0  0  0  0
  148.4488  134.9809  159.8373 H   0  0  0  0  0  0  0  0  0  0  0  0
  147.2748  136.7674  162.7434 H   0  0  0  0  0  0  0  0  0  0  0  0
  145.5726  137.5732  160.9443 H   0  0  0  0  0  0  0  0  0  0  0  0
  144.9561  136.1074  160.1803 H   0  0  0  0  0  0  0  0  0  0  0  0
  145.1670  136.6412  163.1626 H   0  0  0  0  0  0  0  0  0  0  0  0
  143.7594  136.0645  162.2660 H   0  0  0  0  0  0  0  0  0  0  0  0
  146.2645  133.7455  161.0287 H   0  0  0  0  0  0  0  0  0  0  0  0
  148.5267  133.6936  162.1467 H   0  0  0  0  0  0  0  0  0  0  0  0
  147.2729  132.8912  163.0864 H   0  0  0  0  0  0  0  0  0  0  0  0
  147.8263  134.4919  163.5560 H   0  0  0  0  0  0  0  0  0  0  0  0
  1  2  1  0  0  0  0
  1 29  1  0  0  0  0
  1 30  1  0  0  0  0
  1 31  1  0  0  0  0
  2  3  1  0  0  0  0
  2  4  1  0  0  0  0
  2 32  1  0  0  0  0
  3 33  1  0  0  0  0
  3 34  1  0  0  0  0
  3 35  1  0  0  0  0
  4  5  1  0  0  0  0
  4 36  1  0  0  0  0
  4 37  1  0  0  0  0
  5 11  1  0  0  0  0
  5  6  1  0  0  0  0
  5 38  1  0  0  0  0
  6  7  2  0  0  0  0
  6  8  1  0  0  0  0
  8  9  1  0  0  0  0
  8 39  1  0  0  0  0
  9 10  1  0  0  0  0
  9 40  1  0  0  0  0
  9 41  1  0  0  0  0
 10 11  1  0  0  0  0
 10 42  1  0  0  0  0
 10 43  1  0  0  0  0
 11 12  1  0  0  0  0
 12 17  1  0  0  0  0
 12 13  2  0  0  0  0
 13 14  1  0  0  0  0
 14 15  2  0  0  0  0
 14 44  1  0  0  0  0
 15 16  1  0  0  0  0
 16 20  1  0  0  0  0
 16 17  2  0  0  0  0
 17 18  1  0  0  0  0
 18 19  2  0  0  0  0
 19 20  1  0  0  0  0
 19 45  1  0  0  0  0
 20 21  1  0  0  0  0
 21 22  1  0  0  0  0
 21 46  1  0  0  0  0
 21 47  1  0  0  0  0
 22 27  1  0  0  0  0
 22 23  1  0  0  0  0
 22 24  1  0  0  0  0
 23 48  1  0  0  0  0
 24 25  1  0  0  0  0
 24 49  1  0  0  0  0
 24 50  1  0  0  0  0
 25 26  1  0  0  0  0
 25 51  1  0  0  0  0
 25 52  1  0  0  0  0
 26 27  1  0  0  0  0
 27 28  1  0  0  0  0
 27 53  1  0  0  0  0
 28 54  1  0  0  0  0
 28 55  1  0  0  0  0
 28 56  1  0  0  0  0
M  END
> <s_m_source_file>
AV-unprocessed.smi

> <i_m_source_file_index>
171

> <i_lp_mmshare_version>
43012

> <i_f3d_flags>
0

> <s_epik_input>
W0NIM11bQ0hdKFtDSDNdKVtDSDJdW0NAQEhdMUMoPU8pW05IXVtDSDJdW0NIMl1OMWMobltjSF1uMiljKGMyMyluW2NIXW4zW0NIMl1bQ0BAXTQoW09IXSlbQ0gyXVtDSDJdT1tDQEhdNFtDSDNd

> <s_epik_cmdline>
J2VwaWtfcHl0aG9uJywgJy1waCcsICc3LjAnLCAnLXRuJywgJzgnLCAnLW1hJywgJzIwMCcsICctbWV0YWxfYmluZGluZycsICctaW1hZScsICc8aW5maWxlLm1hZT4nLCAnLW9tYWUnLCAnPG91dGZpbGUubWFlPic=

> <r_lp_tautomer_probability>
1

> <r_epik_Ionization_Penalty>
0.000670584

> <r_epik_Ionization_Penalty_Charging>
0

> <r_epik_Ionization_Penalty_Neutral>
0.000670584

> <r_epik_State_Penalty>
0.000304767

> <r_epik_Charging_Adjusted_Penalty>
0.000304767

> <i_epik_Tot_Q>
0

> <i_epik_Tot_abs_Q>
0

> <r_epik_Metal_State_Penalty>
-0

> <b_epik_Metal_Only>
0

> <s_lp_Force_Field>
OPLS_2005

> <r_lp_Energy>
41.3949

> <b_lp_Chiralities_Consistent>
1

> <s_lp_Variant>
AV-unprocessed.smi:171-5

> <Gold.Version>
5.8.1

> <Gold.Id.Protein>
6NUR|6NUR_protein|mol2

> <Gold.PLP.Fitness>
44.2573

> <Gold.PLP.PLP>
-39.1387

> <Gold.PLP.part.hbond>
-3.0739

> <Gold.PLP.part.metal>
0.0000

> <Gold.PLP.part.buried>
-2.7611

> <Gold.PLP.part.nonpolar>
-34.7990

> <Gold.PLP.part.repulsive>
0.2488

> <Gold.PLP.ligand.clash>
0.0000

> <Gold.PLP.ligand.torsion>
0.9193

> <Gold.PLP.Chemscore.Hbond>
2.1740

> <Gold.PLP.Chemscore.CHOScore>
0.0000

> <Gold.PLP.Chemscore.Metal>
0.0000

> <Gold.Chemscore.Hbonds>
donor molecule, donor type, donor heavy atom, donor atom, acceptor molecule, acceptor atom, score
      L1  H     8    39       P1  8028  0.27
      P1  H  6896  6907       L1    15  1.00
      P1  H  6931  6943       L1    23  0.77

> <Gold.PLP.Chemscore.Internal.Correction>
0.4351

> <Gold.Rescore>
     Score         DG    S(hbond)    S(metal)    S(lipo)     H(rot)  DE(clash)    DE(int)     intcor
     12.39     -14.92       1.51        0.00      94.72       2.61       1.53       1.01       ----

> <Gold.Chemscore.Fitness>
12.3874

> <Gold.Chemscore.DG>
-14.9249

> <Gold.Chemscore.ZeroCoef>
-5.4800

> <Gold.Chemscore.Hbond>
1.5082

> <Gold.Chemscore.Metal>
0.0000

> <Gold.Chemscore.Lipo>
94.7198

> <Gold.Chemscore.Internal_Hbond>
0.0000

> <Gold.Chemscore.DEClash>
1.5254

> <Gold.Chemscore.DEInternal>
1.0120

> <Gold.Chemscore.Rot>
2.6074

> <Gold.Chemscore.Internal.Correction>
   9.000000E+99

> <Gold.Chemscore.Hbonds>
donor molecule, donor type, donor heavy atom, donor atom, acceptor molecule, acceptor atom, score
      L1  H     8    39       P1  8028  0.28
      P1  H  6896  6907       L1    15  0.68
      P1  H  6931  6943       L1    23  0.17

> <Gold.Chemscore.Hbond.Weighted>
-5.0375

> <Gold.Chemscore.Metal.Weighted>
-0.0000

> <Gold.Chemscore.Lipo.Weighted>
-11.0822

> <Gold.Chemscore.Internal_Hbond.Weighted>
0.0000

> <Gold.Chemscore.DEClash.Weighted>
1.5254

> <Gold.Chemscore.DEInternal.Weighted>
1.0120

> <Gold.Chemscore.Rot.Weighted>
6.6748

> <Gold.Chemscore.Internal.Correction.Weighted>
   9.000000E+99

> <Gold.Protein.RotatedTorsions>
[ 6907 6896 6895 6894 ] final  -26.65 input  -60.11 | X-H torsion
[ 7974 7965 7964 7962 ] final   -3.78 input  175.53 | X-H torsion
[ 8008 7997 7996 7995 ] final  -37.82 input   59.86 | X-H torsion
[ 10167 10162 10161 10158 ] final   94.83 input  -65.29 | X-H torsion
[ 10718 10713 10712 10709 ] final  -41.56 input   66.30 | X-H torsion
[ 10763 10752 10751 10750 ] final  170.29 input  -60.55 | X-H torsion
[ 11005 11000 10999 10996 ] final -105.98 input  -57.11 | X-H torsion

> <Gold.Protein.ActiveResidues>
 VAL166  LYS551  ARG553  GLY616  TRP617  ASP618  TYR619  PRO620  LYS621  CYS622 
 ASP623  PHE694  ASN695  SER759  ASP760  ASP761  ALA762  ILE779  LEU786  VAL792 
 PHE793  MET794  SER795  GLU796  ALA797  LYS798  CYS799  TRP800  GLU811  SER814 

> <Gold.Protein.RotatedAtoms>
  151.1580  135.0259  159.8697 H   0  0  0  0  0  0  0  0  0  0  0  0  # atno 6907 bound_to 6896
  152.5452  134.1312  159.8450 H   0  0  0  0  0  0  0  0  0  0  0  0  # atno 6908 bound_to 6896
  151.1404  133.4929  159.2629 H   0  0  0  0  0  0  0  0  0  0  0  0  # atno 6909 bound_to 6896
  146.2384  140.1773  142.8332 H   0  0  0  0  0  0  0  0  0  0  0  0  # atno 7974 bound_to 7965
  154.4047  140.1594  156.2599 H   0  0  0  0  0  0  0  0  0  0  0  0  # atno 8008 bound_to 7997
  155.9045  140.3431  155.6029 H   0  0  0  0  0  0  0  0  0  0  0  0  # atno 8009 bound_to 7997
  155.7409  140.0792  157.2237 H   0  0  0  0  0  0  0  0  0  0  0  0  # atno 8010 bound_to 7997
  139.8047  144.6799  150.9719 H   0  0  0  0  0  0  0  0  0  0  0  0  # atno 10167 bound_to 10162
  156.2690  130.4205  149.8458 H   0  0  0  0  0  0  0  0  0  0  0  0  # atno 10718 bound_to 10713
  154.3954  135.2754  155.2129 H   0  0  0  0  0  0  0  0  0  0  0  0  # atno 10763 bound_to 10752
  154.4177  135.6007  153.5994 H   0  0  0  0  0  0  0  0  0  0  0  0  # atno 10764 bound_to 10752
  152.9831  135.5965  154.4215 H   0  0  0  0  0  0  0  0  0  0  0  0  # atno 10765 bound_to 10752
  141.1027  133.8854  157.1801 H   0  0  0  0  0  0  0  0  0  0  0  0  # atno 11005 bound_to 11000
  144.9963  140.8592  143.5309 LP  0  0  0  0  0  0  0  0  0  0  0  0  # atno 17320 bound_to 7965
  145.1786  139.2364  143.5304 LP  0  0  0  0  0  0  0  0  0  0  0  0  # atno 17321 bound_to 7965
  140.7819  143.4246  151.0788 LP  0  0  0  0  0  0  0  0  0  0  0  0  # atno 17342 bound_to 10162
  139.7916  143.8210  152.3152 LP  0  0  0  0  0  0  0  0  0  0  0  0  # atno 17343 bound_to 10162
  156.5946  130.8521  151.3417 LP  0  0  0  0  0  0  0  0  0  0  0  0  # atno 17370 bound_to 10713
  157.7277  130.9647  150.1712 LP  0  0  0  0  0  0  0  0  0  0  0  0  # atno 17371 bound_to 10713
  139.9884  135.0073  156.9918 LP  0  0  0  0  0  0  0  0  0  0  0  0  # atno 17394 bound_to 11000
  140.4981  134.1124  155.7245 LP  0  0  0  0  0  0  0  0  0  0  0  0  # atno 17395 bound_to 11000

$$$$
