#       Name:                AV-unprocessed.smi:1159
#       Creating user name   scv26
#       Creation time:       Fri Mar 27 03:49:23 2020


#       File generated by GOLD software.
#

@<TRIPOS>MOLECULE
AV-unprocessed.smi:1159
    48    49     1
SMALL
NO_CHARGES


@<TRIPOS>ATOM
      1 ****        -0.1705  -1.5382  -0.1894 O.2            1 S1                 0.0000
      2 ****        -0.4491  -0.3410  -0.1350 C.2            1 S1                 0.0000
      3 ****         0.4329   0.6620   0.0194 N.am           1 S1                 0.0000
      4 ****         1.8439   0.6023   0.1898 C.ar           1 S1                 0.0000
      5 ****         2.5730  -0.5741   0.4894 C.ar           1 S1                 0.0000
      6 ****         3.9697  -0.4879   0.6471 C.ar           1 S1                 0.0000
      7 ****         4.5967   0.7659   0.5087 C.ar           1 S1                 0.0000
      8 ****         5.9650   0.8401   0.6678 O.3            1 S1                 0.0000
      9 ****         6.5971   2.1114   0.5428 C.3            1 S1                 0.0000
     10 ****         8.1052   1.9501   0.7683 C.3            1 S1                 0.0000
     11 ****         8.6938   3.1423   0.6794 F              1 S1                 0.0000
     12 ****         8.3388   1.4479   1.9805 F              1 S1                 0.0000
     13 ****         8.6265   1.1455  -0.1574 F              1 S1                 0.0000
     14 ****         3.9051   1.8983   0.2306 N.ar           1 S1                 0.0000
     15 ****         2.5667   1.8086   0.0800 C.ar           1 S1                 0.0000
     16 ****        -1.7010   0.1305  -0.2368 N.am           1 S1                 0.0000
     17 ****        -2.9080  -0.6873  -0.3821 C.3            1 S1                 0.0000
     18 ****        -3.9800   0.1835  -1.0770 C.3            1 S1                 0.0000
     19 ****        -5.0839  -0.6292  -1.7756 C.3            1 S1                 0.0000
     20 ****        -5.9729  -1.4570  -0.8353 C.3            1 S1                 0.0000
     21 ****        -5.2091  -2.5446  -0.0614 C.3            1 S1                 0.0000
     22 ****        -4.4606  -1.9954   1.0616 N.am           1 S1                 0.0000
     23 ****        -3.4339  -1.1335   1.0026 C.2            1 S1                 0.0000
     24 ****        -2.9245  -0.7031   2.0374 O.2            1 S1                 0.0000
     25 ****         0.0460   1.5939  -0.0116 H              1 S1                 0.0000
     26 ****         2.0993  -1.5346   0.6133 H              1 S1                 0.0000
     27 ****         4.5497  -1.3699   0.8758 H              1 S1                 0.0000
     28 ****         6.4169   2.5270  -0.4501 H              1 S1                 0.0000
     29 ****         6.1900   2.8093   1.2765 H              1 S1                 0.0000
     30 ****         2.0557   2.7353  -0.1372 H              1 S1                 0.0000
     31 ****        -1.8372   1.1289  -0.1806 H              1 S1                 0.0000
     32 ****        -2.6775  -1.5602  -0.9954 H              1 S1                 0.0000
     33 ****        -4.4209   0.8950  -0.3766 H              1 S1                 0.0000
     34 ****        -3.4993   0.7916  -1.8452 H              1 S1                 0.0000
     35 ****        -5.7194   0.0585  -2.3343 H              1 S1                 0.0000
     36 ****        -4.6335  -1.2861  -2.5206 H              1 S1                 0.0000
     37 ****        -6.5014  -0.8016  -0.1417 H              1 S1                 0.0000
     38 ****        -6.7444  -1.9392  -1.4364 H              1 S1                 0.0000
     39 ****        -5.9224  -3.2596   0.3490 H              1 S1                 0.0000
     40 ****        -4.5505  -3.1121  -0.7204 H              1 S1                 0.0000
     41 ****        -4.7715  -2.2740   1.9812 H              1 S1                 0.0000
     42 ****         0.7821  -1.8337  -0.1166 LP             1 S1                 0.0000
     43 ****        -0.8966  -2.2157  -0.3064 LP             1 S1                 0.0000
     44 ****         6.3748   0.2382  -0.0176 LP             1 S1                 0.0000
     45 ****         6.1748   0.4950   1.5826 LP             1 S1                 0.0000
     46 ****         4.3741   2.7768   0.1394 LP             1 S1                 0.0000
     47 ****        -2.1622  -0.0578   1.9885 LP             1 S1                 0.0000
     48 ****        -3.2731  -0.9988   2.9268 LP             1 S1                 0.0000
@<TRIPOS>BOND
    1    1    2 2     
    2    2    3 am    
    3    2   16 am    
    4    3    4 1     
    5    3   25 1     
    6    4   15 ar    
    7    4    5 ar    
    8    5    6 ar    
    9    5   26 1     
   10    6    7 ar    
   11    6   27 1     
   12    7    8 1     
   13    7   14 ar    
   14    8    9 1     
   15    9   10 1     
   16    9   28 1     
   17    9   29 1     
   18   10   11 1     
   19   10   12 1     
   20   10   13 1     
   21   14   15 ar    
   22   15   30 1     
   23   16   17 1     
   24   16   31 1     
   25   17   23 1     
   26   17   18 1     
   27   17   32 1     
   28   18   19 1     
   29   18   33 1     
   30   18   34 1     
   31   19   20 1     
   32   19   35 1     
   33   19   36 1     
   34   20   21 1     
   35   20   37 1     
   36   20   38 1     
   37   21   22 1     
   38   21   39 1     
   39   21   40 1     
   40   22   23 am    
   41   22   41 1     
   42   23   24 2     
   43    1   42 1     
   44    1   43 1     
   45    8   44 1     
   46    8   45 1     
   47   14   46 1     
   48   24   47 1     
   49   24   48 1     
@<TRIPOS>SUBSTRUCTURE
      1 S1             1
@<TRIPOS>SET
LONE_PAIRS      STATIC     ATOMS    <user>   **** ""
7 42 43 44 45 46 47 48
DONOR_HYDROGENS      STATIC     ATOMS    <user>   **** ""
3 25 31 41
ATOM$BLUE        STATIC     ATOMS    COLORGROUP SYSTEM
7 42 43 44 45 46 47 48
ATOM$RED        STATIC     ATOMS    COLORGROUP SYSTEM
3 25 31 41
