AV-unprocessed.smi:1609|AV-procd|sdf|6469|dock3
  -GOLD-   22720 7123D 1   1.00000     0.00000
 Structure written by MMmdl.
 40 41  0  0  0  0  0  0  0  0  3 V2000
  152.5039  140.0003  157.0764 O   0  0  0  0  0  0  0  0  0  0  0  0
  151.5228  140.6206  156.6639 C   0  0  0  0  0  0  0  0  0  0  0  0
  150.5529  139.9865  155.6563 C   0  0  0  0  0  0  0  0  0  0  0  0
  149.2624  140.6905  155.5569 N   0  0  0  0  0  0  0  0  0  0  0  0
  148.9322  141.2366  154.3027 C   0  0  0  0  0  0  0  0  0  0  0  0
  147.7845  141.8981  154.0977 C   0  0  0  0  0  0  0  0  0  0  0  0
  146.8703  142.0379  155.2046 C   0  0  0  0  0  0  0  0  0  0  0  0
  147.1672  141.5255  156.4212 C   0  0  0  0  0  0  0  0  0  0  0  0
  146.2017  141.6938  157.4836 N   0  3  0  0  0  0  0  0  0  0  0  0
  145.1157  142.2025  157.2229 O   0  0  0  0  0  0  0  0  0  0  0  0
  146.5088  141.3356  158.6169 O   0  5  0  0  0  0  0  0  0  0  0  0
  148.4424  140.8127  156.6471 C   0  0  0  0  0  0  0  0  0  0  0  0
  148.7683  140.3555  157.7444 O   0  0  0  0  0  0  0  0  0  0  0  0
  151.2206  141.8671  157.0589 N   0  0  0  0  0  0  0  0  0  0  0  0
  151.9912  142.6735  158.0028 C   0  0  0  0  0  0  0  0  0  0  0  0
  151.8588  142.0493  159.4077 C   0  0  0  0  0  0  0  0  0  0  0  0
  152.8733  142.6071  160.4201 C   0  0  0  0  0  0  0  0  0  0  0  0
  152.4338  143.8774  161.1691 C   0  0  0  0  0  0  0  0  0  0  0  0
  151.7036  144.9469  160.3383 C   0  0  0  0  0  0  0  0  0  0  0  0
  152.2020  145.1127  158.8937 C   0  0  0  0  0  0  0  0  0  0  0  0
  151.5213  144.1407  157.9143 C   0  0  0  0  0  0  0  0  0  0  0  0
  151.0461  139.9555  154.6836 H   0  0  0  0  0  0  0  0  0  0  0  0
  150.3905  138.9407  155.9245 H   0  0  0  0  0  0  0  0  0  0  0  0
  149.6716  141.0931  153.5279 H   0  0  0  0  0  0  0  0  0  0  0  0
  147.5506  142.3160  153.1296 H   0  0  0  0  0  0  0  0  0  0  0  0
  145.9340  142.5521  155.0422 H   0  0  0  0  0  0  0  0  0  0  0  0
  150.3935  142.2963  156.6697 H   0  0  0  0  0  0  0  0  0  0  0  0
  153.0433  142.6267  157.7148 H   0  0  0  0  0  0  0  0  0  0  0  0
  150.8401  142.1432  159.7866 H   0  0  0  0  0  0  0  0  0  0  0  0
  152.0451  140.9779  159.3192 H   0  0  0  0  0  0  0  0  0  0  0  0
  153.0857  141.8397  161.1653 H   0  0  0  0  0  0  0  0  0  0  0  0
  153.8253  142.7875  159.9192 H   0  0  0  0  0  0  0  0  0  0  0  0
  151.7904  143.5976  162.0041 H   0  0  0  0  0  0  0  0  0  0  0  0
  153.3201  144.3237  161.6217 H   0  0  0  0  0  0  0  0  0  0  0  0
  150.6339  144.7341  160.3293 H   0  0  0  0  0  0  0  0  0  0  0  0
  151.7999  145.9001  160.8595 H   0  0  0  0  0  0  0  0  0  0  0  0
  151.9592  146.1260  158.5717 H   0  0  0  0  0  0  0  0  0  0  0  0
  153.2885  145.0360  158.8381 H   0  0  0  0  0  0  0  0  0  0  0  0
  151.7076  144.5007  156.9015 H   0  0  0  0  0  0  0  0  0  0  0  0
  150.4396  144.1917  158.0467 H   0  0  0  0  0  0  0  0  0  0  0  0
  1  2  2  0  0  0  0
  2  3  1  0  0  0  0
  2 14  1  0  0  0  0
  3  4  1  0  0  0  0
  3 22  1  0  0  0  0
  3 23  1  0  0  0  0
  4 12  1  0  0  0  0
  4  5  1  0  0  0  0
  5  6  2  0  0  0  0
  5 24  1  0  0  0  0
  6  7  1  0  0  0  0
  6 25  1  0  0  0  0
  7  8  2  0  0  0  0
  7 26  1  0  0  0  0
  8  9  1  0  0  0  0
  8 12  1  0  0  0  0
  9 10  2  0  0  0  0
  9 11  1  0  0  0  0
 12 13  2  0  0  0  0
 14 15  1  0  0  0  0
 14 27  1  0  0  0  0
 15 21  1  0  0  0  0
 15 16  1  0  0  0  0
 15 28  1  0  0  0  0
 16 17  1  0  0  0  0
 16 29  1  0  0  0  0
 16 30  1  0  0  0  0
 17 18  1  0  0  0  0
 17 31  1  0  0  0  0
 17 32  1  0  0  0  0
 18 19  1  0  0  0  0
 18 33  1  0  0  0  0
 18 34  1  0  0  0  0
 19 20  1  0  0  0  0
 19 35  1  0  0  0  0
 19 36  1  0  0  0  0
 20 21  1  0  0  0  0
 20 37  1  0  0  0  0
 20 38  1  0  0  0  0
 21 39  1  0  0  0  0
 21 40  1  0  0  0  0
M  CHG  1   9   1
M  CHG  1  11  -1
M  END
> <s_m_source_file>
AV-unprocessed.smi

> <i_m_source_file_index>
1609

> <i_lp_mmshare_version>
43012

> <i_f3d_flags>
0

> <s_epik_input>
W0NIMl0xW0NIMl1bQ0gyXVtDSDJdW0NIMl1bQ0gyXVtDSF0xW05IXUMoPU8pW0NIMl1uMltjSF1bY0hdW2NIXWMoW04rXSg9TylbTy1dKWMyPU8=

> <s_epik_cmdline>
J2VwaWtfcHl0aG9uJywgJy1waCcsICc3LjAnLCAnLXRuJywgJzgnLCAnLW1hJywgJzIwMCcsICctbWV0YWxfYmluZGluZycsICctaW1hZScsICc8aW5maWxlLm1hZT4nLCAnLW9tYWUnLCAnPG91dGZpbGUubWFlPic=

> <r_lp_tautomer_probability>
1

> <r_epik_Ionization_Penalty>
2.03564e-08

> <r_epik_Ionization_Penalty_Charging>
1.41597e-10

> <r_epik_Ionization_Penalty_Neutral>
2.02148e-08

> <r_epik_State_Penalty>
-0

> <r_epik_Charging_Adjusted_Penalty>
1.41597e-10

> <i_epik_Tot_Q>
0

> <i_epik_Tot_abs_Q>
2

> <r_epik_Metal_State_Penalty>
-0

> <b_epik_Metal_Only>
0

> <s_lp_Force_Field>
OPLS_2005

> <r_lp_Energy>
27.8729

> <b_lp_Chiralities_Consistent>
1

> <s_lp_Variant>
AV-unprocessed.smi:1609-1

> <Gold.Version>
5.8.1

> <Gold.Id.Protein>
6NUR|6NUR_protein|mol2

> <Gold.PLP.Fitness>
49.6828

> <Gold.PLP.PLP>
-43.6106

> <Gold.PLP.part.hbond>
-2.0000

> <Gold.PLP.part.metal>
0.0000

> <Gold.PLP.part.buried>
-6.1404

> <Gold.PLP.part.nonpolar>
-36.0899

> <Gold.PLP.part.repulsive>
0.1022

> <Gold.PLP.ligand.clash>
0.0023

> <Gold.PLP.ligand.torsion>
0.3469

> <Gold.PLP.Chemscore.Hbond>
1.3775

> <Gold.PLP.Chemscore.CHOScore>
0.8668

> <Gold.PLP.Chemscore.Metal>
0.0000

> <Gold.Chemscore.Hbonds>
donor molecule, donor type, donor heavy atom, donor atom, acceptor molecule, acceptor atom, score
      P1  H  6934  6946       L1    11  0.35
      P1  H  7997  8008       L1     1  1.00
      L1  C     5    24       P1  7957  0.87

> <Gold.PLP.Chemscore.Internal.Correction>
0.0354

> <Gold.Rescore>
     Score         DG    S(hbond)    S(metal)    S(lipo)     H(rot)  DE(clash)    DE(int)     intcor
     16.93     -19.42       1.47        0.00     110.97       1.55       0.38       2.11       ----

> <Gold.Chemscore.Fitness>
16.9284

> <Gold.Chemscore.DG>
-19.4154

> <Gold.Chemscore.ZeroCoef>
-5.4800

> <Gold.Chemscore.Hbond>
1.4735

> <Gold.Chemscore.Metal>
0.0000

> <Gold.Chemscore.Lipo>
110.9679

> <Gold.Chemscore.Internal_Hbond>
0.0000

> <Gold.Chemscore.DEClash>
0.3760

> <Gold.Chemscore.DEInternal>
2.1110

> <Gold.Chemscore.Rot>
1.5505

> <Gold.Chemscore.Internal.Correction>
   9.000000E+99

> <Gold.Chemscore.Hbonds>
donor molecule, donor type, donor heavy atom, donor atom, acceptor molecule, acceptor atom, score
      P1  H  6934  6946       L1    11  0.36
      P1  H  7997  8008       L1     1  0.99

> <Gold.Chemscore.Hbond.Weighted>
-4.9213

> <Gold.Chemscore.Metal.Weighted>
-0.0000

> <Gold.Chemscore.Lipo.Weighted>
-12.9832

> <Gold.Chemscore.Internal_Hbond.Weighted>
0.0000

> <Gold.Chemscore.DEClash.Weighted>
0.3760

> <Gold.Chemscore.DEInternal.Weighted>
2.1110

> <Gold.Chemscore.Rot.Weighted>
3.9692

> <Gold.Chemscore.Internal.Correction.Weighted>
   9.000000E+99

> <Gold.Protein.RotatedTorsions>
[ 6907 6896 6895 6894 ] final -149.66 input  -60.11 | X-H torsion
[ 7974 7965 7964 7962 ] final  142.16 input  175.53 | X-H torsion
[ 8008 7997 7996 7995 ] final  -53.64 input   59.86 | X-H torsion
[ 10167 10162 10161 10158 ] final   30.74 input  -65.29 | X-H torsion
[ 10718 10713 10712 10709 ] final -119.67 input   66.30 | X-H torsion
[ 10763 10752 10751 10750 ] final   52.46 input  -60.55 | X-H torsion
[ 11005 11000 10999 10996 ] final  -87.11 input  -57.11 | X-H torsion

> <Gold.Protein.ActiveResidues>
 VAL166  LYS551  ARG553  GLY616  TRP617  ASP618  TYR619  PRO620  LYS621  CYS622 
 ASP623  PHE694  ASN695  SER759  ASP760  ASP761  ALA762  ILE779  LEU786  VAL792 
 PHE793  MET794  SER795  GLU796  ALA797  LYS798  CYS799  TRP800  GLU811  SER814 

> <Gold.Protein.RotatedAtoms>
  151.1873  133.4688  159.2594 H   0  0  0  0  0  0  0  0  0  0  0  0  # atno 6907 bound_to 6896
  151.1199  135.0073  159.8543 H   0  0  0  0  0  0  0  0  0  0  0  0  # atno 6908 bound_to 6896
  152.5455  134.1785  159.8679 H   0  0  0  0  0  0  0  0  0  0  0  0  # atno 6909 bound_to 6896
  144.9032  139.5393  143.5743 H   0  0  0  0  0  0  0  0  0  0  0  0  # atno 7974 bound_to 7965
  154.4139  140.1195  156.5186 H   0  0  0  0  0  0  0  0  0  0  0  0  # atno 8008 bound_to 7997
  155.6725  140.3496  155.4804 H   0  0  0  0  0  0  0  0  0  0  0  0  # atno 8009 bound_to 7997
  155.9620  140.1125  157.0877 H   0  0  0  0  0  0  0  0  0  0  0  0  # atno 8010 bound_to 7997
  140.4651  144.0848  150.6222 H   0  0  0  0  0  0  0  0  0  0  0  0  # atno 10167 bound_to 10162
  156.1199  130.6315  150.9446 H   0  0  0  0  0  0  0  0  0  0  0  0  # atno 10718 bound_to 10713
  152.9789  135.5811  154.4582 H   0  0  0  0  0  0  0  0  0  0  0  0  # atno 10763 bound_to 10752
  154.4162  135.2771  155.2007 H   0  0  0  0  0  0  0  0  0  0  0  0  # atno 10764 bound_to 10752
  154.3776  135.6154  153.5827 H   0  0  0  0  0  0  0  0  0  0  0  0  # atno 10765 bound_to 10752
  141.1621  133.7493  156.9259 H   0  0  0  0  0  0  0  0  0  0  0  0  # atno 11005 bound_to 11000
  146.3120  139.7780  142.9013 LP  0  0  0  0  0  0  0  0  0  0  0  0  # atno 17320 bound_to 7965
  145.3580  141.0320  143.3301 LP  0  0  0  0  0  0  0  0  0  0  0  0  # atno 17321 bound_to 7965
  140.4046  143.2687  151.9906 LP  0  0  0  0  0  0  0  0  0  0  0  0  # atno 17342 bound_to 10162
  139.4811  144.5968  151.7676 LP  0  0  0  0  0  0  0  0  0  0  0  0  # atno 17343 bound_to 10162
  157.6382  131.0913  150.8304 LP  0  0  0  0  0  0  0  0  0  0  0  0  # atno 17370 bound_to 10713
  156.8402  130.5045  149.5322 LP  0  0  0  0  0  0  0  0  0  0  0  0  # atno 17371 bound_to 10713
  140.1419  134.9288  157.2478 LP  0  0  0  0  0  0  0  0  0  0  0  0  # atno 17394 bound_to 11000
  140.2826  134.3332  155.7338 LP  0  0  0  0  0  0  0  0  0  0  0  0  # atno 17395 bound_to 11000

$$$$
