AV-unprocessed.smi:17|AV-procd|sdf|102|dock6
  -GOLD-   2262015253D 1   1.00000     0.00000
 Structure written by MMmdl.
 57 59  0  0  0  0  0  0  0  0  1 V2000
  146.3756  142.5470  154.9606 C   0  0  0  0  0  0  0  0  0  0  0  0
  147.4151  142.0805  153.9315 C   0  0  0  0  0  0  0  0  0  0  0  0
  147.8579  140.7032  154.1680 N   0  0  0  0  0  0  0  0  0  0  0  0
  146.9130  139.7414  154.3542 C   0  0  0  0  0  0  0  0  0  0  0  0
  146.4134  139.5709  155.6069 N   0  0  0  0  0  0  0  0  0  0  0  0
  145.4778  138.6492  155.8475 C   0  0  0  0  0  0  0  0  0  0  0  0
  144.9137  137.7930  154.9955 N   0  0  0  0  0  0  0  0  0  0  0  0
  145.4203  137.9414  153.7389 C   0  0  0  0  0  0  0  0  0  0  0  0
  146.4126  138.8800  153.3319 C   0  0  0  0  0  0  0  0  0  0  0  0
  146.6838  138.7103  151.9778 N   0  0  0  0  0  0  0  0  0  0  0  0
  145.8906  137.7443  151.6053 C   0  0  0  0  0  0  0  0  0  0  0  0
  145.1025  137.2190  152.6021 N   0  0  0  0  0  0  0  0  0  0  0  0
  144.1451  136.1350  152.4648 C   0  0  0  0  0  0  0  0  0  0  0  0
  144.6883  134.9465  151.6335 C   0  0  1  0  0  0  0  0  0  0  0  0
  144.5307  135.1630  150.1084 C   0  0  0  0  0  0  0  0  0  0  0  0
  143.9365  134.0421  149.4865 O   0  0  0  0  0  0  0  0  0  0  0  0
  146.1443  134.5893  152.0268 C   0  0  1  0  0  0  0  0  0  0  0  0
  146.3539  134.2897  153.5007 C   0  0  0  0  0  0  0  0  0  0  0  0
  147.6867  133.5513  153.4865 C   0  0  0  0  0  0  0  0  0  0  0  0
  147.6925  132.8079  152.2738 O   0  0  0  0  0  0  0  0  0  0  0  0
  146.6805  133.2974  151.3986 C   0  0  0  0  0  0  0  0  0  0  0  0
  149.2804  140.3753  154.3170 C   0  0  2  0  0  0  0  0  0  0  0  0
  149.5153  138.8573  154.2423 C   0  0  0  0  0  0  0  0  0  0  0  0
  149.9028  140.9829  155.5930 C   0  0  0  0  0  0  0  0  0  0  0  0
  151.3079  139.9835  156.2690 S   0  0  0  0  0  0  0  0  0  0  0  0
  151.7672  140.9080  157.7929 C   0  0  0  0  0  0  0  0  0  0  0  0
  150.7743  138.6789  156.6885 O   0  0  0  0  0  0  0  0  0  0  0  0
  152.4425  140.0432  155.3347 O   0  0  0  0  0  0  0  0  0  0  0  0
  146.0872  143.5815  154.7741 H   0  0  0  0  0  0  0  0  0  0  0  0
  146.7683  142.4908  155.9758 H   0  0  0  0  0  0  0  0  0  0  0  0
  145.4709  141.9401  154.9177 H   0  0  0  0  0  0  0  0  0  0  0  0
  147.0141  142.1832  152.9231 H   0  0  0  0  0  0  0  0  0  0  0  0
  148.2722  142.7512  153.9752 H   0  0  0  0  0  0  0  0  0  0  0  0
  145.1319  138.5888  156.8688 H   0  0  0  0  0  0  0  0  0  0  0  0
  145.8646  137.3791  150.5890 H   0  0  0  0  0  0  0  0  0  0  0  0
  143.8495  135.7987  153.4592 H   0  0  0  0  0  0  0  0  0  0  0  0
  143.2487  136.5489  152.0029 H   0  0  0  0  0  0  0  0  0  0  0  0
  144.0700  134.0827  151.8828 H   0  0  0  0  0  0  0  0  0  0  0  0
  143.9179  136.0401  149.9025 H   0  0  0  0  0  0  0  0  0  0  0  0
  145.4942  135.3555  149.6366 H   0  0  0  0  0  0  0  0  0  0  0  0
  143.0598  134.2745  149.2204 H   0  0  0  0  0  0  0  0  0  0  0  0
  146.8092  135.4096  151.7503 H   0  0  0  0  0  0  0  0  0  0  0  0
  146.3821  135.1838  154.1243 H   0  0  0  0  0  0  0  0  0  0  0  0
  145.5661  133.6343  153.8749 H   0  0  0  0  0  0  0  0  0  0  0  0
  148.5140  134.2620  153.4631 H   0  0  0  0  0  0  0  0  0  0  0  0
  147.8185  132.9054  154.3548 H   0  0  0  0  0  0  0  0  0  0  0  0
  145.8958  132.5423  151.3326 H   0  0  0  0  0  0  0  0  0  0  0  0
  147.0766  133.4585  150.3958 H   0  0  0  0  0  0  0  0  0  0  0  0
  149.8369  140.8130  153.4906 H   0  0  0  0  0  0  0  0  0  0  0  0
  150.5806  138.6260  154.2536 H   0  0  0  0  0  0  0  0  0  0  0  0
  149.1003  138.4390  153.3250 H   0  0  0  0  0  0  0  0  0  0  0  0
  149.0564  138.3370  155.0833 H   0  0  0  0  0  0  0  0  0  0  0  0
  150.2323  142.0123  155.4566 H   0  0  0  0  0  0  0  0  0  0  0  0
  149.1447  141.0038  156.3761 H   0  0  0  0  0  0  0  0  0  0  0  0
  152.5331  140.3514  158.3324 H   0  0  0  0  0  0  0  0  0  0  0  0
  150.8911  141.0241  158.4303 H   0  0  0  0  0  0  0  0  0  0  0  0
  152.1620  141.8876  157.5332 H   0  0  0  0  0  0  0  0  0  0  0  0
  1  2  1  0  0  0  0
  1 29  1  0  0  0  0
  1 30  1  0  0  0  0
  1 31  1  0  0  0  0
  2  3  1  0  0  0  0
  2 32  1  0  0  0  0
  2 33  1  0  0  0  0
  3  4  1  0  0  0  0
  3 22  1  0  0  0  0
  4  9  1  0  0  0  0
  4  5  2  0  0  0  0
  5  6  1  0  0  0  0
  6  7  2  0  0  0  0
  6 34  1  0  0  0  0
  7  8  1  0  0  0  0
  8 12  1  0  0  0  0
  8  9  2  0  0  0  0
  9 10  1  0  0  0  0
 10 11  2  0  0  0  0
 11 12  1  0  0  0  0
 11 35  1  0  0  0  0
 12 13  1  0  0  0  0
 13 14  1  0  0  0  0
 13 36  1  0  0  0  0
 13 37  1  0  0  0  0
 14 15  1  0  0  0  0
 14 17  1  0  0  0  0
 14 38  1  0  0  0  0
 15 16  1  0  0  0  0
 15 39  1  0  0  0  0
 15 40  1  0  0  0  0
 16 41  1  0  0  0  0
 17 21  1  0  0  0  0
 17 18  1  0  0  0  0
 17 42  1  0  0  0  0
 18 19  1  0  0  0  0
 18 43  1  0  0  0  0
 18 44  1  0  0  0  0
 19 20  1  0  0  0  0
 19 45  1  0  0  0  0
 19 46  1  0  0  0  0
 20 21  1  0  0  0  0
 21 47  1  0  0  0  0
 21 48  1  0  0  0  0
 22 23  1  0  0  0  0
 22 24  1  0  0  0  0
 22 49  1  0  0  0  0
 23 50  1  0  0  0  0
 23 51  1  0  0  0  0
 23 52  1  0  0  0  0
 24 25  1  0  0  0  0
 24 53  1  0  0  0  0
 24 54  1  0  0  0  0
 25 26  1  0  0  0  0
 25 27  2  0  0  0  0
 25 28  2  0  0  0  0
 26 55  1  0  0  0  0
 26 56  1  0  0  0  0
 26 57  1  0  0  0  0
M  END
> <s_m_source_file>
AV-unprocessed.smi

> <i_m_source_file_index>
17

> <i_lp_mmshare_version>
43012

> <i_f3d_flags>
0

> <s_epik_input>
W0NIM11TKD1PKSg9TylbQ0gyXVtDQEBIXShbQ0gzXSlOKFtDSDJdW0NIM10pYyhuW2NIXW4xKWMoYzEyKW5bY0hdbjJbQ0gyXVtDQEhdKFtDSDJdW09IXSlbQ0BASF0zW0NIMl1bQ0gyXU9bQ0gyXTM=

> <s_epik_cmdline>
J2VwaWtfcHl0aG9uJywgJy1waCcsICc3LjAnLCAnLXRuJywgJzgnLCAnLW1hJywgJzIwMCcsICctbWV0YWxfYmluZGluZycsICctaW1hZScsICc8aW5maWxlLm1hZT4nLCAnLW9tYWUnLCAnPG91dGZpbGUubWFlPic=

> <r_lp_tautomer_probability>
1

> <r_epik_Ionization_Penalty>
0.00119955

> <r_epik_Ionization_Penalty_Charging>
0

> <r_epik_Ionization_Penalty_Neutral>
0.00119955

> <r_epik_State_Penalty>
0.000665399

> <r_epik_Charging_Adjusted_Penalty>
0.000665399

> <i_epik_Tot_Q>
0

> <i_epik_Tot_abs_Q>
0

> <r_epik_Metal_State_Penalty>
-0

> <b_epik_Metal_Only>
0

> <s_lp_Force_Field>
OPLS_2005

> <r_lp_Energy>
33.4806

> <b_lp_Chiralities_Consistent>
1

> <s_lp_Variant>
AV-unprocessed.smi:17-4

> <Gold.Version>
5.8.1

> <Gold.Id.Protein>
6NUR|6NUR_protein|mol2

> <Gold.PLP.Fitness>
43.6416

> <Gold.PLP.PLP>
-41.0839

> <Gold.PLP.part.hbond>
-3.9775

> <Gold.PLP.part.metal>
0.0000

> <Gold.PLP.part.buried>
-0.1526

> <Gold.PLP.part.nonpolar>
-38.5459

> <Gold.PLP.part.repulsive>
0.9966

> <Gold.PLP.ligand.clash>
0.0000

> <Gold.PLP.ligand.torsion>
3.3573

> <Gold.PLP.Chemscore.Hbond>
2.4961

> <Gold.PLP.Chemscore.CHOScore>
0.3794

> <Gold.PLP.Chemscore.Metal>
0.0000

> <Gold.Chemscore.Hbonds>
donor molecule, donor type, donor heavy atom, donor atom, acceptor molecule, acceptor atom, score
      L1  H    16    41       P1 10186  0.89
      P1  H  7989  7998       L1    28  0.43
      P1  H  7997  8009       L1    28  0.91
      L1  C    11    35       P1 10171  0.39

> <Gold.PLP.Chemscore.Internal.Correction>
0.6459

> <Gold.Rescore>
     Score         DG    S(hbond)    S(metal)    S(lipo)     H(rot)  DE(clash)    DE(int)     intcor
      7.33     -12.50       2.18        0.00      74.50       3.51       0.58       4.59       ----

> <Gold.Chemscore.Fitness>
7.3301

> <Gold.Chemscore.DG>
-12.5049

> <Gold.Chemscore.ZeroCoef>
-5.4800

> <Gold.Chemscore.Hbond>
2.1808

> <Gold.Chemscore.Metal>
0.0000

> <Gold.Chemscore.Lipo>
74.4963

> <Gold.Chemscore.Internal_Hbond>
0.0000

> <Gold.Chemscore.DEClash>
0.5830

> <Gold.Chemscore.DEInternal>
4.5918

> <Gold.Chemscore.Rot>
3.5059

> <Gold.Chemscore.Internal.Correction>
   9.000000E+99

> <Gold.Chemscore.Hbonds>
donor molecule, donor type, donor heavy atom, donor atom, acceptor molecule, acceptor atom, score
      L1  H    16    41       P1 10186  0.83
      P1  H  7989  7998       L1    28  0.26
      P1  H  7997  8009       L1    28  0.86

> <Gold.Chemscore.Hbond.Weighted>
-7.2838

> <Gold.Chemscore.Metal.Weighted>
-0.0000

> <Gold.Chemscore.Lipo.Weighted>
-8.7161

> <Gold.Chemscore.Internal_Hbond.Weighted>
0.0000

> <Gold.Chemscore.DEClash.Weighted>
0.5830

> <Gold.Chemscore.DEInternal.Weighted>
4.5918

> <Gold.Chemscore.Rot.Weighted>
8.9750

> <Gold.Chemscore.Internal.Correction.Weighted>
   9.000000E+99

> <Gold.Protein.RotatedTorsions>
[ 6907 6896 6895 6894 ] final   39.16 input  -60.11 | X-H torsion
[ 7974 7965 7964 7962 ] final   88.45 input  175.53 | X-H torsion
[ 8008 7997 7996 7995 ] final -145.13 input   59.86 | X-H torsion
[ 10167 10162 10161 10158 ] final  -46.05 input  -65.29 | X-H torsion
[ 10718 10713 10712 10709 ] final  -82.04 input   66.30 | X-H torsion
[ 10763 10752 10751 10750 ] final  115.82 input  -60.55 | X-H torsion
[ 11005 11000 10999 10996 ] final  -39.94 input  -57.11 | X-H torsion

> <Gold.Protein.ActiveResidues>
 VAL166  LYS551  ARG553  GLY616  TRP617  ASP618  TYR619  PRO620  LYS621  CYS622 
 ASP623  PHE694  ASN695  SER759  ASP760  ASP761  ALA762  ILE779  LEU786  VAL792 
 PHE793  MET794  SER795  GLU796  ALA797  LYS798  CYS799  TRP800  GLU811  SER814 

> <Gold.Protein.RotatedAtoms>
  152.1660  134.8873  160.0537 H   0  0  0  0  0  0  0  0  0  0  0  0  # atno 6907 bound_to 6896
  151.9851  133.3766  159.4131 H   0  0  0  0  0  0  0  0  0  0  0  0  # atno 6908 bound_to 6896
  150.6894  134.3919  159.5124 H   0  0  0  0  0  0  0  0  0  0  0  0  # atno 6909 bound_to 6896
  145.5455  139.2291  143.2542 H   0  0  0  0  0  0  0  0  0  0  0  0  # atno 7974 bound_to 7965
  155.5381  140.0605  157.2875 H   0  0  0  0  0  0  0  0  0  0  0  0  # atno 8008 bound_to 7997
  154.4461  140.1924  156.0607 H   0  0  0  0  0  0  0  0  0  0  0  0  # atno 8009 bound_to 7997
  156.0604  140.3273  155.7459 H   0  0  0  0  0  0  0  0  0  0  0  0  # atno 8010 bound_to 7997
  140.6833  143.2849  151.3727 H   0  0  0  0  0  0  0  0  0  0  0  0  # atno 10167 bound_to 10162
  156.0040  130.4622  150.4044 H   0  0  0  0  0  0  0  0  0  0  0  0  # atno 10718 bound_to 10713
  153.5279  135.3584  155.2662 H   0  0  0  0  0  0  0  0  0  0  0  0  # atno 10763 bound_to 10752
  154.8729  135.4061  154.3185 H   0  0  0  0  0  0  0  0  0  0  0  0  # atno 10764 bound_to 10752
  153.3868  135.7070  153.6591 H   0  0  0  0  0  0  0  0  0  0  0  0  # atno 10765 bound_to 10752
  141.0139  133.6895  156.2255 H   0  0  0  0  0  0  0  0  0  0  0  0  # atno 11005 bound_to 11000
  146.1952  140.6276  142.9127 LP  0  0  0  0  0  0  0  0  0  0  0  0  # atno 17320 bound_to 7965
  144.7555  140.5298  143.6771 LP  0  0  0  0  0  0  0  0  0  0  0  0  # atno 17321 bound_to 7965
  139.6172  144.0980  152.2356 LP  0  0  0  0  0  0  0  0  0  0  0  0  # atno 17342 bound_to 10162
  140.0412  144.6006  150.7409 LP  0  0  0  0  0  0  0  0  0  0  0  0  # atno 17343 bound_to 10162
  157.2111  131.0460  151.2599 LP  0  0  0  0  0  0  0  0  0  0  0  0  # atno 17370 bound_to 10713
  157.3888  130.7271  149.6682 LP  0  0  0  0  0  0  0  0  0  0  0  0  # atno 17371 bound_to 10713
  140.6688  134.4890  157.5586 LP  0  0  0  0  0  0  0  0  0  0  0  0  # atno 17394 bound_to 11000
  139.9105  134.8354  156.1544 LP  0  0  0  0  0  0  0  0  0  0  0  0  # atno 17395 bound_to 11000

$$$$
