#       Name:                AV-unprocessed.smi:949
#       Creating user name   scv26
#       Creation time:       Fri Mar 27 02:15:32 2020


#       File generated by GOLD software.
#

@<TRIPOS>MOLECULE
AV-unprocessed.smi:949
    35    36     1
SMALL
NO_CHARGES


@<TRIPOS>ATOM
      1 ****        -1.2835  -0.7826   1.6476 C.3            1 S1                 0.0000
      2 ****        -0.7110  -0.1841   0.3491 C.3            1 S1                 0.0000
      3 ****         0.7467  -0.1886   0.3911 N.pl3          1 S1                 0.0000
      4 ****         1.4970   0.8025   1.0487 C.ar           1 S1                 0.0000
      5 ****         0.9006   1.8485   1.7926 C.ar           1 S1                 0.0000
      6 ****         1.7308   2.8000   2.4169 C.ar           1 S1                 0.0000
      7 ****         3.0771   2.7729   2.3460 N.ar           1 S1                 0.0000
      8 ****         3.6470   1.7769   1.6373 C.ar           1 S1                 0.0000
      9 ****         2.9117   0.7721   0.9736 C.ar           1 S1                 0.0000
     10 ****         3.5909  -0.2212   0.2634 N.pl3          1 S1                 0.0000
     11 ****        -1.1924  -0.9594  -0.8927 C.3            1 S1                 0.0000
     12 ****        -2.7094  -0.9816  -1.0895 C.3            1 S1                 0.0000
     13 ****        -2.8760  -1.1909  -2.5864 C.3            1 S1                 0.0000
     14 ****        -1.4978  -0.8585  -3.1636 C.3            1 S1                 0.0000
     15 ****        -0.7647  -0.3069  -2.0791 O.3            1 S1                 0.0000
     16 ****        -2.3722  -0.7339   1.6620 H              1 S1                 0.0000
     17 ****        -0.9289  -0.2490   2.5292 H              1 S1                 0.0000
     18 ****        -0.9963  -1.8287   1.7597 H              1 S1                 0.0000
     19 ****        -1.0589   0.8441   0.2477 H              1 S1                 0.0000
     20 ****         1.2332  -0.8696  -0.1736 H              1 S1                 0.0000
     21 ****        -0.1691   1.9399   1.8987 H              1 S1                 0.0000
     22 ****         1.2991   3.6069   2.9904 H              1 S1                 0.0000
     23 ****         4.7268   1.7829   1.5996 H              1 S1                 0.0000
     24 ****         3.0943  -0.9543  -0.2226 H              1 S1                 0.0000
     25 ****         4.5991  -0.2750   0.2657 H              1 S1                 0.0000
     26 ****        -0.8035  -1.9800  -0.8863 H              1 S1                 0.0000
     27 ****        -3.2007  -1.7556  -0.4991 H              1 S1                 0.0000
     28 ****        -3.1391  -0.0195  -0.8071 H              1 S1                 0.0000
     29 ****        -3.1490  -2.2213  -2.8167 H              1 S1                 0.0000
     30 ****        -3.6525  -0.5393  -2.9884 H              1 S1                 0.0000
     31 ****        -0.9988  -1.7642  -3.5111 H              1 S1                 0.0000
     32 ****        -1.5499  -0.1576  -3.9968 H              1 S1                 0.0000
     33 ****         3.6335   3.4670   2.8028 LP             1 S1                 0.0000
     34 ****         0.2140  -0.4586  -2.2174 LP             1 S1                 0.0000
     35 ****        -0.9435   0.6747  -2.0114 LP             1 S1                 0.0000
@<TRIPOS>BOND
    1    1    2 1     
    2    1   16 1     
    3    1   17 1     
    4    1   18 1     
    5    2    3 1     
    6    2   11 1     
    7    2   19 1     
    8    3    4 1     
    9    3   20 1     
   10    4    9 ar    
   11    4    5 ar    
   12    5    6 ar    
   13    5   21 1     
   14    6    7 ar    
   15    6   22 1     
   16    7    8 ar    
   17    8    9 ar    
   18    8   23 1     
   19    9   10 1     
   20   10   24 1     
   21   10   25 1     
   22   11   15 1     
   23   11   12 1     
   24   11   26 1     
   25   12   13 1     
   26   12   27 1     
   27   12   28 1     
   28   13   14 1     
   29   13   29 1     
   30   13   30 1     
   31   14   15 1     
   32   14   31 1     
   33   14   32 1     
   34    7   33 1     
   35   15   34 1     
   36   15   35 1     
@<TRIPOS>SUBSTRUCTURE
      1 S1             1
@<TRIPOS>SET
LONE_PAIRS      STATIC     ATOMS    <user>   **** ""
3 33 34 35
DONOR_HYDROGENS      STATIC     ATOMS    <user>   **** ""
3 20 24 25
ATOM$BLUE        STATIC     ATOMS    COLORGROUP SYSTEM
3 33 34 35
ATOM$RED        STATIC     ATOMS    COLORGROUP SYSTEM
3 20 24 25
