AV-unprocessed.smi:114|AV-procd|sdf|1116|dock5
  -GOLD-   2262018233D 1   1.00000     0.00000
 Structure written by MMmdl.
 32 34  0  0  0  0  0  0  0  0  1 V2000
  150.8932  132.7886  155.6040 N   0  0  0  0  0  0  0  0  0  0  0  0
  150.0211  133.7720  155.8664 C   0  0  0  0  0  0  0  0  0  0  0  0
  148.8415  133.4507  156.4480 N   0  0  0  0  0  0  0  0  0  0  0  0
  147.9415  134.4029  156.7248 C   0  0  0  0  0  0  0  0  0  0  0  0
  146.7899  133.9909  157.3047 F   0  0  0  0  0  0  0  0  0  0  0  0
  148.0509  135.7157  156.4917 N   0  0  0  0  0  0  0  0  0  0  0  0
  149.2402  136.0406  155.9074 C   0  0  0  0  0  0  0  0  0  0  0  0
  150.2744  135.1317  155.5622 C   0  0  0  0  0  0  0  0  0  0  0  0
  151.3328  135.8186  154.9828 N   0  0  0  0  0  0  0  0  0  0  0  0
  150.9391  137.0649  154.9866 C   0  0  0  0  0  0  0  0  0  0  0  0
  149.6871  137.2852  155.5235 N   0  0  0  0  0  0  0  0  0  0  0  0
  148.9311  138.5693  155.6861 C   0  0  1  0  0  0  0  0  0  0  0  0
  149.7729  139.5018  156.2966 O   0  0  0  0  0  0  0  0  0  0  0  0
  150.2489  140.4303  155.3279 C   0  0  2  0  0  0  0  0  0  0  0  0
  150.7033  141.7218  156.0241 C   0  0  0  0  0  0  0  0  0  0  0  0
  149.6743  142.2033  156.8619 O   0  0  0  0  0  0  0  0  0  0  0  0
  149.0095  140.6034  154.4504 C   0  0  1  0  0  0  0  0  0  0  0  0
  149.2929  141.2086  153.2024 O   0  0  0  0  0  0  0  0  0  0  0  0
  148.4868  139.1739  154.3322 C   0  0  1  0  0  0  0  0  0  0  0  0
  149.0156  138.4994  153.1992 O   0  0  0  0  0  0  0  0  0  0  0  0
  148.1028  138.3208  156.3509 H   0  0  0  0  0  0  0  0  0  0  0  0
  151.0581  139.9874  154.7437 H   0  0  0  0  0  0  0  0  0  0  0  0
  148.2721  141.2107  154.9776 H   0  0  0  0  0  0  0  0  0  0  0  0
  147.3986  139.1555  154.2663 H   0  0  0  0  0  0  0  0  0  0  0  0
  151.7785  133.0067  155.1692 H   0  0  0  0  0  0  0  0  0  0  0  0
  150.6645  131.8338  155.8400 H   0  0  0  0  0  0  0  0  0  0  0  0
  151.5591  137.8576  154.5941 H   0  0  0  0  0  0  0  0  0  0  0  0
  151.5716  141.5243  156.6533 H   0  0  0  0  0  0  0  0  0  0  0  0
  150.9934  142.4839  155.3003 H   0  0  0  0  0  0  0  0  0  0  0  0
  149.3750  143.0332  156.5237 H   0  0  0  0  0  0  0  0  0  0  0  0
  149.1286  140.5768  152.5191 H   0  0  0  0  0  0  0  0  0  0  0  0
  148.9731  139.0837  152.4574 H   0  0  0  0  0  0  0  0  0  0  0  0
  1  2  1  0  0  0  0
  1 25  1  0  0  0  0
  1 26  1  0  0  0  0
  2  8  1  0  0  0  0
  2  3  2  0  0  0  0
  3  4  1  0  0  0  0
  4  5  1  0  0  0  0
  4  6  2  0  0  0  0
  6  7  1  0  0  0  0
  7 11  1  0  0  0  0
  7  8  2  0  0  0  0
  8  9  1  0  0  0  0
  9 10  2  0  0  0  0
 10 11  1  0  0  0  0
 10 27  1  0  0  0  0
 11 12  1  0  0  0  0
 12 21  1  0  0  0  0
 12 19  1  0  0  0  0
 12 13  1  0  0  0  0
 13 14  1  0  0  0  0
 14 22  1  0  0  0  0
 14 15  1  0  0  0  0
 14 17  1  0  0  0  0
 15 16  1  0  0  0  0
 15 28  1  0  0  0  0
 15 29  1  0  0  0  0
 16 30  1  0  0  0  0
 17 23  1  0  0  0  0
 17 18  1  0  0  0  0
 17 19  1  0  0  0  0
 18 31  1  0  0  0  0
 19 24  1  0  0  0  0
 19 20  1  0  0  0  0
 20 32  1  0  0  0  0
M  END
> <s_m_source_file>
AV-unprocessed.smi

> <i_m_source_file_index>
114

> <i_lp_mmshare_version>
43012

> <i_f3d_flags>
0

> <s_epik_input>
RmMobjEpbmMoW05IMl0pYyhjMTIpbltjSF1uMltDQEBIXTNPW0NASF0oW0NIMl1bT0hdKVtDQEBIXShbT0hdKVtDQEBIXTNbT0hd

> <s_epik_cmdline>
J2VwaWtfcHl0aG9uJywgJy1waCcsICc3LjAnLCAnLXRuJywgJzgnLCAnLW1hJywgJzIwMCcsICctbWV0YWxfYmluZGluZycsICctaW1hZScsICc8aW5maWxlLm1hZT4nLCAnLW9tYWUnLCAnPG91dGZpbGUubWFlPic=

> <r_lp_tautomer_probability>
1

> <r_epik_Ionization_Penalty>
1.13199e-05

> <r_epik_Ionization_Penalty_Charging>
0

> <r_epik_Ionization_Penalty_Neutral>
1.13199e-05

> <r_epik_State_Penalty>
-0

> <r_epik_Charging_Adjusted_Penalty>
0

> <i_epik_Tot_Q>
0

> <i_epik_Tot_abs_Q>
0

> <r_epik_Metal_State_Penalty>
-0

> <b_epik_Metal_Only>
0

> <s_epik_Chemistry_Notes>
This compound contains an acetal/aminal-like group ( X-CH(R)-Y where X, Y are N, S, or O) that may be acid/base labile, releasing an aldehyde.

> <s_lp_Force_Field>
OPLS_2005

> <r_lp_Energy>
42.7446

> <b_lp_Chiralities_Consistent>
1

> <s_lp_Variant>
AV-unprocessed.smi:114-10

> <Gold.Version>
5.8.1

> <Gold.Id.Protein>
6NUR|6NUR_protein|mol2

> <Gold.PLP.Fitness>
38.2959

> <Gold.PLP.PLP>
-24.1258

> <Gold.PLP.part.hbond>
-6.4329

> <Gold.PLP.part.metal>
0.0000

> <Gold.PLP.part.buried>
-3.9930

> <Gold.PLP.part.nonpolar>
-14.3705

> <Gold.PLP.part.repulsive>
0.2245

> <Gold.PLP.ligand.clash>
0.2623

> <Gold.PLP.ligand.torsion>
0.1747

> <Gold.PLP.Chemscore.Hbond>
4.9026

> <Gold.PLP.Chemscore.CHOScore>
0.0000

> <Gold.PLP.Chemscore.Metal>
0.0000

> <Gold.Chemscore.Hbonds>
donor molecule, donor type, donor heavy atom, donor atom, acceptor molecule, acceptor atom, score
      L1  H    16    30       P1  8028  1.00
      L1  H    18    31       P1  7957  0.90
      L1  H    20    32       P1  7957  1.00
      P1  H  7989  7998       L1    18  0.01
      P1  H  8011  8017       L1    18  0.95
      P1  H 10752 10765       L1     9  1.00

> <Gold.PLP.Chemscore.Internal.Correction>
0.0740

> <Gold.Rescore>
     Score         DG    S(hbond)    S(metal)    S(lipo)     H(rot)  DE(clash)    DE(int)     intcor
     11.86     -13.19       4.28        0.00      31.81       4.03       0.06       1.27       ----

> <Gold.Chemscore.Fitness>
11.8568

> <Gold.Chemscore.DG>
-13.1924

> <Gold.Chemscore.ZeroCoef>
-5.4800

> <Gold.Chemscore.Hbond>
4.2818

> <Gold.Chemscore.Metal>
0.0000

> <Gold.Chemscore.Lipo>
31.8126

> <Gold.Chemscore.Internal_Hbond>
0.0000

> <Gold.Chemscore.DEClash>
0.0617

> <Gold.Chemscore.DEInternal>
1.2739

> <Gold.Chemscore.Rot>
4.0277

> <Gold.Chemscore.Internal.Correction>
   9.000000E+99

> <Gold.Chemscore.Hbonds>
donor molecule, donor type, donor heavy atom, donor atom, acceptor molecule, acceptor atom, score
      L1  H    16    30       P1  8028  0.99
      L1  H    18    31       P1  7957  0.81
      L1  H    20    32       P1  7957  0.98
      P1  H  8011  8017       L1    18  0.21
      P1  H 10752 10765       L1     9  0.88

> <Gold.Chemscore.Hbond.Weighted>
-14.3014

> <Gold.Chemscore.Metal.Weighted>
-0.0000

> <Gold.Chemscore.Lipo.Weighted>
-3.7221

> <Gold.Chemscore.Internal_Hbond.Weighted>
0.0000

> <Gold.Chemscore.DEClash.Weighted>
0.0617

> <Gold.Chemscore.DEInternal.Weighted>
1.2739

> <Gold.Chemscore.Rot.Weighted>
10.3110

> <Gold.Chemscore.Internal.Correction.Weighted>
   9.000000E+99

> <Gold.Protein.RotatedTorsions>
[ 6907 6896 6895 6894 ] final -107.36 input  -60.11 | X-H torsion
[ 7974 7965 7964 7962 ] final  108.22 input  175.53 | X-H torsion
[ 8008 7997 7996 7995 ] final   43.13 input   59.86 | X-H torsion
[ 10167 10162 10161 10158 ] final  134.54 input  -65.29 | X-H torsion
[ 10718 10713 10712 10709 ] final  174.48 input   66.30 | X-H torsion
[ 10763 10752 10751 10750 ] final  173.75 input  -60.55 | X-H torsion
[ 11005 11000 10999 10996 ] final  -11.98 input  -57.11 | X-H torsion

> <Gold.Protein.ActiveResidues>
 VAL166  LYS551  ARG553  GLY616  TRP617  ASP618  TYR619  PRO620  LYS621  CYS622 
 ASP623  PHE694  ASN695  SER759  ASP760  ASP761  ALA762  ILE779  LEU786  VAL792 
 PHE793  MET794  SER795  GLU796  ALA797  LYS798  CYS799  TRP800  GLU811  SER814 

> <Gold.Protein.RotatedAtoms>
  150.7440  133.9838  159.3584 H   0  0  0  0  0  0  0  0  0  0  0  0  # atno 6907 bound_to 6896
  151.7781  135.0767  160.0379 H   0  0  0  0  0  0  0  0  0  0  0  0  # atno 6908 bound_to 6896
  152.3293  133.5903  159.5834 H   0  0  0  0  0  0  0  0  0  0  0  0  # atno 6909 bound_to 6896
  145.2835  139.2624  143.3903 H   0  0  0  0  0  0  0  0  0  0  0  0  # atno 7974 bound_to 7965
  155.2977  140.3383  155.4249 H   0  0  0  0  0  0  0  0  0  0  0  0  # atno 8008 bound_to 7997
  156.2016  140.1735  156.7926 H   0  0  0  0  0  0  0  0  0  0  0  0  # atno 8009 bound_to 7997
  154.5567  140.0695  156.8738 H   0  0  0  0  0  0  0  0  0  0  0  0  # atno 8010 bound_to 7997
  139.5252  144.6562  151.5154 H   0  0  0  0  0  0  0  0  0  0  0  0  # atno 10167 bound_to 10162
  156.9489  131.0025  151.2953 H   0  0  0  0  0  0  0  0  0  0  0  0  # atno 10718 bound_to 10713
  154.4444  135.2763  155.1825 H   0  0  0  0  0  0  0  0  0  0  0  0  # atno 10763 bound_to 10752
  154.3678  135.6115  153.5727 H   0  0  0  0  0  0  0  0  0  0  0  0  # atno 10764 bound_to 10752
  152.9843  135.5850  154.4778 H   0  0  0  0  0  0  0  0  0  0  0  0  # atno 10765 bound_to 10752
  140.7609  133.8515  155.9124 H   0  0  0  0  0  0  0  0  0  0  0  0  # atno 11005 bound_to 11000
  146.3208  140.3308  142.8640 LP  0  0  0  0  0  0  0  0  0  0  0  0  # atno 17320 bound_to 7965
  144.9233  140.7893  143.5734 LP  0  0  0  0  0  0  0  0  0  0  0  0  # atno 17321 bound_to 7965
  140.6389  143.8929  150.6673 LP  0  0  0  0  0  0  0  0  0  0  0  0  # atno 17342 bound_to 10162
  140.2257  143.3774  152.1607 LP  0  0  0  0  0  0  0  0  0  0  0  0  # atno 17343 bound_to 10162
  157.5735  130.8327  149.8423 LP  0  0  0  0  0  0  0  0  0  0  0  0  # atno 17370 bound_to 10713
  156.0371  130.3748  150.1531 LP  0  0  0  0  0  0  0  0  0  0  0  0  # atno 17371 bound_to 10713
  140.9664  134.1589  157.4613 LP  0  0  0  0  0  0  0  0  0  0  0  0  # atno 17394 bound_to 11000
  139.8771  134.9963  156.5787 LP  0  0  0  0  0  0  0  0  0  0  0  0  # atno 17395 bound_to 11000

$$$$
