AV-unprocessed.smi:2130|AV-procd|sdf|8685|dock6
  -GOLD-   2272011433D 1   1.00000     0.00000
 Structure written by MMmdl.
 32 33  0  0  0  0  0  0  0  0  1 V2000
  148.2687  140.9892  154.3784 C   0  0  0  0  0  0  0  0  0  0  0  0
  149.4150  140.0158  154.5923 C   0  0  0  0  0  0  0  0  0  0  0  0
  149.4874  138.7778  154.0922 C   0  0  0  0  0  0  0  0  0  0  0  0
  150.9732  137.9629  154.5161 S   0  0  0  0  0  0  0  0  0  0  0  0
  151.5195  139.4157  155.4278 C   0  0  0  0  0  0  0  0  0  0  0  0
  152.6006  139.4692  156.0121 O   0  0  0  0  0  0  0  0  0  0  0  0
  150.5334  140.3987  155.3462 N   0  0  0  0  0  0  0  0  0  0  0  0
  150.6658  141.7064  156.0021 C   0  0  0  0  0  0  0  0  0  0  0  0
  150.8348  141.5992  157.5231 C   0  0  0  0  0  0  0  0  0  0  0  0
  150.5587  140.5562  158.1175 O   0  0  0  0  0  0  0  0  0  0  0  0
  151.3106  142.6933  158.1379 N   0  0  0  0  0  0  0  0  0  0  0  0
  151.5643  142.8223  159.5695 C   0  0  2  0  0  0  0  0  0  0  0  0
  151.1809  144.2338  160.0435 C   0  0  0  0  0  0  0  0  0  0  0  0
  153.0030  142.5042  159.9306 C   0  0  0  0  0  0  0  0  0  0  0  0
  153.4526  141.0819  160.1646 C   0  0  0  0  0  0  0  0  0  0  0  0
  153.3776  142.0526  161.3220 C   0  0  0  0  0  0  0  0  0  0  0  0
  147.6486  140.6674  153.5414 H   0  0  0  0  0  0  0  0  0  0  0  0
  148.6299  141.9919  154.1502 H   0  0  0  0  0  0  0  0  0  0  0  0
  147.6396  141.0353  155.2675 H   0  0  0  0  0  0  0  0  0  0  0  0
  148.7442  138.2906  153.4782 H   0  0  0  0  0  0  0  0  0  0  0  0
  151.4974  142.2765  155.5892 H   0  0  0  0  0  0  0  0  0  0  0  0
  149.7764  142.3018  155.7878 H   0  0  0  0  0  0  0  0  0  0  0  0
  151.5138  143.5024  157.5688 H   0  0  0  0  0  0  0  0  0  0  0  0
  150.9319  142.1064  160.0988 H   0  0  0  0  0  0  0  0  0  0  0  0
  151.3273  144.3384  161.1189 H   0  0  0  0  0  0  0  0  0  0  0  0
  150.1332  144.4529  159.8353 H   0  0  0  0  0  0  0  0  0  0  0  0
  151.7848  144.9964  159.5506 H   0  0  0  0  0  0  0  0  0  0  0  0
  153.7265  143.1540  159.4407 H   0  0  0  0  0  0  0  0  0  0  0  0
  152.6999  140.2973  160.1185 H   0  0  0  0  0  0  0  0  0  0  0  0
  154.4406  140.8026  159.8041 H   0  0  0  0  0  0  0  0  0  0  0  0
  154.3156  142.4198  161.7332 H   0  0  0  0  0  0  0  0  0  0  0  0
  152.5755  141.9112  162.0436 H   0  0  0  0  0  0  0  0  0  0  0  0
  1  2  1  0  0  0  0
  1 17  1  0  0  0  0
  1 18  1  0  0  0  0
  1 19  1  0  0  0  0
  2  7  1  0  0  0  0
  2  3  2  0  0  0  0
  3  4  1  0  0  0  0
  3 20  1  0  0  0  0
  4  5  1  0  0  0  0
  5  6  2  0  0  0  0
  5  7  1  0  0  0  0
  7  8  1  0  0  0  0
  8  9  1  0  0  0  0
  8 21  1  0  0  0  0
  8 22  1  0  0  0  0
  9 10  2  0  0  0  0
  9 11  1  0  0  0  0
 11 12  1  0  0  0  0
 11 23  1  0  0  0  0
 12 13  1  0  0  0  0
 12 14  1  0  0  0  0
 12 24  1  0  0  0  0
 13 25  1  0  0  0  0
 13 26  1  0  0  0  0
 13 27  1  0  0  0  0
 14 16  1  0  0  0  0
 14 15  1  0  0  0  0
 14 28  1  0  0  0  0
 15 16  1  0  0  0  0
 15 29  1  0  0  0  0
 15 30  1  0  0  0  0
 16 31  1  0  0  0  0
 16 32  1  0  0  0  0
M  END
> <s_m_source_file>
AV-unprocessed.smi

> <i_m_source_file_index>
2130

> <i_lp_mmshare_version>
43012

> <i_f3d_flags>
0

> <s_epik_input>
W0NIM11jMVtjSF1zYyg9TyluMVtDSDJdQyg9TylbTkhdW0NASF0oW0NIM10pW0NIXTJbQ0gyXVtDSDJdMg==

> <s_epik_cmdline>
J2VwaWtfcHl0aG9uJywgJy1waCcsICc3LjAnLCAnLXRuJywgJzgnLCAnLW1hJywgJzIwMCcsICctbWV0YWxfYmluZGluZycsICctaW1hZScsICc8aW5maWxlLm1hZT4nLCAnLW9tYWUnLCAnPG91dGZpbGUubWFlPic=

> <r_lp_tautomer_probability>
1

> <r_epik_Ionization_Penalty>
1.32882e-06

> <r_epik_Ionization_Penalty_Charging>
1.22222e-06

> <r_epik_Ionization_Penalty_Neutral>
1.066e-07

> <r_epik_State_Penalty>
-0

> <r_epik_Charging_Adjusted_Penalty>
1.22222e-06

> <i_epik_Tot_Q>
0

> <i_epik_Tot_abs_Q>
0

> <r_epik_Metal_State_Penalty>
-0

> <b_epik_Metal_Only>
0

> <s_lp_Force_Field>
OPLS_2005

> <r_lp_Energy>
16.6118

> <b_lp_Chiralities_Consistent>
1

> <s_lp_Variant>
AV-unprocessed.smi:2130-1

> <Gold.Version>
5.8.1

> <Gold.Id.Protein>
6NUR|6NUR_protein|mol2

> <Gold.PLP.Fitness>
45.3568

> <Gold.PLP.PLP>
-40.4530

> <Gold.PLP.part.hbond>
-1.0000

> <Gold.PLP.part.metal>
0.0000

> <Gold.PLP.part.buried>
-2.7217

> <Gold.PLP.part.nonpolar>
-35.3145

> <Gold.PLP.part.repulsive>
0.0359

> <Gold.PLP.ligand.clash>
0.0000

> <Gold.PLP.ligand.torsion>
1.0834

> <Gold.PLP.Chemscore.Hbond>
1.0000

> <Gold.PLP.Chemscore.CHOScore>
0.9982

> <Gold.PLP.Chemscore.Metal>
0.0000

> <Gold.Chemscore.Hbonds>
donor molecule, donor type, donor heavy atom, donor atom, acceptor molecule, acceptor atom, score
      P1  H  7997  8009       L1     6  1.00
      L1  C     3    20       P1  7948  0.81

> <Gold.PLP.Chemscore.Internal.Correction>
1.0761

> <Gold.Rescore>
     Score         DG    S(hbond)    S(metal)    S(lipo)     H(rot)  DE(clash)    DE(int)     intcor
     14.12     -15.16       0.99        0.00      89.40       1.59       0.00       1.03       ----

> <Gold.Chemscore.Fitness>
14.1203

> <Gold.Chemscore.DG>
-15.1572

> <Gold.Chemscore.ZeroCoef>
-5.4800

> <Gold.Chemscore.Hbond>
0.9863

> <Gold.Chemscore.Metal>
0.0000

> <Gold.Chemscore.Lipo>
89.4004

> <Gold.Chemscore.Internal_Hbond>
0.0000

> <Gold.Chemscore.DEClash>
0.0021

> <Gold.Chemscore.DEInternal>
1.0348

> <Gold.Chemscore.Rot>
1.5926

> <Gold.Chemscore.Internal.Correction>
   9.000000E+99

> <Gold.Chemscore.Hbonds>
donor molecule, donor type, donor heavy atom, donor atom, acceptor molecule, acceptor atom, score
      P1  H  7997  8009       L1     6  1.00

> <Gold.Chemscore.Hbond.Weighted>
-3.2944

> <Gold.Chemscore.Metal.Weighted>
-0.0000

> <Gold.Chemscore.Lipo.Weighted>
-10.4598

> <Gold.Chemscore.Internal_Hbond.Weighted>
0.0000

> <Gold.Chemscore.DEClash.Weighted>
0.0021

> <Gold.Chemscore.DEInternal.Weighted>
1.0348

> <Gold.Chemscore.Rot.Weighted>
4.0771

> <Gold.Chemscore.Internal.Correction.Weighted>
   9.000000E+99

> <Gold.Protein.RotatedTorsions>
[ 6907 6896 6895 6894 ] final   64.06 input  -60.11 | X-H torsion
[ 7974 7965 7964 7962 ] final   -0.17 input  175.53 | X-H torsion
[ 8008 7997 7996 7995 ] final -155.64 input   59.86 | X-H torsion
[ 10167 10162 10161 10158 ] final   42.05 input  -65.29 | X-H torsion
[ 10718 10713 10712 10709 ] final -134.64 input   66.30 | X-H torsion
[ 10763 10752 10751 10750 ] final   35.29 input  -60.55 | X-H torsion
[ 11005 11000 10999 10996 ] final -160.95 input  -57.11 | X-H torsion

> <Gold.Protein.ActiveResidues>
 VAL166  LYS551  ARG553  GLY616  TRP617  ASP618  TYR619  PRO620  LYS621  CYS622 
 ASP623  PHE694  ASN695  SER759  ASP760  ASP761  ALA762  ILE779  LEU786  VAL792 
 PHE793  MET794  SER795  GLU796  ALA797  LYS798  CYS799  TRP800  GLU811  SER814 

> <Gold.Protein.RotatedAtoms>
  152.4302  134.5792  159.9942 H   0  0  0  0  0  0  0  0  0  0  0  0  # atno 6907 bound_to 6896
  151.5918  133.3360  159.3037 H   0  0  0  0  0  0  0  0  0  0  0  0  # atno 6908 bound_to 6896
  150.8194  134.7430  159.6824 H   0  0  0  0  0  0  0  0  0  0  0  0  # atno 6909 bound_to 6896
  146.2429  140.1229  142.8340 H   0  0  0  0  0  0  0  0  0  0  0  0  # atno 7974 bound_to 7965
  155.7049  140.0771  157.2395 H   0  0  0  0  0  0  0  0  0  0  0  0  # atno 8008 bound_to 7997
  154.4067  140.1640  156.2285 H   0  0  0  0  0  0  0  0  0  0  0  0  # atno 8009 bound_to 7997
  155.9334  140.3389  155.6271 H   0  0  0  0  0  0  0  0  0  0  0  0  # atno 8010 bound_to 7997
  140.3582  144.2262  150.6140 H   0  0  0  0  0  0  0  0  0  0  0  0  # atno 10167 bound_to 10162
  156.2576  130.7190  151.1113 H   0  0  0  0  0  0  0  0  0  0  0  0  # atno 10718 bound_to 10713
  153.0126  135.6337  154.1803 H   0  0  0  0  0  0  0  0  0  0  0  0  # atno 10763 bound_to 10752
  154.1544  135.2827  155.3128 H   0  0  0  0  0  0  0  0  0  0  0  0  # atno 10764 bound_to 10752
  154.6029  135.5581  153.7453 H   0  0  0  0  0  0  0  0  0  0  0  0  # atno 10765 bound_to 10752
  140.6258  134.4703  157.5226 H   0  0  0  0  0  0  0  0  0  0  0  0  # atno 11005 bound_to 11000
  145.0391  140.8931  143.5063 LP  0  0  0  0  0  0  0  0  0  0  0  0  # atno 17320 bound_to 7965
  145.1306  139.2634  143.5541 LP  0  0  0  0  0  0  0  0  0  0  0  0  # atno 17321 bound_to 7965
  140.5152  143.2280  151.8473 LP  0  0  0  0  0  0  0  0  0  0  0  0  # atno 17342 bound_to 10162
  139.4817  144.4902  151.9195 LP  0  0  0  0  0  0  0  0  0  0  0  0  # atno 17343 bound_to 10162
  157.7238  131.0664  150.6020 LP  0  0  0  0  0  0  0  0  0  0  0  0  # atno 17370 bound_to 10713
  156.6105  130.4378  149.5861 LP  0  0  0  0  0  0  0  0  0  0  0  0  # atno 17371 bound_to 10713
  139.9135  134.8294  156.1445 LP  0  0  0  0  0  0  0  0  0  0  0  0  # atno 17394 bound_to 11000
  141.0710  133.6797  156.2141 LP  0  0  0  0  0  0  0  0  0  0  0  0  # atno 17395 bound_to 11000

$$$$
