AV-unprocessed.smi:21|AV-procd|sdf|122|dock5
  -GOLD-   2262015293D 1   1.00000     0.00000
 Structure written by MMmdl.
 62 65  0  0  0  0  0  0  0  0  2 V2000
  145.6664  132.5003  150.4908 C   0  0  0  0  0  0  0  0  0  0  0  0
  146.1425  132.0897  151.7622 O   0  0  0  0  0  0  0  0  0  0  0  0
  146.9392  133.0681  152.4133 C   0  0  2  0  0  0  0  0  0  0  0  0
  147.2012  132.6642  153.8604 C   0  0  0  0  0  0  0  0  0  0  0  0
  147.4373  133.9894  154.6095 C   0  0  1  0  0  0  0  0  0  0  0  0
  148.9239  134.2650  154.9304 C   0  0  0  0  0  0  0  0  0  0  0  0
  149.2563  134.1189  156.3485 N   0  0  0  0  0  0  0  0  0  0  0  0
  148.9241  132.8665  157.0244 C   0  0  0  0  0  0  0  0  0  0  0  0
  149.5274  135.2222  157.1032 C   0  0  0  0  0  0  0  0  0  0  0  0
  148.8307  135.4070  158.2571 N   0  0  0  0  0  0  0  0  0  0  0  0
  149.0295  136.4906  159.0118 C   0  0  0  0  0  0  0  0  0  0  0  0
  149.8655  137.5077  158.8042 N   0  0  0  0  0  0  0  0  0  0  0  0
  150.5821  137.3286  157.6592 C   0  0  0  0  0  0  0  0  0  0  0  0
  150.4864  136.2251  156.7622 C   0  0  0  0  0  0  0  0  0  0  0  0
  151.3930  136.3989  155.7206 N   0  0  0  0  0  0  0  0  0  0  0  0
  151.9760  137.5368  155.9784 C   0  0  0  0  0  0  0  0  0  0  0  0
  151.5360  138.1700  157.1166 N   0  0  0  0  0  0  0  0  0  0  0  0
  151.9872  139.4483  157.6345 C   0  0  0  0  0  0  0  0  0  0  0  0
  150.8765  140.5319  157.6744 C   0  0  2  0  0  0  0  0  0  0  0  0
  150.7214  141.2683  156.3183 C   0  0  0  0  0  0  0  0  0  0  0  0
  150.5361  140.3744  155.2391 O   0  0  0  0  0  0  0  0  0  0  0  0
  151.1431  141.5376  158.8257 C   0  0  2  0  0  0  0  0  0  0  0  0
  151.2047  142.9962  158.4010 C   0  0  0  0  0  0  0  0  0  0  0  0
  151.9222  143.6475  159.5767 C   0  0  0  0  0  0  0  0  0  0  0  0
  152.8404  142.6694  160.0469 O   0  0  0  0  0  0  0  0  0  0  0  0
  152.5118  141.3933  159.5060 C   0  0  0  0  0  0  0  0  0  0  0  0
  146.9062  135.0568  153.7258 N   0  3  2  0  0  0  0  0  0  0  0  0
  146.0784  136.0708  154.4139 C   0  0  0  0  0  0  0  0  0  0  0  0
  146.2355  134.4137  152.5784 C   0  0  0  0  0  0  0  0  0  0  0  0
  147.8946  133.1995  151.9015 H   0  0  0  0  0  0  0  0  0  0  0  0
  146.8552  133.9686  155.5322 H   0  0  0  0  0  0  0  0  0  0  0  0
  145.0913  131.6916  150.0397 H   0  0  0  0  0  0  0  0  0  0  0  0
  146.4912  132.7403  149.8188 H   0  0  0  0  0  0  0  0  0  0  0  0
  145.0132  133.3698  150.5686 H   0  0  0  0  0  0  0  0  0  0  0  0
  146.3130  132.1796  154.2689 H   0  0  0  0  0  0  0  0  0  0  0  0
  148.0213  131.9527  153.9458 H   0  0  0  0  0  0  0  0  0  0  0  0
  149.5449  133.5853  154.3458 H   0  0  0  0  0  0  0  0  0  0  0  0
  149.2129  135.2594  154.5944 H   0  0  0  0  0  0  0  0  0  0  0  0
  149.7014  132.6013  157.7420 H   0  0  0  0  0  0  0  0  0  0  0  0
  148.8394  132.0444  156.3135 H   0  0  0  0  0  0  0  0  0  0  0  0
  147.9767  132.9492  157.5579 H   0  0  0  0  0  0  0  0  0  0  0  0
  148.4282  136.5545  159.9068 H   0  0  0  0  0  0  0  0  0  0  0  0
  152.7364  137.9547  155.3350 H   0  0  0  0  0  0  0  0  0  0  0  0
  152.3849  139.2634  158.6322 H   0  0  0  0  0  0  0  0  0  0  0  0
  152.8262  139.7918  157.0280 H   0  0  0  0  0  0  0  0  0  0  0  0
  149.9291  140.0374  157.8962 H   0  0  0  0  0  0  0  0  0  0  0  0
  149.8493  141.9203  156.3209 H   0  0  0  0  0  0  0  0  0  0  0  0
  151.5849  141.9048  156.1224 H   0  0  0  0  0  0  0  0  0  0  0  0
  149.6086  140.2326  155.1254 H   0  0  0  0  0  0  0  0  0  0  0  0
  150.3657  141.4342  159.5848 H   0  0  0  0  0  0  0  0  0  0  0  0
  151.7996  143.1048  157.4927 H   0  0  0  0  0  0  0  0  0  0  0  0
  150.2241  143.4384  158.2231 H   0  0  0  0  0  0  0  0  0  0  0  0
  152.4288  144.5719  159.2989 H   0  0  0  0  0  0  0  0  0  0  0  0
  151.2150  143.8741  160.3755 H   0  0  0  0  0  0  0  0  0  0  0  0
  152.5099  140.6357  160.2899 H   0  0  0  0  0  0  0  0  0  0  0  0
  153.2801  141.1243  158.7799 H   0  0  0  0  0  0  0  0  0  0  0  0
  145.1917  135.6194  154.8611 H   0  0  0  0  0  0  0  0  0  0  0  0
  145.7552  136.8391  153.7110 H   0  0  0  0  0  0  0  0  0  0  0  0
  146.6499  136.5579  155.2040 H   0  0  0  0  0  0  0  0  0  0  0  0
  146.2905  135.0340  151.6834 H   0  0  0  0  0  0  0  0  0  0  0  0
  145.1822  134.2502  152.8136 H   0  0  0  0  0  0  0  0  0  0  0  0
  147.7135  135.5330  153.3491 H   0  0  0  0  0  0  0  0  0  0  0  0
  1  2  1  0  0  0  0
  1 32  1  0  0  0  0
  1 33  1  0  0  0  0
  1 34  1  0  0  0  0
  2  3  1  0  0  0  0
  3 30  1  0  0  0  0
  3 29  1  0  0  0  0
  3  4  1  0  0  0  0
  4  5  1  0  0  0  0
  4 35  1  0  0  0  0
  4 36  1  0  0  0  0
  5 31  1  0  0  0  0
  5  6  1  0  0  0  0
  5 27  1  0  0  0  0
  6  7  1  0  0  0  0
  6 37  1  0  0  0  0
  6 38  1  0  0  0  0
  7  8  1  0  0  0  0
  7  9  1  0  0  0  0
  8 39  1  0  0  0  0
  8 40  1  0  0  0  0
  8 41  1  0  0  0  0
  9 14  1  0  0  0  0
  9 10  2  0  0  0  0
 10 11  1  0  0  0  0
 11 12  2  0  0  0  0
 11 42  1  0  0  0  0
 12 13  1  0  0  0  0
 13 17  1  0  0  0  0
 13 14  2  0  0  0  0
 14 15  1  0  0  0  0
 15 16  2  0  0  0  0
 16 17  1  0  0  0  0
 16 43  1  0  0  0  0
 17 18  1  0  0  0  0
 18 19  1  0  0  0  0
 18 44  1  0  0  0  0
 18 45  1  0  0  0  0
 19 20  1  0  0  0  0
 19 22  1  0  0  0  0
 19 46  1  0  0  0  0
 20 21  1  0  0  0  0
 20 47  1  0  0  0  0
 20 48  1  0  0  0  0
 21 49  1  0  0  0  0
 22 26  1  0  0  0  0
 22 23  1  0  0  0  0
 22 50  1  0  0  0  0
 23 24  1  0  0  0  0
 23 51  1  0  0  0  0
 23 52  1  0  0  0  0
 24 25  1  0  0  0  0
 24 53  1  0  0  0  0
 24 54  1  0  0  0  0
 25 26  1  0  0  0  0
 26 55  1  0  0  0  0
 26 56  1  0  0  0  0
 27 28  1  0  0  0  0
 27 29  1  0  0  0  0
 27 62  1  0  0  0  0
 28 57  1  0  0  0  0
 28 58  1  0  0  0  0
 28 59  1  0  0  0  0
 29 60  1  0  0  0  0
 29 61  1  0  0  0  0
M  CHG  1  27   1
M  END
> <s_m_source_file>
AV-unprocessed.smi

> <i_m_source_file_index>
21

> <i_lp_mmshare_version>
43012

> <i_f3d_flags>
0

> <s_epik_input>
W0NIM11PW0NASF0xW0NIMl1bQ0BIXShOKFtDSDNdKVtDSDJdMSlbQ0gyXU4oW0NIM10pYyhuW2NIXW4yKWMoYzIzKW5bY0hdbjNbQ0gyXVtDQEhdKFtDSDJdW09IXSlbQ0BASF00W0NIMl1bQ0gyXU9bQ0gyXTQ=

> <s_epik_cmdline>
J2VwaWtfcHl0aG9uJywgJy1waCcsICc3LjAnLCAnLXRuJywgJzgnLCAnLW1hJywgJzIwMCcsICctbWV0YWxfYmluZGluZycsICctaW1hZScsICc8aW5maWxlLm1hZT4nLCAnLW9tYWUnLCAnPG91dGZpbGUubWFlPic=

> <r_lp_tautomer_probability>
1

> <r_epik_Ionization_Penalty>
0.0157465

> <r_epik_Ionization_Penalty_Charging>
0.015354

> <r_epik_Ionization_Penalty_Neutral>
0.000392529

> <r_epik_State_Penalty>
0.0120612

> <r_epik_Charging_Adjusted_Penalty>
0.0274152

> <i_epik_Tot_Q>
1

> <i_epik_Tot_abs_Q>
1

> <r_epik_Metal_State_Penalty>
0.0121253

> <b_epik_Metal_Only>
0

> <s_lp_Force_Field>
OPLS_2005

> <r_lp_Energy>
59.339

> <b_lp_Chiralities_Consistent>
1

> <s_lp_Variant>
AV-unprocessed.smi:21-2

> <Gold.Version>
5.8.1

> <Gold.Id.Protein>
6NUR|6NUR_protein|mol2

> <Gold.PLP.Fitness>
50.4749

> <Gold.PLP.PLP>
-43.2357

> <Gold.PLP.part.hbond>
-4.0000

> <Gold.PLP.part.metal>
0.0000

> <Gold.PLP.part.buried>
-6.2856

> <Gold.PLP.part.nonpolar>
-34.5469

> <Gold.PLP.part.repulsive>
0.4768

> <Gold.PLP.ligand.clash>
0.0455

> <Gold.PLP.ligand.torsion>
3.3149

> <Gold.PLP.Chemscore.Hbond>
4.3818

> <Gold.PLP.Chemscore.CHOScore>
0.0000

> <Gold.PLP.Chemscore.Metal>
0.0000

> <Gold.Chemscore.Hbonds>
donor molecule, donor type, donor heavy atom, donor atom, acceptor molecule, acceptor atom, score
      L1  H    27    62       P1  7948  1.92
      P1  H  6896  6909       L1    10  0.01
      P1  H  7989  7998       L1    21  0.80
      P1  H 10752 10763       L1    15  0.79

> <Gold.PLP.Chemscore.Internal.Correction>
0.7691

> <Gold.Rescore>
     Score         DG    S(hbond)    S(metal)    S(lipo)     H(rot)  DE(clash)    DE(int)     intcor
     15.18     -18.27       2.70        0.00      99.61       3.08       0.05       3.04       ----

> <Gold.Chemscore.Fitness>
15.1760

> <Gold.Chemscore.DG>
-18.2732

> <Gold.Chemscore.ZeroCoef>
-5.4800

> <Gold.Chemscore.Hbond>
2.6984

> <Gold.Chemscore.Metal>
0.0000

> <Gold.Chemscore.Lipo>
99.6121

> <Gold.Chemscore.Internal_Hbond>
0.0000

> <Gold.Chemscore.DEClash>
0.0549

> <Gold.Chemscore.DEInternal>
3.0423

> <Gold.Chemscore.Rot>
3.0758

> <Gold.Chemscore.Internal.Correction>
   9.000000E+99

> <Gold.Chemscore.Hbonds>
donor molecule, donor type, donor heavy atom, donor atom, acceptor molecule, acceptor atom, score
      L1  H    27    62       P1  7948  0.89
      P1  H  7989  7998       L1    21  0.62
      P1  H 10752 10763       L1    15  0.11

> <Gold.Chemscore.Hbond.Weighted>
-9.0127

> <Gold.Chemscore.Metal.Weighted>
-0.0000

> <Gold.Chemscore.Lipo.Weighted>
-11.6546

> <Gold.Chemscore.Internal_Hbond.Weighted>
0.0000

> <Gold.Chemscore.DEClash.Weighted>
0.0549

> <Gold.Chemscore.DEInternal.Weighted>
3.0423

> <Gold.Chemscore.Rot.Weighted>
7.8741

> <Gold.Chemscore.Internal.Correction.Weighted>
   9.000000E+99

> <Gold.Protein.RotatedTorsions>
[ 6907 6896 6895 6894 ] final   34.66 input  -60.11 | X-H torsion
[ 7974 7965 7964 7962 ] final  -22.49 input  175.53 | X-H torsion
[ 8008 7997 7996 7995 ] final -128.22 input   59.86 | X-H torsion
[ 10167 10162 10161 10158 ] final -148.85 input  -65.29 | X-H torsion
[ 10718 10713 10712 10709 ] final -120.60 input   66.30 | X-H torsion
[ 10763 10752 10751 10750 ] final   73.92 input  -60.55 | X-H torsion
[ 11005 11000 10999 10996 ] final    1.67 input  -57.11 | X-H torsion

> <Gold.Protein.ActiveResidues>
 VAL166  LYS551  ARG553  GLY616  TRP617  ASP618  TYR619  PRO620  LYS621  CYS622 
 ASP623  PHE694  ASN695  SER759  ASP760  ASP761  ALA762  ILE779  LEU786  VAL792 
 PHE793  MET794  SER795  GLU796  ALA797  LYS798  CYS799  TRP800  GLU811  SER814 

> <Gold.Protein.RotatedAtoms>
  152.1054  134.9312  160.0568 H   0  0  0  0  0  0  0  0  0  0  0  0  # atno 6907 bound_to 6896
  152.0510  133.4014  159.4385 H   0  0  0  0  0  0  0  0  0  0  0  0  # atno 6908 bound_to 6896
  150.6841  134.3228  159.4837 H   0  0  0  0  0  0  0  0  0  0  0  0  # atno 6909 bound_to 6896
  146.1673  140.4486  142.8547 H   0  0  0  0  0  0  0  0  0  0  0  0  # atno 7974 bound_to 7965
  155.2591  140.0435  157.2995 H   0  0  0  0  0  0  0  0  0  0  0  0  # atno 8008 bound_to 7997
  154.5722  140.2377  155.8145 H   0  0  0  0  0  0  0  0  0  0  0  0  # atno 8009 bound_to 7997
  156.2131  140.2993  155.9785 H   0  0  0  0  0  0  0  0  0  0  0  0  # atno 8010 bound_to 7997
  139.7495  143.8540  152.2583 H   0  0  0  0  0  0  0  0  0  0  0  0  # atno 10167 bound_to 10162
  156.1271  130.6367  150.9560 H   0  0  0  0  0  0  0  0  0  0  0  0  # atno 10718 bound_to 10713
  153.0553  135.5045  154.7966 H   0  0  0  0  0  0  0  0  0  0  0  0  # atno 10763 bound_to 10752
  154.6797  135.2966  154.9633 H   0  0  0  0  0  0  0  0  0  0  0  0  # atno 10764 bound_to 10752
  154.0423  135.6715  153.4844 H   0  0  0  0  0  0  0  0  0  0  0  0  # atno 10765 bound_to 10752
  140.6129  133.9732  155.8186 H   0  0  0  0  0  0  0  0  0  0  0  0  # atno 11005 bound_to 11000
  144.8110  140.6386  143.6415 LP  0  0  0  0  0  0  0  0  0  0  0  0  # atno 17320 bound_to 7965
  145.4435  139.1532  143.3957 LP  0  0  0  0  0  0  0  0  0  0  0  0  # atno 17321 bound_to 7965
  139.8514  144.7162  150.9210 LP  0  0  0  0  0  0  0  0  0  0  0  0  # atno 17342 bound_to 10162
  140.7796  143.3896  151.1333 LP  0  0  0  0  0  0  0  0  0  0  0  0  # atno 17343 bound_to 10162
  157.6452  131.0905  150.8169 LP  0  0  0  0  0  0  0  0  0  0  0  0  # atno 17370 bound_to 10713
  156.8258  130.4999  149.5337 LP  0  0  0  0  0  0  0  0  0  0  0  0  # atno 17371 bound_to 10713
  141.0796  134.0083  157.3406 LP  0  0  0  0  0  0  0  0  0  0  0  0  # atno 17394 bound_to 11000
  139.9185  135.0199  156.7973 LP  0  0  0  0  0  0  0  0  0  0  0  0  # atno 17395 bound_to 11000

$$$$
