#       Name:                AV-unprocessed.smi:3228
#       Creating user name   scv26
#       Creation time:       Fri Mar 27 18:17:22 2020


#       File generated by GOLD software.
#

@<TRIPOS>MOLECULE
AV-unprocessed.smi:3228
    36    37     1
SMALL
NO_CHARGES


@<TRIPOS>ATOM
      1 ****        -0.7103   2.5192   0.0204 O.2            1 S1                 0.0000
      2 ****        -1.2324   1.4259   0.2504 C.2            1 S1                 0.0000
      3 ****        -0.4752   0.3218   0.2912 N.am           1 S1                 0.0000
      4 ****         0.9662   0.2844   0.0776 C.3            1 S1                 0.0000
      5 ****         1.5092  -1.1496   0.2242 C.3            1 S1                 0.0000
      6 ****         0.9480  -2.1648  -0.7806 C.3            1 S1                 0.0000
      7 ****         1.9803  -3.3009  -0.8462 C.3            1 S1                 0.0000
      8 ****         3.2316  -2.8009  -0.1065 C.3            1 S1                 0.0000
      9 ****         3.0322  -1.2944   0.0913 C.3            1 S1                 0.0000
     10 ****         3.5228  -0.6129  -1.0485 O.3            1 S1                 0.0000
     11 ****        -2.5459   1.1953   0.4765 N.pl3          1 S1                -1.0000
     12 ****        -3.4198   2.2149   0.4594 C.2            1 S1                 0.0000
     13 ****        -3.8831   2.7973   1.5714 N.2            1 S1                 0.0000
     14 ****        -4.7871   3.8313   1.3214 C.2            1 S1                 0.0000
     15 ****        -5.0243   4.0356  -0.0118 C.2            1 S1                 0.0000
     16 ****        -4.1142   2.9280  -0.9993 S.3            1 S1                 0.0000
     17 ****        -0.9367  -0.5556   0.4813 H              1 S1                 0.0000
     18 ****         1.1863   0.6800  -0.9150 H              1 S1                 0.0000
     19 ****         1.4534   0.9396   0.8013 H              1 S1                 0.0000
     20 ****         1.2450  -1.5038   1.2225 H              1 S1                 0.0000
     21 ****        -0.0415  -2.5223  -0.4939 H              1 S1                 0.0000
     22 ****         0.8548  -1.7025  -1.7644 H              1 S1                 0.0000
     23 ****         1.5983  -4.2096  -0.3798 H              1 S1                 0.0000
     24 ****         2.2109  -3.5408  -1.8846 H              1 S1                 0.0000
     25 ****         3.2821  -3.2841   0.8702 H              1 S1                 0.0000
     26 ****         4.1564  -3.0441  -0.6316 H              1 S1                 0.0000
     27 ****         3.5556  -0.9266   0.9744 H              1 S1                 0.0000
     28 ****         3.3268   0.3069  -0.9540 H              1 S1                 0.0000
     29 ****        -5.2149   4.3689   2.1543 H              1 S1                 0.0000
     30 ****        -5.6751   4.7638  -0.4715 H              1 S1                 0.0000
     31 ****         0.2757   2.5796  -0.1350 LP             1 S1                 0.0000
     32 ****        -1.2729   3.3453  -0.0107 LP             1 S1                 0.0000
     33 ****         3.0806  -0.9695  -1.8714 LP             1 S1                 0.0000
     34 ****         4.5120  -0.7418  -1.1192 LP             1 S1                 0.0000
     35 ****        -2.8663   0.2653   0.6564 LP             1 S1                 0.0000
     36 ****        -3.6085   2.5190   2.4918 LP             1 S1                 0.0000
@<TRIPOS>BOND
    1    1    2 2     
    2    2    3 am    
    3    2   11 1     
    4    3    4 1     
    5    3   17 1     
    6    4    5 1     
    7    4   18 1     
    8    4   19 1     
    9    5    9 1     
   10    5    6 1     
   11    5   20 1     
   12    6    7 1     
   13    6   21 1     
   14    6   22 1     
   15    7    8 1     
   16    7   23 1     
   17    7   24 1     
   18    8    9 1     
   19    8   25 1     
   20    8   26 1     
   21    9   10 1     
   22    9   27 1     
   23   10   28 1     
   24   11   12 1     
   25   12   16 1     
   26   12   13 2     
   27   13   14 1     
   28   14   15 2     
   29   14   29 1     
   30   15   16 1     
   31   15   30 1     
   32    1   31 1     
   33    1   32 1     
   34   10   33 1     
   35   10   34 1     
   36   11   35 1     
   37   13   36 1     
@<TRIPOS>SUBSTRUCTURE
      1 S1             1
@<TRIPOS>SET
LONE_PAIRS      STATIC     ATOMS    <user>   **** ""
6 31 32 33 34 35 36
DONOR_HYDROGENS      STATIC     ATOMS    <user>   **** ""
2 17 28
ATOM$BLUE        STATIC     ATOMS    COLORGROUP SYSTEM
6 31 32 33 34 35 36
ATOM$RED        STATIC     ATOMS    COLORGROUP SYSTEM
2 17 28
