AV-unprocessed.smi:512|AV-procd|sdf|2769|dock6
  -GOLD-   2262023233D 1   1.00000     0.00000
 Structure written by MMmdl.
 48 50  0  0  0  0  0  0  0  0  1 V2000
  154.2794  135.8729  158.1477 C   0  0  0  0  0  0  0  0  0  0  0  0
  152.9313  136.5170  157.8169 C   0  0  0  0  0  0  0  0  0  0  0  0
  153.1688  137.7228  157.1136 O   0  0  0  0  0  0  0  0  0  0  0  0
  151.9834  138.4557  156.8515 C   0  0  0  0  0  0  0  0  0  0  0  0
  152.3446  139.7915  156.1872 C   0  0  0  0  0  0  0  0  0  0  0  0
  151.1503  140.5348  155.7890 N   0  0  0  0  0  0  0  0  0  0  0  0
  150.7167  141.7441  156.2390 C   0  0  0  0  0  0  0  0  0  0  0  0
  151.4341  142.4915  157.1730 N   0  0  0  0  0  0  0  0  0  0  0  0
  152.2151  141.9833  158.2982 C   0  0  0  0  0  0  0  0  0  0  0  0
  151.8603  142.7314  159.5981 C   0  0  0  0  0  0  0  0  0  0  0  0
  152.1751  144.1505  159.4367 N   0  0  0  0  0  0  0  0  0  0  0  0
  151.8356  144.8694  160.6557 C   0  0  0  0  0  0  0  0  0  0  0  0
  151.3954  144.6812  158.3182 C   0  0  0  0  0  0  0  0  0  0  0  0
  151.7478  143.9100  157.0303 C   0  0  0  0  0  0  0  0  0  0  0  0
  149.5304  142.1249  155.7578 N   0  0  0  0  0  0  0  0  0  0  0  0
  149.1875  141.0848  154.9083 C   0  0  0  0  0  0  0  0  0  0  0  0
  150.1400  140.1174  154.9185 C   0  0  0  0  0  0  0  0  0  0  0  0
  150.0039  138.8744  154.1444 C   0  0  0  0  0  0  0  0  0  0  0  0
  150.8419  137.9756  154.1446 O   0  0  0  0  0  0  0  0  0  0  0  0
  148.8518  138.8131  153.4338 N   0  0  0  0  0  0  0  0  0  0  0  0
  147.8577  139.7506  153.3781 C   0  0  0  0  0  0  0  0  0  0  0  0
  146.8574  139.5459  152.6907 O   0  0  0  0  0  0  0  0  0  0  0  0
  148.0235  140.8987  154.1093 N   0  0  0  0  0  0  0  0  0  0  0  0
  146.9901  141.9358  154.0929 C   0  0  0  0  0  0  0  0  0  0  0  0
  148.7076  137.9767  152.8870 H   0  0  0  0  0  0  0  0  0  0  0  0
  154.1422  134.9339  158.6840 H   0  0  0  0  0  0  0  0  0  0  0  0
  154.8836  136.5312  158.7727 H   0  0  0  0  0  0  0  0  0  0  0  0
  154.8446  135.6611  157.2397 H   0  0  0  0  0  0  0  0  0  0  0  0
  152.3330  135.8376  157.2079 H   0  0  0  0  0  0  0  0  0  0  0  0
  152.3767  136.7177  158.7345 H   0  0  0  0  0  0  0  0  0  0  0  0
  151.3279  137.8820  156.1947 H   0  0  0  0  0  0  0  0  0  0  0  0
  151.4403  138.6348  157.7802 H   0  0  0  0  0  0  0  0  0  0  0  0
  152.9525  140.3882  156.8605 H   0  0  0  0  0  0  0  0  0  0  0  0
  152.9782  139.6234  155.3192 H   0  0  0  0  0  0  0  0  0  0  0  0
  152.0618  140.9113  158.4141 H   0  0  0  0  0  0  0  0  0  0  0  0
  153.2767  142.1040  158.0775 H   0  0  0  0  0  0  0  0  0  0  0  0
  150.8055  142.5976  159.8433 H   0  0  0  0  0  0  0  0  0  0  0  0
  152.4390  142.3230  160.4274 H   0  0  0  0  0  0  0  0  0  0  0  0
  152.0662  145.9301  160.5503 H   0  0  0  0  0  0  0  0  0  0  0  0
  152.4121  144.4861  161.4984 H   0  0  0  0  0  0  0  0  0  0  0  0
  150.7754  144.7718  160.8942 H   0  0  0  0  0  0  0  0  0  0  0  0
  150.3266  144.6037  158.5257 H   0  0  0  0  0  0  0  0  0  0  0  0
  151.6224  145.7399  158.1864 H   0  0  0  0  0  0  0  0  0  0  0  0
  152.8035  144.0325  156.7837 H   0  0  0  0  0  0  0  0  0  0  0  0
  151.1819  144.3231  156.1945 H   0  0  0  0  0  0  0  0  0  0  0  0
  146.6937  142.1791  153.0712 H   0  0  0  0  0  0  0  0  0  0  0  0
  147.3246  142.8639  154.5565 H   0  0  0  0  0  0  0  0  0  0  0  0
  146.1055  141.5952  154.6321 H   0  0  0  0  0  0  0  0  0  0  0  0
  1  2  1  0  0  0  0
  1 26  1  0  0  0  0
  1 27  1  0  0  0  0
  1 28  1  0  0  0  0
  2  3  1  0  0  0  0
  2 29  1  0  0  0  0
  2 30  1  0  0  0  0
  3  4  1  0  0  0  0
  4  5  1  0  0  0  0
  4 31  1  0  0  0  0
  4 32  1  0  0  0  0
  5  6  1  0  0  0  0
  5 33  1  0  0  0  0
  5 34  1  0  0  0  0
  6 17  1  0  0  0  0
  6  7  1  0  0  0  0
  7  8  1  0  0  0  0
  7 15  2  0  0  0  0
  8 14  1  0  0  0  0
  8  9  1  0  0  0  0
  9 10  1  0  0  0  0
  9 35  1  0  0  0  0
  9 36  1  0  0  0  0
 10 11  1  0  0  0  0
 10 37  1  0  0  0  0
 10 38  1  0  0  0  0
 11 12  1  0  0  0  0
 11 13  1  0  0  0  0
 12 39  1  0  0  0  0
 12 40  1  0  0  0  0
 12 41  1  0  0  0  0
 13 14  1  0  0  0  0
 13 42  1  0  0  0  0
 13 43  1  0  0  0  0
 14 44  1  0  0  0  0
 14 45  1  0  0  0  0
 15 16  1  0  0  0  0
 16 23  1  0  0  0  0
 16 17  2  0  0  0  0
 17 18  1  0  0  0  0
 18 19  2  0  0  0  0
 18 20  1  0  0  0  0
 20 25  1  0  0  0  0
 20 21  1  0  0  0  0
 21 22  2  0  0  0  0
 21 23  1  0  0  0  0
 23 24  1  0  0  0  0
 24 46  1  0  0  0  0
 24 47  1  0  0  0  0
 24 48  1  0  0  0  0
M  END
> <s_m_source_file>
AV-unprocessed.smi

> <i_m_source_file_index>
512

> <i_lp_mmshare_version>
43012

> <i_f3d_flags>
0

> <s_epik_input>
W0NIM11uMWMoPU8pW25IXWMoPU8pYyhjMTIpbihbQ0gyXVtDSDJdT1tDSDJdW0NIM10pYyhuMilOM1tDSDJdW0NIMl1OKFtDSDNdKVtDSDJdW0NIMl0z

> <s_epik_cmdline>
J2VwaWtfcHl0aG9uJywgJy1waCcsICc3LjAnLCAnLXRuJywgJzgnLCAnLW1hJywgJzIwMCcsICctbWV0YWxfYmluZGluZycsICctaW1hZScsICc8aW5maWxlLm1hZT4nLCAnLW9tYWUnLCAnPG91dGZpbGUubWFlPic=

> <r_epik_Ionization_Penalty>
1.34391

> <r_epik_Ionization_Penalty_Charging>
1.55829e-05

> <r_epik_Ionization_Penalty_Neutral>
1.34389

> <r_epik_State_Penalty>
1.4212

> <r_epik_Charging_Adjusted_Penalty>
1.42122

> <i_epik_Tot_Q>
0

> <i_epik_Tot_abs_Q>
0

> <r_epik_Metal_State_Penalty>
1.44738

> <b_epik_Metal_Only>
0

> <s_lp_Force_Field>
OPLS_2005

> <r_lp_Energy>
48.5788

> <b_lp_Chiralities_Consistent>
1

> <s_lp_Variant>
AV-unprocessed.smi:512-2

> <Gold.Version>
5.8.1

> <Gold.Id.Protein>
6NUR|6NUR_protein|mol2

> <Gold.PLP.Fitness>
43.4301

> <Gold.PLP.PLP>
-41.4377

> <Gold.PLP.part.hbond>
-2.0000

> <Gold.PLP.part.metal>
0.0000

> <Gold.PLP.part.buried>
-3.7096

> <Gold.PLP.part.nonpolar>
-37.9263

> <Gold.PLP.part.repulsive>
3.0698

> <Gold.PLP.ligand.clash>
0.0000

> <Gold.PLP.ligand.torsion>
0.7404

> <Gold.PLP.Chemscore.Hbond>
1.0000

> <Gold.PLP.Chemscore.CHOScore>
0.0000

> <Gold.PLP.Chemscore.Metal>
0.0000

> <Gold.Chemscore.Hbonds>
donor molecule, donor type, donor heavy atom, donor atom, acceptor molecule, acceptor atom, score
      L1  H    20    25       P1  7948  1.00

> <Gold.PLP.Chemscore.Internal.Correction>
0.4733

> <Gold.Rescore>
     Score         DG    S(hbond)    S(metal)    S(lipo)     H(rot)  DE(clash)    DE(int)     intcor
     12.77     -13.88       1.00        0.00      79.13       1.63       0.15       0.96       ----

> <Gold.Chemscore.Fitness>
12.7725

> <Gold.Chemscore.DG>
-13.8834

> <Gold.Chemscore.ZeroCoef>
-5.4800

> <Gold.Chemscore.Hbond>
0.9957

> <Gold.Chemscore.Metal>
0.0000

> <Gold.Chemscore.Lipo>
79.1255

> <Gold.Chemscore.Internal_Hbond>
0.0000

> <Gold.Chemscore.DEClash>
0.1496

> <Gold.Chemscore.DEInternal>
0.9613

> <Gold.Chemscore.Rot>
1.6328

> <Gold.Chemscore.Internal.Correction>
   9.000000E+99

> <Gold.Chemscore.Hbonds>
donor molecule, donor type, donor heavy atom, donor atom, acceptor molecule, acceptor atom, score
      L1  H    20    25       P1  7948  0.94

> <Gold.Chemscore.Hbond.Weighted>
-3.3257

> <Gold.Chemscore.Metal.Weighted>
-0.0000

> <Gold.Chemscore.Lipo.Weighted>
-9.2577

> <Gold.Chemscore.Internal_Hbond.Weighted>
0.0000

> <Gold.Chemscore.DEClash.Weighted>
0.1496

> <Gold.Chemscore.DEInternal.Weighted>
0.9613

> <Gold.Chemscore.Rot.Weighted>
4.1800

> <Gold.Chemscore.Internal.Correction.Weighted>
   9.000000E+99

> <Gold.Protein.RotatedTorsions>
[ 6907 6896 6895 6894 ] final   20.84 input  -60.11 | X-H torsion
[ 7974 7965 7964 7962 ] final   82.82 input  175.53 | X-H torsion
[ 8008 7997 7996 7995 ] final   61.55 input   59.86 | X-H torsion
[ 10167 10162 10161 10158 ] final  143.23 input  -65.29 | X-H torsion
[ 10718 10713 10712 10709 ] final -135.02 input   66.30 | X-H torsion
[ 10763 10752 10751 10750 ] final   -7.79 input  -60.55 | X-H torsion
[ 11005 11000 10999 10996 ] final  154.27 input  -57.11 | X-H torsion

> <Gold.Protein.ActiveResidues>
 VAL166  LYS551  ARG553  GLY616  TRP617  ASP618  TYR619  PRO620  LYS621  CYS622 
 ASP623  PHE694  ASN695  SER759  ASP760  ASP761  ALA762  ILE779  LEU786  VAL792 
 PHE793  MET794  SER795  GLU796  ALA797  LYS798  CYS799  TRP800  GLU811  SER814 

> <Gold.Protein.RotatedAtoms>
  151.9026  135.0372  160.0507 H   0  0  0  0  0  0  0  0  0  0  0  0  # atno 6907 bound_to 6896
  152.2345  133.5081  159.5243 H   0  0  0  0  0  0  0  0  0  0  0  0  # atno 6908 bound_to 6896
  150.7035  134.1088  159.4035 H   0  0  0  0  0  0  0  0  0  0  0  0  # atno 6909 bound_to 6896
  145.6200  139.2384  143.2144 H   0  0  0  0  0  0  0  0  0  0  0  0  # atno 7974 bound_to 7965
  155.6001  140.3494  155.4591 H   0  0  0  0  0  0  0  0  0  0  0  0  # atno 8008 bound_to 7997
  156.0235  140.1259  157.0358 H   0  0  0  0  0  0  0  0  0  0  0  0  # atno 8009 bound_to 7997
  154.4324  140.1058  156.5983 H   0  0  0  0  0  0  0  0  0  0  0  0  # atno 8010 bound_to 7997
  139.4975  144.6054  151.6389 H   0  0  0  0  0  0  0  0  0  0  0  0  # atno 10167 bound_to 10162
  156.2617  130.7214  151.1150 H   0  0  0  0  0  0  0  0  0  0  0  0  # atno 10718 bound_to 10713
  153.4313  135.7012  153.6229 H   0  0  0  0  0  0  0  0  0  0  0  0  # atno 10763 bound_to 10752
  153.4642  135.3729  155.2356 H   0  0  0  0  0  0  0  0  0  0  0  0  # atno 10764 bound_to 10752
  154.8725  135.4027  154.3697 H   0  0  0  0  0  0  0  0  0  0  0  0  # atno 10765 bound_to 10752
  140.1474  134.8698  157.2410 H   0  0  0  0  0  0  0  0  0  0  0  0  # atno 11005 bound_to 11000
  146.1438  140.7021  142.9354 LP  0  0  0  0  0  0  0  0  0  0  0  0  # atno 17320 bound_to 7965
  144.7235  140.4450  143.6990 LP  0  0  0  0  0  0  0  0  0  0  0  0  # atno 17321 bound_to 7965
  140.5715  144.0101  150.6219 LP  0  0  0  0  0  0  0  0  0  0  0  0  # atno 17342 bound_to 10162
  140.3220  143.3131  152.0774 LP  0  0  0  0  0  0  0  0  0  0  0  0  # atno 17343 bound_to 10162
  157.7253  131.0654  150.5959 LP  0  0  0  0  0  0  0  0  0  0  0  0  # atno 17370 bound_to 10713
  156.6047  130.4364  149.5883 LP  0  0  0  0  0  0  0  0  0  0  0  0  # atno 17371 bound_to 10713
  140.2647  134.3530  155.7394 LP  0  0  0  0  0  0  0  0  0  0  0  0  # atno 17394 bound_to 11000
  141.2194  133.7389  156.9133 LP  0  0  0  0  0  0  0  0  0  0  0  0  # atno 17395 bound_to 11000

$$$$
