#       Name:                AV-unprocessed.smi:1553
#       Creating user name   scv26
#       Creation time:       Fri Mar 27 06:42:08 2020


#       File generated by GOLD software.
#

@<TRIPOS>MOLECULE
AV-unprocessed.smi:1553
    42    43     1
SMALL
NO_CHARGES


@<TRIPOS>ATOM
      1 ****        -2.8651   2.1800   2.6029 C.3            1 S1                 0.0000
      2 ****        -2.6219   1.1198   1.5848 C.2            1 S1                 0.0000
      3 ****        -2.3638  -0.1539   1.8914 N.2            1 S1                 0.0000
      4 ****        -2.1550  -0.9475   0.7596 C.2            1 S1                 0.0000
      5 ****        -1.7865  -2.3951   0.9158 C.3            1 S1                 0.0000
      6 ****        -0.3163  -2.6150   1.3273 C.3            1 S1                 0.0000
      7 ****         0.6108  -1.9426   0.4186 N.am           1 S1                 0.0000
      8 ****         1.1727  -0.7357   0.6185 C.2            1 S1                 0.0000
      9 ****         1.0285  -0.1306   1.6801 O.2            1 S1                 0.0000
     10 ****         1.7941  -0.2223  -0.4793 N.am           1 S1                 0.0000
     11 ****         2.1990  -1.0211  -1.6491 C.3            1 S1                 0.0000
     12 ****         1.2994  -0.6262  -2.8311 C.3            1 S1                 0.0000
     13 ****         1.4672   0.7628  -3.0981 O.3            1 S1                 0.0000
     14 ****         1.1695   1.5923  -1.9772 C.3            1 S1                 0.0000
     15 ****         2.0561   1.2072  -0.7719 C.3            1 S1                 0.0000
     16 ****         1.8609   2.2173   0.3780 C.3            1 S1                 0.0000
     17 ****        -2.2850  -0.2547  -0.4188 C.2            1 S1                 0.0000
     18 ****        -2.6428   1.4276  -0.1469 S.3            1 S1                 0.0000
     19 ****        -2.6371   1.8114   3.6035 H              1 S1                 0.0000
     20 ****        -3.9091   2.4919   2.5732 H              1 S1                 0.0000
     21 ****        -2.2339   3.0447   2.3978 H              1 S1                 0.0000
     22 ****        -2.4381  -2.8684   1.6510 H              1 S1                 0.0000
     23 ****        -1.9723  -2.9210  -0.0213 H              1 S1                 0.0000
     24 ****        -0.1634  -2.2765   2.3533 H              1 S1                 0.0000
     25 ****        -0.0898  -3.6811   1.3251 H              1 S1                 0.0000
     26 ****         0.7592  -2.3818  -0.4781 H              1 S1                 0.0000
     27 ****         3.2423  -0.8137  -1.8917 H              1 S1                 0.0000
     28 ****         2.1597  -2.0987  -1.4882 H              1 S1                 0.0000
     29 ****         1.5719  -1.1924  -3.7217 H              1 S1                 0.0000
     30 ****         0.2518  -0.8447  -2.6171 H              1 S1                 0.0000
     31 ****         1.3451   2.6293  -2.2643 H              1 S1                 0.0000
     32 ****         0.1111   1.5070  -1.7257 H              1 S1                 0.0000
     33 ****         3.1007   1.2969  -1.0745 H              1 S1                 0.0000
     34 ****         2.1303   3.2227   0.0536 H              1 S1                 0.0000
     35 ****         2.4955   1.9796   1.2322 H              1 S1                 0.0000
     36 ****         0.8239   2.2579   0.7138 H              1 S1                 0.0000
     37 ****        -2.1682  -0.6256  -1.4261 H              1 S1                 0.0000
     38 ****        -2.3242  -0.5020   2.8280 LP             1 S1                 0.0000
     39 ****         0.4848  -0.5344   2.4159 LP             1 S1                 0.0000
     40 ****         1.4549   0.7650   1.8071 LP             1 S1                 0.0000
     41 ****         0.8602   1.0169  -3.8511 LP             1 S1                 0.0000
     42 ****         2.4170   0.9218  -3.3673 LP             1 S1                 0.0000
@<TRIPOS>BOND
    1    1    2 1     
    2    1   19 1     
    3    1   20 1     
    4    1   21 1     
    5    2   18 1     
    6    2    3 2     
    7    3    4 1     
    8    4    5 1     
    9    4   17 2     
   10    5    6 1     
   11    5   22 1     
   12    5   23 1     
   13    6    7 1     
   14    6   24 1     
   15    6   25 1     
   16    7    8 am    
   17    7   26 1     
   18    8    9 2     
   19    8   10 am    
   20   10   15 1     
   21   10   11 1     
   22   11   12 1     
   23   11   27 1     
   24   11   28 1     
   25   12   13 1     
   26   12   29 1     
   27   12   30 1     
   28   13   14 1     
   29   14   15 1     
   30   14   31 1     
   31   14   32 1     
   32   15   16 1     
   33   15   33 1     
   34   16   34 1     
   35   16   35 1     
   36   16   36 1     
   37   17   18 1     
   38   17   37 1     
   39    3   38 1     
   40    9   39 1     
   41    9   40 1     
   42   13   41 1     
   43   13   42 1     
@<TRIPOS>SUBSTRUCTURE
      1 S1             1
@<TRIPOS>SET
LONE_PAIRS      STATIC     ATOMS    <user>   **** ""
5 38 39 40 41 42
DONOR_HYDROGENS      STATIC     ATOMS    <user>   **** ""
1 26
ATOM$BLUE        STATIC     ATOMS    COLORGROUP SYSTEM
5 38 39 40 41 42
ATOM$RED        STATIC     ATOMS    COLORGROUP SYSTEM
1 26
