AV-unprocessed.smi:1584|AV-procd|sdf|6366|dock7
  -GOLD-   22720 6593D 1   1.00000     0.00000
 Structure written by MMmdl.
 39 40  0  0  0  0  0  0  0  0  1 V2000
  145.6109  135.5924  151.5875 C   0  0  0  0  0  0  0  0  0  0  0  0
  146.0913  134.4676  152.5144 C   0  0  1  0  0  0  0  0  0  0  0  0
  146.5924  133.2495  151.7074 C   0  0  0  0  0  0  0  0  0  0  0  0
  145.6661  132.8430  150.6647 N   0  0  0  0  0  0  0  0  0  0  0  0
  145.8960  132.0056  149.5931 C   0  0  0  0  0  0  0  0  0  0  0  0
  144.7244  131.9019  148.8999 C   0  0  0  0  0  0  0  0  0  0  0  0
  143.8255  132.7282  149.6309 C   0  0  0  0  0  0  0  0  0  0  0  0
  144.3935  133.2945  150.6833 N   0  0  0  0  0  0  0  0  0  0  0  0
  147.1496  134.9849  153.3813 N   0  0  0  0  0  0  0  0  0  0  0  0
  147.2312  134.8042  154.7094 C   0  0  0  0  0  0  0  0  0  0  0  0
  146.3699  134.2169  155.3650 O   0  0  0  0  0  0  0  0  0  0  0  0
  148.4891  135.3596  155.3986 C   0  0  2  0  0  0  0  0  0  0  0  0
  149.7839  134.8367  154.7602 C   0  0  0  0  0  0  0  0  0  0  0  0
  150.0312  133.3612  155.1023 C   0  0  0  0  0  0  0  0  0  0  0  0
  149.8853  133.0692  156.5338 N   0  0  0  0  0  0  0  0  0  0  0  0
  150.5316  131.8342  156.9814 C   0  0  0  0  0  0  0  0  0  0  0  0
  149.1676  133.8207  157.4040 C   0  0  0  0  0  0  0  0  0  0  0  0
  149.0485  133.5161  158.5914 O   0  0  0  0  0  0  0  0  0  0  0  0
  148.4820  135.1152  156.9251 C   0  0  0  0  0  0  0  0  0  0  0  0
  144.8004  135.2497  150.9437 H   0  0  0  0  0  0  0  0  0  0  0  0
  146.4163  135.9512  150.9456 H   0  0  0  0  0  0  0  0  0  0  0  0
  145.2375  136.4413  152.1609 H   0  0  0  0  0  0  0  0  0  0  0  0
  145.2342  134.1611  153.1170 H   0  0  0  0  0  0  0  0  0  0  0  0
  147.5497  133.4785  151.2370 H   0  0  0  0  0  0  0  0  0  0  0  0
  146.7676  132.3996  152.3685 H   0  0  0  0  0  0  0  0  0  0  0  0
  146.8602  131.5505  149.4213 H   0  0  0  0  0  0  0  0  0  0  0  0
  144.5368  131.3224  148.0085 H   0  0  0  0  0  0  0  0  0  0  0  0
  142.7843  132.9322  149.4293 H   0  0  0  0  0  0  0  0  0  0  0  0
  147.8993  135.4877  152.9290 H   0  0  0  0  0  0  0  0  0  0  0  0
  148.4709  136.4409  155.2508 H   0  0  0  0  0  0  0  0  0  0  0  0
  149.7622  134.9689  153.6775 H   0  0  0  0  0  0  0  0  0  0  0  0
  150.6234  135.4334  155.1195 H   0  0  0  0  0  0  0  0  0  0  0  0
  149.3375  132.7250  154.5513 H   0  0  0  0  0  0  0  0  0  0  0  0
  151.0317  133.0881  154.7644 H   0  0  0  0  0  0  0  0  0  0  0  0
  149.8083  131.1672  157.4529 H   0  0  0  0  0  0  0  0  0  0  0  0
  151.3161  132.0548  157.7063 H   0  0  0  0  0  0  0  0  0  0  0  0
  150.9866  131.2834  156.1573 H   0  0  0  0  0  0  0  0  0  0  0  0
  149.0025  135.9416  157.4102 H   0  0  0  0  0  0  0  0  0  0  0  0
  147.4644  135.1408  157.3185 H   0  0  0  0  0  0  0  0  0  0  0  0
  1  2  1  0  0  0  0
  1 20  1  0  0  0  0
  1 21  1  0  0  0  0
  1 22  1  0  0  0  0
  2  3  1  0  0  0  0
  2  9  1  0  0  0  0
  2 23  1  0  0  0  0
  3  4  1  0  0  0  0
  3 24  1  0  0  0  0
  3 25  1  0  0  0  0
  4  8  1  0  0  0  0
  4  5  1  0  0  0  0
  5  6  2  0  0  0  0
  5 26  1  0  0  0  0
  6  7  1  0  0  0  0
  6 27  1  0  0  0  0
  7  8  2  0  0  0  0
  7 28  1  0  0  0  0
  9 10  1  0  0  0  0
  9 29  1  0  0  0  0
 10 11  2  0  0  0  0
 10 12  1  0  0  0  0
 12 19  1  0  0  0  0
 12 13  1  0  0  0  0
 12 30  1  0  0  0  0
 13 14  1  0  0  0  0
 13 31  1  0  0  0  0
 13 32  1  0  0  0  0
 14 15  1  0  0  0  0
 14 33  1  0  0  0  0
 14 34  1  0  0  0  0
 15 16  1  0  0  0  0
 15 17  1  0  0  0  0
 16 35  1  0  0  0  0
 16 36  1  0  0  0  0
 16 37  1  0  0  0  0
 17 18  2  0  0  0  0
 17 19  1  0  0  0  0
 19 38  1  0  0  0  0
 19 39  1  0  0  0  0
M  END
> <s_m_source_file>
AV-unprocessed.smi

> <i_m_source_file_index>
1584

> <i_lp_mmshare_version>
43012

> <i_f3d_flags>
0

> <s_epik_input>
bjFbY0hdW2NIXVtjSF1uMVtDSDJdW0NAQEhdKFtDSDNdKVtOSF1DKD1PKVtDQEBIXTJbQ0gyXVtDSDJdTihbQ0gzXSlDKD1PKVtDSDJdMg==

> <s_epik_cmdline>
J2VwaWtfcHl0aG9uJywgJy1waCcsICc3LjAnLCAnLXRuJywgJzgnLCAnLW1hJywgJzIwMCcsICctbWV0YWxfYmluZGluZycsICctaW1hZScsICc8aW5maWxlLm1hZT4nLCAnLW9tYWUnLCAnPG91dGZpbGUubWFlPic=

> <r_lp_tautomer_probability>
1

> <r_epik_Ionization_Penalty>
0.000299422

> <r_epik_Ionization_Penalty_Charging>
0

> <r_epik_Ionization_Penalty_Neutral>
0.000299422

> <r_epik_State_Penalty>
-0

> <r_epik_Charging_Adjusted_Penalty>
0

> <i_epik_Tot_Q>
0

> <i_epik_Tot_abs_Q>
0

> <r_epik_Metal_State_Penalty>
-0

> <b_epik_Metal_Only>
0

> <s_lp_Force_Field>
OPLS_2005

> <r_lp_Energy>
11.5075

> <b_lp_Chiralities_Consistent>
1

> <s_lp_Variant>
AV-unprocessed.smi:1584-2

> <Gold.Version>
5.8.1

> <Gold.Id.Protein>
6NUR|6NUR_protein|mol2

> <Gold.PLP.Fitness>
39.1471

> <Gold.PLP.PLP>
-28.0179

> <Gold.PLP.part.hbond>
-2.0000

> <Gold.PLP.part.metal>
0.0000

> <Gold.PLP.part.buried>
-1.6937

> <Gold.PLP.part.nonpolar>
-24.8486

> <Gold.PLP.part.repulsive>
0.1864

> <Gold.PLP.ligand.clash>
0.0000

> <Gold.PLP.ligand.torsion>
0.4616

> <Gold.PLP.Chemscore.Hbond>
2.0000

> <Gold.PLP.Chemscore.CHOScore>
2.0000

> <Gold.PLP.Chemscore.Metal>
0.0000

> <Gold.Chemscore.Hbonds>
donor molecule, donor type, donor heavy atom, donor atom, acceptor molecule, acceptor atom, score
      L1  H     9    29       P1  7948  1.00
      P1  H  6896  6907       L1    18  1.00
      L1  C     5    26       P1 10747  1.00
      L1  C     7    28       P1 10186  1.00

> <Gold.PLP.Chemscore.Internal.Correction>
0.0524

> <Gold.Rescore>
     Score         DG    S(hbond)    S(metal)    S(lipo)     H(rot)  DE(clash)    DE(int)     intcor
     13.50     -15.98       1.91        0.00      71.90       1.67       0.47       2.01       ----

> <Gold.Chemscore.Fitness>
13.5033

> <Gold.Chemscore.DG>
-15.9828

> <Gold.Chemscore.ZeroCoef>
-5.4800

> <Gold.Chemscore.Hbond>
1.9086

> <Gold.Chemscore.Metal>
0.0000

> <Gold.Chemscore.Lipo>
71.8975

> <Gold.Chemscore.Internal_Hbond>
0.0000

> <Gold.Chemscore.DEClash>
0.4716

> <Gold.Chemscore.DEInternal>
2.0079

> <Gold.Chemscore.Rot>
1.6734

> <Gold.Chemscore.Internal.Correction>
   9.000000E+99

> <Gold.Chemscore.Hbonds>
donor molecule, donor type, donor heavy atom, donor atom, acceptor molecule, acceptor atom, score
      L1  H     9    29       P1  7948  1.00
      P1  H  6896  6907       L1    18  0.45

> <Gold.Chemscore.Hbond.Weighted>
-6.3748

> <Gold.Chemscore.Metal.Weighted>
-0.0000

> <Gold.Chemscore.Lipo.Weighted>
-8.4120

> <Gold.Chemscore.Internal_Hbond.Weighted>
0.0000

> <Gold.Chemscore.DEClash.Weighted>
0.4716

> <Gold.Chemscore.DEInternal.Weighted>
2.0079

> <Gold.Chemscore.Rot.Weighted>
4.2840

> <Gold.Chemscore.Internal.Correction.Weighted>
   9.000000E+99

> <Gold.Protein.RotatedTorsions>
[ 6907 6896 6895 6894 ] final -114.32 input  -60.11 | X-H torsion
[ 7974 7965 7964 7962 ] final   80.34 input  175.53 | X-H torsion
[ 8008 7997 7996 7995 ] final    7.59 input   59.86 | X-H torsion
[ 10167 10162 10161 10158 ] final -173.75 input  -65.29 | X-H torsion
[ 10718 10713 10712 10709 ] final -142.43 input   66.30 | X-H torsion
[ 10763 10752 10751 10750 ] final   44.72 input  -60.55 | X-H torsion
[ 11005 11000 10999 10996 ] final -119.64 input  -57.11 | X-H torsion

> <Gold.Protein.ActiveResidues>
 VAL166  LYS551  ARG553  GLY616  TRP617  ASP618  TYR619  PRO620  LYS621  CYS622 
 ASP623  PHE694  ASN695  SER759  ASP760  ASP761  ALA762  ILE779  LEU786  VAL792 
 PHE793  MET794  SER795  GLU796  ALA797  LYS798  CYS799  TRP800  GLU811  SER814 

> <Gold.Protein.RotatedAtoms>
  150.7894  133.8818  159.3287 H   0  0  0  0  0  0  0  0  0  0  0  0  # atno 6907 bound_to 6896
  151.6660  135.0981  160.0198 H   0  0  0  0  0  0  0  0  0  0  0  0  # atno 6908 bound_to 6896
  152.3965  133.6715  159.6315 H   0  0  0  0  0  0  0  0  0  0  0  0  # atno 6909 bound_to 6896
  145.6525  139.2451  143.1969 H   0  0  0  0  0  0  0  0  0  0  0  0  # atno 7974 bound_to 7965
  154.7558  140.2775  155.6254 H   0  0  0  0  0  0  0  0  0  0  0  0  # atno 8008 bound_to 7997
  156.2905  140.2669  156.2251 H   0  0  0  0  0  0  0  0  0  0  0  0  # atno 8009 bound_to 7997
  155.0079  140.0372  157.2377 H   0  0  0  0  0  0  0  0  0  0  0  0  # atno 8010 bound_to 7997
  139.5671  144.1729  152.1329 H   0  0  0  0  0  0  0  0  0  0  0  0  # atno 10167 bound_to 10162
  156.3459  130.7662  151.1806 H   0  0  0  0  0  0  0  0  0  0  0  0  # atno 10718 bound_to 10713
  152.9836  135.6062  154.3320 H   0  0  0  0  0  0  0  0  0  0  0  0  # atno 10763 bound_to 10752
  154.3023  135.2772  155.2607 H   0  0  0  0  0  0  0  0  0  0  0  0  # atno 10764 bound_to 10752
  154.4854  135.5906  153.6476 H   0  0  0  0  0  0  0  0  0  0  0  0  # atno 10765 bound_to 10752
  141.0201  134.0137  157.3295 H   0  0  0  0  0  0  0  0  0  0  0  0  # atno 11005 bound_to 11000
  146.1192  140.7331  142.9466 LP  0  0  0  0  0  0  0  0  0  0  0  0  # atno 17320 bound_to 7965
  144.7117  140.4064  143.7075 LP  0  0  0  0  0  0  0  0  0  0  0  0  # atno 17321 bound_to 7965
  140.1255  144.5336  150.6836 LP  0  0  0  0  0  0  0  0  0  0  0  0  # atno 17342 bound_to 10162
  140.6955  143.2401  151.5013 LP  0  0  0  0  0  0  0  0  0  0  0  0  # atno 17343 bound_to 10162
  157.7454  131.0441  150.4778 LP  0  0  0  0  0  0  0  0  0  0  0  0  # atno 17370 bound_to 10713
  156.4965  130.4107  149.6377 LP  0  0  0  0  0  0  0  0  0  0  0  0  # atno 17371 bound_to 10713
  139.9141  135.0194  156.7809 LP  0  0  0  0  0  0  0  0  0  0  0  0  # atno 17394 bound_to 11000
  140.6588  133.9664  155.7793 LP  0  0  0  0  0  0  0  0  0  0  0  0  # atno 17395 bound_to 11000

$$$$
