AV-unprocessed.smi:3158|AV-procd|sdf|12047|dock4
  -GOLD-   2272017473D 1   1.00000     0.00000
 Structure written by MMmdl.
 39 39  0  0  0  0  0  0  0  0  1 V2000
  151.0349  138.4789  154.3886 C   0  0  0  0  0  0  0  0  0  0  0  0
  150.1071  139.4709  155.1058 C   0  0  0  0  0  0  0  0  0  0  0  0
  149.3115  140.3778  154.1481 C   0  0  2  0  0  0  0  0  0  0  0  0
  148.5701  141.4904  154.9061 C   0  0  0  0  0  0  0  0  0  0  0  0
  148.3657  139.5785  153.3741 N   0  0  0  0  0  0  0  0  0  0  0  0
  147.3174  138.9014  153.8697 C   0  0  0  0  0  0  0  0  0  0  0  0
  147.0521  138.8557  155.0716 O   0  0  0  0  0  0  0  0  0  0  0  0
  146.4388  138.1849  152.8342 C   0  0  1  0  0  0  0  0  0  0  0  0
  146.6307  138.7520  151.4124 C   0  0  0  0  0  0  0  0  0  0  0  0
  146.7100  136.7406  152.8806 N   0  0  0  0  0  0  0  0  0  0  0  0
  145.8262  135.9586  152.0255 C   0  0  0  0  0  0  0  0  0  0  0  0
  146.1777  134.4649  152.1349 C   0  0  0  0  0  0  0  0  0  0  0  0
  145.5474  133.6692  151.0953 N   0  0  0  0  0  0  0  0  0  0  0  0
  146.1205  132.7165  150.2793 C   0  0  0  0  0  0  0  0  0  0  0  0
  145.1363  132.2339  149.4648 C   0  0  0  0  0  0  0  0  0  0  0  0
  143.9814  132.9639  149.8618 C   0  0  0  0  0  0  0  0  0  0  0  0
  144.2310  133.8242  150.8359 N   0  0  0  0  0  0  0  0  0  0  0  0
  151.5999  137.8868  155.1086 H   0  0  0  0  0  0  0  0  0  0  0  0
  151.7499  138.9999  153.7517 H   0  0  0  0  0  0  0  0  0  0  0  0
  150.4727  137.7856  153.7631 H   0  0  0  0  0  0  0  0  0  0  0  0
  149.4196  138.9185  155.7479 H   0  0  0  0  0  0  0  0  0  0  0  0
  150.7091  140.0920  155.7702 H   0  0  0  0  0  0  0  0  0  0  0  0
  150.0230  140.8454  153.4647 H   0  0  0  0  0  0  0  0  0  0  0  0
  149.2655  142.1026  155.4808 H   0  0  0  0  0  0  0  0  0  0  0  0
  147.8374  141.0782  155.6006 H   0  0  0  0  0  0  0  0  0  0  0  0
  148.0425  142.1531  154.2193 H   0  0  0  0  0  0  0  0  0  0  0  0
  148.5006  139.5609  152.3733 H   0  0  0  0  0  0  0  0  0  0  0  0
  145.4064  138.3644  153.1396 H   0  0  0  0  0  0  0  0  0  0  0  0
  146.4960  139.8345  151.3969 H   0  0  0  0  0  0  0  0  0  0  0  0
  145.9054  138.3358  150.7137 H   0  0  0  0  0  0  0  0  0  0  0  0
  147.6267  138.5348  151.0242 H   0  0  0  0  0  0  0  0  0  0  0  0
  147.6751  136.5333  152.6670 H   0  0  0  0  0  0  0  0  0  0  0  0
  144.7841  136.1169  152.3070 H   0  0  0  0  0  0  0  0  0  0  0  0
  145.9344  136.2809  150.9900 H   0  0  0  0  0  0  0  0  0  0  0  0
  147.2576  134.3312  152.0595 H   0  0  0  0  0  0  0  0  0  0  0  0
  145.8832  134.0707  153.1087 H   0  0  0  0  0  0  0  0  0  0  0  0
  147.1673  132.4603  150.3489 H   0  0  0  0  0  0  0  0  0  0  0  0
  145.2271  131.4734  148.7035 H   0  0  0  0  0  0  0  0  0  0  0  0
  142.9761  132.8952  149.4732 H   0  0  0  0  0  0  0  0  0  0  0  0
  1  2  1  0  0  0  0
  1 18  1  0  0  0  0
  1 19  1  0  0  0  0
  1 20  1  0  0  0  0
  2  3  1  0  0  0  0
  2 21  1  0  0  0  0
  2 22  1  0  0  0  0
  3  4  1  0  0  0  0
  3  5  1  0  0  0  0
  3 23  1  0  0  0  0
  4 24  1  0  0  0  0
  4 25  1  0  0  0  0
  4 26  1  0  0  0  0
  5  6  1  0  0  0  0
  5 27  1  0  0  0  0
  6  7  2  0  0  0  0
  6  8  1  0  0  0  0
  8  9  1  0  0  0  0
  8 10  1  0  0  0  0
  8 28  1  0  0  0  0
  9 29  1  0  0  0  0
  9 30  1  0  0  0  0
  9 31  1  0  0  0  0
 10 11  1  0  0  0  0
 10 32  1  0  0  0  0
 11 12  1  0  0  0  0
 11 33  1  0  0  0  0
 11 34  1  0  0  0  0
 12 13  1  0  0  0  0
 12 35  1  0  0  0  0
 12 36  1  0  0  0  0
 13 17  1  0  0  0  0
 13 14  1  0  0  0  0
 14 15  2  0  0  0  0
 14 37  1  0  0  0  0
 15 16  1  0  0  0  0
 15 38  1  0  0  0  0
 16 17  2  0  0  0  0
 16 39  1  0  0  0  0
M  END
> <s_m_source_file>
AV-unprocessed.smi

> <i_m_source_file_index>
3158

> <i_lp_mmshare_version>
43012

> <i_f3d_flags>
0

> <s_epik_input>
W0NIM11bQ0gyXVtDQEhdKFtDSDNdKVtOSF1DKD1PKVtDQEhdKFtDSDNdKVtOSF1bQ0gyXVtDSDJdbjFbY0hdW2NIXVtjSF1uMQ==

> <s_epik_cmdline>
J2VwaWtfcHl0aG9uJywgJy1waCcsICc3LjAnLCAnLXRuJywgJzgnLCAnLW1hJywgJzIwMCcsICctbWV0YWxfYmluZGluZycsICctaW1hZScsICc8aW5maWxlLm1hZT4nLCAnLW9tYWUnLCAnPG91dGZpbGUubWFlPic=

> <r_lp_tautomer_probability>
1

> <r_epik_Ionization_Penalty>
0.724013

> <r_epik_Ionization_Penalty_Charging>
0

> <r_epik_Ionization_Penalty_Neutral>
0.724013

> <r_epik_State_Penalty>
0.74758

> <r_epik_Charging_Adjusted_Penalty>
0.74758

> <i_epik_Tot_Q>
0

> <i_epik_Tot_abs_Q>
0

> <r_epik_Metal_State_Penalty>
0.746846

> <b_epik_Metal_Only>
0

> <s_lp_Force_Field>
OPLS_2005

> <r_lp_Energy>
5.95419

> <b_lp_Chiralities_Consistent>
1

> <s_lp_Variant>
AV-unprocessed.smi:3158-7

> <Gold.Version>
5.8.1

> <Gold.Id.Protein>
6NUR|6NUR_protein|mol2

> <Gold.PLP.Fitness>
43.2172

> <Gold.PLP.PLP>
-32.9233

> <Gold.PLP.part.hbond>
-1.9017

> <Gold.PLP.part.metal>
0.0000

> <Gold.PLP.part.buried>
-0.6624

> <Gold.PLP.part.nonpolar>
-30.7510

> <Gold.PLP.part.repulsive>
0.2870

> <Gold.PLP.ligand.clash>
0.1386

> <Gold.PLP.ligand.torsion>
0.6963

> <Gold.PLP.Chemscore.Hbond>
1.8960

> <Gold.PLP.Chemscore.CHOScore>
1.9960

> <Gold.PLP.Chemscore.Metal>
0.0000

> <Gold.Chemscore.Hbonds>
donor molecule, donor type, donor heavy atom, donor atom, acceptor molecule, acceptor atom, score
      L1  H     5    27       P1  7957  0.86
      L1  H    10    32       P1  7948  1.00
      L1  C    14    37       P1 10747  1.00
      L1  C    16    39       P1 10186  1.00

> <Gold.PLP.Chemscore.Internal.Correction>
0.1493

> <Gold.Rescore>
     Score         DG    S(hbond)    S(metal)    S(lipo)     H(rot)  DE(clash)    DE(int)     intcor
     14.62     -16.09       1.89        0.00      83.11       2.12       0.10       1.37       ----

> <Gold.Chemscore.Fitness>
14.6247

> <Gold.Chemscore.DG>
-16.0939

> <Gold.Chemscore.ZeroCoef>
-5.4800

> <Gold.Chemscore.Hbond>
1.8938

> <Gold.Chemscore.Metal>
0.0000

> <Gold.Chemscore.Lipo>
83.1147

> <Gold.Chemscore.Internal_Hbond>
0.0000

> <Gold.Chemscore.DEClash>
0.1038

> <Gold.Chemscore.DEInternal>
1.3654

> <Gold.Chemscore.Rot>
2.1234

> <Gold.Chemscore.Internal.Correction>
   9.000000E+99

> <Gold.Chemscore.Hbonds>
donor molecule, donor type, donor heavy atom, donor atom, acceptor molecule, acceptor atom, score
      L1  H     5    27       P1  7957  0.85
      L1  H    10    32       P1  7948  0.93

> <Gold.Chemscore.Hbond.Weighted>
-6.3254

> <Gold.Chemscore.Metal.Weighted>
-0.0000

> <Gold.Chemscore.Lipo.Weighted>
-9.7244

> <Gold.Chemscore.Internal_Hbond.Weighted>
0.0000

> <Gold.Chemscore.DEClash.Weighted>
0.1038

> <Gold.Chemscore.DEInternal.Weighted>
1.3654

> <Gold.Chemscore.Rot.Weighted>
5.4359

> <Gold.Chemscore.Internal.Correction.Weighted>
   9.000000E+99

> <Gold.Protein.RotatedTorsions>
[ 6907 6896 6895 6894 ] final  -49.21 input  -60.11 | X-H torsion
[ 7974 7965 7964 7962 ] final  -92.11 input  175.53 | X-H torsion
[ 8008 7997 7996 7995 ] final  -61.88 input   59.86 | X-H torsion
[ 10167 10162 10161 10158 ] final   -9.00 input  -65.29 | X-H torsion
[ 10718 10713 10712 10709 ] final   88.62 input   66.30 | X-H torsion
[ 10763 10752 10751 10750 ] final -130.38 input  -60.55 | X-H torsion
[ 11005 11000 10999 10996 ] final   33.43 input  -57.11 | X-H torsion

> <Gold.Protein.ActiveResidues>
 VAL166  LYS551  ARG553  GLY616  TRP617  ASP618  TYR619  PRO620  LYS621  CYS622 
 ASP623  PHE694  ASN695  SER759  ASP760  ASP761  ALA762  ILE779  LEU786  VAL792 
 PHE793  MET794  SER795  GLU796  ALA797  LYS798  CYS799  TRP800  GLU811  SER814 

> <Gold.Protein.RotatedAtoms>
  150.8828  134.8221  159.7236 H   0  0  0  0  0  0  0  0  0  0  0  0  # atno 6907 bound_to 6896
  152.4788  134.4770  159.9663 H   0  0  0  0  0  0  0  0  0  0  0  0  # atno 6908 bound_to 6896
  151.4842  133.3500  159.2878 H   0  0  0  0  0  0  0  0  0  0  0  0  # atno 6909 bound_to 6896
  145.4042  140.9540  143.2270 H   0  0  0  0  0  0  0  0  0  0  0  0  # atno 7974 bound_to 7965
  154.4471  140.1008  156.6500 H   0  0  0  0  0  0  0  0  0  0  0  0  # atno 8008 bound_to 7997
  155.5408  140.3483  155.4428 H   0  0  0  0  0  0  0  0  0  0  0  0  # atno 8009 bound_to 7997
  156.0599  140.1324  156.9943 H   0  0  0  0  0  0  0  0  0  0  0  0  # atno 8010 bound_to 7997
  140.7075  143.5906  150.8897 H   0  0  0  0  0  0  0  0  0  0  0  0  # atno 10167 bound_to 10162
  157.6950  131.0302  150.3302 H   0  0  0  0  0  0  0  0  0  0  0  0  # atno 10718 bound_to 10713
  154.8755  135.3864  154.4073 H   0  0  0  0  0  0  0  0  0  0  0  0  # atno 10763 bound_to 10752
  153.4791  135.7030  153.5954 H   0  0  0  0  0  0  0  0  0  0  0  0  # atno 10764 bound_to 10752
  153.4377  135.3863  155.2177 H   0  0  0  0  0  0  0  0  0  0  0  0  # atno 10765 bound_to 10752
  140.2632  134.3168  155.7851 H   0  0  0  0  0  0  0  0  0  0  0  0  # atno 11005 bound_to 11000
  144.8353  139.5561  143.6925 LP  0  0  0  0  0  0  0  0  0  0  0  0  # atno 17320 bound_to 7965
  146.2737  139.6698  142.9278 LP  0  0  0  0  0  0  0  0  0  0  0  0  # atno 17321 bound_to 7965
  139.9632  143.6140  152.2996 LP  0  0  0  0  0  0  0  0  0  0  0  0  # atno 17342 bound_to 10162
  139.6700  144.7661  151.1800 LP  0  0  0  0  0  0  0  0  0  0  0  0  # atno 17343 bound_to 10162
  156.3777  130.3875  149.7126 LP  0  0  0  0  0  0  0  0  0  0  0  0  # atno 17370 bound_to 10713
  156.4519  130.7910  151.2932 LP  0  0  0  0  0  0  0  0  0  0  0  0  # atno 17371 bound_to 10713
  141.2187  133.7422  156.9220 LP  0  0  0  0  0  0  0  0  0  0  0  0  # atno 17394 bound_to 11000
  140.1444  134.9272  157.2510 LP  0  0  0  0  0  0  0  0  0  0  0  0  # atno 17395 bound_to 11000

$$$$
