#       Name:                AV-unprocessed.smi:72
#       Creating user name   scv26
#       Creation time:       Thu Mar 26 17:01:47 2020


#       File generated by GOLD software.
#

@<TRIPOS>MOLECULE
AV-unprocessed.smi:72
    41    42     1
SMALL
NO_CHARGES


@<TRIPOS>ATOM
      1 ****        -4.6723  -1.2247   1.2432 N.pl3          1 S1                 0.0000
      2 ****        -3.2967  -1.1848   1.1493 C.2            1 S1                 0.0000
      3 ****        -2.7219  -0.0421   0.6216 N.pl3          1 S1                 1.0000
      4 ****        -1.4059   0.1576   0.4680 C.2            1 S1                 0.0000
      5 ****        -0.5679  -0.7844   0.8498 N.am           1 S1                 0.0000
      6 ****         0.9169  -0.6123   0.6897 C.3            1 S1                 0.0000
      7 ****         1.1877   0.7560   0.6916 O.3            1 S1                 0.0000
      8 ****         2.0589   1.0821  -0.3855 C.3            1 S1                 0.0000
      9 ****         1.9279   2.5623  -0.7852 C.3            1 S1                 0.0000
     10 ****         2.6986   3.3666   0.0812 O.3            1 S1                 0.0000
     11 ****         1.6771   0.0658  -1.4694 C.3            1 S1                 0.0000
     12 ****         0.5248   0.4841  -2.1797 O.3            1 S1                 0.0000
     13 ****         1.3696  -1.1875  -0.6629 C.3            1 S1                 0.0000
     14 ****         2.5306  -1.9802  -0.5188 O.3            1 S1                 0.0000
     15 ****        -1.0633  -2.0039   1.3764 C.2            1 S1                 0.0000
     16 ****        -0.2886  -2.9057   1.6937 O.2            1 S1                 0.0000
     17 ****        -2.4557  -2.1178   1.5017 N.2            1 S1                 0.0000
     18 ****         1.3810  -1.0796   1.5602 H              1 S1                 0.0000
     19 ****         3.0828   0.8691  -0.0719 H              1 S1                 0.0000
     20 ****         2.4817  -0.0864  -2.1903 H              1 S1                 0.0000
     21 ****         0.5924  -1.8016  -1.1216 H              1 S1                 0.0000
     22 ****        -5.1793  -2.0177   1.6110 H              1 S1                 0.0000
     23 ****        -5.2800  -0.4728   0.9511 H              1 S1                 0.0000
     24 ****        -1.0550   1.0835   0.0298 H              1 S1                 0.0000
     25 ****         2.3117   2.7130  -1.7946 H              1 S1                 0.0000
     26 ****         0.8875   2.8887  -0.7784 H              1 S1                 0.0000
     27 ****         2.6358   4.2655  -0.2046 H              1 S1                 0.0000
     28 ****         0.7493   1.2461  -2.6922 H              1 S1                 0.0000
     29 ****         2.3180  -2.7367   0.0069 H              1 S1                 0.0000
     30 ****        -3.3454   0.6967   0.3292 H              1 S1                 0.0000
     31 ****         1.6227   1.0062   1.5566 LP             1 S1                 0.0000
     32 ****         0.3317   1.2630   0.5902 LP             1 S1                 0.0000
     33 ****         3.6535   3.0709   0.0547 LP             1 S1                 0.0000
     34 ****         2.3502   3.2852   1.0150 LP             1 S1                 0.0000
     35 ****        -0.2042   0.7139  -1.5349 LP             1 S1                 0.0000
     36 ****         0.2159  -0.2501  -2.7842 LP             1 S1                 0.0000
     37 ****         3.2475  -1.4481  -0.0683 LP             1 S1                 0.0000
     38 ****         2.8504  -2.2752  -1.4191 LP             1 S1                 0.0000
     39 ****         0.6971  -2.7809   1.5807 LP             1 S1                 0.0000
     40 ****        -0.6447  -3.7634   2.0646 LP             1 S1                 0.0000
     41 ****        -2.8258  -2.9645   1.8839 LP             1 S1                 0.0000
@<TRIPOS>BOND
    1    1    2 1     
    2    1   22 1     
    3    1   23 1     
    4    2   17 2     
    5    2    3 1     
    6    3    4 2     
    7    3   30 1     
    8    4    5 1     
    9    4   24 1     
   10    5    6 1     
   11    5   15 am    
   12    6   18 1     
   13    6   13 1     
   14    6    7 1     
   15    7    8 1     
   16    8   19 1     
   17    8    9 1     
   18    8   11 1     
   19    9   10 1     
   20    9   25 1     
   21    9   26 1     
   22   10   27 1     
   23   11   20 1     
   24   11   12 1     
   25   11   13 1     
   26   12   28 1     
   27   13   21 1     
   28   13   14 1     
   29   14   29 1     
   30   15   16 2     
   31   15   17 1     
   32    7   31 1     
   33    7   32 1     
   34   10   33 1     
   35   10   34 1     
   36   12   35 1     
   37   12   36 1     
   38   14   37 1     
   39   14   38 1     
   40   16   39 1     
   41   16   40 1     
   42   17   41 1     
@<TRIPOS>SUBSTRUCTURE
      1 S1             1
@<TRIPOS>SET
LONE_PAIRS      STATIC     ATOMS    <user>   **** ""
11 31 32 33 34 35 36 37 38 39 40 41
DONOR_HYDROGENS      STATIC     ATOMS    <user>   **** ""
6 22 23 30 27 28 29
ATOM$BLUE        STATIC     ATOMS    COLORGROUP SYSTEM
11 31 32 33 34 35 36 37 38 39 40 41
ATOM$RED        STATIC     ATOMS    COLORGROUP SYSTEM
6 22 23 30 27 28 29
