AV-unprocessed.smi:1200|AV-procd|sdf|5023|dock1
  -GOLD-   22720 4 43D 1   1.00000     0.00000
 Structure written by MMmdl.
 43 44  0  0  0  0  0  0  0  0  2 V2000
  142.4924  137.1830  152.9773 C   0  0  0  0  0  0  0  0  0  0  0  0
  143.7821  137.6773  152.5193 N   0  0  0  0  0  0  0  0  0  0  0  0
  144.9384  137.4787  153.1672 C   0  0  0  0  0  0  0  0  0  0  0  0
  145.0193  136.8583  154.2281 O   0  0  0  0  0  0  0  0  0  0  0  0
  146.1879  138.0905  152.5252 C   0  0  0  0  0  0  0  0  0  0  0  0
  146.8150  139.1437  153.3645 N   0  3  2  0  0  0  0  0  0  0  0  0
  147.2498  140.3204  152.5697 C   0  0  0  0  0  0  0  0  0  0  0  0
  147.7527  141.4514  153.4829 C   0  0  0  0  0  0  0  0  0  0  0  0
  148.8919  140.9654  154.3932 C   0  0  1  0  0  0  0  0  0  0  0  0
  149.2878  142.0324  155.3082 N   0  0  0  0  0  0  0  0  0  0  0  0
  150.0380  141.8680  156.4076 C   0  0  0  0  0  0  0  0  0  0  0  0
  150.4796  140.7769  156.7661 O   0  0  0  0  0  0  0  0  0  0  0  0
  150.2379  143.0393  157.0364 N   0  0  0  0  0  0  0  0  0  0  0  0
  150.9973  143.3130  158.2079 C   0  0  0  0  0  0  0  0  0  0  0  0
  152.0495  142.5008  158.6980 C   0  0  0  0  0  0  0  0  0  0  0  0
  152.7152  142.8885  159.8771 C   0  0  0  0  0  0  0  0  0  0  0  0
  152.3028  144.0674  160.5272 C   0  0  0  0  0  0  0  0  0  0  0  0
  151.2950  144.8448  160.0790 N   0  0  0  0  0  0  0  0  0  0  0  0
  150.6620  144.4673  158.9479 C   0  0  0  0  0  0  0  0  0  0  0  0
  148.4340  139.7198  155.1734 C   0  0  0  0  0  0  0  0  0  0  0  0
  147.9150  138.6281  154.2231 C   0  0  0  0  0  0  0  0  0  0  0  0
  141.7048  137.5166  152.3014 H   0  0  0  0  0  0  0  0  0  0  0  0
  142.2641  137.5553  153.9770 H   0  0  0  0  0  0  0  0  0  0  0  0
  142.4817  136.0924  153.0009 H   0  0  0  0  0  0  0  0  0  0  0  0
  143.7936  138.2041  151.6577 H   0  0  0  0  0  0  0  0  0  0  0  0
  146.9179  137.3139  152.2907 H   0  0  0  0  0  0  0  0  0  0  0  0
  145.8697  138.5187  151.5738 H   0  0  0  0  0  0  0  0  0  0  0  0
  148.0334  140.0203  151.8720 H   0  0  0  0  0  0  0  0  0  0  0  0
  146.4161  140.6899  151.9713 H   0  0  0  0  0  0  0  0  0  0  0  0
  148.0915  142.2917  152.8753 H   0  0  0  0  0  0  0  0  0  0  0  0
  146.9241  141.8219  154.0889 H   0  0  0  0  0  0  0  0  0  0  0  0
  149.7410  140.6978  153.7607 H   0  0  0  0  0  0  0  0  0  0  0  0
  148.9697  142.9649  155.0872 H   0  0  0  0  0  0  0  0  0  0  0  0
  149.8372  143.8514  156.5900 H   0  0  0  0  0  0  0  0  0  0  0  0
  152.3567  141.5902  158.2091 H   0  0  0  0  0  0  0  0  0  0  0  0
  153.5233  142.2933  160.2760 H   0  0  0  0  0  0  0  0  0  0  0  0
  152.7927  144.3920  161.4331 H   0  0  0  0  0  0  0  0  0  0  0  0
  149.8606  145.1135  158.6205 H   0  0  0  0  0  0  0  0  0  0  0  0
  149.2574  139.3245  155.7693 H   0  0  0  0  0  0  0  0  0  0  0  0
  147.6456  139.9907  155.8774 H   0  0  0  0  0  0  0  0  0  0  0  0
  147.5665  137.7789  154.8115 H   0  0  0  0  0  0  0  0  0  0  0  0
  148.7285  138.2618  153.5947 H   0  0  0  0  0  0  0  0  0  0  0  0
  146.0881  139.4731  153.9843 H   0  0  0  0  0  0  0  0  0  0  0  0
  1  2  1  0  0  0  0
  1 22  1  0  0  0  0
  1 23  1  0  0  0  0
  1 24  1  0  0  0  0
  2  3  1  0  0  0  0
  2 25  1  0  0  0  0
  3  4  2  0  0  0  0
  3  5  1  0  0  0  0
  5  6  1  0  0  0  0
  5 26  1  0  0  0  0
  5 27  1  0  0  0  0
  6 21  1  0  0  0  0
  6  7  1  0  0  0  0
  6 43  1  0  0  0  0
  7  8  1  0  0  0  0
  7 28  1  0  0  0  0
  7 29  1  0  0  0  0
  8  9  1  0  0  0  0
  8 30  1  0  0  0  0
  8 31  1  0  0  0  0
  9 10  1  0  0  0  0
  9 20  1  0  0  0  0
  9 32  1  0  0  0  0
 10 11  1  0  0  0  0
 10 33  1  0  0  0  0
 11 12  2  0  0  0  0
 11 13  1  0  0  0  0
 13 14  1  0  0  0  0
 13 34  1  0  0  0  0
 14 19  1  0  0  0  0
 14 15  2  0  0  0  0
 15 16  1  0  0  0  0
 15 35  1  0  0  0  0
 16 17  2  0  0  0  0
 16 36  1  0  0  0  0
 17 18  1  0  0  0  0
 17 37  1  0  0  0  0
 18 19  2  0  0  0  0
 19 38  1  0  0  0  0
 20 21  1  0  0  0  0
 20 39  1  0  0  0  0
 20 40  1  0  0  0  0
 21 41  1  0  0  0  0
 21 42  1  0  0  0  0
M  CHG  1   6   1
M  END
> <s_m_source_file>
AV-unprocessed.smi

> <i_m_source_file_index>
1200

> <i_lp_mmshare_version>
43012

> <i_f3d_flags>
0

> <s_epik_input>
W0NIM11bTkhdQyg9TylbQ0gyXU4xW0NIMl1bQ0gyXVtDSF0oW0NIMl1bQ0gyXTEpW05IXUMoPU8pW05IXWMyW2NIXVtjSF1bY0hdbltjSF0y

> <s_epik_cmdline>
J2VwaWtfcHl0aG9uJywgJy1waCcsICc3LjAnLCAnLXRuJywgJzgnLCAnLW1hJywgJzIwMCcsICctbWV0YWxfYmluZGluZycsICctaW1hZScsICc8aW5maWxlLm1hZT4nLCAnLW9tYWUnLCAnPG91dGZpbGUubWFlPic=

> <r_epik_Ionization_Penalty>
0.842849

> <r_epik_Ionization_Penalty_Charging>
0.838844

> <r_epik_Ionization_Penalty_Neutral>
0.00400543

> <r_epik_State_Penalty>
0.858736

> <r_epik_Charging_Adjusted_Penalty>
1.69758

> <i_epik_Tot_Q>
1

> <i_epik_Tot_abs_Q>
1

> <r_epik_Metal_State_Penalty>
0.860766

> <b_epik_Metal_Only>
0

> <s_lp_Force_Field>
OPLS_2005

> <r_lp_Energy>
18.0189

> <b_lp_Chiralities_Consistent>
1

> <s_lp_Variant>
AV-unprocessed.smi:1200-2

> <Gold.Version>
5.8.1

> <Gold.Id.Protein>
6NUR|6NUR_protein|mol2

> <Gold.PLP.Fitness>
46.0598

> <Gold.PLP.PLP>
-35.9718

> <Gold.PLP.part.hbond>
-4.0000

> <Gold.PLP.part.metal>
0.0000

> <Gold.PLP.part.buried>
-4.5021

> <Gold.PLP.part.nonpolar>
-28.5277

> <Gold.PLP.part.repulsive>
0.4314

> <Gold.PLP.ligand.clash>
0.0000

> <Gold.PLP.ligand.torsion>
0.8615

> <Gold.PLP.Chemscore.Hbond>
2.9440

> <Gold.PLP.Chemscore.CHOScore>
0.9841

> <Gold.PLP.Chemscore.Metal>
0.0000

> <Gold.Chemscore.Hbonds>
donor molecule, donor type, donor heavy atom, donor atom, acceptor molecule, acceptor atom, score
      L1  H     2    25       P1 10171  1.00
      L1  H    10    33       P1  8028  0.93
      L1  H    13    34       P1  8028  1.00
      L1  C    19    38       P1  8029  1.00

> <Gold.PLP.Chemscore.Internal.Correction>
0.0268

> <Gold.Rescore>
     Score         DG    S(hbond)    S(metal)    S(lipo)     H(rot)  DE(clash)    DE(int)     intcor
     19.08     -22.87       2.95        0.00     101.37       1.69       1.81       1.98       ----

> <Gold.Chemscore.Fitness>
19.0849

> <Gold.Chemscore.DG>
-22.8734

> <Gold.Chemscore.ZeroCoef>
-5.4800

> <Gold.Chemscore.Hbond>
2.9499

> <Gold.Chemscore.Metal>
0.0000

> <Gold.Chemscore.Lipo>
101.3674

> <Gold.Chemscore.Internal_Hbond>
0.0000

> <Gold.Chemscore.DEClash>
1.8125

> <Gold.Chemscore.DEInternal>
1.9760

> <Gold.Chemscore.Rot>
1.6873

> <Gold.Chemscore.Internal.Correction>
   9.000000E+99

> <Gold.Chemscore.Hbonds>
donor molecule, donor type, donor heavy atom, donor atom, acceptor molecule, acceptor atom, score
      L1  H     2    25       P1 10171  0.97
      L1  H    10    33       P1  8028  0.91
      L1  H    13    34       P1  8028  0.97

> <Gold.Chemscore.Hbond.Weighted>
-9.8528

> <Gold.Chemscore.Metal.Weighted>
-0.0000

> <Gold.Chemscore.Lipo.Weighted>
-11.8600

> <Gold.Chemscore.Internal_Hbond.Weighted>
0.0000

> <Gold.Chemscore.DEClash.Weighted>
1.8125

> <Gold.Chemscore.DEInternal.Weighted>
1.9760

> <Gold.Chemscore.Rot.Weighted>
4.3194

> <Gold.Chemscore.Internal.Correction.Weighted>
   9.000000E+99

> <Gold.Protein.RotatedTorsions>
[ 6907 6896 6895 6894 ] final  173.39 input  -60.11 | X-H torsion
[ 7974 7965 7964 7962 ] final  169.69 input  175.53 | X-H torsion
[ 8008 7997 7996 7995 ] final  113.98 input   59.86 | X-H torsion
[ 10167 10162 10161 10158 ] final   16.41 input  -65.29 | X-H torsion
[ 10718 10713 10712 10709 ] final  113.61 input   66.30 | X-H torsion
[ 10763 10752 10751 10750 ] final -126.91 input  -60.55 | X-H torsion
[ 11005 11000 10999 10996 ] final  -64.31 input  -57.11 | X-H torsion

> <Gold.Protein.ActiveResidues>
 VAL166  LYS551  ARG553  GLY616  TRP617  ASP618  TYR619  PRO620  LYS621  CYS622 
 ASP623  PHE694  ASN695  SER759  ASP760  ASP761  ALA762  ILE779  LEU786  VAL792 
 PHE793  MET794  SER795  GLU796  ALA797  LYS798  CYS799  TRP800  GLU811  SER814 

> <Gold.Protein.RotatedAtoms>
  151.7691  133.3339  159.3438 H   0  0  0  0  0  0  0  0  0  0  0  0  # atno 6907 bound_to 6896
  150.7468  134.6035  159.6058 H   0  0  0  0  0  0  0  0  0  0  0  0  # atno 6908 bound_to 6896
  152.3354  134.7207  160.0330 H   0  0  0  0  0  0  0  0  0  0  0  0  # atno 6909 bound_to 6896
  144.7347  139.9092  143.6414 H   0  0  0  0  0  0  0  0  0  0  0  0  # atno 7974 bound_to 7965
  156.2292  140.2968  156.0145 H   0  0  0  0  0  0  0  0  0  0  0  0  # atno 8008 bound_to 7997
  155.2272  140.0417  157.2974 H   0  0  0  0  0  0  0  0  0  0  0  0  # atno 8009 bound_to 7997
  154.5967  140.2416  155.7855 H   0  0  0  0  0  0  0  0  0  0  0  0  # atno 8010 bound_to 7997
  140.5799  143.9001  150.6781 H   0  0  0  0  0  0  0  0  0  0  0  0  # atno 10167 bound_to 10162
  157.6328  131.0986  150.7066 H   0  0  0  0  0  0  0  0  0  0  0  0  # atno 10718 bound_to 10713
  154.8749  135.3979  154.3508 H   0  0  0  0  0  0  0  0  0  0  0  0  # atno 10763 bound_to 10752
  153.4294  135.7025  153.6246 H   0  0  0  0  0  0  0  0  0  0  0  0  # atno 10764 bound_to 10752
  153.4874  135.3756  155.2444 H   0  0  0  0  0  0  0  0  0  0  0  0  # atno 10765 bound_to 10752
  141.1421  133.6664  156.5814 H   0  0  0  0  0  0  0  0  0  0  0  0  # atno 11005 bound_to 11000
  146.1014  139.4009  143.0345 LP  0  0  0  0  0  0  0  0  0  0  0  0  # atno 17320 bound_to 7965
  145.7573  140.9949  143.1218 LP  0  0  0  0  0  0  0  0  0  0  0  0  # atno 17321 bound_to 7965
  140.2498  143.3602  152.1416 LP  0  0  0  0  0  0  0  0  0  0  0  0  # atno 17342 bound_to 10162
  139.5164  144.6976  151.5585 LP  0  0  0  0  0  0  0  0  0  0  0  0  # atno 17343 bound_to 10162
  156.7403  130.4737  149.5479 LP  0  0  0  0  0  0  0  0  0  0  0  0  # atno 17370 bound_to 10713
  156.1544  130.6332  151.0638 LP  0  0  0  0  0  0  0  0  0  0  0  0  # atno 17371 bound_to 10713
  140.3835  134.7503  157.4676 LP  0  0  0  0  0  0  0  0  0  0  0  0  # atno 17394 bound_to 11000
  140.0620  134.5983  155.8738 LP  0  0  0  0  0  0  0  0  0  0  0  0  # atno 17395 bound_to 11000

$$$$
