AV-unprocessed.smi:2135|AV-procd|sdf|8700|dock8
  -GOLD-   2272011463D 1   1.00000     0.00000
 Structure written by MMmdl.
 43 44  0  0  0  0  0  0  0  0  2 V2000
  150.3200  137.0461  157.7334 C   0  0  0  0  0  0  0  0  0  0  0  0
  150.4959  136.5637  155.9681 S   0  0  0  0  0  0  0  0  0  0  0  0
  151.8559  136.0425  155.7625 O   0  0  0  0  0  0  0  0  0  0  0  0
  149.3334  135.7359  155.6115 O   0  0  0  0  0  0  0  0  0  0  0  0
  150.3486  138.0632  155.0975 N   0  0  0  0  0  0  0  0  0  0  0  0
  149.0581  138.7739  155.0399 C   0  0  0  0  0  0  0  0  0  0  0  0
  149.1097  140.0920  155.8295 C   0  0  0  0  0  0  0  0  0  0  0  0
  150.3006  140.9672  155.3970 C   0  0  0  0  0  0  0  0  0  0  0  0
  151.6410  140.2007  155.4798 C   0  0  1  0  0  0  0  0  0  0  0  0
  152.1641  140.0219  156.9180 C   0  0  0  0  0  0  0  0  0  0  0  0
  153.1471  139.3214  157.1627 O   0  0  0  0  0  0  0  0  0  0  0  0
  151.4619  140.6419  157.8799 N   0  0  0  0  0  0  0  0  0  0  0  0
  151.7760  140.6050  159.3029 C   0  0  0  0  0  0  0  0  0  0  0  0
  152.9012  141.5898  159.6610 C   0  0  0  0  0  0  0  0  0  0  0  0
  152.4013  143.0177  159.7580 C   0  0  0  0  0  0  0  0  0  0  0  0
  152.4763  143.8855  158.6462 C   0  0  0  0  0  0  0  0  0  0  0  0
  152.0052  145.2094  158.7697 C   0  0  0  0  0  0  0  0  0  0  0  0
  151.4705  145.6357  160.0028 C   0  0  0  0  0  0  0  0  0  0  0  0
  151.4160  144.7771  161.0449 N   0  3  0  0  0  0  0  0  0  0  0  0
  151.8556  143.5019  160.9669 C   0  0  0  0  0  0  0  0  0  0  0  0
  151.5262  138.8652  154.7028 C   0  0  0  0  0  0  0  0  0  0  0  0
  150.2353  136.1459  158.3414 H   0  0  0  0  0  0  0  0  0  0  0  0
  149.4248  137.6527  157.8651 H   0  0  0  0  0  0  0  0  0  0  0  0
  151.1974  137.6013  158.0560 H   0  0  0  0  0  0  0  0  0  0  0  0
  148.8229  138.9788  153.9949 H   0  0  0  0  0  0  0  0  0  0  0  0
  148.2585  138.1383  155.4202 H   0  0  0  0  0  0  0  0  0  0  0  0
  148.1799  140.6418  155.6812 H   0  0  0  0  0  0  0  0  0  0  0  0
  149.1577  139.8762  156.8959 H   0  0  0  0  0  0  0  0  0  0  0  0
  150.1442  141.2979  154.3694 H   0  0  0  0  0  0  0  0  0  0  0  0
  150.3355  141.8759  155.9995 H   0  0  0  0  0  0  0  0  0  0  0  0
  152.3918  140.8110  154.9754 H   0  0  0  0  0  0  0  0  0  0  0  0
  150.6601  141.1900  157.6028 H   0  0  0  0  0  0  0  0  0  0  0  0
  150.8784  140.8175  159.8865 H   0  0  0  0  0  0  0  0  0  0  0  0
  152.0770  139.5879  159.5560 H   0  0  0  0  0  0  0  0  0  0  0  0
  153.3607  141.3044  160.6084 H   0  0  0  0  0  0  0  0  0  0  0  0
  153.6934  141.5499  158.9121 H   0  0  0  0  0  0  0  0  0  0  0  0
  152.8905  143.5434  157.7088 H   0  0  0  0  0  0  0  0  0  0  0  0
  152.0538  145.8877  157.9303 H   0  0  0  0  0  0  0  0  0  0  0  0
  151.0880  146.6294  160.1857 H   0  0  0  0  0  0  0  0  0  0  0  0
  151.7605  142.9128  161.8677 H   0  0  0  0  0  0  0  0  0  0  0  0
  152.4356  138.2739  154.8064 H   0  0  0  0  0  0  0  0  0  0  0  0
  151.4419  139.0818  153.6374 H   0  0  0  0  0  0  0  0  0  0  0  0
  151.0257  145.1058  161.9287 H   0  0  0  0  0  0  0  0  0  0  0  0
  1  2  1  0  0  0  0
  1 22  1  0  0  0  0
  1 23  1  0  0  0  0
  1 24  1  0  0  0  0
  2  3  2  0  0  0  0
  2  4  2  0  0  0  0
  2  5  1  0  0  0  0
  5 21  1  0  0  0  0
  5  6  1  0  0  0  0
  6  7  1  0  0  0  0
  6 25  1  0  0  0  0
  6 26  1  0  0  0  0
  7  8  1  0  0  0  0
  7 27  1  0  0  0  0
  7 28  1  0  0  0  0
  8  9  1  0  0  0  0
  8 29  1  0  0  0  0
  8 30  1  0  0  0  0
  9 10  1  0  0  0  0
  9 21  1  0  0  0  0
  9 31  1  0  0  0  0
 10 11  2  0  0  0  0
 10 12  1  0  0  0  0
 12 13  1  0  0  0  0
 12 32  1  0  0  0  0
 13 14  1  0  0  0  0
 13 33  1  0  0  0  0
 13 34  1  0  0  0  0
 14 15  1  0  0  0  0
 14 35  1  0  0  0  0
 14 36  1  0  0  0  0
 15 20  1  0  0  0  0
 15 16  2  0  0  0  0
 16 17  1  0  0  0  0
 16 37  1  0  0  0  0
 17 18  2  0  0  0  0
 17 38  1  0  0  0  0
 18 19  1  0  0  0  0
 18 39  1  0  0  0  0
 19 20  2  0  0  0  0
 19 43  1  0  0  0  0
 20 40  1  0  0  0  0
 21 41  1  0  0  0  0
 21 42  1  0  0  0  0
M  CHG  1  19   1
M  END
> <s_m_source_file>
AV-unprocessed.smi

> <i_m_source_file_index>
2135

> <i_lp_mmshare_version>
43012

> <i_f3d_flags>
0

> <s_epik_input>
W0NIM11TKD1PKSg9TylOMVtDSDJdW0NIMl1bQ0gyXVtDQEhdKFtDSDJdMSlDKD1PKVtOSF1bQ0gyXVtDSDJdYzJbY0hdW2NIXVtjSF1uW2NIXTI=

> <s_epik_cmdline>
J2VwaWtfcHl0aG9uJywgJy1waCcsICc3LjAnLCAnLXRuJywgJzgnLCAnLW1hJywgJzIwMCcsICctbWV0YWxfYmluZGluZycsICctaW1hZScsICc8aW5maWxlLm1hZT4nLCAnLW9tYWUnLCAnPG91dGZpbGUubWFlPic=

> <r_epik_Ionization_Penalty>
2.24912

> <r_epik_Ionization_Penalty_Charging>
2.24912

> <r_epik_Ionization_Penalty_Neutral>
2.62834e-08

> <r_epik_State_Penalty>
2.39611

> <r_epik_Charging_Adjusted_Penalty>
4.64523

> <i_epik_Tot_Q>
1

> <i_epik_Tot_abs_Q>
1

> <r_epik_Metal_State_Penalty>
2.40934

> <b_epik_Metal_Only>
0

> <s_lp_Force_Field>
OPLS_2005

> <r_lp_Energy>
5.07519

> <b_lp_Chiralities_Consistent>
1

> <s_lp_Variant>
AV-unprocessed.smi:2135-3

> <Gold.Version>
5.8.1

> <Gold.Id.Protein>
6NUR|6NUR_protein|mol2

> <Gold.PLP.Fitness>
49.4418

> <Gold.PLP.PLP>
-44.9286

> <Gold.PLP.part.hbond>
-2.9340

> <Gold.PLP.part.metal>
0.0000

> <Gold.PLP.part.buried>
-4.7762

> <Gold.PLP.part.nonpolar>
-37.8371

> <Gold.PLP.part.repulsive>
0.2723

> <Gold.PLP.ligand.clash>
0.0000

> <Gold.PLP.ligand.torsion>
1.7787

> <Gold.PLP.Chemscore.Hbond>
1.9920

> <Gold.PLP.Chemscore.CHOScore>
0.0000

> <Gold.PLP.Chemscore.Metal>
0.0000

> <Gold.Chemscore.Hbonds>
donor molecule, donor type, donor heavy atom, donor atom, acceptor molecule, acceptor atom, score
      P1  H  7997  8008       L1    11  1.00
      P1  H 10752 10764       L1     3  0.96

> <Gold.PLP.Chemscore.Internal.Correction>
2.0945

> <Gold.Rescore>
     Score         DG    S(hbond)    S(metal)    S(lipo)     H(rot)  DE(clash)    DE(int)     intcor
     18.27     -20.59       1.98        0.00     108.65       1.65       0.48       1.84       ----

> <Gold.Chemscore.Fitness>
18.2680

> <Gold.Chemscore.DG>
-20.5863

> <Gold.Chemscore.ZeroCoef>
-5.4800

> <Gold.Chemscore.Hbond>
1.9843

> <Gold.Chemscore.Metal>
0.0000

> <Gold.Chemscore.Lipo>
108.6515

> <Gold.Chemscore.Internal_Hbond>
0.0000

> <Gold.Chemscore.DEClash>
0.4776

> <Gold.Chemscore.DEInternal>
1.8407

> <Gold.Chemscore.Rot>
1.6538

> <Gold.Chemscore.Internal.Correction>
   9.000000E+99

> <Gold.Chemscore.Hbonds>
donor molecule, donor type, donor heavy atom, donor atom, acceptor molecule, acceptor atom, score
      P1  H  7997  8008       L1    11  0.38
      P1  H 10752 10764       L1     3  0.92

> <Gold.Chemscore.Hbond.Weighted>
-6.6277

> <Gold.Chemscore.Metal.Weighted>
-0.0000

> <Gold.Chemscore.Lipo.Weighted>
-12.7122

> <Gold.Chemscore.Internal_Hbond.Weighted>
0.0000

> <Gold.Chemscore.DEClash.Weighted>
0.4776

> <Gold.Chemscore.DEInternal.Weighted>
1.8407

> <Gold.Chemscore.Rot.Weighted>
4.2337

> <Gold.Chemscore.Internal.Correction.Weighted>
   9.000000E+99

> <Gold.Protein.RotatedTorsions>
[ 6907 6896 6895 6894 ] final   42.01 input  -60.11 | X-H torsion
[ 7974 7965 7964 7962 ] final   58.67 input  175.53 | X-H torsion
[ 8008 7997 7996 7995 ] final  -47.31 input   59.86 | X-H torsion
[ 10167 10162 10161 10158 ] final -102.22 input  -65.29 | X-H torsion
[ 10718 10713 10712 10709 ] final  108.45 input   66.30 | X-H torsion
[ 10763 10752 10751 10750 ] final  -60.46 input  -60.55 | X-H torsion
[ 11005 11000 10999 10996 ] final   88.12 input  -57.11 | X-H torsion

> <Gold.Protein.ActiveResidues>
 VAL166  LYS551  ARG553  GLY616  TRP617  ASP618  TYR619  PRO620  LYS621  CYS622 
 ASP623  PHE694  ASN695  SER759  ASP760  ASP761  ALA762  ILE779  LEU786  VAL792 
 PHE793  MET794  SER795  GLU796  ALA797  LYS798  CYS799  TRP800  GLU811  SER814 

> <Gold.Protein.RotatedAtoms>
  152.2024  134.8575  160.0506 H   0  0  0  0  0  0  0  0  0  0  0  0  # atno 6907 bound_to 6896
  151.9424  133.3636  159.3978 H   0  0  0  0  0  0  0  0  0  0  0  0  # atno 6908 bound_to 6896
  150.6958  134.4350  159.5310 H   0  0  0  0  0  0  0  0  0  0  0  0  # atno 6909 bound_to 6896
  145.9156  139.3689  143.0509 H   0  0  0  0  0  0  0  0  0  0  0  0  # atno 7974 bound_to 7965
  154.4015  140.1349  156.4155 H   0  0  0  0  0  0  0  0  0  0  0  0  # atno 8008 bound_to 7997
  155.7693  140.3484  155.5218 H   0  0  0  0  0  0  0  0  0  0  0  0  # atno 8009 bound_to 7997
  155.8783  140.0983  157.1493 H   0  0  0  0  0  0  0  0  0  0  0  0  # atno 8010 bound_to 7997
  140.2330  143.3593  152.0869 H   0  0  0  0  0  0  0  0  0  0  0  0  # atno 10167 bound_to 10162
  157.6585  131.0894  150.6308 H   0  0  0  0  0  0  0  0  0  0  0  0  # atno 10718 bound_to 10713
  154.2695  135.6293  153.5304 H   0  0  0  0  0  0  0  0  0  0  0  0  # atno 10763 bound_to 10752
  152.9882  135.5607  154.5616 H   0  0  0  0  0  0  0  0  0  0  0  0  # atno 10764 bound_to 10752
  154.5183  135.2881  155.1260 H   0  0  0  0  0  0  0  0  0  0  0  0  # atno 10765 bound_to 10752
  139.8903  134.8467  156.2956 H   0  0  0  0  0  0  0  0  0  0  0  0  # atno 11005 bound_to 11000
  145.8615  140.9472  143.0697 LP  0  0  0  0  0  0  0  0  0  0  0  0  # atno 17320 bound_to 7965
  144.6747  140.0537  143.7478 LP  0  0  0  0  0  0  0  0  0  0  0  0  # atno 17321 bound_to 7965
  139.5103  144.6882  151.5830 LP  0  0  0  0  0  0  0  0  0  0  0  0  # atno 17342 bound_to 10162
  140.6171  143.9329  150.6497 LP  0  0  0  0  0  0  0  0  0  0  0  0  # atno 17343 bound_to 10162
  156.6612  130.4513  149.5687 LP  0  0  0  0  0  0  0  0  0  0  0  0  # atno 17370 bound_to 10713
  156.2066  130.6653  151.1224 LP  0  0  0  0  0  0  0  0  0  0  0  0  # atno 17371 bound_to 10713
  140.9947  133.7187  156.0868 LP  0  0  0  0  0  0  0  0  0  0  0  0  # atno 17394 bound_to 11000
  140.7578  134.3973  157.5531 LP  0  0  0  0  0  0  0  0  0  0  0  0  # atno 17395 bound_to 11000

$$$$
