AV-unprocessed.smi:2015|AV-procd|sdf|8164|dock1
  -GOLD-   2272010413D 1   1.00000     0.00000
 Structure written by MMmdl.
 47 48  0  0  0  0  0  0  0  0  1 V2000
  144.2077  134.7180  151.2982 C   0  0  0  0  0  0  0  0  0  0  0  0
  145.5709  135.1027  151.2757 O   0  0  0  0  0  0  0  0  0  0  0  0
  145.7429  136.4796  150.9837 C   0  0  0  0  0  0  0  0  0  0  0  0
  145.9020  137.2625  152.2929 C   0  0  0  0  0  0  0  0  0  0  0  0
  146.5131  138.6594  152.0771 C   0  0  0  0  0  0  0  0  0  0  0  0
  147.0722  139.2701  153.3656 C   0  0  0  0  0  0  0  0  0  0  0  0
  146.3103  139.5349  154.2946 O   0  0  0  0  0  0  0  0  0  0  0  0
  148.3990  139.4968  153.3695 N   0  0  0  0  0  0  0  0  0  0  0  0
  149.2207  140.0454  154.3929 C   0  0  0  0  0  0  0  0  0  0  0  0
  150.5537  139.6546  154.6601 C   0  0  0  0  0  0  0  0  0  0  0  0
  151.2558  140.2909  155.7020 C   0  0  0  0  0  0  0  0  0  0  0  0
  150.6181  141.3093  156.4490 C   0  0  0  0  0  0  0  0  0  0  0  0
  151.3046  141.9594  157.4977 N   0  0  0  0  0  0  0  0  0  0  0  0
  150.6890  143.1850  157.9995 C   0  0  0  0  0  0  0  0  0  0  0  0
  151.6758  143.9804  158.8765 C   0  0  2  0  0  0  0  0  0  0  0  0
  152.7592  144.7138  158.0658 C   0  0  0  0  0  0  0  0  0  0  0  0
  152.2331  143.1351  159.8853 O   0  0  0  0  0  0  0  0  0  0  0  0
  152.8804  141.9626  159.3926 C   0  0  1  0  0  0  0  0  0  0  0  0
  153.4060  141.1715  160.5950 C   0  0  0  0  0  0  0  0  0  0  0  0
  151.8884  141.1370  158.5540 C   0  0  0  0  0  0  0  0  0  0  0  0
  149.3422  141.6837  156.1868 N   0  0  0  0  0  0  0  0  0  0  0  0
  148.6730  141.0714  155.1883 C   0  0  0  0  0  0  0  0  0  0  0  0
  144.1323  133.6521  151.5126 H   0  0  0  0  0  0  0  0  0  0  0  0
  143.7285  134.9027  150.3361 H   0  0  0  0  0  0  0  0  0  0  0  0
  143.6592  135.2568  152.0719 H   0  0  0  0  0  0  0  0  0  0  0  0
  146.6308  136.6148  150.3644 H   0  0  0  0  0  0  0  0  0  0  0  0
  144.8902  136.8593  150.4185 H   0  0  0  0  0  0  0  0  0  0  0  0
  144.9307  137.3438  152.7828 H   0  0  0  0  0  0  0  0  0  0  0  0
  146.5396  136.6902  152.9684 H   0  0  0  0  0  0  0  0  0  0  0  0
  147.3046  138.5981  151.3285 H   0  0  0  0  0  0  0  0  0  0  0  0
  145.7598  139.3391  151.6777 H   0  0  0  0  0  0  0  0  0  0  0  0
  148.8796  139.2768  152.5091 H   0  0  0  0  0  0  0  0  0  0  0  0
  151.0589  138.8902  154.0921 H   0  0  0  0  0  0  0  0  0  0  0  0
  152.2668  139.9818  155.9217 H   0  0  0  0  0  0  0  0  0  0  0  0
  150.3263  143.8237  157.1958 H   0  0  0  0  0  0  0  0  0  0  0  0
  149.8165  142.9076  158.5927 H   0  0  0  0  0  0  0  0  0  0  0  0
  151.1061  144.7457  159.4042 H   0  0  0  0  0  0  0  0  0  0  0  0
  152.3087  145.4491  157.3987 H   0  0  0  0  0  0  0  0  0  0  0  0
  153.3450  144.0346  157.4472 H   0  0  0  0  0  0  0  0  0  0  0  0
  153.4462  145.2445  158.7252 H   0  0  0  0  0  0  0  0  0  0  0  0
  153.7335  142.2456  158.7758 H   0  0  0  0  0  0  0  0  0  0  0  0
  153.9164  140.2627  160.2747 H   0  0  0  0  0  0  0  0  0  0  0  0
  152.5937  140.8812  161.2619 H   0  0  0  0  0  0  0  0  0  0  0  0
  154.1148  141.7649  161.1727 H   0  0  0  0  0  0  0  0  0  0  0  0
  151.0894  140.7491  159.1874 H   0  0  0  0  0  0  0  0  0  0  0  0
  152.4089  140.2802  158.1238 H   0  0  0  0  0  0  0  0  0  0  0  0
  147.6617  141.4126  155.0219 H   0  0  0  0  0  0  0  0  0  0  0  0
  1  2  1  0  0  0  0
  1 23  1  0  0  0  0
  1 24  1  0  0  0  0
  1 25  1  0  0  0  0
  2  3  1  0  0  0  0
  3  4  1  0  0  0  0
  3 26  1  0  0  0  0
  3 27  1  0  0  0  0
  4  5  1  0  0  0  0
  4 28  1  0  0  0  0
  4 29  1  0  0  0  0
  5  6  1  0  0  0  0
  5 30  1  0  0  0  0
  5 31  1  0  0  0  0
  6  7  2  0  0  0  0
  6  8  1  0  0  0  0
  8  9  1  0  0  0  0
  8 32  1  0  0  0  0
  9 22  1  0  0  0  0
  9 10  2  0  0  0  0
 10 11  1  0  0  0  0
 10 33  1  0  0  0  0
 11 12  2  0  0  0  0
 11 34  1  0  0  0  0
 12 13  1  0  0  0  0
 12 21  1  0  0  0  0
 13 20  1  0  0  0  0
 13 14  1  0  0  0  0
 14 15  1  0  0  0  0
 14 35  1  0  0  0  0
 14 36  1  0  0  0  0
 15 16  1  0  0  0  0
 15 17  1  0  0  0  0
 15 37  1  0  0  0  0
 16 38  1  0  0  0  0
 16 39  1  0  0  0  0
 16 40  1  0  0  0  0
 17 18  1  0  0  0  0
 18 19  1  0  0  0  0
 18 20  1  0  0  0  0
 18 41  1  0  0  0  0
 19 42  1  0  0  0  0
 19 43  1  0  0  0  0
 19 44  1  0  0  0  0
 20 45  1  0  0  0  0
 20 46  1  0  0  0  0
 21 22  2  0  0  0  0
 22 47  1  0  0  0  0
M  END
> <s_m_source_file>
AV-unprocessed.smi

> <i_m_source_file_index>
2015

> <i_lp_mmshare_version>
43012

> <i_f3d_flags>
0

> <s_epik_input>
W0NIM11PW0NIMl1bQ0gyXVtDSDJdQyg9TylbTkhdYzFbY0hdW2NIXWMobltjSF0xKU4yW0NIMl1bQ0BASF0oW0NIM10pT1tDQEBIXShbQ0gzXSlbQ0gyXTI=

> <s_epik_cmdline>
J2VwaWtfcHl0aG9uJywgJy1waCcsICc3LjAnLCAnLXRuJywgJzgnLCAnLW1hJywgJzIwMCcsICctbWV0YWxfYmluZGluZycsICctaW1hZScsICc8aW5maWxlLm1hZT4nLCAnLW9tYWUnLCAnPG91dGZpbGUubWFlPic=

> <r_lp_tautomer_probability>
1

> <r_epik_Ionization_Penalty>
0.000816358

> <r_epik_Ionization_Penalty_Charging>
0

> <r_epik_Ionization_Penalty_Neutral>
0.000816358

> <r_epik_State_Penalty>
0.000521115

> <r_epik_Charging_Adjusted_Penalty>
0.000521115

> <i_epik_Tot_Q>
0

> <i_epik_Tot_abs_Q>
0

> <r_epik_Metal_State_Penalty>
-0

> <b_epik_Metal_Only>
0

> <s_lp_Force_Field>
OPLS_2005

> <r_lp_Energy>
24.9806

> <b_lp_Chiralities_Consistent>
1

> <s_lp_Variant>
AV-unprocessed.smi:2015-2

> <Gold.Version>
5.8.1

> <Gold.Id.Protein>
6NUR|6NUR_protein|mol2

> <Gold.PLP.Fitness>
47.4788

> <Gold.PLP.PLP>
-46.2558

> <Gold.PLP.part.hbond>
-1.0000

> <Gold.PLP.part.metal>
0.0000

> <Gold.PLP.part.buried>
-2.9103

> <Gold.PLP.part.nonpolar>
-43.9913

> <Gold.PLP.part.repulsive>
0.7435

> <Gold.PLP.ligand.clash>
0.0000

> <Gold.PLP.ligand.torsion>
0.8557

> <Gold.PLP.Chemscore.Hbond>
0.8480

> <Gold.PLP.Chemscore.CHOScore>
0.0000

> <Gold.PLP.Chemscore.Metal>
0.0000

> <Gold.Chemscore.Hbonds>
donor molecule, donor type, donor heavy atom, donor atom, acceptor molecule, acceptor atom, score
      L1  H     8    32       P1  7957  0.83

> <Gold.PLP.Chemscore.Internal.Correction>
0.3904

> <Gold.Rescore>
     Score         DG    S(hbond)    S(metal)    S(lipo)     H(rot)  DE(clash)    DE(int)     intcor
     15.62     -17.70       0.89        0.00     115.74       1.68       0.25       1.83       ----

> <Gold.Chemscore.Fitness>
15.6209

> <Gold.Chemscore.DG>
-17.7024

> <Gold.Chemscore.ZeroCoef>
-5.4800

> <Gold.Chemscore.Hbond>
0.8948

> <Gold.Chemscore.Metal>
0.0000

> <Gold.Chemscore.Lipo>
115.7404

> <Gold.Chemscore.Internal_Hbond>
0.0000

> <Gold.Chemscore.DEClash>
0.2485

> <Gold.Chemscore.DEInternal>
1.8330

> <Gold.Chemscore.Rot>
1.6827

> <Gold.Chemscore.Internal.Correction>
   9.000000E+99

> <Gold.Chemscore.Hbonds>
donor molecule, donor type, donor heavy atom, donor atom, acceptor molecule, acceptor atom, score
      L1  H     8    32       P1  7957  0.83

> <Gold.Chemscore.Hbond.Weighted>
-2.9886

> <Gold.Chemscore.Metal.Weighted>
-0.0000

> <Gold.Chemscore.Lipo.Weighted>
-13.5416

> <Gold.Chemscore.Internal_Hbond.Weighted>
0.0000

> <Gold.Chemscore.DEClash.Weighted>
0.2485

> <Gold.Chemscore.DEInternal.Weighted>
1.8330

> <Gold.Chemscore.Rot.Weighted>
4.3078

> <Gold.Chemscore.Internal.Correction.Weighted>
   9.000000E+99

> <Gold.Protein.RotatedTorsions>
[ 6907 6896 6895 6894 ] final  -96.91 input  -60.11 | X-H torsion
[ 7974 7965 7964 7962 ] final  -16.58 input  175.53 | X-H torsion
[ 8008 7997 7996 7995 ] final  163.22 input   59.86 | X-H torsion
[ 10167 10162 10161 10158 ] final  -55.85 input  -65.29 | X-H torsion
[ 10718 10713 10712 10709 ] final  -16.84 input   66.30 | X-H torsion
[ 10763 10752 10751 10750 ] final    4.04 input  -60.55 | X-H torsion
[ 11005 11000 10999 10996 ] final -141.85 input  -57.11 | X-H torsion

> <Gold.Protein.ActiveResidues>
 VAL166  LYS551  ARG553  GLY616  TRP617  ASP618  TYR619  PRO620  LYS621  CYS622 
 ASP623  PHE694  ASN695  SER759  ASP760  ASP761  ALA762  ILE779  LEU786  VAL792 
 PHE793  MET794  SER795  GLU796  ALA797  LYS798  CYS799  TRP800  GLU811  SER814 

> <Gold.Protein.RotatedAtoms>
  150.7001  134.1429  159.4111 H   0  0  0  0  0  0  0  0  0  0  0  0  # atno 6907 bound_to 6896
  151.9413  135.0209  160.0545 H   0  0  0  0  0  0  0  0  0  0  0  0  # atno 6908 bound_to 6896
  152.2091  133.4862  159.5137 H   0  0  0  0  0  0  0  0  0  0  0  0  # atno 6909 bound_to 6896
  146.1981  140.3657  142.8433 H   0  0  0  0  0  0  0  0  0  0  0  0  # atno 7974 bound_to 7965
  156.1973  140.1729  156.7971 H   0  0  0  0  0  0  0  0  0  0  0  0  # atno 8008 bound_to 7997
  154.5546  140.0711  156.8754 H   0  0  0  0  0  0  0  0  0  0  0  0  # atno 8009 bound_to 7997
  155.2963  140.3358  155.4252 H   0  0  0  0  0  0  0  0  0  0  0  0  # atno 8010 bound_to 7997
  140.6351  143.2478  151.5139 H   0  0  0  0  0  0  0  0  0  0  0  0  # atno 10167 bound_to 10162
  156.5819  130.4776  149.6316 H   0  0  0  0  0  0  0  0  0  0  0  0  # atno 10718 bound_to 10713
  153.2760  135.6936  153.7433 H   0  0  0  0  0  0  0  0  0  0  0  0  # atno 10763 bound_to 10752
  153.6438  135.3388  155.3080 H   0  0  0  0  0  0  0  0  0  0  0  0  # atno 10764 bound_to 10752
  154.8479  135.4438  154.1798 H   0  0  0  0  0  0  0  0  0  0  0  0  # atno 10765 bound_to 10752
  140.8283  134.2548  157.4868 H   0  0  0  0  0  0  0  0  0  0  0  0  # atno 11005 bound_to 11000
  144.8623  140.7157  143.6099 LP  0  0  0  0  0  0  0  0  0  0  0  0  # atno 17320 bound_to 7965
  145.3577  139.1690  143.4400 LP  0  0  0  0  0  0  0  0  0  0  0  0  # atno 17321 bound_to 7965
  139.5562  144.2270  152.1616 LP  0  0  0  0  0  0  0  0  0  0  0  0  # atno 17342 bound_to 10162
  140.1524  144.5102  150.6679 LP  0  0  0  0  0  0  0  0  0  0  0  0  # atno 17343 bound_to 10162
  156.2624  130.6970  151.1742 LP  0  0  0  0  0  0  0  0  0  0  0  0  # atno 17370 bound_to 10713
  157.7324  131.0600  150.5628 LP  0  0  0  0  0  0  0  0  0  0  0  0  # atno 17371 bound_to 10713
  139.8706  134.9572  156.4263 LP  0  0  0  0  0  0  0  0  0  0  0  0  # atno 17394 bound_to 11000
  140.9025  133.7769  155.9697 LP  0  0  0  0  0  0  0  0  0  0  0  0  # atno 17395 bound_to 11000

$$$$
