AV-unprocessed.smi:2087|AV-procd|sdf|8521|dock5
  -GOLD-   2272011233D 1   1.00000     0.00000
 Structure written by MMmdl.
 51 52  0  0  0  0  0  0  0  0  2 V2000
  144.8740  131.1846  151.1906 C   0  0  0  0  0  0  0  0  0  0  0  0
  145.4563  132.5959  151.0209 C   0  0  0  0  0  0  0  0  0  0  0  0
  146.3055  132.6750  149.7409 C   0  0  0  0  0  0  0  0  0  0  0  0
  146.2619  133.0048  152.2735 C   0  0  0  0  0  0  0  0  0  0  0  0
  147.6008  132.3581  152.3424 N   0  3  2  0  0  0  0  0  0  0  0  0
  147.5985  131.0638  153.0658 C   0  0  0  0  0  0  0  0  0  0  0  0
  147.5625  131.2799  154.5886 C   0  0  0  0  0  0  0  0  0  0  0  0
  148.6735  132.0782  154.9762 O   0  0  0  0  0  0  0  0  0  0  0  0
  148.6510  133.3742  154.3874 C   0  0  1  0  0  0  0  0  0  0  0  0
  149.8515  134.1547  154.9452 C   0  0  0  0  0  0  0  0  0  0  0  0
  149.8582  135.5327  154.4698 N   0  0  0  0  0  0  0  0  0  0  0  0
  150.6125  136.5110  154.9895 C   0  0  0  0  0  0  0  0  0  0  0  0
  151.3953  136.3332  155.9235 O   0  0  0  0  0  0  0  0  0  0  0  0
  150.4692  137.8913  154.3339 C   0  0  0  0  0  0  0  0  0  0  0  0
  149.8964  138.9011  155.2333 N   0  0  0  0  0  0  0  0  0  0  0  0
  148.6041  138.7456  155.7013 C   0  0  0  0  0  0  0  0  0  0  0  0
  147.9958  139.6328  156.5183 C   0  0  0  0  0  0  0  0  0  0  0  0
  148.6899  140.8342  156.9646 C   0  0  0  0  0  0  0  0  0  0  0  0
  148.1766  141.6800  157.6987 O   0  0  0  0  0  0  0  0  0  0  0  0
  150.0120  140.9648  156.4809 N   0  0  0  0  0  0  0  0  0  0  0  0
  150.7365  142.1507  156.8884 C   0  0  0  0  0  0  0  0  0  0  0  0
  150.6405  140.0388  155.6158 C   0  0  0  0  0  0  0  0  0  0  0  0
  151.7887  140.2002  155.1958 O   0  0  0  0  0  0  0  0  0  0  0  0
  148.6925  133.2311  152.8465 C   0  0  0  0  0  0  0  0  0  0  0  0
  145.6623  130.4392  151.3020 H   0  0  0  0  0  0  0  0  0  0  0  0
  144.2695  130.9021  150.3280 H   0  0  0  0  0  0  0  0  0  0  0  0
  144.2336  131.1257  152.0712 H   0  0  0  0  0  0  0  0  0  0  0  0
  144.6088  133.2699  150.9020 H   0  0  0  0  0  0  0  0  0  0  0  0
  147.1762  132.0208  149.8004 H   0  0  0  0  0  0  0  0  0  0  0  0
  146.6621  133.6891  149.5590 H   0  0  0  0  0  0  0  0  0  0  0  0
  145.7257  132.3754  148.8673 H   0  0  0  0  0  0  0  0  0  0  0  0
  146.3685  134.0885  152.3195 H   0  0  0  0  0  0  0  0  0  0  0  0
  145.6806  132.7253  153.1534 H   0  0  0  0  0  0  0  0  0  0  0  0
  146.7654  130.4395  152.7406 H   0  0  0  0  0  0  0  0  0  0  0  0
  148.5071  130.5214  152.8012 H   0  0  0  0  0  0  0  0  0  0  0  0
  146.6288  131.7489  154.9027 H   0  0  0  0  0  0  0  0  0  0  0  0
  147.6237  130.3212  155.1037 H   0  0  0  0  0  0  0  0  0  0  0  0
  147.7374  133.8843  154.6965 H   0  0  0  0  0  0  0  0  0  0  0  0
  149.8136  134.1647  156.0355 H   0  0  0  0  0  0  0  0  0  0  0  0
  150.7798  133.6542  154.6643 H   0  0  0  0  0  0  0  0  0  0  0  0
  149.2410  135.7620  153.7043 H   0  0  0  0  0  0  0  0  0  0  0  0
  151.4565  138.2108  153.9976 H   0  0  0  0  0  0  0  0  0  0  0  0
  149.8631  137.8096  153.4297 H   0  0  0  0  0  0  0  0  0  0  0  0
  148.0467  137.8724  155.3947 H   0  0  0  0  0  0  0  0  0  0  0  0
  146.9816  139.4529  156.8435 H   0  0  0  0  0  0  0  0  0  0  0  0
  151.7942  142.0709  156.6391 H   0  0  0  0  0  0  0  0  0  0  0  0
  150.6387  142.2471  157.9714 H   0  0  0  0  0  0  0  0  0  0  0  0
  150.2804  142.9956  156.3700 H   0  0  0  0  0  0  0  0  0  0  0  0
  149.6418  132.7805  152.5538 H   0  0  0  0  0  0  0  0  0  0  0  0
  148.6628  134.2062  152.3627 H   0  0  0  0  0  0  0  0  0  0  0  0
  147.8297  132.1348  151.3841 H   0  0  0  0  0  0  0  0  0  0  0  0
  1  2  1  0  0  0  0
  1 25  1  0  0  0  0
  1 26  1  0  0  0  0
  1 27  1  0  0  0  0
  2  3  1  0  0  0  0
  2  4  1  0  0  0  0
  2 28  1  0  0  0  0
  3 29  1  0  0  0  0
  3 30  1  0  0  0  0
  3 31  1  0  0  0  0
  4  5  1  0  0  0  0
  4 32  1  0  0  0  0
  4 33  1  0  0  0  0
  5 24  1  0  0  0  0
  5  6  1  0  0  0  0
  5 51  1  0  0  0  0
  6  7  1  0  0  0  0
  6 34  1  0  0  0  0
  6 35  1  0  0  0  0
  7  8  1  0  0  0  0
  7 36  1  0  0  0  0
  7 37  1  0  0  0  0
  8  9  1  0  0  0  0
  9 10  1  0  0  0  0
  9 24  1  0  0  0  0
  9 38  1  0  0  0  0
 10 11  1  0  0  0  0
 10 39  1  0  0  0  0
 10 40  1  0  0  0  0
 11 12  1  0  0  0  0
 11 41  1  0  0  0  0
 12 13  2  0  0  0  0
 12 14  1  0  0  0  0
 14 15  1  0  0  0  0
 14 42  1  0  0  0  0
 14 43  1  0  0  0  0
 15 22  1  0  0  0  0
 15 16  1  0  0  0  0
 16 17  2  0  0  0  0
 16 44  1  0  0  0  0
 17 18  1  0  0  0  0
 17 45  1  0  0  0  0
 18 19  2  0  0  0  0
 18 20  1  0  0  0  0
 20 21  1  0  0  0  0
 20 22  1  0  0  0  0
 21 46  1  0  0  0  0
 21 47  1  0  0  0  0
 21 48  1  0  0  0  0
 22 23  2  0  0  0  0
 24 49  1  0  0  0  0
 24 50  1  0  0  0  0
M  CHG  1   5   1
M  END
> <s_m_source_file>
AV-unprocessed.smi

> <i_m_source_file_index>
2087

> <i_lp_mmshare_version>
43012

> <i_f3d_flags>
0

> <s_epik_input>
W0NIM11bQ0hdKFtDSDNdKVtDSDJdTjFbQ0gyXVtDSDJdT1tDQEhdKFtDSDJdMSlbQ0gyXVtOSF1DKD1PKVtDSDJdbjJbY0hdW2NIXWMoPU8pbihbQ0gzXSljMj1P

> <s_epik_cmdline>
J2VwaWtfcHl0aG9uJywgJy1waCcsICc3LjAnLCAnLXRuJywgJzgnLCAnLW1hJywgJzIwMCcsICctbWV0YWxfYmluZGluZycsICctaW1hZScsICc8aW5maWxlLm1hZT4nLCAnLW9tYWUnLCAnPG91dGZpbGUubWFlPic=

> <r_lp_tautomer_probability>
1

> <r_epik_Ionization_Penalty>
0.097593

> <r_epik_Ionization_Penalty_Charging>
0.097593

> <r_epik_Ionization_Penalty_Neutral>
6.27044e-08

> <r_epik_State_Penalty>
0.0877056

> <r_epik_Charging_Adjusted_Penalty>
0.185299

> <i_epik_Tot_Q>
1

> <i_epik_Tot_abs_Q>
1

> <r_epik_Metal_State_Penalty>
0.0877109

> <b_epik_Metal_Only>
0

> <s_lp_Force_Field>
OPLS_2005

> <r_lp_Energy>
29.4179

> <b_lp_Chiralities_Consistent>
1

> <s_lp_Variant>
AV-unprocessed.smi:2087-2

> <Gold.Version>
5.8.1

> <Gold.Id.Protein>
6NUR|6NUR_protein|mol2

> <Gold.PLP.Fitness>
47.6178

> <Gold.PLP.PLP>
-37.4662

> <Gold.PLP.part.hbond>
-4.3694

> <Gold.PLP.part.metal>
0.0000

> <Gold.PLP.part.buried>
-2.8822

> <Gold.PLP.part.nonpolar>
-30.6750

> <Gold.PLP.part.repulsive>
0.2647

> <Gold.PLP.ligand.clash>
0.0000

> <Gold.PLP.ligand.torsion>
0.7105

> <Gold.PLP.Chemscore.Hbond>
3.8080

> <Gold.PLP.Chemscore.CHOScore>
0.0000

> <Gold.PLP.Chemscore.Metal>
0.0000

> <Gold.Chemscore.Hbonds>
donor molecule, donor type, donor heavy atom, donor atom, acceptor molecule, acceptor atom, score
      L1  H     5    51       P1 10747  0.81
      L1  H    11    41       P1  7948  0.99
      P1  H  7989  7998       L1    23  0.86
      P1  H 10752 10763       L1    13  0.73

> <Gold.PLP.Chemscore.Internal.Correction>
0.1485

> <Gold.Rescore>
     Score         DG    S(hbond)    S(metal)    S(lipo)     H(rot)  DE(clash)    DE(int)     intcor
     16.91     -19.64       3.23        0.00      77.54       2.22       1.48       1.25       ----

> <Gold.Chemscore.Fitness>
16.9103

> <Gold.Chemscore.DG>
-19.6408

> <Gold.Chemscore.ZeroCoef>
-5.4800

> <Gold.Chemscore.Hbond>
3.2288

> <Gold.Chemscore.Metal>
0.0000

> <Gold.Chemscore.Lipo>
77.5408

> <Gold.Chemscore.Internal_Hbond>
0.0000

> <Gold.Chemscore.DEClash>
1.4814

> <Gold.Chemscore.DEInternal>
1.2492

> <Gold.Chemscore.Rot>
2.2249

> <Gold.Chemscore.Internal.Correction>
   9.000000E+99

> <Gold.Chemscore.Hbonds>
donor molecule, donor type, donor heavy atom, donor atom, acceptor molecule, acceptor atom, score
      L1  H     5    51       P1 10747  0.74
      L1  H    11    41       P1  7948  0.65
      P1  H  7989  7998       L1    23  0.56
      P1  H 10752 10763       L1    13  0.40

> <Gold.Chemscore.Hbond.Weighted>
-10.7843

> <Gold.Chemscore.Metal.Weighted>
-0.0000

> <Gold.Chemscore.Lipo.Weighted>
-9.0723

> <Gold.Chemscore.Internal_Hbond.Weighted>
0.0000

> <Gold.Chemscore.DEClash.Weighted>
1.4814

> <Gold.Chemscore.DEInternal.Weighted>
1.2492

> <Gold.Chemscore.Rot.Weighted>
5.6957

> <Gold.Chemscore.Internal.Correction.Weighted>
   9.000000E+99

> <Gold.Protein.RotatedTorsions>
[ 6907 6896 6895 6894 ] final  -80.88 input  -60.11 | X-H torsion
[ 7974 7965 7964 7962 ] final   21.98 input  175.53 | X-H torsion
[ 8008 7997 7996 7995 ] final -119.24 input   59.86 | X-H torsion
[ 10167 10162 10161 10158 ] final  -63.50 input  -65.29 | X-H torsion
[ 10718 10713 10712 10709 ] final  -84.24 input   66.30 | X-H torsion
[ 10763 10752 10751 10750 ] final   91.44 input  -60.55 | X-H torsion
[ 11005 11000 10999 10996 ] final -106.54 input  -57.11 | X-H torsion

> <Gold.Protein.ActiveResidues>
 VAL166  LYS551  ARG553  GLY616  TRP617  ASP618  TYR619  PRO620  LYS621  CYS622 
 ASP623  PHE694  ASN695  SER759  ASP760  ASP761  ALA762  ILE779  LEU786  VAL792 
 PHE793  MET794  SER795  GLU796  ALA797  LYS798  CYS799  TRP800  GLU811  SER814 

> <Gold.Protein.RotatedAtoms>
  150.6921  134.3902  159.5072 H   0  0  0  0  0  0  0  0  0  0  0  0  # atno 6907 bound_to 6896
  152.1691  134.8846  160.0545 H   0  0  0  0  0  0  0  0  0  0  0  0  # atno 6908 bound_to 6896
  151.9879  133.3745  159.4170 H   0  0  0  0  0  0  0  0  0  0  0  0  # atno 6909 bound_to 6896
  146.2048  139.7950  142.8734 H   0  0  0  0  0  0  0  0  0  0  0  0  # atno 7974 bound_to 7965
  155.1126  140.0397  157.2728 H   0  0  0  0  0  0  0  0  0  0  0  0  # atno 8008 bound_to 7997
  154.6674  140.2604  155.7018 H   0  0  0  0  0  0  0  0  0  0  0  0  # atno 8009 bound_to 7997
  156.2644  140.2804  156.1170 H   0  0  0  0  0  0  0  0  0  0  0  0  # atno 8010 bound_to 7997
  140.5866  143.2335  151.6229 H   0  0  0  0  0  0  0  0  0  0  0  0  # atno 10167 bound_to 10162
  156.0008  130.4691  150.4379 H   0  0  0  0  0  0  0  0  0  0  0  0  # atno 10718 bound_to 10713
  153.2082  135.4397  155.0349 H   0  0  0  0  0  0  0  0  0  0  0  0  # atno 10763 bound_to 10752
  154.8186  135.3326  154.7108 H   0  0  0  0  0  0  0  0  0  0  0  0  # atno 10764 bound_to 10752
  153.7548  135.6996  153.4993 H   0  0  0  0  0  0  0  0  0  0  0  0  # atno 10765 bound_to 10752
  141.0999  133.8902  157.1868 H   0  0  0  0  0  0  0  0  0  0  0  0  # atno 11005 bound_to 11000
  145.3356  141.0276  143.3421 LP  0  0  0  0  0  0  0  0  0  0  0  0  # atno 17320 bound_to 7965
  144.8768  139.4960  143.6742 LP  0  0  0  0  0  0  0  0  0  0  0  0  # atno 17321 bound_to 7965
  139.5201  144.3232  152.0892 LP  0  0  0  0  0  0  0  0  0  0  0  0  # atno 17342 bound_to 10162
  140.2390  144.4290  150.6268 LP  0  0  0  0  0  0  0  0  0  0  0  0  # atno 17343 bound_to 10162
  157.2423  131.0528  151.2429 LP  0  0  0  0  0  0  0  0  0  0  0  0  # atno 17370 bound_to 10713
  157.3608  130.7130  149.6501 LP  0  0  0  0  0  0  0  0  0  0  0  0  # atno 17371 bound_to 10713
  139.9848  135.0086  156.9835 LP  0  0  0  0  0  0  0  0  0  0  0  0  # atno 17394 bound_to 11000
  140.5047  134.1062  155.7257 LP  0  0  0  0  0  0  0  0  0  0  0  0  # atno 17395 bound_to 11000

$$$$
