AV-unprocessed.smi:35|AV-procd|sdf|275|dock1
  -GOLD-   2262016 43D 1   1.00000     0.00000
 Structure written by MMmdl.
 28 29  0  0  0  0  0  0  0  0  2 V2000
  151.4725  137.2476  159.9883 O   0  0  0  0  0  0  0  0  0  0  0  0
  150.9913  138.1333  159.2839 C   0  0  0  0  0  0  0  0  0  0  0  0
  151.6725  139.2686  158.9536 N   0  5  0  0  0  0  0  0  0  0  0  0
  151.1336  140.2494  158.1711 C   0  0  0  0  0  0  0  0  0  0  0  0
  151.7450  141.2698  157.8535 O   0  0  0  0  0  0  0  0  0  0  0  0
  149.8078  140.0911  157.6822 N   0  0  0  0  0  0  0  0  0  0  0  0
  149.2116  141.1882  156.8192 C   0  0  2  0  0  0  0  0  0  0  0  0
  147.8842  140.8722  156.5064 O   0  0  0  0  0  0  0  0  0  0  0  0
  147.7781  140.4971  155.1359 C   0  0  1  0  0  0  0  0  0  0  0  0
  146.3407  140.7235  154.6432 C   0  0  0  0  0  0  0  0  0  0  0  0
  146.1608  140.1249  153.3775 O   0  0  0  0  0  0  0  0  0  0  0  0
  148.8029  141.4265  154.4875 C   0  0  2  0  0  0  0  0  0  0  0  0
  149.1650  141.0329  153.1767 O   0  0  0  0  0  0  0  0  0  0  0  0
  149.9612  141.3872  155.4795 C   0  0  2  0  0  0  0  0  0  0  0  0
  150.8818  140.3482  155.1803 O   0  0  0  0  0  0  0  0  0  0  0  0
  149.0931  138.9470  157.9982 C   0  0  0  0  0  0  0  0  0  0  0  0
  149.6332  137.9809  158.7684 C   0  0  0  0  0  0  0  0  0  0  0  0
  148.4978  136.3994  159.1386 Br  0  0  0  0  0  0  0  0  0  0  0  0
  149.1979  142.0811  157.4465 H   0  0  0  0  0  0  0  0  0  0  0  0
  148.0856  139.4581  155.0025 H   0  0  0  0  0  0  0  0  0  0  0  0
  145.6106  140.3363  155.3546 H   0  0  0  0  0  0  0  0  0  0  0  0
  146.1471  141.7906  154.5294 H   0  0  0  0  0  0  0  0  0  0  0  0
  145.2475  140.1873  153.1428 H   0  0  0  0  0  0  0  0  0  0  0  0
  148.4015  142.4405  154.4513 H   0  0  0  0  0  0  0  0  0  0  0  0
  149.8317  140.3663  153.2396 H   0  0  0  0  0  0  0  0  0  0  0  0
  150.5030  142.3333  155.5015 H   0  0  0  0  0  0  0  0  0  0  0  0
  151.0269  139.8460  155.9681 H   0  0  0  0  0  0  0  0  0  0  0  0
  148.0883  138.8103  157.6296 H   0  0  0  0  0  0  0  0  0  0  0  0
  1  2  2  0  0  0  0
  2 17  1  0  0  0  0
  2  3  1  0  0  0  0
  3  4  1  0  0  0  0
  4  5  2  0  0  0  0
  4  6  1  0  0  0  0
  6  7  1  0  0  0  0
  6 16  1  0  0  0  0
  7 14  1  0  0  0  0
  7  8  1  0  0  0  0
  7 19  1  0  0  0  0
  8  9  1  0  0  0  0
  9 10  1  0  0  0  0
  9 12  1  0  0  0  0
  9 20  1  0  0  0  0
 10 11  1  0  0  0  0
 10 21  1  0  0  0  0
 10 22  1  0  0  0  0
 11 23  1  0  0  0  0
 12 13  1  0  0  0  0
 12 14  1  0  0  0  0
 12 24  1  0  0  0  0
 13 25  1  0  0  0  0
 14 15  1  0  0  0  0
 14 26  1  0  0  0  0
 15 27  1  0  0  0  0
 16 17  2  0  0  0  0
 16 28  1  0  0  0  0
 17 18  1  0  0  0  0
M  CHG  1   3  -1
M  END
> <s_m_source_file>
AV-unprocessed.smi

> <i_m_source_file_index>
35

> <i_lp_mmshare_version>
43012

> <i_f3d_flags>
0

> <s_epik_input>
Tz1jMVtuSF1jKD1PKW4oW2NIXWMxQnIpW0NAQEhdMk9bQ0BASF0oW0NIMl1bT0hdKVtDQEBIXShbT0hdKVtDQEhdMltPSF0=

> <s_epik_cmdline>
J2VwaWtfcHl0aG9uJywgJy1waCcsICc3LjAnLCAnLXRuJywgJzgnLCAnLW1hJywgJzIwMCcsICctbWV0YWxfYmluZGluZycsICctaW1hZScsICc8aW5maWxlLm1hZT4nLCAnLW9tYWUnLCAnPG91dGZpbGUubWFlPic=

> <r_epik_Ionization_Penalty>
1.06112

> <r_epik_Ionization_Penalty_Charging>
2.1796e-09

> <r_epik_Ionization_Penalty_Neutral>
1.06112

> <r_epik_State_Penalty>
1.11484

> <r_epik_Charging_Adjusted_Penalty>
1.11484

> <i_epik_Tot_Q>
-1

> <i_epik_Tot_abs_Q>
1

> <r_epik_Metal_State_Penalty>
0.0032876

> <b_epik_Metal_Only>
0

> <s_epik_Chemistry_Notes>
This compound contains an acetal/aminal-like group ( X-CH(R)-Y where X, Y are N, S, or O) that may be acid/base labile, releasing an aldehyde.

> <s_lp_Force_Field>
OPLS_2005

> <r_lp_Energy>
47.3884

> <b_lp_Chiralities_Consistent>
1

> <s_lp_Variant>
AV-unprocessed.smi:35-29

> <Gold.Version>
5.8.1

> <Gold.Id.Protein>
6NUR|6NUR_protein|mol2

> <Gold.PLP.Fitness>
37.5518

> <Gold.PLP.PLP>
-25.7447

> <Gold.PLP.part.hbond>
-5.3237

> <Gold.PLP.part.metal>
0.0000

> <Gold.PLP.part.buried>
-5.9851

> <Gold.PLP.part.nonpolar>
-14.4177

> <Gold.PLP.part.repulsive>
0.0448

> <Gold.PLP.ligand.clash>
0.0000

> <Gold.PLP.ligand.torsion>
0.1342

> <Gold.PLP.Chemscore.Hbond>
4.0000

> <Gold.PLP.Chemscore.CHOScore>
0.0000

> <Gold.PLP.Chemscore.Metal>
0.0000

> <Gold.Chemscore.Hbonds>
donor molecule, donor type, donor heavy atom, donor atom, acceptor molecule, acceptor atom, score
      L1  H    11    23       P1 10175  1.00
      P1  H  6896  6908       L1     1  0.86
      P1  H  7989  7998       L1    15  1.00
      P1  H  8011  8017       L1    13  1.00

> <Gold.PLP.Chemscore.Internal.Correction>
0.0756

> <Gold.Rescore>
     Score         DG    S(hbond)    S(metal)    S(lipo)     H(rot)  DE(clash)    DE(int)     intcor
     12.44     -12.85       3.93        0.00      30.31       3.63       0.00       0.41       ----

> <Gold.Chemscore.Fitness>
12.4427

> <Gold.Chemscore.DG>
-12.8546

> <Gold.Chemscore.ZeroCoef>
-5.4800

> <Gold.Chemscore.Hbond>
3.9253

> <Gold.Chemscore.Metal>
0.0000

> <Gold.Chemscore.Lipo>
30.3144

> <Gold.Chemscore.Internal_Hbond>
0.0000

> <Gold.Chemscore.DEClash>
0.0019

> <Gold.Chemscore.DEInternal>
0.4100

> <Gold.Chemscore.Rot>
3.6261

> <Gold.Chemscore.Internal.Correction>
   9.000000E+99

> <Gold.Chemscore.Hbonds>
donor molecule, donor type, donor heavy atom, donor atom, acceptor molecule, acceptor atom, score
      L1  H    11    23       P1 10175  1.00
      P1  H  6896  6908       L1     1  0.84
      P1  H  7989  7998       L1    15  0.44
      P1  H  8011  8017       L1    13  0.52

> <Gold.Chemscore.Hbond.Weighted>
-13.1106

> <Gold.Chemscore.Metal.Weighted>
-0.0000

> <Gold.Chemscore.Lipo.Weighted>
-3.5468

> <Gold.Chemscore.Internal_Hbond.Weighted>
0.0000

> <Gold.Chemscore.DEClash.Weighted>
0.0019

> <Gold.Chemscore.DEInternal.Weighted>
0.4100

> <Gold.Chemscore.Rot.Weighted>
9.2828

> <Gold.Chemscore.Internal.Correction.Weighted>
   9.000000E+99

> <Gold.Protein.RotatedTorsions>
[ 6907 6896 6895 6894 ] final -114.76 input  -60.11 | X-H torsion
[ 7974 7965 7964 7962 ] final  163.92 input  175.53 | X-H torsion
[ 8008 7997 7996 7995 ] final   42.19 input   59.86 | X-H torsion
[ 10167 10162 10161 10158 ] final   11.92 input  -65.29 | X-H torsion
[ 10718 10713 10712 10709 ] final  146.30 input   66.30 | X-H torsion
[ 10763 10752 10751 10750 ] final   87.76 input  -60.55 | X-H torsion
[ 11005 11000 10999 10996 ] final  -88.77 input  -57.11 | X-H torsion

> <Gold.Protein.ActiveResidues>
 VAL166  LYS551  ARG553  GLY616  TRP617  ASP618  TYR619  PRO620  LYS621  CYS622 
 ASP623  PHE694  ASN695  SER759  ASP760  ASP761  ALA762  ILE779  LEU786  VAL792 
 PHE793  MET794  SER795  GLU796  ALA797  LYS798  CYS799  TRP800  GLU811  SER814 

> <Gold.Protein.RotatedAtoms>
  150.7927  133.8754  159.3270 H   0  0  0  0  0  0  0  0  0  0  0  0  # atno 6907 bound_to 6896
  151.6588  135.0990  160.0185 H   0  0  0  0  0  0  0  0  0  0  0  0  # atno 6908 bound_to 6896
  152.4003  133.6769  159.6346 H   0  0  0  0  0  0  0  0  0  0  0  0  # atno 6909 bound_to 6896
  144.7568  139.8252  143.6347 H   0  0  0  0  0  0  0  0  0  0  0  0  # atno 7974 bound_to 7965
  155.2821  140.3373  155.4257 H   0  0  0  0  0  0  0  0  0  0  0  0  # atno 8008 bound_to 7997
  156.2085  140.1760  156.7788 H   0  0  0  0  0  0  0  0  0  0  0  0  # atno 8009 bound_to 7997
  154.5653  140.0680  156.8867 H   0  0  0  0  0  0  0  0  0  0  0  0  # atno 8010 bound_to 7997
  140.6101  143.8426  150.7056 H   0  0  0  0  0  0  0  0  0  0  0  0  # atno 10167 bound_to 10162
  157.3349  131.0926  151.1132 H   0  0  0  0  0  0  0  0  0  0  0  0  # atno 10718 bound_to 10713
  153.1701  135.4531  154.9890 H   0  0  0  0  0  0  0  0  0  0  0  0  # atno 10763 bound_to 10752
  154.7959  135.3237  154.7669 H   0  0  0  0  0  0  0  0  0  0  0  0  # atno 10764 bound_to 10752
  153.8147  135.6952  153.4890 H   0  0  0  0  0  0  0  0  0  0  0  0  # atno 10765 bound_to 10752
  141.1596  133.7590  156.9499 H   0  0  0  0  0  0  0  0  0  0  0  0  # atno 11005 bound_to 11000
  146.1587  139.4693  143.0002 LP  0  0  0  0  0  0  0  0  0  0  0  0  # atno 17320 bound_to 7965
  145.6753  141.0206  143.1635 LP  0  0  0  0  0  0  0  0  0  0  0  0  # atno 17321 bound_to 7965
  140.1992  143.3973  152.1805 LP  0  0  0  0  0  0  0  0  0  0  0  0  # atno 17342 bound_to 10162
  139.5355  144.7204  151.4909 LP  0  0  0  0  0  0  0  0  0  0  0  0  # atno 17343 bound_to 10162
  157.2366  130.6550  149.5872 LP  0  0  0  0  0  0  0  0  0  0  0  0  # atno 17370 bound_to 10713
  155.9700  130.4582  150.5989 LP  0  0  0  0  0  0  0  0  0  0  0  0  # atno 17371 bound_to 10713
  140.1264  134.9384  157.2276 LP  0  0  0  0  0  0  0  0  0  0  0  0  # atno 17394 bound_to 11000
  140.3007  134.3134  155.7290 LP  0  0  0  0  0  0  0  0  0  0  0  0  # atno 17395 bound_to 11000

$$$$
