#       Name:                AV-unprocessed.smi:176
#       Creating user name   scv26
#       Creation time:       Thu Mar 26 19:21:27 2020


#       File generated by GOLD software.
#

@<TRIPOS>MOLECULE
AV-unprocessed.smi:176
    67    71     1
SMALL
NO_CHARGES


@<TRIPOS>ATOM
      1 ****        -6.9983  -2.0006  -1.9805 O.3            1 S1                 0.0000
      2 ****        -6.4751  -1.6877  -0.7061 C.3            1 S1                 0.0000
      3 ****        -5.8150  -0.2979  -0.6823 C.3            1 S1                 0.0000
      4 ****        -6.9129   0.7873  -0.6839 C.3            1 S1                 0.0000
      5 ****        -7.5229   0.9306  -1.9502 O.3            1 S1                 0.0000
      6 ****        -4.7541  -0.1111   0.4263 C.3            1 S1                 0.0000
      7 ****        -3.8735   0.6614  -0.5586 C.3            1 S1                 0.0000
      8 ****        -2.4444   0.6095  -0.4626 N.pl3          1 S1                 0.0000
      9 ****        -1.5520   0.3451  -1.4777 C.2            1 S1                 0.0000
     10 ****        -0.2928   0.3976  -1.1388 N.2            1 S1                 0.0000
     11 ****        -0.3169   0.7543   0.2044 C.ar           1 S1                 0.0000
     12 ****         0.6875   1.0024   1.1820 C.ar           1 S1                 0.0000
     13 ****         2.0128   0.8805   0.9167 N.3            1 S1                 0.0000
     14 ****         2.9465   1.6385   1.7515 C.3            1 S1                 0.0000
     15 ****         4.3480   1.6890   1.1131 C.3            1 S1                 0.0000
     16 ****         4.8737   0.2809   0.7615 C.3            1 S1                 0.0000
     17 ****         5.0821  -0.4134   1.9809 O.3            1 S1                 0.0000
     18 ****         6.2294   0.3436   0.0231 C.3            1 S1                 0.0000
     19 ****         6.7150  -1.0477  -0.4278 C.3            1 S1                 0.0000
     20 ****         5.6522  -1.7760  -1.2664 C.3            1 S1                 0.0000
     21 ****         4.3059  -1.8562  -0.5275 C.3            1 S1                 0.0000
     22 ****         3.8213  -0.4545  -0.1094 C.3            1 S1                 0.0000
     23 ****         2.4403  -0.4754   0.5730 C.3            1 S1                 0.0000
     24 ****         0.2737   1.3757   2.4228 N.ar           1 S1                 0.0000
     25 ****        -1.0299   1.4891   2.6939 C.ar           1 S1                 0.0000
     26 ****        -2.0717   1.2797   1.8869 N.ar           1 S1                 0.0000
     27 ****        -1.6634   0.9099   0.6393 C.ar           1 S1                 0.0000
     28 ****        -4.6326  -0.0871  -1.6562 C.3            1 S1                 0.0000
     29 ****        -7.3825  -2.8631  -1.9451 H              1 S1                 0.0000
     30 ****        -7.2733  -1.7620   0.0331 H              1 S1                 0.0000
     31 ****        -5.7522  -2.4639  -0.4535 H              1 S1                 0.0000
     32 ****        -7.6863   0.5650   0.0518 H              1 S1                 0.0000
     33 ****        -6.5056   1.7596  -0.4062 H              1 S1                 0.0000
     34 ****        -8.1887   1.5983  -1.8896 H              1 S1                 0.0000
     35 ****        -5.0842   0.4707   1.2877 H              1 S1                 0.0000
     36 ****        -4.2926  -1.0475   0.7456 H              1 S1                 0.0000
     37 ****        -4.1357   1.7208  -0.5640 H              1 S1                 0.0000
     38 ****        -1.8631   0.1057  -2.4842 H              1 S1                 0.0000
     39 ****         2.5788   2.6558   1.8922 H              1 S1                 0.0000
     40 ****         3.0013   1.1787   2.7393 H              1 S1                 0.0000
     41 ****         4.2978   2.2935   0.2062 H              1 S1                 0.0000
     42 ****         5.0416   2.2008   1.7814 H              1 S1                 0.0000
     43 ****         5.3957  -1.2818   1.7798 H              1 S1                 0.0000
     44 ****         6.1331   0.9826  -0.8558 H              1 S1                 0.0000
     45 ****         6.9850   0.8120   0.6555 H              1 S1                 0.0000
     46 ****         7.6349  -0.9477  -1.0044 H              1 S1                 0.0000
     47 ****         6.9673  -1.6514   0.4446 H              1 S1                 0.0000
     48 ****         5.5154  -1.2519  -2.2131 H              1 S1                 0.0000
     49 ****         5.9995  -2.7787  -1.5170 H              1 S1                 0.0000
     50 ****         3.5646  -2.3280  -1.1733 H              1 S1                 0.0000
     51 ****         4.4015  -2.4990   0.3484 H              1 S1                 0.0000
     52 ****         3.7012   0.1203  -1.0298 H              1 S1                 0.0000
     53 ****         2.4750  -1.0755   1.4833 H              1 S1                 0.0000
     54 ****         1.7208  -0.9580  -0.0874 H              1 S1                 0.0000
     55 ****        -1.2724   1.7904   3.7022 H              1 S1                 0.0000
     56 ****        -4.1492  -1.0246  -1.9381 H              1 S1                 0.0000
     57 ****        -4.8590   0.5140  -2.5373 H              1 S1                 0.0000
     58 ****        -6.2638  -1.9866  -2.6590 LP             1 S1                 0.0000
     59 ****        -7.6969  -1.3307  -2.2316 LP             1 S1                 0.0000
     60 ****        -7.9391   0.0634  -2.2239 LP             1 S1                 0.0000
     61 ****        -6.8369   1.1991  -2.6264 LP             1 S1                 0.0000
     62 ****         0.5062   0.2215  -1.7137 LP             1 S1                 0.0000
     63 ****         2.0877   1.3947   0.0623 LP             1 S1                 0.0000
     64 ****         4.2214  -0.4738   2.4865 LP             1 S1                 0.0000
     65 ****         5.7602   0.0709   2.5337 LP             1 S1                 0.0000
     66 ****         0.9484   1.5662   3.1358 LP             1 S1                 0.0000
     67 ****        -3.0280   1.3808   2.1613 LP             1 S1                 0.0000
@<TRIPOS>BOND
    1    1    2 1     
    2    1   29 1     
    3    2    3 1     
    4    2   30 1     
    5    2   31 1     
    6    3   28 1     
    7    3    4 1     
    8    3    6 1     
    9    4    5 1     
   10    4   32 1     
   11    4   33 1     
   12    5   34 1     
   13    6    7 1     
   14    6   35 1     
   15    6   36 1     
   16    7    8 1     
   17    7   28 1     
   18    7   37 1     
   19    8   27 1     
   20    8    9 1     
   21    9   10 2     
   22    9   38 1     
   23   10   11 1     
   24   11   27 ar    
   25   11   12 ar    
   26   12   13 1     
   27   12   24 ar    
   28   13   23 1     
   29   13   14 1     
   30   14   15 1     
   31   14   39 1     
   32   14   40 1     
   33   15   16 1     
   34   15   41 1     
   35   15   42 1     
   36   16   22 1     
   37   16   17 1     
   38   16   18 1     
   39   17   43 1     
   40   18   19 1     
   41   18   44 1     
   42   18   45 1     
   43   19   20 1     
   44   19   46 1     
   45   19   47 1     
   46   20   21 1     
   47   20   48 1     
   48   20   49 1     
   49   21   22 1     
   50   21   50 1     
   51   21   51 1     
   52   22   23 1     
   53   22   52 1     
   54   23   53 1     
   55   23   54 1     
   56   24   25 ar    
   57   25   26 ar    
   58   25   55 1     
   59   26   27 ar    
   60   28   56 1     
   61   28   57 1     
   62    1   58 1     
   63    1   59 1     
   64    5   60 1     
   65    5   61 1     
   66   10   62 1     
   67   13   63 1     
   68   17   64 1     
   69   17   65 1     
   70   24   66 1     
   71   26   67 1     
@<TRIPOS>SUBSTRUCTURE
      1 S1             1
@<TRIPOS>SET
LONE_PAIRS      STATIC     ATOMS    <user>   **** ""
10 58 59 60 61 62 63 64 65 66 67
DONOR_HYDROGENS      STATIC     ATOMS    <user>   **** ""
3 29 34 43
ATOM$BLUE        STATIC     ATOMS    COLORGROUP SYSTEM
10 58 59 60 61 62 63 64 65 66 67
ATOM$RED        STATIC     ATOMS    COLORGROUP SYSTEM
3 29 34 43
