#       Name:                AV-unprocessed.smi:2454
#       Creating user name   scv26
#       Creation time:       Fri Mar 27 13:33:44 2020


#       File generated by GOLD software.
#

@<TRIPOS>MOLECULE
AV-unprocessed.smi:2454
    48    49     1
SMALL
NO_CHARGES


@<TRIPOS>ATOM
      1 ****        -6.7642  -3.8912   1.4285 C.3            1 S1                 0.0000
      2 ****        -5.4549  -3.6664   1.9210 O.3            1 S1                 0.0000
      3 ****        -5.2415  -2.3180   2.3030 C.3            1 S1                 0.0000
      4 ****        -3.8408  -2.1141   2.8417 C.ar           1 S1                 0.0000
      5 ****        -2.7740  -1.7527   1.9919 C.ar           1 S1                 0.0000
      6 ****        -1.4988  -1.5955   2.5806 C.ar           1 S1                 0.0000
      7 ****        -0.4538  -1.2378   1.6784 N.am           1 S1                 0.0000
      8 ****         0.8570  -0.9886   1.8862 C.2            1 S1                 0.0000
      9 ****         1.3449  -1.0519   3.0134 O.2            1 S1                 0.0000
     10 ****         1.5785  -0.6724   0.7988 N.am           1 S1                 0.0000
     11 ****         2.9994  -0.3337   0.7749 C.3            1 S1                 0.0000
     12 ****         3.5963  -0.6594  -0.6070 C.3            1 S1                 0.0000
     13 ****         3.0851   0.2972  -1.6972 C.3            1 S1                 0.0000
     14 ****         3.3378   1.7641  -1.3160 C.3            1 S1                 0.0000
     15 ****         2.7085   2.1170   0.0483 C.3            1 S1                 0.0000
     16 ****         2.9446   3.5932   0.4283 C.3            1 S1                 0.0000
     17 ****         4.2473   3.8497   0.5517 F              1 S1                 0.0000
     18 ****         2.4351   4.3932  -0.5083 F              1 S1                 0.0000
     19 ****         2.3397   3.8693   1.5835 F              1 S1                 0.0000
     20 ****         3.2260   1.1500   1.1380 C.3            1 S1                 0.0000
     21 ****        -1.3465  -1.7962   3.9150 N.ar           1 S1                 0.0000
     22 ****        -2.4223  -2.1372   4.6281 C.ar           1 S1                 0.0000
     23 ****        -3.6612  -2.3070   4.1657 N.ar           1 S1                 0.0000
     24 ****        -6.8748  -4.9380   1.1458 H              1 S1                 0.0000
     25 ****        -6.9645  -3.2813   0.5467 H              1 S1                 0.0000
     26 ****        -7.5148  -3.6670   2.1874 H              1 S1                 0.0000
     27 ****        -5.3927  -1.6602   1.4454 H              1 S1                 0.0000
     28 ****        -5.9671  -2.0238   3.0636 H              1 S1                 0.0000
     29 ****        -2.9302  -1.6073   0.9326 H              1 S1                 0.0000
     30 ****        -0.7365  -1.1972   0.7102 H              1 S1                 0.0000
     31 ****         1.0935  -0.6462  -0.0876 H              1 S1                 0.0000
     32 ****         3.5096  -0.9551   1.5130 H              1 S1                 0.0000
     33 ****         4.6833  -0.5874  -0.5528 H              1 S1                 0.0000
     34 ****         3.3744  -1.6916  -0.8814 H              1 S1                 0.0000
     35 ****         3.5747   0.0713  -2.6447 H              1 S1                 0.0000
     36 ****         2.0179   0.1396  -1.8591 H              1 S1                 0.0000
     37 ****         4.4121   1.9503  -1.2863 H              1 S1                 0.0000
     38 ****         2.9347   2.4128  -2.0941 H              1 S1                 0.0000
     39 ****         1.6298   1.9770  -0.0393 H              1 S1                 0.0000
     40 ****         2.7539   1.3735   2.0953 H              1 S1                 0.0000
     41 ****         4.2936   1.3158   1.2867 H              1 S1                 0.0000
     42 ****        -2.2736  -2.2906   5.6866 H              1 S1                 0.0000
     43 ****        -4.7981  -3.9046   1.2055 LP             1 S1                 0.0000
     44 ****        -5.3072  -4.2525   2.7176 LP             1 S1                 0.0000
     45 ****         0.7687  -1.2912   3.7949 LP             1 S1                 0.0000
     46 ****         2.3177  -0.8641   3.1484 LP             1 S1                 0.0000
     47 ****        -0.4530  -1.6914   4.3516 LP             1 S1                 0.0000
     48 ****        -4.4173  -2.5636   4.7677 LP             1 S1                 0.0000
@<TRIPOS>BOND
    1    1    2 1     
    2    1   24 1     
    3    1   25 1     
    4    1   26 1     
    5    2    3 1     
    6    3    4 1     
    7    3   27 1     
    8    3   28 1     
    9    4   23 ar    
   10    4    5 ar    
   11    5    6 ar    
   12    5   29 1     
   13    6    7 1     
   14    6   21 ar    
   15    7    8 am    
   16    7   30 1     
   17    8    9 2     
   18    8   10 am    
   19   10   11 1     
   20   10   31 1     
   21   11   20 1     
   22   11   12 1     
   23   11   32 1     
   24   12   13 1     
   25   12   33 1     
   26   12   34 1     
   27   13   14 1     
   28   13   35 1     
   29   13   36 1     
   30   14   15 1     
   31   14   37 1     
   32   14   38 1     
   33   15   16 1     
   34   15   20 1     
   35   15   39 1     
   36   16   17 1     
   37   16   18 1     
   38   16   19 1     
   39   20   40 1     
   40   20   41 1     
   41   21   22 ar    
   42   22   23 ar    
   43   22   42 1     
   44    2   43 1     
   45    2   44 1     
   46    9   45 1     
   47    9   46 1     
   48   21   47 1     
   49   23   48 1     
@<TRIPOS>SUBSTRUCTURE
      1 S1             1
@<TRIPOS>SET
LONE_PAIRS      STATIC     ATOMS    <user>   **** ""
6 43 44 45 46 47 48
DONOR_HYDROGENS      STATIC     ATOMS    <user>   **** ""
2 30 31
ATOM$BLUE        STATIC     ATOMS    COLORGROUP SYSTEM
6 43 44 45 46 47 48
ATOM$RED        STATIC     ATOMS    COLORGROUP SYSTEM
2 30 31
