AV-unprocessed.smi:1408|AV-procd|sdf|5726|dock1
  -GOLD-   22720 5363D 1   1.00000     0.00000
 Structure written by MMmdl.
 41 42  0  0  0  0  0  0  0  0  1 V2000
  145.6637  134.3806  150.9807 C   0  0  0  0  0  0  0  0  0  0  0  0
  145.9048  132.9893  151.5440 C   0  0  0  0  0  0  0  0  0  0  0  0
  145.1286  131.9095  151.0717 C   0  0  0  0  0  0  0  0  0  0  0  0
  145.3521  130.6240  151.5937 C   0  0  0  0  0  0  0  0  0  0  0  0
  146.3493  130.4717  152.5721 C   0  0  0  0  0  0  0  0  0  0  0  0
  147.0957  131.4978  153.0288 N   0  0  0  0  0  0  0  0  0  0  0  0
  146.8927  132.7454  152.5358 C   0  0  0  0  0  0  0  0  0  0  0  0
  147.6419  133.8753  152.9717 N   0  0  0  0  0  0  0  0  0  0  0  0
  148.0132  134.2025  154.2224 C   0  0  0  0  0  0  0  0  0  0  0  0
  147.7686  133.5458  155.2348 O   0  0  0  0  0  0  0  0  0  0  0  0
  148.6977  135.3557  154.2385 N   0  0  0  0  0  0  0  0  0  0  0  0
  149.2285  136.0026  155.4354 C   0  0  0  0  0  0  0  0  0  0  0  0
  148.6450  137.4166  155.5674 C   0  0  0  0  0  0  0  0  0  0  0  0
  149.2216  138.1488  156.7920 C   0  0  0  0  0  0  0  0  0  0  0  0
  150.6984  138.1627  156.7758 N   0  0  0  0  0  0  0  0  0  0  0  0
  151.5494  139.5975  156.2793 S   0  0  0  0  0  0  0  0  0  0  0  0
  151.2421  140.7934  157.6427 C   0  0  0  0  0  0  0  0  0  0  0  0
  152.9864  139.2843  156.2588 O   0  0  0  0  0  0  0  0  0  0  0  0
  150.8972  140.1096  155.0644 O   0  0  0  0  0  0  0  0  0  0  0  0
  151.3253  136.8363  156.6046 C   0  0  0  0  0  0  0  0  0  0  0  0
  150.7629  136.0921  155.3802 C   0  0  0  0  0  0  0  0  0  0  0  0
  144.8675  134.3753  150.2356 H   0  0  0  0  0  0  0  0  0  0  0  0
  146.5671  134.7607  150.5029 H   0  0  0  0  0  0  0  0  0  0  0  0
  145.3745  135.0694  151.7750 H   0  0  0  0  0  0  0  0  0  0  0  0
  144.3697  132.0614  150.3183 H   0  0  0  0  0  0  0  0  0  0  0  0
  144.7746  129.7774  151.2533 H   0  0  0  0  0  0  0  0  0  0  0  0
  146.5540  129.5012  152.9997 H   0  0  0  0  0  0  0  0  0  0  0  0
  147.9207  134.5139  152.2421 H   0  0  0  0  0  0  0  0  0  0  0  0
  148.8547  135.8277  153.3603 H   0  0  0  0  0  0  0  0  0  0  0  0
  148.9340  135.4256  156.3145 H   0  0  0  0  0  0  0  0  0  0  0  0
  148.8480  137.9891  154.6628 H   0  0  0  0  0  0  0  0  0  0  0  0
  147.5593  137.3636  155.6563 H   0  0  0  0  0  0  0  0  0  0  0  0
  148.8321  139.1652  156.8445 H   0  0  0  0  0  0  0  0  0  0  0  0
  148.8932  137.6472  157.7029 H   0  0  0  0  0  0  0  0  0  0  0  0
  151.7439  141.7327  157.4114 H   0  0  0  0  0  0  0  0  0  0  0  0
  151.6397  140.4011  158.5770 H   0  0  0  0  0  0  0  0  0  0  0  0
  150.1737  140.9784  157.7401 H   0  0  0  0  0  0  0  0  0  0  0  0
  152.4075  136.9349  156.5238 H   0  0  0  0  0  0  0  0  0  0  0  0
  151.1374  136.2493  157.5042 H   0  0  0  0  0  0  0  0  0  0  0  0
  151.1958  135.0920  155.3378 H   0  0  0  0  0  0  0  0  0  0  0  0
  151.0722  136.5950  154.4646 H   0  0  0  0  0  0  0  0  0  0  0  0
  1  2  1  0  0  0  0
  1 22  1  0  0  0  0
  1 23  1  0  0  0  0
  1 24  1  0  0  0  0
  2  7  1  0  0  0  0
  2  3  2  0  0  0  0
  3  4  1  0  0  0  0
  3 25  1  0  0  0  0
  4  5  2  0  0  0  0
  4 26  1  0  0  0  0
  5  6  1  0  0  0  0
  5 27  1  0  0  0  0
  6  7  2  0  0  0  0
  7  8  1  0  0  0  0
  8  9  1  0  0  0  0
  8 28  1  0  0  0  0
  9 10  2  0  0  0  0
  9 11  1  0  0  0  0
 11 12  1  0  0  0  0
 11 29  1  0  0  0  0
 12 21  1  0  0  0  0
 12 13  1  0  0  0  0
 12 30  1  0  0  0  0
 13 14  1  0  0  0  0
 13 31  1  0  0  0  0
 13 32  1  0  0  0  0
 14 15  1  0  0  0  0
 14 33  1  0  0  0  0
 14 34  1  0  0  0  0
 15 16  1  0  0  0  0
 15 20  1  0  0  0  0
 16 17  1  0  0  0  0
 16 18  2  0  0  0  0
 16 19  2  0  0  0  0
 17 35  1  0  0  0  0
 17 36  1  0  0  0  0
 17 37  1  0  0  0  0
 20 21  1  0  0  0  0
 20 38  1  0  0  0  0
 20 39  1  0  0  0  0
 21 40  1  0  0  0  0
 21 41  1  0  0  0  0
M  END
> <s_m_source_file>
AV-unprocessed.smi

> <i_m_source_file_index>
1408

> <i_lp_mmshare_version>
43012

> <i_f3d_flags>
0

> <s_epik_input>
W0NIM11jMVtjSF1bY0hdW2NIXW5jMVtOSF1DKD1PKVtOSF1bQ0hdMltDSDJdW0NIMl1OKFMoPU8pKD1PKVtDSDNdKVtDSDJdW0NIMl0y

> <s_epik_cmdline>
J2VwaWtfcHl0aG9uJywgJy1waCcsICc3LjAnLCAnLXRuJywgJzgnLCAnLW1hJywgJzIwMCcsICctbWV0YWxfYmluZGluZycsICctaW1hZScsICc8aW5maWxlLm1hZT4nLCAnLW9tYWUnLCAnPG91dGZpbGUubWFlPic=

> <r_lp_tautomer_probability>
1

> <r_epik_Ionization_Penalty>
5.70787e-05

> <r_epik_Ionization_Penalty_Charging>
0

> <r_epik_Ionization_Penalty_Neutral>
5.70787e-05

> <r_epik_State_Penalty>
-0

> <r_epik_Charging_Adjusted_Penalty>
0

> <i_epik_Tot_Q>
0

> <i_epik_Tot_abs_Q>
0

> <r_epik_Metal_State_Penalty>
-0

> <b_epik_Metal_Only>
0

> <s_lp_Force_Field>
OPLS_2005

> <r_lp_Energy>
5.75517

> <b_lp_Chiralities_Consistent>
1

> <s_lp_Variant>
AV-unprocessed.smi:1408-1

> <Gold.Version>
5.8.1

> <Gold.Id.Protein>
6NUR|6NUR_protein|mol2

> <Gold.PLP.Fitness>
39.3345

> <Gold.PLP.PLP>
-28.4980

> <Gold.PLP.part.hbond>
-3.9283

> <Gold.PLP.part.metal>
0.0000

> <Gold.PLP.part.buried>
-5.3937

> <Gold.PLP.part.nonpolar>
-19.6712

> <Gold.PLP.part.repulsive>
0.1905

> <Gold.PLP.ligand.clash>
0.0000

> <Gold.PLP.ligand.torsion>
1.4238

> <Gold.PLP.Chemscore.Hbond>
3.8710

> <Gold.PLP.Chemscore.CHOScore>
0.0000

> <Gold.PLP.Chemscore.Metal>
0.0000

> <Gold.Chemscore.Hbonds>
donor molecule, donor type, donor heavy atom, donor atom, acceptor molecule, acceptor atom, score
      L1  H     8    28       P1  7948  0.90
      L1  H    11    29       P1  7948  1.00
      P1  H  7989  7998       L1    19  1.00
      P1  H  7997  8009       L1    18  1.00

> <Gold.PLP.Chemscore.Internal.Correction>
2.0712

> <Gold.Rescore>
     Score         DG    S(hbond)    S(metal)    S(lipo)     H(rot)  DE(clash)    DE(int)     intcor
     19.44     -20.92       3.48        0.00      54.40       1.00       0.00       1.49       ----

> <Gold.Chemscore.Fitness>
19.4374

> <Gold.Chemscore.DG>
-20.9230

> <Gold.Chemscore.ZeroCoef>
-5.4800

> <Gold.Chemscore.Hbond>
3.4844

> <Gold.Chemscore.Metal>
0.0000

> <Gold.Chemscore.Lipo>
54.4017

> <Gold.Chemscore.Internal_Hbond>
0.0000

> <Gold.Chemscore.DEClash>
0.0000

> <Gold.Chemscore.DEInternal>
1.4856

> <Gold.Chemscore.Rot>
1.0000

> <Gold.Chemscore.Internal.Correction>
   9.000000E+99

> <Gold.Chemscore.Hbonds>
donor molecule, donor type, donor heavy atom, donor atom, acceptor molecule, acceptor atom, score
      L1  H     8    28       P1  7948  0.30
      L1  H    11    29       P1  7948  0.90
      P1  H  7989  7998       L1    19  1.00
      P1  H  7997  8009       L1    18  0.98

> <Gold.Chemscore.Hbond.Weighted>
-11.6380

> <Gold.Chemscore.Metal.Weighted>
-0.0000

> <Gold.Chemscore.Lipo.Weighted>
-6.3650

> <Gold.Chemscore.Internal_Hbond.Weighted>
0.0000

> <Gold.Chemscore.DEClash.Weighted>
0.0000

> <Gold.Chemscore.DEInternal.Weighted>
1.4856

> <Gold.Chemscore.Rot.Weighted>
2.5600

> <Gold.Chemscore.Internal.Correction.Weighted>
   9.000000E+99

> <Gold.Protein.RotatedTorsions>
[ 6907 6896 6895 6894 ] final    7.10 input  -60.11 | X-H torsion
[ 7974 7965 7964 7962 ] final -145.95 input  175.53 | X-H torsion
[ 8008 7997 7996 7995 ] final -179.78 input   59.86 | X-H torsion
[ 10167 10162 10161 10158 ] final  153.45 input  -65.29 | X-H torsion
[ 10718 10713 10712 10709 ] final  162.55 input   66.30 | X-H torsion
[ 10763 10752 10751 10750 ] final  100.47 input  -60.55 | X-H torsion
[ 11005 11000 10999 10996 ] final   85.04 input  -57.11 | X-H torsion

> <Gold.Protein.ActiveResidues>
 VAL166  LYS551  ARG553  GLY616  TRP617  ASP618  TYR619  PRO620  LYS621  CYS622 
 ASP623  PHE694  ASN695  SER759  ASP760  ASP761  ALA762  ILE779  LEU786  VAL792 
 PHE793  MET794  SER795  GLU796  ALA797  LYS798  CYS799  TRP800  GLU811  SER814 

> <Gold.Protein.RotatedAtoms>
  151.6844  135.0956  160.0221 H   0  0  0  0  0  0  0  0  0  0  0  0  # atno 6907 bound_to 6896
  152.3816  133.6549  159.6174 H   0  0  0  0  0  0  0  0  0  0  0  0  # atno 6908 bound_to 6896
  150.7751  133.9021  159.3385 H   0  0  0  0  0  0  0  0  0  0  0  0  # atno 6909 bound_to 6896
  144.8193  140.5519  143.5589 H   0  0  0  0  0  0  0  0  0  0  0  0  # atno 7974 bound_to 7965
  156.0345  140.1289  157.0223 H   0  0  0  0  0  0  0  0  0  0  0  0  # atno 8008 bound_to 7997
  154.4364  140.1043  156.6217 H   0  0  0  0  0  0  0  0  0  0  0  0  # atno 8009 bound_to 7997
  155.5759  140.3467  155.4529 H   0  0  0  0  0  0  0  0  0  0  0  0  # atno 8010 bound_to 7997
  139.4827  144.5272  151.7781 H   0  0  0  0  0  0  0  0  0  0  0  0  # atno 10167 bound_to 10162
  157.1209  131.0492  151.2415 H   0  0  0  0  0  0  0  0  0  0  0  0  # atno 10718 bound_to 10713
  153.3144  135.4078  155.1363 H   0  0  0  0  0  0  0  0  0  0  0  0  # atno 10763 bound_to 10752
  154.8584  135.3572  154.5681 H   0  0  0  0  0  0  0  0  0  0  0  0  # atno 10764 bound_to 10752
  153.6111  135.7068  153.5405 H   0  0  0  0  0  0  0  0  0  0  0  0  # atno 10765 bound_to 10752
  139.8983  134.8259  156.2527 H   0  0  0  0  0  0  0  0  0  0  0  0  # atno 11005 bound_to 11000
  145.5143  139.1478  143.3588 LP  0  0  0  0  0  0  0  0  0  0  0  0  # atno 17320 bound_to 7965
  146.2497  140.5283  142.8898 LP  0  0  0  0  0  0  0  0  0  0  0  0  # atno 17321 bound_to 7965
  140.4794  144.1472  150.5930 LP  0  0  0  0  0  0  0  0  0  0  0  0  # atno 17342 bound_to 10162
  140.4295  143.2574  151.9614 LP  0  0  0  0  0  0  0  0  0  0  0  0  # atno 17343 bound_to 10162
  157.4477  130.7580  149.7124 LP  0  0  0  0  0  0  0  0  0  0  0  0  # atno 17370 bound_to 10713
  155.9829  130.4006  150.3393 LP  0  0  0  0  0  0  0  0  0  0  0  0  # atno 17371 bound_to 10713
  141.0213  133.7040  156.1273 LP  0  0  0  0  0  0  0  0  0  0  0  0  # atno 17394 bound_to 11000
  140.7229  134.4338  157.5573 LP  0  0  0  0  0  0  0  0  0  0  0  0  # atno 17395 bound_to 11000

$$$$
