AV-unprocessed.smi:937|AV-procd|sdf|4210|dock8
  -GOLD-   22720 2113D 1   1.00000     0.00000
 Structure written by MMmdl.
 45 46  0  0  0  0  0  0  0  0  1 V2000
  152.7487  142.8662  158.8812 C   0  0  0  0  0  0  0  0  0  0  0  0
  152.1529  142.0091  157.7840 C   0  0  0  0  0  0  0  0  0  0  0  0
  151.0887  142.4898  156.9923 C   0  0  0  0  0  0  0  0  0  0  0  0
  150.5750  141.6554  155.9809 C   0  0  0  0  0  0  0  0  0  0  0  0
  151.1435  140.3780  155.8001 C   0  0  0  0  0  0  0  0  0  0  0  0
  150.6277  139.4393  154.7277 C   0  0  0  0  0  0  0  0  0  0  0  0
  151.4781  138.1639  154.6172 C   0  0  0  0  0  0  0  0  0  0  0  0
  150.6763  137.0279  154.1795 N   0  0  0  0  0  0  0  0  0  0  0  0
  150.6401  135.8305  154.7885 C   0  0  0  0  0  0  0  0  0  0  0  0
  151.2756  135.5711  155.8087 O   0  0  0  0  0  0  0  0  0  0  0  0
  149.8494  134.9178  154.1957 N   0  0  0  0  0  0  0  0  0  0  0  0
  149.5920  133.5344  154.6007 C   0  0  1  0  0  0  0  0  0  0  0  0
  149.0626  132.7073  153.4113 C   0  0  0  0  0  0  0  0  0  0  0  0
  148.8655  131.2352  153.8008 C   0  0  0  0  0  0  0  0  0  0  0  0
  150.1626  130.6268  154.3557 C   0  0  0  0  0  0  0  0  0  0  0  0
  150.7053  131.4358  155.5527 C   0  0  1  0  0  0  0  0  0  0  0  0
  152.0025  130.8240  156.1213 C   0  0  0  0  0  0  0  0  0  0  0  0
  152.4438  131.5305  157.1624 F   0  0  0  0  0  0  0  0  0  0  0  0
  151.7821  129.5695  156.5142 F   0  0  0  0  0  0  0  0  0  0  0  0
  152.9483  130.8048  155.1821 F   0  0  0  0  0  0  0  0  0  0  0  0
  150.8904  132.9160  155.1533 C   0  0  0  0  0  0  0  0  0  0  0  0
  152.2048  139.9925  156.6464 C   0  0  0  0  0  0  0  0  0  0  0  0
  152.7042  140.7862  157.6182 N   0  0  0  0  0  0  0  0  0  0  0  0
  152.0218  143.5923  159.2460 H   0  0  0  0  0  0  0  0  0  0  0  0
  153.6163  143.4085  158.5045 H   0  0  0  0  0  0  0  0  0  0  0  0
  153.0663  142.2536  159.7259 H   0  0  0  0  0  0  0  0  0  0  0  0
  150.6753  143.4746  157.1540 H   0  0  0  0  0  0  0  0  0  0  0  0
  149.7595  141.9913  155.3573 H   0  0  0  0  0  0  0  0  0  0  0  0
  149.5910  139.1809  154.9489 H   0  0  0  0  0  0  0  0  0  0  0  0
  150.6153  139.9707  153.7749 H   0  0  0  0  0  0  0  0  0  0  0  0
  152.3141  138.3184  153.9326 H   0  0  0  0  0  0  0  0  0  0  0  0
  151.9120  137.9199  155.5873 H   0  0  0  0  0  0  0  0  0  0  0  0
  150.1182  137.1557  153.3481 H   0  0  0  0  0  0  0  0  0  0  0  0
  149.3545  135.2284  153.3722 H   0  0  0  0  0  0  0  0  0  0  0  0
  148.8522  133.5225  155.4033 H   0  0  0  0  0  0  0  0  0  0  0  0
  148.1183  133.1165  153.0508 H   0  0  0  0  0  0  0  0  0  0  0  0
  149.7634  132.7698  152.5773 H   0  0  0  0  0  0  0  0  0  0  0  0
  148.0750  131.1576  154.5485 H   0  0  0  0  0  0  0  0  0  0  0  0
  148.5288  130.6641  152.9350 H   0  0  0  0  0  0  0  0  0  0  0  0
  149.9784  129.5943  154.6531 H   0  0  0  0  0  0  0  0  0  0  0  0
  150.9122  130.5896  153.5643 H   0  0  0  0  0  0  0  0  0  0  0  0
  149.9547  131.3986  156.3440 H   0  0  0  0  0  0  0  0  0  0  0  0
  151.6809  132.9949  154.4052 H   0  0  0  0  0  0  0  0  0  0  0  0
  151.2271  133.4916  156.0163 H   0  0  0  0  0  0  0  0  0  0  0  0
  152.6656  139.0210  156.5426 H   0  0  0  0  0  0  0  0  0  0  0  0
  1  2  1  0  0  0  0
  1 24  1  0  0  0  0
  1 25  1  0  0  0  0
  1 26  1  0  0  0  0
  2 23  1  0  0  0  0
  2  3  2  0  0  0  0
  3  4  1  0  0  0  0
  3 27  1  0  0  0  0
  4  5  2  0  0  0  0
  4 28  1  0  0  0  0
  5  6  1  0  0  0  0
  5 22  1  0  0  0  0
  6  7  1  0  0  0  0
  6 29  1  0  0  0  0
  6 30  1  0  0  0  0
  7  8  1  0  0  0  0
  7 31  1  0  0  0  0
  7 32  1  0  0  0  0
  8  9  1  0  0  0  0
  8 33  1  0  0  0  0
  9 10  2  0  0  0  0
  9 11  1  0  0  0  0
 11 12  1  0  0  0  0
 11 34  1  0  0  0  0
 12 21  1  0  0  0  0
 12 13  1  0  0  0  0
 12 35  1  0  0  0  0
 13 14  1  0  0  0  0
 13 36  1  0  0  0  0
 13 37  1  0  0  0  0
 14 15  1  0  0  0  0
 14 38  1  0  0  0  0
 14 39  1  0  0  0  0
 15 16  1  0  0  0  0
 15 40  1  0  0  0  0
 15 41  1  0  0  0  0
 16 17  1  0  0  0  0
 16 21  1  0  0  0  0
 16 42  1  0  0  0  0
 17 18  1  0  0  0  0
 17 19  1  0  0  0  0
 17 20  1  0  0  0  0
 21 43  1  0  0  0  0
 21 44  1  0  0  0  0
 22 23  2  0  0  0  0
 22 45  1  0  0  0  0
M  END
> <s_m_source_file>
AV-unprocessed.smi

> <i_m_source_file_index>
937

> <i_lp_mmshare_version>
43012

> <i_f3d_flags>
0

> <s_epik_input>
W0NIM11jMVtjSF1bY0hdYyhbY0hdbjEpW0NIMl1bQ0gyXVtOSF1DKD1PKVtOSF1bQ0BASF0yW0NIMl1bQ0gyXVtDSDJdW0NAQEhdKEMoRikoRilGKVtDSDJdMg==

> <s_epik_cmdline>
J2VwaWtfcHl0aG9uJywgJy1waCcsICc3LjAnLCAnLXRuJywgJzgnLCAnLW1hJywgJzIwMCcsICctbWV0YWxfYmluZGluZycsICctaW1hZScsICc8aW5maWxlLm1hZT4nLCAnLW9tYWUnLCAnPG91dGZpbGUubWFlPic=

> <r_epik_Ionization_Penalty>
0.0563445

> <r_epik_Ionization_Penalty_Charging>
0

> <r_epik_Ionization_Penalty_Neutral>
0.0563445

> <r_epik_State_Penalty>
0.0485409

> <r_epik_Charging_Adjusted_Penalty>
0.0485409

> <i_epik_Tot_Q>
0

> <i_epik_Tot_abs_Q>
0

> <r_epik_Metal_State_Penalty>
0.0443056

> <b_epik_Metal_Only>
0

> <s_lp_Force_Field>
OPLS_2005

> <r_lp_Energy>
17.7613

> <b_lp_Chiralities_Consistent>
1

> <s_lp_Variant>
AV-unprocessed.smi:937-2

> <Gold.Version>
5.8.1

> <Gold.Id.Protein>
6NUR|6NUR_protein|mol2

> <Gold.PLP.Fitness>
47.1735

> <Gold.PLP.PLP>
-42.4765

> <Gold.PLP.part.hbond>
-3.5494

> <Gold.PLP.part.metal>
0.0000

> <Gold.PLP.part.buried>
-4.2144

> <Gold.PLP.part.nonpolar>
-36.7349

> <Gold.PLP.part.repulsive>
0.1477

> <Gold.PLP.ligand.clash>
0.0000

> <Gold.PLP.ligand.torsion>
0.5774

> <Gold.PLP.Chemscore.Hbond>
1.9440

> <Gold.PLP.Chemscore.CHOScore>
0.0000

> <Gold.PLP.Chemscore.Metal>
0.0000

> <Gold.Chemscore.Hbonds>
donor molecule, donor type, donor heavy atom, donor atom, acceptor molecule, acceptor atom, score
      L1  H     8    33       P1  7948  0.74
      L1  H    11    34       P1  7948  0.75
      P1  H 10752 10765       L1    10  0.09

> <Gold.PLP.Chemscore.Internal.Correction>
0.0197

> <Gold.Rescore>
     Score         DG    S(hbond)    S(metal)    S(lipo)     H(rot)  DE(clash)    DE(int)     intcor
     14.31     -16.47       0.88        0.00     103.37       1.58       0.12       2.04       ----

> <Gold.Chemscore.Fitness>
14.3068

> <Gold.Chemscore.DG>
-16.4661

> <Gold.Chemscore.ZeroCoef>
-5.4800

> <Gold.Chemscore.Hbond>
0.8829

> <Gold.Chemscore.Metal>
0.0000

> <Gold.Chemscore.Lipo>
103.3735

> <Gold.Chemscore.Internal_Hbond>
0.0000

> <Gold.Chemscore.DEClash>
0.1225

> <Gold.Chemscore.DEInternal>
2.0368

> <Gold.Chemscore.Rot>
1.5849

> <Gold.Chemscore.Internal.Correction>
   9.000000E+99

> <Gold.Chemscore.Hbonds>
donor molecule, donor type, donor heavy atom, donor atom, acceptor molecule, acceptor atom, score
      L1  H     8    33       P1  7948  0.12
      L1  H    11    34       P1  7948  0.09

> <Gold.Chemscore.Hbond.Weighted>
-2.9488

> <Gold.Chemscore.Metal.Weighted>
-0.0000

> <Gold.Chemscore.Lipo.Weighted>
-12.0947

> <Gold.Chemscore.Internal_Hbond.Weighted>
0.0000

> <Gold.Chemscore.DEClash.Weighted>
0.1225

> <Gold.Chemscore.DEInternal.Weighted>
2.0368

> <Gold.Chemscore.Rot.Weighted>
4.0574

> <Gold.Chemscore.Internal.Correction.Weighted>
   9.000000E+99

> <Gold.Protein.RotatedTorsions>
[ 6907 6896 6895 6894 ] final   80.44 input  -60.11 | X-H torsion
[ 7974 7965 7964 7962 ] final   73.20 input  175.53 | X-H torsion
[ 8008 7997 7996 7995 ] final -146.68 input   59.86 | X-H torsion
[ 10167 10162 10161 10158 ] final -128.94 input  -65.29 | X-H torsion
[ 10718 10713 10712 10709 ] final  -92.06 input   66.30 | X-H torsion
[ 10763 10752 10751 10750 ] final  170.93 input  -60.55 | X-H torsion
[ 11005 11000 10999 10996 ] final  -11.25 input  -57.11 | X-H torsion

> <Gold.Protein.ActiveResidues>
 VAL166  LYS551  ARG553  GLY616  TRP617  ASP618  TYR619  PRO620  LYS621  CYS622 
 ASP623  PHE694  ASN695  SER759  ASP760  ASP761  ALA762  ILE779  LEU786  VAL792 
 PHE793  MET794  SER795  GLU796  ALA797  LYS798  CYS799  TRP800  GLU811  SER814 

> <Gold.Protein.RotatedAtoms>
  152.5235  134.3357  159.9198 H   0  0  0  0  0  0  0  0  0  0  0  0  # atno 6907 bound_to 6896
  151.3306  133.3996  159.2670 H   0  0  0  0  0  0  0  0  0  0  0  0  # atno 6908 bound_to 6896
  150.9884  134.9242  159.7943 H   0  0  0  0  0  0  0  0  0  0  0  0  # atno 6909 bound_to 6896
  145.7438  139.2732  143.1471 H   0  0  0  0  0  0  0  0  0  0  0  0  # atno 7974 bound_to 7965
  155.5633  140.0627  157.2824 H   0  0  0  0  0  0  0  0  0  0  0  0  # atno 8008 bound_to 7997
  154.4383  140.1882  156.0850 H   0  0  0  0  0  0  0  0  0  0  0  0  # atno 8009 bound_to 7997
  156.0430  140.3293  155.7269 H   0  0  0  0  0  0  0  0  0  0  0  0  # atno 8010 bound_to 7997
  139.9450  143.6120  152.2492 H   0  0  0  0  0  0  0  0  0  0  0  0  # atno 10167 bound_to 10162
  155.9999  130.4972  150.5569 H   0  0  0  0  0  0  0  0  0  0  0  0  # atno 10718 bound_to 10713
  154.4047  135.2755  155.2075 H   0  0  0  0  0  0  0  0  0  0  0  0  # atno 10763 bound_to 10752
  154.4086  135.6028  153.5943 H   0  0  0  0  0  0  0  0  0  0  0  0  # atno 10764 bound_to 10752
  152.9831  135.5944  154.4319 H   0  0  0  0  0  0  0  0  0  0  0  0  # atno 10765 bound_to 10752
  140.7533  133.8575  155.9063 H   0  0  0  0  0  0  0  0  0  0  0  0  # atno 11005 bound_to 11000
  146.0422  140.8154  142.9823 LP  0  0  0  0  0  0  0  0  0  0  0  0  # atno 17320 bound_to 7965
  144.6864  140.2927  143.7275 LP  0  0  0  0  0  0  0  0  0  0  0  0  # atno 17321 bound_to 7965
  139.6674  144.7662  151.1847 LP  0  0  0  0  0  0  0  0  0  0  0  0  # atno 17342 bound_to 10162
  140.7600  143.5917  150.8790 LP  0  0  0  0  0  0  0  0  0  0  0  0  # atno 17343 bound_to 10162
  157.3484  131.0729  151.1733 LP  0  0  0  0  0  0  0  0  0  0  0  0  # atno 17370 bound_to 10713
  157.2558  130.6635  149.5952 LP  0  0  0  0  0  0  0  0  0  0  0  0  # atno 17371 bound_to 10713
  140.9731  134.1505  157.4559 LP  0  0  0  0  0  0  0  0  0  0  0  0  # atno 17394 bound_to 11000
  139.8784  134.9985  156.5905 LP  0  0  0  0  0  0  0  0  0  0  0  0  # atno 17395 bound_to 11000

$$$$
