AV-unprocessed.smi:2631|AV-procd|sdf|10249|dock8
  -GOLD-   2272014263D 1   1.00000     0.00000
 Structure written by MMmdl.
 34 35  0  0  0  0  0  0  0  0  2 V2000
  148.7317  140.8999  154.1242 C   0  0  0  0  0  0  0  0  0  0  0  0
  149.8313  140.0437  154.3745 O   0  0  0  0  0  0  0  0  0  0  0  0
  149.9028  139.6287  155.7284 C   0  0  0  0  0  0  0  0  0  0  0  0
  150.4952  138.2116  155.8114 C   0  0  0  0  0  0  0  0  0  0  0  0
  151.1097  137.9490  157.1306 N   0  0  0  0  0  0  0  0  0  0  0  0
  152.2499  138.7019  157.5180 C   0  0  0  0  0  0  0  0  0  0  0  0
  152.7735  139.6588  156.6638 N   0  0  0  0  0  0  0  0  0  0  0  0
  152.8111  138.4793  158.7276 C   0  0  0  0  0  0  0  0  0  0  0  0
  154.2185  139.3372  159.3970 S   0  0  0  0  0  0  0  0  0  0  0  0
  153.4781  140.8645  159.8722 C   0  0  0  0  0  0  0  0  0  0  0  0
  153.5664  141.3028  161.2084 C   0  0  0  0  0  0  0  0  0  0  0  0
  152.9833  142.5284  161.5849 C   0  0  0  0  0  0  0  0  0  0  0  0
  152.3121  143.3139  160.6266 C   0  0  0  0  0  0  0  0  0  0  0  0
  151.6007  144.8163  161.0885 Cl  0  0  0  0  0  0  0  0  0  0  0  0
  152.2220  142.8726  159.2914 C   0  0  0  0  0  0  0  0  0  0  0  0
  152.8040  141.6470  158.9136 C   0  0  0  0  0  0  0  0  0  0  0  0
  152.2569  137.4682  159.6301 C   0  0  0  0  0  0  0  0  0  0  0  0
  152.7646  137.2452  160.7300 O   0  0  0  0  0  0  0  0  0  0  0  0
  151.1584  136.7961  159.1904 N   0  5  0  0  0  0  0  0  0  0  0  0
  150.5712  137.0136  157.9757 C   0  0  0  0  0  0  0  0  0  0  0  0
  149.5697  136.3887  157.6241 O   0  0  0  0  0  0  0  0  0  0  0  0
  148.7239  141.1872  153.0728 H   0  0  0  0  0  0  0  0  0  0  0  0
  148.7961  141.8099  154.7221 H   0  0  0  0  0  0  0  0  0  0  0  0
  147.7868  140.4012  154.3436 H   0  0  0  0  0  0  0  0  0  0  0  0
  150.5381  140.3204  156.2833 H   0  0  0  0  0  0  0  0  0  0  0  0
  148.9140  139.6592  156.1884 H   0  0  0  0  0  0  0  0  0  0  0  0
  149.7247  137.4805  155.5626 H   0  0  0  0  0  0  0  0  0  0  0  0
  151.2363  138.0791  155.0230 H   0  0  0  0  0  0  0  0  0  0  0  0
  152.3625  139.8403  155.7595 H   0  0  0  0  0  0  0  0  0  0  0  0
  153.4956  140.2972  156.9643 H   0  0  0  0  0  0  0  0  0  0  0  0
  154.0829  140.7039  161.9439 H   0  0  0  0  0  0  0  0  0  0  0  0
  153.0532  142.8653  162.6087 H   0  0  0  0  0  0  0  0  0  0  0  0
  151.7084  143.4731  158.5551 H   0  0  0  0  0  0  0  0  0  0  0  0
  152.7366  141.3127  157.8885 H   0  0  0  0  0  0  0  0  0  0  0  0
  1  2  1  0  0  0  0
  1 22  1  0  0  0  0
  1 23  1  0  0  0  0
  1 24  1  0  0  0  0
  2  3  1  0  0  0  0
  3  4  1  0  0  0  0
  3 25  1  0  0  0  0
  3 26  1  0  0  0  0
  4  5  1  0  0  0  0
  4 27  1  0  0  0  0
  4 28  1  0  0  0  0
  5 20  1  0  0  0  0
  5  6  1  0  0  0  0
  6  7  1  0  0  0  0
  6  8  2  0  0  0  0
  7 29  1  0  0  0  0
  7 30  1  0  0  0  0
  8  9  1  0  0  0  0
  8 17  1  0  0  0  0
  9 10  1  0  0  0  0
 10 16  1  0  0  0  0
 10 11  2  0  0  0  0
 11 12  1  0  0  0  0
 11 31  1  0  0  0  0
 12 13  2  0  0  0  0
 12 32  1  0  0  0  0
 13 14  1  0  0  0  0
 13 15  1  0  0  0  0
 15 16  2  0  0  0  0
 15 33  1  0  0  0  0
 16 34  1  0  0  0  0
 17 18  2  0  0  0  0
 17 19  1  0  0  0  0
 19 20  1  0  0  0  0
 20 21  2  0  0  0  0
M  CHG  1  19  -1
M  END
> <s_m_source_file>
AV-unprocessed.smi

> <i_m_source_file_index>
2631

> <i_lp_mmshare_version>
43012

> <i_f3d_flags>
0

> <s_epik_input>
W0NIM11PW0NIMl1bQ0gyXW4xYyhbTkgyXSljKGMoPU8pW25IXWMxPU8pU2MyW2NIXVtjSF1jKENsKVtjSF1bY0hdMg==

> <s_epik_cmdline>
J2VwaWtfcHl0aG9uJywgJy1waCcsICc3LjAnLCAnLXRuJywgJzgnLCAnLW1hJywgJzIwMCcsICctbWV0YWxfYmluZGluZycsICctaW1hZScsICc8aW5maWxlLm1hZT4nLCAnLW9tYWUnLCAnPG91dGZpbGUubWFlPic=

> <r_lp_tautomer_probability>
1

> <r_epik_Ionization_Penalty>
5.35309

> <r_epik_Ionization_Penalty_Charging>
0.0281434

> <r_epik_Ionization_Penalty_Neutral>
5.32495

> <r_epik_State_Penalty>
5.32488

> <r_epik_Charging_Adjusted_Penalty>
5.35302

> <i_epik_Tot_Q>
-1

> <i_epik_Tot_abs_Q>
1

> <r_epik_Metal_State_Penalty>
1.30191

> <b_epik_Metal_Only>
1

> <s_epik_Chemistry_Notes>
This compound has an imine and may undergo hydrolysis.

> <s_lp_Force_Field>
OPLS_2005

> <r_lp_Energy>
29.1443

> <b_lp_Chiralities_Consistent>
1

> <s_lp_Variant>
AV-unprocessed.smi:2631-2

> <Gold.Version>
5.8.1

> <Gold.Id.Protein>
6NUR|6NUR_protein|mol2

> <Gold.PLP.Fitness>
39.6716

> <Gold.PLP.PLP>
-31.9432

> <Gold.PLP.part.hbond>
-2.0000

> <Gold.PLP.part.metal>
0.0000

> <Gold.PLP.part.buried>
-2.3893

> <Gold.PLP.part.nonpolar>
-31.0927

> <Gold.PLP.part.repulsive>
3.9859

> <Gold.PLP.ligand.clash>
0.0000

> <Gold.PLP.ligand.torsion>
0.5980

> <Gold.PLP.Chemscore.Hbond>
2.9600

> <Gold.PLP.Chemscore.CHOScore>
0.0000

> <Gold.PLP.Chemscore.Metal>
0.0000

> <Gold.Chemscore.Hbonds>
donor molecule, donor type, donor heavy atom, donor atom, acceptor molecule, acceptor atom, score
      P1  H  6896  6909       L1    19  2.00
      P1  H  7989  7998       L1     2  0.67

> <Gold.PLP.Chemscore.Internal.Correction>
0.0445

> <Gold.Rescore>
     Score         DG    S(hbond)    S(metal)    S(lipo)     H(rot)  DE(clash)    DE(int)     intcor
     12.97     -17.27       1.50        0.00     102.14       2.02       1.50       2.80       ----

> <Gold.Chemscore.Fitness>
12.9746

> <Gold.Chemscore.DG>
-17.2732

> <Gold.Chemscore.ZeroCoef>
-5.4800

> <Gold.Chemscore.Hbond>
1.5038

> <Gold.Chemscore.Metal>
0.0000

> <Gold.Chemscore.Lipo>
102.1390

> <Gold.Chemscore.Internal_Hbond>
0.0000

> <Gold.Chemscore.DEClash>
1.4998

> <Gold.Chemscore.DEInternal>
2.7988

> <Gold.Chemscore.Rot>
2.0234

> <Gold.Chemscore.Internal.Correction>
   9.000000E+99

> <Gold.Chemscore.Hbonds>
donor molecule, donor type, donor heavy atom, donor atom, acceptor molecule, acceptor atom, score
      P1  H  6896  6909       L1    19  0.69
      P1  H  7989  7998       L1     2  0.43

> <Gold.Chemscore.Hbond.Weighted>
-5.0228

> <Gold.Chemscore.Metal.Weighted>
-0.0000

> <Gold.Chemscore.Lipo.Weighted>
-11.9503

> <Gold.Chemscore.Internal_Hbond.Weighted>
0.0000

> <Gold.Chemscore.DEClash.Weighted>
1.4998

> <Gold.Chemscore.DEInternal.Weighted>
2.7988

> <Gold.Chemscore.Rot.Weighted>
5.1798

> <Gold.Chemscore.Internal.Correction.Weighted>
   9.000000E+99

> <Gold.Protein.RotatedTorsions>
[ 6907 6896 6895 6894 ] final   94.01 input  -60.11 | X-H torsion
[ 7974 7965 7964 7962 ] final  -83.75 input  175.53 | X-H torsion
[ 8008 7997 7996 7995 ] final -133.47 input   59.86 | X-H torsion
[ 10167 10162 10161 10158 ] final   31.58 input  -65.29 | X-H torsion
[ 10718 10713 10712 10709 ] final -171.14 input   66.30 | X-H torsion
[ 10763 10752 10751 10750 ] final -142.83 input  -60.55 | X-H torsion
[ 11005 11000 10999 10996 ] final  131.65 input  -57.11 | X-H torsion

> <Gold.Protein.ActiveResidues>
 VAL166  LYS551  ARG553  GLY616  TRP617  ASP618  TYR619  PRO620  LYS621  CYS622 
 ASP623  PHE694  ASN695  SER759  ASP760  ASP761  ALA762  ILE779  LEU786  VAL792 
 PHE793  MET794  SER795  GLU796  ALA797  LYS798  CYS799  TRP800  GLU811  SER814 

> <Gold.Protein.RotatedAtoms>
  152.5451  134.1259  159.8418 H   0  0  0  0  0  0  0  0  0  0  0  0  # atno 6907 bound_to 6896
  151.1310  133.5030  159.2606 H   0  0  0  0  0  0  0  0  0  0  0  0  # atno 6908 bound_to 6896
  151.1675  135.0312  159.8792 H   0  0  0  0  0  0  0  0  0  0  0  0  # atno 6909 bound_to 6896
  145.5159  140.9536  143.1682 H   0  0  0  0  0  0  0  0  0  0  0  0  # atno 7974 bound_to 7965
  155.3460  140.0474  157.3045 H   0  0  0  0  0  0  0  0  0  0  0  0  # atno 8008 bound_to 7997
  154.5252  140.2238  155.8867 H   0  0  0  0  0  0  0  0  0  0  0  0  # atno 8009 bound_to 7997
  156.1732  140.3091  155.9017 H   0  0  0  0  0  0  0  0  0  0  0  0  # atno 8010 bound_to 7997
  140.4575  144.0956  150.6205 H   0  0  0  0  0  0  0  0  0  0  0  0  # atno 10167 bound_to 10162
  156.7365  130.9326  151.3107 H   0  0  0  0  0  0  0  0  0  0  0  0  # atno 10718 bound_to 10713
  154.8494  135.3485  154.6090 H   0  0  0  0  0  0  0  0  0  0  0  0  # atno 10763 bound_to 10752
  153.6699  135.6985  153.5155 H   0  0  0  0  0  0  0  0  0  0  0  0  # atno 10764 bound_to 10752
  153.2751  135.4281  155.0982 H   0  0  0  0  0  0  0  0  0  0  0  0  # atno 10765 bound_to 10752
  139.9743  134.9568  156.9469 H   0  0  0  0  0  0  0  0  0  0  0  0  # atno 11005 bound_to 11000
  144.7702  139.6752  143.7198 LP  0  0  0  0  0  0  0  0  0  0  0  0  # atno 17320 bound_to 7965
  146.2137  139.5512  142.9664 LP  0  0  0  0  0  0  0  0  0  0  0  0  # atno 17321 bound_to 7965
  140.4133  143.2646  151.9806 LP  0  0  0  0  0  0  0  0  0  0  0  0  # atno 17342 bound_to 10162
  139.4802  144.5896  151.7794 LP  0  0  0  0  0  0  0  0  0  0  0  0  # atno 17343 bound_to 10162
  157.6837  130.9164  150.0331 LP  0  0  0  0  0  0  0  0  0  0  0  0  # atno 17370 bound_to 10713
  156.1493  130.3642  149.9462 LP  0  0  0  0  0  0  0  0  0  0  0  0  # atno 17371 bound_to 10713
  140.5228  134.0891  155.7296 LP  0  0  0  0  0  0  0  0  0  0  0  0  # atno 17394 bound_to 11000
  141.1421  133.9120  157.2302 LP  0  0  0  0  0  0  0  0  0  0  0  0  # atno 17395 bound_to 11000

$$$$
