AV-unprocessed.smi:3341|AV-procd|sdf|12884|dock1
  -GOLD-   2272019293D 1   1.00000     0.00000
 Structure written by MMmdl.
 46 47  0  0  0  0  0  0  0  0  2 V2000
  150.7293  142.5198  157.1422 C   0  0  0  0  0  0  0  0  0  0  0  0
  151.8876  141.5732  156.8064 C   0  0  0  0  0  0  0  0  0  0  0  0
  151.4835  140.5418  155.8712 N   0  0  0  0  0  0  0  0  0  0  0  0
  150.2331  140.3257  155.3265 C   0  0  0  0  0  0  0  0  0  0  0  0
  150.3703  139.2427  154.5048 C   0  0  0  0  0  0  0  0  0  0  0  0
  149.3995  138.5950  153.6995 N   0  0  0  0  0  0  0  0  0  0  0  0
  148.0667  138.7533  153.7443 C   0  0  0  0  0  0  0  0  0  0  0  0
  147.4668  139.5042  154.5138 O   0  0  0  0  0  0  0  0  0  0  0  0
  147.4513  137.9819  152.8368 N   0  0  0  0  0  0  0  0  0  0  0  0
  146.0092  137.9345  152.6233 C   0  0  0  0  0  0  0  0  0  0  0  0
  145.6186  136.8186  151.6346 C   0  0  0  0  0  0  0  0  0  0  0  0
  146.1992  135.5045  152.0087 N   0  3  2  0  0  0  0  0  0  0  0  0
  145.9071  134.4533  151.0003 C   0  0  0  0  0  0  0  0  0  0  0  0
  146.6498  133.1486  151.3283 C   0  0  0  0  0  0  0  0  0  0  0  0
  146.3100  132.6621  152.7438 C   0  0  0  0  0  0  0  0  0  0  0  0
  146.5528  133.7680  153.7874 C   0  0  1  0  0  0  0  0  0  0  0  0
  148.0467  134.0050  154.0698 C   0  0  0  0  0  0  0  0  0  0  0  0
  145.8235  135.0653  153.3805 C   0  0  0  0  0  0  0  0  0  0  0  0
  151.7316  138.8538  154.6015 C   0  0  0  0  0  0  0  0  0  0  0  0
  152.3985  139.6443  155.4287 N   0  0  0  0  0  0  0  0  0  0  0  0
  151.0469  143.2846  157.8511 H   0  0  0  0  0  0  0  0  0  0  0  0
  149.8952  141.9776  157.5887 H   0  0  0  0  0  0  0  0  0  0  0  0
  150.3616  143.0265  156.2495 H   0  0  0  0  0  0  0  0  0  0  0  0
  152.7218  142.1306  156.3780 H   0  0  0  0  0  0  0  0  0  0  0  0
  152.2584  141.0954  157.7139 H   0  0  0  0  0  0  0  0  0  0  0  0
  149.3865  140.9501  155.5700 H   0  0  0  0  0  0  0  0  0  0  0  0
  149.7599  137.9467  153.0146 H   0  0  0  0  0  0  0  0  0  0  0  0
  148.0215  137.3955  152.2445 H   0  0  0  0  0  0  0  0  0  0  0  0
  145.4968  137.7963  153.5771 H   0  0  0  0  0  0  0  0  0  0  0  0
  145.7070  138.9113  152.2481 H   0  0  0  0  0  0  0  0  0  0  0  0
  144.5338  136.7351  151.5498 H   0  0  0  0  0  0  0  0  0  0  0  0
  145.9827  137.0963  150.6442 H   0  0  0  0  0  0  0  0  0  0  0  0
  144.8313  134.2758  150.9580 H   0  0  0  0  0  0  0  0  0  0  0  0
  146.2118  134.7940  150.0100 H   0  0  0  0  0  0  0  0  0  0  0  0
  146.3884  132.3801  150.6004 H   0  0  0  0  0  0  0  0  0  0  0  0
  147.7251  133.3033  151.2345 H   0  0  0  0  0  0  0  0  0  0  0  0
  145.2611  132.3641  152.7747 H   0  0  0  0  0  0  0  0  0  0  0  0
  146.8873  131.7697  152.9883 H   0  0  0  0  0  0  0  0  0  0  0  0
  146.1145  133.4278  154.7265 H   0  0  0  0  0  0  0  0  0  0  0  0
  148.5728  134.3832  153.1934 H   0  0  0  0  0  0  0  0  0  0  0  0
  148.5382  133.0821  154.3790 H   0  0  0  0  0  0  0  0  0  0  0  0
  148.1818  134.7308  154.8721 H   0  0  0  0  0  0  0  0  0  0  0  0
  146.0459  135.8440  154.1092 H   0  0  0  0  0  0  0  0  0  0  0  0
  144.7445  134.9076  153.4184 H   0  0  0  0  0  0  0  0  0  0  0  0
  152.2481  138.0430  154.1096 H   0  0  0  0  0  0  0  0  0  0  0  0
  147.2020  135.6253  152.0021 H   0  0  0  0  0  0  0  0  0  0  0  0
  1  2  1  0  0  0  0
  1 21  1  0  0  0  0
  1 22  1  0  0  0  0
  1 23  1  0  0  0  0
  2  3  1  0  0  0  0
  2 24  1  0  0  0  0
  2 25  1  0  0  0  0
  3 20  1  0  0  0  0
  3  4  1  0  0  0  0
  4  5  2  0  0  0  0
  4 26  1  0  0  0  0
  5  6  1  0  0  0  0
  5 19  1  0  0  0  0
  6  7  1  0  0  0  0
  6 27  1  0  0  0  0
  7  8  2  0  0  0  0
  7  9  1  0  0  0  0
  9 10  1  0  0  0  0
  9 28  1  0  0  0  0
 10 11  1  0  0  0  0
 10 29  1  0  0  0  0
 10 30  1  0  0  0  0
 11 12  1  0  0  0  0
 11 31  1  0  0  0  0
 11 32  1  0  0  0  0
 12 18  1  0  0  0  0
 12 13  1  0  0  0  0
 12 46  1  0  0  0  0
 13 14  1  0  0  0  0
 13 33  1  0  0  0  0
 13 34  1  0  0  0  0
 14 15  1  0  0  0  0
 14 35  1  0  0  0  0
 14 36  1  0  0  0  0
 15 16  1  0  0  0  0
 15 37  1  0  0  0  0
 15 38  1  0  0  0  0
 16 17  1  0  0  0  0
 16 18  1  0  0  0  0
 16 39  1  0  0  0  0
 17 40  1  0  0  0  0
 17 41  1  0  0  0  0
 17 42  1  0  0  0  0
 18 43  1  0  0  0  0
 18 44  1  0  0  0  0
 19 20  2  0  0  0  0
 19 45  1  0  0  0  0
M  CHG  1  12   1
M  END
> <s_m_source_file>
AV-unprocessed.smi

> <i_m_source_file_index>
3341

> <i_lp_mmshare_version>
43012

> <i_f3d_flags>
0

> <s_epik_input>
W0NIM11bQ0gyXW4xW2NIXWMoW2NIXW4xKVtOSF1DKD1PKVtOSF1bQ0gyXVtDSDJdTjJbQ0gyXVtDSDJdW0NIMl1bQ0BASF0oW0NIM10pW0NIMl0y

> <s_epik_cmdline>
J2VwaWtfcHl0aG9uJywgJy1waCcsICc3LjAnLCAnLXRuJywgJzgnLCAnLW1hJywgJzIwMCcsICctbWV0YWxfYmluZGluZycsICctaW1hZScsICc8aW5maWxlLm1hZT4nLCAnLW9tYWUnLCAnPG91dGZpbGUubWFlPic=

> <r_lp_tautomer_probability>
1

> <r_epik_Ionization_Penalty>
0.00203389

> <r_epik_Ionization_Penalty_Charging>
0.00188267

> <r_epik_Ionization_Penalty_Neutral>
0.000151224

> <r_epik_State_Penalty>
0.0012808

> <r_epik_Charging_Adjusted_Penalty>
0.00316346

> <i_epik_Tot_Q>
1

> <i_epik_Tot_abs_Q>
1

> <r_epik_Metal_State_Penalty>
-0

> <b_epik_Metal_Only>
0

> <s_lp_Force_Field>
OPLS_2005

> <r_lp_Energy>
23.1402

> <b_lp_Chiralities_Consistent>
1

> <s_lp_Variant>
AV-unprocessed.smi:3341-2

> <Gold.Version>
5.8.1

> <Gold.Id.Protein>
6NUR|6NUR_protein|mol2

> <Gold.PLP.Fitness>
44.9615

> <Gold.PLP.PLP>
-32.6290

> <Gold.PLP.part.hbond>
-4.5231

> <Gold.PLP.part.metal>
0.0000

> <Gold.PLP.part.buried>
-3.1916

> <Gold.PLP.part.nonpolar>
-25.8062

> <Gold.PLP.part.repulsive>
0.2523

> <Gold.PLP.ligand.clash>
0.0000

> <Gold.PLP.ligand.torsion>
0.0939

> <Gold.PLP.Chemscore.Hbond>
4.1652

> <Gold.PLP.Chemscore.CHOScore>
0.0000

> <Gold.PLP.Chemscore.Metal>
0.0000

> <Gold.Chemscore.Hbonds>
donor molecule, donor type, donor heavy atom, donor atom, acceptor molecule, acceptor atom, score
      L1  H     6    27       P1  7948  0.49
      L1  H     9    28       P1  7948  0.98
      L1  H    12    46       P1  7948  2.00
      P1  H  7997  8009       L1    20  0.71

> <Gold.PLP.Chemscore.Internal.Correction>
0.0248

> <Gold.Rescore>
     Score         DG    S(hbond)    S(metal)    S(lipo)     H(rot)  DE(clash)    DE(int)     intcor
     17.70     -20.19       2.98        0.00      75.58       1.59       1.36       1.13       ----

> <Gold.Chemscore.Fitness>
17.7022

> <Gold.Chemscore.DG>
-20.1911

> <Gold.Chemscore.ZeroCoef>
-5.4800

> <Gold.Chemscore.Hbond>
2.9762

> <Gold.Chemscore.Metal>
0.0000

> <Gold.Chemscore.Lipo>
75.5837

> <Gold.Chemscore.Internal_Hbond>
0.0000

> <Gold.Chemscore.DEClash>
1.3597

> <Gold.Chemscore.DEInternal>
1.1292

> <Gold.Chemscore.Rot>
1.5909

> <Gold.Chemscore.Internal.Correction>
   9.000000E+99

> <Gold.Chemscore.Hbonds>
donor molecule, donor type, donor heavy atom, donor atom, acceptor molecule, acceptor atom, score
      L1  H     6    27       P1  7948  0.30
      L1  H     9    28       P1  7948  0.91
      L1  H    12    46       P1  7948  1.00
      P1  H  7997  8009       L1    20  0.53

> <Gold.Chemscore.Hbond.Weighted>
-9.9406

> <Gold.Chemscore.Metal.Weighted>
-0.0000

> <Gold.Chemscore.Lipo.Weighted>
-8.8433

> <Gold.Chemscore.Internal_Hbond.Weighted>
0.0000

> <Gold.Chemscore.DEClash.Weighted>
1.3597

> <Gold.Chemscore.DEInternal.Weighted>
1.1292

> <Gold.Chemscore.Rot.Weighted>
4.0728

> <Gold.Chemscore.Internal.Correction.Weighted>
   9.000000E+99

> <Gold.Protein.RotatedTorsions>
[ 6907 6896 6895 6894 ] final  -86.95 input  -60.11 | X-H torsion
[ 7974 7965 7964 7962 ] final   -2.03 input  175.53 | X-H torsion
[ 8008 7997 7996 7995 ] final -151.10 input   59.86 | X-H torsion
[ 10167 10162 10161 10158 ] final -146.43 input  -65.29 | X-H torsion
[ 10718 10713 10712 10709 ] final   24.07 input   66.30 | X-H torsion
[ 10763 10752 10751 10750 ] final  -73.90 input  -60.55 | X-H torsion
[ 11005 11000 10999 10996 ] final  -54.81 input  -57.11 | X-H torsion

> <Gold.Protein.ActiveResidues>
 VAL166  LYS551  ARG553  GLY616  TRP617  ASP618  TYR619  PRO620  LYS621  CYS622 
 ASP623  PHE694  ASN695  SER759  ASP760  ASP761  ALA762  ILE779  LEU786  VAL792 
 PHE793  MET794  SER795  GLU796  ALA797  LYS798  CYS799  TRP800  GLU811  SER814 

> <Gold.Protein.RotatedAtoms>
  150.6866  134.2972  159.4691 H   0  0  0  0  0  0  0  0  0  0  0  0  # atno 6907 bound_to 6896
  152.0871  134.9429  160.0582 H   0  0  0  0  0  0  0  0  0  0  0  0  # atno 6908 bound_to 6896
  152.0759  133.4094  159.4517 H   0  0  0  0  0  0  0  0  0  0  0  0  # atno 6909 bound_to 6896
  146.2410  140.1510  142.8334 H   0  0  0  0  0  0  0  0  0  0  0  0  # atno 7974 bound_to 7965
  155.6341  140.0694  157.2639 H   0  0  0  0  0  0  0  0  0  0  0  0  # atno 8008 bound_to 7997
  154.4199  140.1762  156.1552 H   0  0  0  0  0  0  0  0  0  0  0  0  # atno 8009 bound_to 7997
  155.9909  140.3345  155.6755 H   0  0  0  0  0  0  0  0  0  0  0  0  # atno 8010 bound_to 7997
  139.7714  143.8232  152.2625 H   0  0  0  0  0  0  0  0  0  0  0  0  # atno 10167 bound_to 10162
  157.1747  130.6775  149.6091 H   0  0  0  0  0  0  0  0  0  0  0  0  # atno 10718 bound_to 10713
  154.4657  135.5882  153.6287 H   0  0  0  0  0  0  0  0  0  0  0  0  # atno 10763 bound_to 10752
  152.9828  135.6055  154.3430 H   0  0  0  0  0  0  0  0  0  0  0  0  # atno 10764 bound_to 10752
  154.3306  135.2842  155.2452 H   0  0  0  0  0  0  0  0  0  0  0  0  # atno 10765 bound_to 10752
  141.1044  133.6614  156.4376 H   0  0  0  0  0  0  0  0  0  0  0  0  # atno 11005 bound_to 11000
  145.0168  140.8760  143.5191 LP  0  0  0  0  0  0  0  0  0  0  0  0  # atno 17320 bound_to 7965
  145.1552  139.2491  143.5420 LP  0  0  0  0  0  0  0  0  0  0  0  0  # atno 17321 bound_to 7965
  139.8268  144.7271  150.9502 LP  0  0  0  0  0  0  0  0  0  0  0  0  # atno 17342 bound_to 10162
  140.7814  143.4107  151.0997 LP  0  0  0  0  0  0  0  0  0  0  0  0  # atno 17343 bound_to 10162
  155.9733  130.4667  150.6298 LP  0  0  0  0  0  0  0  0  0  0  0  0  # atno 17370 bound_to 10713
  157.4009  131.0810  151.1309 LP  0  0  0  0  0  0  0  0  0  0  0  0  # atno 17371 bound_to 10713
  140.4941  134.6548  157.5222 LP  0  0  0  0  0  0  0  0  0  0  0  0  # atno 17394 bound_to 11000
  139.9908  134.6989  155.9694 LP  0  0  0  0  0  0  0  0  0  0  0  0  # atno 17395 bound_to 11000

$$$$
