AV-unprocessed.smi:944|AV-procd|sdf|4232|dock9
  -GOLD-   22720 2143D 1   1.00000     0.00000
 Structure written by MMmdl.
 28 28  0  0  0  0  0  0  0  0  1 V2000
  147.9565  136.0566  158.2062 C   0  0  0  0  0  0  0  0  0  0  0  0
  148.4297  135.7282  156.8704 N   0  0  0  0  0  0  0  0  0  0  0  0
  149.3504  134.7906  156.6054 C   0  0  0  0  0  0  0  0  0  0  0  0
  149.8951  134.1164  157.4813 O   0  0  0  0  0  0  0  0  0  0  0  0
  149.7218  134.6024  155.1249 C   0  0  1  0  0  0  0  0  0  0  0  0
  148.4677  134.1178  154.3784 C   0  0  0  0  0  0  0  0  0  0  0  0
  150.1374  135.8723  154.5309 N   0  0  0  0  0  0  0  0  0  0  0  0
  151.0912  136.6816  155.0181 C   0  0  0  0  0  0  0  0  0  0  0  0
  151.7460  136.4182  156.0277 O   0  0  0  0  0  0  0  0  0  0  0  0
  151.3329  137.9778  154.2362 C   0  0  0  0  0  0  0  0  0  0  0  0
  150.2174  138.9042  154.3355 N   0  0  0  0  0  0  0  0  0  0  0  0
  148.9123  138.7182  154.1267 C   0  0  0  0  0  0  0  0  0  0  0  0
  148.1796  139.8076  154.3115 N   0  0  0  0  0  0  0  0  0  0  0  0
  149.1652  140.6892  154.6558 C   0  0  0  0  0  0  0  0  0  0  0  0
  150.4051  140.1999  154.6812 N   0  0  0  0  0  0  0  0  0  0  0  0
  147.2040  136.8431  158.1512 H   0  0  0  0  0  0  0  0  0  0  0  0
  148.7760  136.4120  158.8323 H   0  0  0  0  0  0  0  0  0  0  0  0
  147.5052  135.1854  158.6834 H   0  0  0  0  0  0  0  0  0  0  0  0
  148.0302  136.2422  156.0983 H   0  0  0  0  0  0  0  0  0  0  0  0
  150.5179  133.8617  155.0248 H   0  0  0  0  0  0  0  0  0  0  0  0
  148.1061  133.1710  154.7820 H   0  0  0  0  0  0  0  0  0  0  0  0
  148.6837  133.9568  153.3218 H   0  0  0  0  0  0  0  0  0  0  0  0
  147.6518  134.8399  154.4416 H   0  0  0  0  0  0  0  0  0  0  0  0
  149.6450  136.1665  153.7001 H   0  0  0  0  0  0  0  0  0  0  0  0
  152.2391  138.4587  154.6073 H   0  0  0  0  0  0  0  0  0  0  0  0
  151.4955  137.7519  153.1812 H   0  0  0  0  0  0  0  0  0  0  0  0
  148.4905  137.7669  153.8362 H   0  0  0  0  0  0  0  0  0  0  0  0
  148.9633  141.7238  154.8915 H   0  0  0  0  0  0  0  0  0  0  0  0
  1  2  1  0  0  0  0
  1 16  1  0  0  0  0
  1 17  1  0  0  0  0
  1 18  1  0  0  0  0
  2  3  1  0  0  0  0
  2 19  1  0  0  0  0
  3  4  2  0  0  0  0
  3  5  1  0  0  0  0
  5  6  1  0  0  0  0
  5  7  1  0  0  0  0
  5 20  1  0  0  0  0
  6 21  1  0  0  0  0
  6 22  1  0  0  0  0
  6 23  1  0  0  0  0
  7  8  1  0  0  0  0
  7 24  1  0  0  0  0
  8  9  2  0  0  0  0
  8 10  1  0  0  0  0
 10 11  1  0  0  0  0
 10 25  1  0  0  0  0
 10 26  1  0  0  0  0
 11 15  1  0  0  0  0
 11 12  1  0  0  0  0
 12 13  2  0  0  0  0
 12 27  1  0  0  0  0
 13 14  1  0  0  0  0
 14 15  2  0  0  0  0
 14 28  1  0  0  0  0
M  END
> <s_m_source_file>
AV-unprocessed.smi

> <i_m_source_file_index>
944

> <i_lp_mmshare_version>
43012

> <i_f3d_flags>
0

> <s_epik_input>
W0NIM11bTkhdQyg9TylbQ0BIXShbQ0gzXSlbTkhdQyg9TylbQ0gyXW4xW2NIXW5bY0hdbjE=

> <s_epik_cmdline>
J2VwaWtfcHl0aG9uJywgJy1waCcsICc3LjAnLCAnLXRuJywgJzgnLCAnLW1hJywgJzIwMCcsICctbWV0YWxfYmluZGluZycsICctaW1hZScsICc8aW5maWxlLm1hZT4nLCAnLW9tYWUnLCAnPG91dGZpbGUubWFlPic=

> <r_lp_tautomer_probability>
1

> <r_epik_Ionization_Penalty>
7.54354e-06

> <r_epik_Ionization_Penalty_Charging>
0

> <r_epik_Ionization_Penalty_Neutral>
7.54354e-06

> <r_epik_State_Penalty>
-0

> <r_epik_Charging_Adjusted_Penalty>
0

> <i_epik_Tot_Q>
0

> <i_epik_Tot_abs_Q>
0

> <r_epik_Metal_State_Penalty>
-0

> <b_epik_Metal_Only>
0

> <s_lp_Force_Field>
OPLS_2005

> <r_lp_Energy>
4.79019

> <b_lp_Chiralities_Consistent>
1

> <s_lp_Variant>
AV-unprocessed.smi:944-2

> <Gold.Version>
5.8.1

> <Gold.Id.Protein>
6NUR|6NUR_protein|mol2

> <Gold.PLP.Fitness>
36.1197

> <Gold.PLP.PLP>
-21.8025

> <Gold.PLP.part.hbond>
-4.5574

> <Gold.PLP.part.metal>
0.0000

> <Gold.PLP.part.buried>
-2.8156

> <Gold.PLP.part.nonpolar>
-15.8873

> <Gold.PLP.part.repulsive>
0.3085

> <Gold.PLP.ligand.clash>
0.0000

> <Gold.PLP.ligand.torsion>
0.2414

> <Gold.PLP.Chemscore.Hbond>
3.9280

> <Gold.PLP.Chemscore.CHOScore>
1.0000

> <Gold.PLP.Chemscore.Metal>
0.0000

> <Gold.Chemscore.Hbonds>
donor molecule, donor type, donor heavy atom, donor atom, acceptor molecule, acceptor atom, score
      L1  H     7    24       P1  7948  1.00
      P1  H  6896  6909       L1     4  0.99
      P1  H  7989  7998       L1    15  1.00
      P1  H 10752 10763       L1     9  0.95
      L1  C    12    27       P1  7948  0.99

> <Gold.PLP.Chemscore.Internal.Correction>
0.0160

> <Gold.Rescore>
     Score         DG    S(hbond)    S(metal)    S(lipo)     H(rot)  DE(clash)    DE(int)     intcor
     11.95     -12.62       3.56        0.00      19.57       2.74       0.17       0.51       ----

> <Gold.Chemscore.Fitness>
11.9481

> <Gold.Chemscore.DG>
-12.6234

> <Gold.Chemscore.ZeroCoef>
-5.4800

> <Gold.Chemscore.Hbond>
3.5554

> <Gold.Chemscore.Metal>
0.0000

> <Gold.Chemscore.Lipo>
19.5679

> <Gold.Chemscore.Internal_Hbond>
0.0000

> <Gold.Chemscore.DEClash>
0.1685

> <Gold.Chemscore.DEInternal>
0.5069

> <Gold.Chemscore.Rot>
2.7426

> <Gold.Chemscore.Internal.Correction>
   9.000000E+99

> <Gold.Chemscore.Hbonds>
donor molecule, donor type, donor heavy atom, donor atom, acceptor molecule, acceptor atom, score
      L1  H     7    24       P1  7948  0.39
      P1  H  6896  6909       L1     4  0.90
      P1  H  7989  7998       L1    15  0.52
      P1  H 10752 10763       L1     9  0.20

> <Gold.Chemscore.Hbond.Weighted>
-11.8749

> <Gold.Chemscore.Metal.Weighted>
-0.0000

> <Gold.Chemscore.Lipo.Weighted>
-2.2894

> <Gold.Chemscore.Internal_Hbond.Weighted>
0.0000

> <Gold.Chemscore.DEClash.Weighted>
0.1685

> <Gold.Chemscore.DEInternal.Weighted>
0.5069

> <Gold.Chemscore.Rot.Weighted>
7.0210

> <Gold.Chemscore.Internal.Correction.Weighted>
   9.000000E+99

> <Gold.Protein.RotatedTorsions>
[ 6907 6896 6895 6894 ] final    5.43 input  -60.11 | X-H torsion
[ 7974 7965 7964 7962 ] final   17.17 input  175.53 | X-H torsion
[ 8008 7997 7996 7995 ] final -148.82 input   59.86 | X-H torsion
[ 10167 10162 10161 10158 ] final    6.26 input  -65.29 | X-H torsion
[ 10718 10713 10712 10709 ] final  118.34 input   66.30 | X-H torsion
[ 10763 10752 10751 10750 ] final  100.14 input  -60.55 | X-H torsion
[ 11005 11000 10999 10996 ] final  109.21 input  -57.11 | X-H torsion

> <Gold.Protein.ActiveResidues>
 VAL166  LYS551  ARG553  GLY616  TRP617  ASP618  TYR619  PRO620  LYS621  CYS622 
 ASP623  PHE694  ASN695  SER759  ASP760  ASP761  ALA762  ILE779  LEU786  VAL792 
 PHE793  MET794  SER795  GLU796  ALA797  LYS798  CYS799  TRP800  GLU811  SER814 

> <Gold.Protein.RotatedAtoms>
  151.6574  135.0994  160.0172 H   0  0  0  0  0  0  0  0  0  0  0  0  # atno 6907 bound_to 6896
  152.3966  133.6752  159.6290 H   0  0  0  0  0  0  0  0  0  0  0  0  # atno 6908 bound_to 6896
  150.7872  133.8780  159.3319 H   0  0  0  0  0  0  0  0  0  0  0  0  # atno 6909 bound_to 6896
  146.2227  139.8641  142.8599 H   0  0  0  0  0  0  0  0  0  0  0  0  # atno 7974 bound_to 7965
  155.5978  140.0659  157.2741 H   0  0  0  0  0  0  0  0  0  0  0  0  # atno 8008 bound_to 7997
  154.4287  140.1824  156.1188 H   0  0  0  0  0  0  0  0  0  0  0  0  # atno 8009 bound_to 7997
  156.0183  140.3319  155.7015 H   0  0  0  0  0  0  0  0  0  0  0  0  # atno 8010 bound_to 7997
  140.6437  143.7712  150.7467 H   0  0  0  0  0  0  0  0  0  0  0  0  # atno 10167 bound_to 10162
  157.6037  131.1047  150.7742 H   0  0  0  0  0  0  0  0  0  0  0  0  # atno 10718 bound_to 10713
  153.3102  135.4089  155.1329 H   0  0  0  0  0  0  0  0  0  0  0  0  # atno 10763 bound_to 10752
  154.8574  135.3562  154.5734 H   0  0  0  0  0  0  0  0  0  0  0  0  # atno 10764 bound_to 10752
  153.6162  135.7066  153.5386 H   0  0  0  0  0  0  0  0  0  0  0  0  # atno 10765 bound_to 10752
  139.8858  134.9452  156.6091 H   0  0  0  0  0  0  0  0  0  0  0  0  # atno 11005 bound_to 11000
  145.2675  141.0097  143.3791 LP  0  0  0  0  0  0  0  0  0  0  0  0  # atno 17320 bound_to 7965
  144.9250  139.4366  143.6523 LP  0  0  0  0  0  0  0  0  0  0  0  0  # atno 17321 bound_to 7965
  140.1349  143.4493  152.2231 LP  0  0  0  0  0  0  0  0  0  0  0  0  # atno 17342 bound_to 10162
  139.5647  144.7428  151.4055 LP  0  0  0  0  0  0  0  0  0  0  0  0  # atno 17343 bound_to 10162
  156.8135  130.4960  149.5352 LP  0  0  0  0  0  0  0  0  0  0  0  0  # atno 17370 bound_to 10713
  156.1117  130.6045  151.0057 LP  0  0  0  0  0  0  0  0  0  0  0  0  # atno 17371 bound_to 10713
  140.7825  133.8648  155.8579 LP  0  0  0  0  0  0  0  0  0  0  0  0  # atno 17394 bound_to 11000
  140.9748  134.1484  157.4546 LP  0  0  0  0  0  0  0  0  0  0  0  0  # atno 17395 bound_to 11000

$$$$
