#       Name:                AV-unprocessed.smi:2955
#       Creating user name   scv26
#       Creation time:       Fri Mar 27 16:20:18 2020


#       File generated by GOLD software.
#

@<TRIPOS>MOLECULE
AV-unprocessed.smi:2955
    50    52     1
SMALL
NO_CHARGES


@<TRIPOS>ATOM
      1 ****         9.7960   4.6224   7.1904 C.3            1 S1                 0.0000
      2 ****         8.5690   3.9377   6.6238 C.ar           1 S1                 0.0000
      3 ****         7.7367   3.1702   7.4624 C.ar           1 S1                 0.0000
      4 ****         6.5984   2.5359   6.9322 C.ar           1 S1                 0.0000
      5 ****         6.2908   2.6687   5.5650 C.ar           1 S1                 0.0000
      6 ****         7.1110   3.4352   4.7122 C.ar           1 S1                 0.0000
      7 ****         6.7356   3.5116   3.3888 O.3            1 S1                 0.0000
      8 ****         7.5504   4.2612   2.4969 C.3            1 S1                 0.0000
      9 ****         6.9573   4.1790   1.0836 C.3            1 S1                 0.0000
     10 ****         5.5718   4.6707   1.0329 N.pl3          1 S1                 0.0000
     11 ****         4.3869   4.0089   1.1872 C.2            1 S1                 0.0000
     12 ****         4.1929   2.5421   1.4426 C.3            1 S1                 0.0000
     13 ****         3.2675   2.3105   2.6459 C.3            1 S1                 0.0000
     14 ****         3.6589   1.8588   0.2714 N.am           1 S1                 0.0000
     15 ****         4.3715   1.5862  -0.8287 C.2            1 S1                 0.0000
     16 ****         5.5557   1.8865  -0.9530 O.2            1 S1                 0.0000
     17 ****         3.3919   4.9295   1.0340 N.pl3          1 S1                 1.0000
     18 ****         3.9420   6.1900   0.8038 C.ar           1 S1                 0.0000
     19 ****         3.3351   7.4251   0.5984 C.ar           1 S1                 0.0000
     20 ****         4.1932   8.5257   0.3954 C.ar           1 S1                 0.0000
     21 ****         5.5952   8.3744   0.4027 C.ar           1 S1                 0.0000
     22 ****         6.1986   7.1165   0.6107 C.ar           1 S1                 0.0000
     23 ****         5.3428   6.0328   0.8075 C.ar           1 S1                 0.0000
     24 ****         8.2560   4.0718   5.2550 C.ar           1 S1                 0.0000
     25 ****        10.1319   4.1327   8.1051 H              1 S1                 0.0000
     26 ****         9.5731   5.6643   7.4208 H              1 S1                 0.0000
     27 ****        10.6174   4.5963   6.4737 H              1 S1                 0.0000
     28 ****         7.9680   3.0649   8.5123 H              1 S1                 0.0000
     29 ****         5.9609   1.9463   7.5743 H              1 S1                 0.0000
     30 ****         5.4164   2.1754   5.1671 H              1 S1                 0.0000
     31 ****         7.5992   5.3034   2.8162 H              1 S1                 0.0000
     32 ****         8.5658   3.8626   2.4854 H              1 S1                 0.0000
     33 ****         7.5634   4.7398   0.3720 H              1 S1                 0.0000
     34 ****         6.9620   3.1472   0.7329 H              1 S1                 0.0000
     35 ****         5.1574   2.0950   1.6855 H              1 S1                 0.0000
     36 ****         3.6637   2.7915   3.5408 H              1 S1                 0.0000
     37 ****         3.1661   1.2467   2.8631 H              1 S1                 0.0000
     38 ****         2.2680   2.7093   2.4694 H              1 S1                 0.0000
     39 ****         2.6920   1.5693   0.3006 H              1 S1                 0.0000
     40 ****         3.7706   1.0649  -1.5900 H              1 S1                 0.0000
     41 ****         2.2614   7.5434   0.5946 H              1 S1                 0.0000
     42 ****         3.7679   9.5055   0.2323 H              1 S1                 0.0000
     43 ****         6.2210   9.2410   0.2453 H              1 S1                 0.0000
     44 ****         7.2733   7.0135   0.6170 H              1 S1                 0.0000
     45 ****         8.9109   4.6685   4.6385 H              1 S1                 0.0000
     46 ****         2.4065   4.7068   1.0885 H              1 S1                 0.0000
     47 ****         5.8210   3.9154   3.3638 LP             1 S1                 0.0000
     48 ****         6.6965   2.5760   3.0380 LP             1 S1                 0.0000
     49 ****         6.0326   2.3576  -0.2110 LP             1 S1                 0.0000
     50 ****         6.0431   1.6599  -1.7962 LP             1 S1                 0.0000
@<TRIPOS>BOND
    1    1    2 1     
    2    1   25 1     
    3    1   26 1     
    4    1   27 1     
    5    2   24 ar    
    6    2    3 ar    
    7    3    4 ar    
    8    3   28 1     
    9    4    5 ar    
   10    4   29 1     
   11    5    6 ar    
   12    5   30 1     
   13    6    7 1     
   14    6   24 ar    
   15    7    8 1     
   16    8    9 1     
   17    8   31 1     
   18    8   32 1     
   19    9   10 1     
   20    9   33 1     
   21    9   34 1     
   22   10   23 1     
   23   10   11 1     
   24   11   12 1     
   25   11   17 2     
   26   12   13 1     
   27   12   14 1     
   28   12   35 1     
   29   13   36 1     
   30   13   37 1     
   31   13   38 1     
   32   14   15 am    
   33   14   39 1     
   34   15   16 2     
   35   15   40 1     
   36   17   18 1     
   37   17   46 1     
   38   18   23 ar    
   39   18   19 ar    
   40   19   20 ar    
   41   19   41 1     
   42   20   21 ar    
   43   20   42 1     
   44   21   22 ar    
   45   21   43 1     
   46   22   23 ar    
   47   22   44 1     
   48   24   45 1     
   49    7   47 1     
   50    7   48 1     
   51   16   49 1     
   52   16   50 1     
@<TRIPOS>SUBSTRUCTURE
      1 S1             1
@<TRIPOS>SET
LONE_PAIRS      STATIC     ATOMS    <user>   **** ""
4 47 48 49 50
DONOR_HYDROGENS      STATIC     ATOMS    <user>   **** ""
2 39 46
ATOM$BLUE        STATIC     ATOMS    COLORGROUP SYSTEM
4 47 48 49 50
ATOM$RED        STATIC     ATOMS    COLORGROUP SYSTEM
2 39 46
