#       Name:                AV-unprocessed.smi:2837
#       Creating user name   scv26
#       Creation time:       Fri Mar 27 15:37:33 2020


#       File generated by GOLD software.
#

@<TRIPOS>MOLECULE
AV-unprocessed.smi:2837
    37    39     1
SMALL
NO_CHARGES


@<TRIPOS>ATOM
      1 ****        -5.7498   2.6412  -0.4093 F              1 S1                 0.0000
      2 ****        -5.5508   1.8208   0.6513 C.3            1 S1                 0.0000
      3 ****        -6.7686   1.4675   1.1276 F              1 S1                 0.0000
      4 ****        -4.8674   0.7089   0.2699 O.3            1 S1                 0.0000
      5 ****        -3.4908   0.7256   0.2734 C.ar           1 S1                 0.0000
      6 ****        -2.8083  -0.5055   0.3644 C.ar           1 S1                 0.0000
      7 ****        -1.3985  -0.5313   0.3548 C.ar           1 S1                 0.0000
      8 ****        -0.6821   0.6841   0.2456 C.ar           1 S1                 0.0000
      9 ****         0.7160   0.7827   0.2225 N.pl3          1 S1                 0.0000
     10 ****         1.5622  -0.4006   0.3124 C.3            1 S1                 0.0000
     11 ****         1.5599  -1.2441  -0.9699 C.3            1 S1                 0.0000
     12 ****         3.0530  -1.2998  -1.3164 C.3            1 S1                 0.0000
     13 ****         3.8523  -2.1436  -0.3142 C.3            1 S1                 0.0000
     14 ****         3.8793  -1.2309   0.9112 C.3            1 S1                 0.0000
     15 ****         3.0508  -0.0316   0.4307 C.3            1 S1                 0.0000
     16 ****         3.4430   0.0062  -0.9320 O.3            1 S1                 0.0000
     17 ****        -1.3720   1.8420   0.1519 N.pl3          1 S1                 1.0000
     18 ****        -2.7213   1.9085   0.1579 C.ar           1 S1                 0.0000
     19 ****        -5.0293   2.3634   1.4402 H              1 S1                 0.0000
     20 ****        -3.3646  -1.4279   0.4432 H              1 S1                 0.0000
     21 ****        -0.8910  -1.4812   0.4288 H              1 S1                 0.0000
     22 ****         1.1527   1.6702   0.0179 H              1 S1                 0.0000
     23 ****         1.2617  -0.9871   1.1815 H              1 S1                 0.0000
     24 ****         1.1314  -2.2358  -0.8209 H              1 S1                 0.0000
     25 ****         1.0081  -0.7553  -1.7744 H              1 S1                 0.0000
     26 ****         3.2564  -1.5399  -2.3603 H              1 S1                 0.0000
     27 ****         3.3815  -3.1072  -0.1161 H              1 S1                 0.0000
     28 ****         4.8646  -2.3253  -0.6773 H              1 S1                 0.0000
     29 ****         3.4596  -1.7011   1.8010 H              1 S1                 0.0000
     30 ****         4.9022  -0.9270   1.1370 H              1 S1                 0.0000
     31 ****         3.2490   0.8853   0.9870 H              1 S1                 0.0000
     32 ****        -3.1329   2.9029   0.0635 H              1 S1                 0.0000
     33 ****        -0.8479   2.7134   0.0681 H              1 S1                 0.0000
     34 ****        -5.1535   0.4978  -0.6647 LP             1 S1                 0.0000
     35 ****        -5.1510  -0.0306   0.8804 LP             1 S1                 0.0000
     36 ****         2.9500   0.7098  -1.4439 LP             1 S1                 0.0000
     37 ****         4.4276   0.1480  -1.0342 LP             1 S1                 0.0000
@<TRIPOS>BOND
    1    1    2 1     
    2    2    3 1     
    3    2    4 1     
    4    2   19 1     
    5    4    5 1     
    6    5   18 ar    
    7    5    6 ar    
    8    6    7 ar    
    9    6   20 1     
   10    7    8 ar    
   11    7   21 1     
   12    8    9 1     
   13    8   17 ar    
   14    9   10 1     
   15    9   22 1     
   16   10   15 1     
   17   10   11 1     
   18   10   23 1     
   19   11   12 1     
   20   11   24 1     
   21   11   25 1     
   22   12   16 1     
   23   12   13 1     
   24   12   26 1     
   25   13   14 1     
   26   13   27 1     
   27   13   28 1     
   28   14   15 1     
   29   14   29 1     
   30   14   30 1     
   31   15   16 1     
   32   15   31 1     
   33   17   18 ar    
   34   17   33 1     
   35   18   32 1     
   36    4   34 1     
   37    4   35 1     
   38   16   36 1     
   39   16   37 1     
@<TRIPOS>SUBSTRUCTURE
      1 S1             1
@<TRIPOS>SET
LONE_PAIRS      STATIC     ATOMS    <user>   **** ""
4 34 35 36 37
DONOR_HYDROGENS      STATIC     ATOMS    <user>   **** ""
2 22 33
ATOM$BLUE        STATIC     ATOMS    COLORGROUP SYSTEM
4 34 35 36 37
ATOM$RED        STATIC     ATOMS    COLORGROUP SYSTEM
2 22 33
