AV-unprocessed.smi:1535|AV-procd|sdf|6177|dock9
  -GOLD-   22720 6333D 1   1.00000     0.00000
 Structure written by MMmdl.
 47 48  0  0  0  0  0  0  0  0  2 V2000
  152.1261  143.8956  160.2143 C   0  0  0  0  0  0  0  0  0  0  0  0
  151.9104  142.8595  159.1244 C   0  0  0  0  0  0  0  0  0  0  0  0
  151.0182  143.1633  158.0720 C   0  0  0  0  0  0  0  0  0  0  0  0
  150.8415  142.1953  157.0908 C   0  0  0  0  0  0  0  0  0  0  0  0
  150.0434  142.1936  155.9452 N   0  3  0  0  0  0  0  0  0  0  0  0
  150.1992  141.0132  155.2851 C   0  0  0  0  0  0  0  0  0  0  0  0
  151.0759  140.2551  155.9989 N   0  0  0  0  0  0  0  0  0  0  0  0
  151.5677  138.8985  155.7227 C   0  0  0  0  0  0  0  0  0  0  0  0
  150.6699  138.1035  154.7470 C   0  0  1  0  0  0  0  0  0  0  0  0
  151.5005  137.1184  154.1680 O   0  0  0  0  0  0  0  0  0  0  0  0
  149.4672  137.3852  155.4114 C   0  0  0  0  0  0  0  0  0  0  0  0
  149.7747  136.5680  156.5889 N   0  0  0  0  0  0  0  0  0  0  0  0
  149.8092  137.4127  157.7785 C   0  0  0  0  0  0  0  0  0  0  0  0
  148.8283  135.4633  156.7552 C   0  0  0  0  0  0  0  0  0  0  0  0
  149.1824  134.1533  156.0288 C   0  0  1  0  0  0  0  0  0  0  0  0
  149.6381  134.4355  154.5914 C   0  0  0  0  0  0  0  0  0  0  0  0
  150.2097  133.3918  156.7583 C   0  0  0  0  0  0  0  0  0  0  0  0
  151.0166  132.7942  157.3328 N   0  0  0  0  0  0  0  0  0  0  0  0
  151.5153  140.9581  157.1279 C   0  0  0  0  0  0  0  0  0  0  0  0
  152.4020  140.6464  158.1565 C   0  0  0  0  0  0  0  0  0  0  0  0
  152.5920  141.6160  159.1667 C   0  0  0  0  0  0  0  0  0  0  0  0
  153.5454  141.2970  160.3058 C   0  0  0  0  0  0  0  0  0  0  0  0
  151.5670  144.8097  160.0128 H   0  0  0  0  0  0  0  0  0  0  0  0
  153.1809  144.1614  160.2881 H   0  0  0  0  0  0  0  0  0  0  0  0
  151.7977  143.5089  161.1794 H   0  0  0  0  0  0  0  0  0  0  0  0
  150.4953  144.1079  158.0329 H   0  0  0  0  0  0  0  0  0  0  0  0
  149.7063  140.7244  154.3677 H   0  0  0  0  0  0  0  0  0  0  0  0
  152.5614  139.0205  155.2885 H   0  0  0  0  0  0  0  0  0  0  0  0
  151.7149  138.3602  156.6588 H   0  0  0  0  0  0  0  0  0  0  0  0
  150.3376  138.7493  153.9332 H   0  0  0  0  0  0  0  0  0  0  0  0
  151.2452  137.0040  153.2651 H   0  0  0  0  0  0  0  0  0  0  0  0
  148.7414  138.1451  155.7072 H   0  0  0  0  0  0  0  0  0  0  0  0
  148.9387  136.7800  154.6760 H   0  0  0  0  0  0  0  0  0  0  0  0
  150.1491  136.8568  158.6514 H   0  0  0  0  0  0  0  0  0  0  0  0
  148.8245  137.8283  157.9967 H   0  0  0  0  0  0  0  0  0  0  0  0
  150.5039  138.2429  157.6448 H   0  0  0  0  0  0  0  0  0  0  0  0
  148.6908  135.2604  157.8182 H   0  0  0  0  0  0  0  0  0  0  0  0
  147.8576  135.7690  156.3737 H   0  0  0  0  0  0  0  0  0  0  0  0
  148.3039  133.5120  155.9720 H   0  0  0  0  0  0  0  0  0  0  0  0
  149.8682  133.5083  154.0656 H   0  0  0  0  0  0  0  0  0  0  0  0
  150.5332  135.0580  154.5762 H   0  0  0  0  0  0  0  0  0  0  0  0
  148.8619  134.9525  154.0262 H   0  0  0  0  0  0  0  0  0  0  0  0
  152.9240  139.7020  158.1935 H   0  0  0  0  0  0  0  0  0  0  0  0
  153.9623  140.2941  160.2085 H   0  0  0  0  0  0  0  0  0  0  0  0
  153.0287  141.3498  161.2643 H   0  0  0  0  0  0  0  0  0  0  0  0
  154.3756  142.0034  160.3191 H   0  0  0  0  0  0  0  0  0  0  0  0
  149.4382  142.9421  155.6326 H   0  0  0  0  0  0  0  0  0  0  0  0
  1  2  1  0  0  0  0
  1 23  1  0  0  0  0
  1 24  1  0  0  0  0
  1 25  1  0  0  0  0
  2 21  1  0  0  0  0
  2  3  2  0  0  0  0
  3  4  1  0  0  0  0
  3 26  1  0  0  0  0
  4 19  2  0  0  0  0
  4  5  1  0  0  0  0
  5  6  2  0  0  0  0
  5 47  1  0  0  0  0
  6  7  1  0  0  0  0
  6 27  1  0  0  0  0
  7  8  1  0  0  0  0
  7 19  1  0  0  0  0
  8  9  1  0  0  0  0
  8 28  1  0  0  0  0
  8 29  1  0  0  0  0
  9 10  1  0  0  0  0
  9 11  1  0  0  0  0
  9 30  1  0  0  0  0
 10 31  1  0  0  0  0
 11 12  1  0  0  0  0
 11 32  1  0  0  0  0
 11 33  1  0  0  0  0
 12 13  1  0  0  0  0
 12 14  1  0  0  0  0
 13 34  1  0  0  0  0
 13 35  1  0  0  0  0
 13 36  1  0  0  0  0
 14 15  1  0  0  0  0
 14 37  1  0  0  0  0
 14 38  1  0  0  0  0
 15 16  1  0  0  0  0
 15 17  1  0  0  0  0
 15 39  1  0  0  0  0
 16 40  1  0  0  0  0
 16 41  1  0  0  0  0
 16 42  1  0  0  0  0
 17 18  3  0  0  0  0
 19 20  1  0  0  0  0
 20 21  2  0  0  0  0
 20 43  1  0  0  0  0
 21 22  1  0  0  0  0
 22 44  1  0  0  0  0
 22 45  1  0  0  0  0
 22 46  1  0  0  0  0
M  CHG  1   5   1
M  END
> <s_m_source_file>
AV-unprocessed.smi

> <i_m_source_file_index>
1535

> <i_lp_mmshare_version>
43012

> <i_f3d_flags>
0

> <s_epik_input>
W0NIM11jKFtjSF0xKWMoW0NIM10pW2NIXWMoYzEyKW4oW2NIXW4yKVtDSDJdW0NASF0oW09IXSlbQ0gyXU4oW0NIM10pW0NIMl1bQ0BIXShbQ0gzXSlDI04=

> <s_epik_cmdline>
J2VwaWtfcHl0aG9uJywgJy1waCcsICc3LjAnLCAnLXRuJywgJzgnLCAnLW1hJywgJzIwMCcsICctbWV0YWxfYmluZGluZycsICctaW1hZScsICc8aW5maWxlLm1hZT4nLCAnLW9tYWUnLCAnPG91dGZpbGUubWFlPic=

> <r_epik_Ionization_Penalty>
1.22846

> <r_epik_Ionization_Penalty_Charging>
1.21333

> <r_epik_Ionization_Penalty_Neutral>
0.0151341

> <r_epik_State_Penalty>
1.27012

> <r_epik_Charging_Adjusted_Penalty>
2.48344

> <i_epik_Tot_Q>
1

> <i_epik_Tot_abs_Q>
1

> <r_epik_Metal_State_Penalty>
5.28751

> <b_epik_Metal_Only>
0

> <s_lp_Force_Field>
OPLS_2005

> <r_lp_Energy>
29.5902

> <b_lp_Chiralities_Consistent>
1

> <s_lp_Variant>
AV-unprocessed.smi:1535-8

> <Gold.Version>
5.8.1

> <Gold.Id.Protein>
6NUR|6NUR_protein|mol2

> <Gold.PLP.Fitness>
54.0706

> <Gold.PLP.PLP>
-41.7485

> <Gold.PLP.part.hbond>
-4.0000

> <Gold.PLP.part.metal>
0.0000

> <Gold.PLP.part.buried>
-4.7703

> <Gold.PLP.part.nonpolar>
-33.4428

> <Gold.PLP.part.repulsive>
0.1341

> <Gold.PLP.ligand.clash>
0.0000

> <Gold.PLP.ligand.torsion>
1.3789

> <Gold.PLP.Chemscore.Hbond>
4.9920

> <Gold.PLP.Chemscore.CHOScore>
0.0000

> <Gold.PLP.Chemscore.Metal>
0.0000

> <Gold.Chemscore.Hbonds>
donor molecule, donor type, donor heavy atom, donor atom, acceptor molecule, acceptor atom, score
      L1  H     5    47       P1  8028  2.00
      L1  H    10    31       P1  7949  0.96
      P1  H  6896  6907       L1    18  1.00
      P1  H 10752 10763       L1    10  0.94

> <Gold.PLP.Chemscore.Internal.Correction>
0.1039

> <Gold.Rescore>
     Score         DG    S(hbond)    S(metal)    S(lipo)     H(rot)  DE(clash)    DE(int)     intcor
     20.05     -21.55       3.19        0.00     102.89       2.59       0.02       1.48       ----

> <Gold.Chemscore.Fitness>
20.0547

> <Gold.Chemscore.DG>
-21.5529

> <Gold.Chemscore.ZeroCoef>
-5.4800

> <Gold.Chemscore.Hbond>
3.1944

> <Gold.Chemscore.Metal>
0.0000

> <Gold.Chemscore.Lipo>
102.8947

> <Gold.Chemscore.Internal_Hbond>
0.0000

> <Gold.Chemscore.DEClash>
0.0222

> <Gold.Chemscore.DEInternal>
1.4760

> <Gold.Chemscore.Rot>
2.5918

> <Gold.Chemscore.Internal.Correction>
   9.000000E+99

> <Gold.Chemscore.Hbonds>
donor molecule, donor type, donor heavy atom, donor atom, acceptor molecule, acceptor atom, score
      L1  H     5    47       P1  8028  0.96
      L1  H    10    31       P1  7949  0.54
      P1  H  6896  6907       L1    18  0.87
      P1  H 10752 10763       L1    10  0.23

> <Gold.Chemscore.Hbond.Weighted>
-10.6693

> <Gold.Chemscore.Metal.Weighted>
-0.0000

> <Gold.Chemscore.Lipo.Weighted>
-12.0387

> <Gold.Chemscore.Internal_Hbond.Weighted>
0.0000

> <Gold.Chemscore.DEClash.Weighted>
0.0222

> <Gold.Chemscore.DEInternal.Weighted>
1.4760

> <Gold.Chemscore.Rot.Weighted>
6.6351

> <Gold.Chemscore.Internal.Correction.Weighted>
   9.000000E+99

> <Gold.Protein.RotatedTorsions>
[ 6907 6896 6895 6894 ] final -161.21 input  -60.11 | X-H torsion
[ 7974 7965 7964 7962 ] final   31.23 input  175.53 | X-H torsion
[ 8008 7997 7996 7995 ] final  130.91 input   59.86 | X-H torsion
[ 10167 10162 10161 10158 ] final   14.01 input  -65.29 | X-H torsion
[ 10718 10713 10712 10709 ] final   13.26 input   66.30 | X-H torsion
[ 10763 10752 10751 10750 ] final   44.34 input  -60.55 | X-H torsion
[ 11005 11000 10999 10996 ] final  126.74 input  -57.11 | X-H torsion

> <Gold.Protein.ActiveResidues>
 VAL166  LYS551  ARG553  GLY616  TRP617  ASP618  TYR619  PRO620  LYS621  CYS622 
 ASP623  PHE694  ASN695  SER759  ASP760  ASP761  ALA762  ILE779  LEU786  VAL792 
 PHE793  MET794  SER795  GLU796  ALA797  LYS798  CYS799  TRP800  GLU811  SER814 

> <Gold.Protein.RotatedAtoms>
  151.3612  133.3889  159.2689 H   0  0  0  0  0  0  0  0  0  0  0  0  # atno 6907 bound_to 6896
  150.9724  134.9096  159.7806 H   0  0  0  0  0  0  0  0  0  0  0  0  # atno 6908 bound_to 6896
  152.5189  134.3574  159.9325 H   0  0  0  0  0  0  0  0  0  0  0  0  # atno 6909 bound_to 6896
  146.1563  139.6684  142.9064 H   0  0  0  0  0  0  0  0  0  0  0  0  # atno 7974 bound_to 7965
  156.2962  140.2584  156.2839 H   0  0  0  0  0  0  0  0  0  0  0  0  # atno 8008 bound_to 7997
  154.9575  140.0393  157.2192 H   0  0  0  0  0  0  0  0  0  0  0  0  # atno 8009 bound_to 7997
  154.7978  140.2823  155.5948 H   0  0  0  0  0  0  0  0  0  0  0  0  # atno 8010 bound_to 7997
  140.5964  143.8693  150.6922 H   0  0  0  0  0  0  0  0  0  0  0  0  # atno 10167 bound_to 10162
  157.0221  130.6159  149.5722 H   0  0  0  0  0  0  0  0  0  0  0  0  # atno 10718 bound_to 10713
  152.9843  135.6074  154.3257 H   0  0  0  0  0  0  0  0  0  0  0  0  # atno 10763 bound_to 10752
  154.2964  135.2773  155.2633 H   0  0  0  0  0  0  0  0  0  0  0  0  # atno 10764 bound_to 10752
  154.4905  135.5893  153.6512 H   0  0  0  0  0  0  0  0  0  0  0  0  # atno 10765 bound_to 10752
  139.9471  134.9628  156.8751 H   0  0  0  0  0  0  0  0  0  0  0  0  # atno 11005 bound_to 11000
  145.4700  141.0436  143.2704 LP  0  0  0  0  0  0  0  0  0  0  0  0  # atno 17320 bound_to 7965
  144.7968  139.6219  143.7089 LP  0  0  0  0  0  0  0  0  0  0  0  0  # atno 17321 bound_to 7965
  140.2228  143.3795  152.1629 LP  0  0  0  0  0  0  0  0  0  0  0  0  # atno 17342 bound_to 10162
  139.5261  144.7104  151.5225 LP  0  0  0  0  0  0  0  0  0  0  0  0  # atno 17343 bound_to 10162
  156.0099  130.5189  150.7953 LP  0  0  0  0  0  0  0  0  0  0  0  0  # atno 17370 bound_to 10713
  157.5242  131.0933  151.0039 LP  0  0  0  0  0  0  0  0  0  0  0  0  # atno 17371 bound_to 10713
  140.5807  134.0354  155.7463 LP  0  0  0  0  0  0  0  0  0  0  0  0  # atno 17394 bound_to 11000
  141.1125  133.9594  157.2884 LP  0  0  0  0  0  0  0  0  0  0  0  0  # atno 17395 bound_to 11000

$$$$
