#       Name:                AV-unprocessed.smi:767
#       Creating user name   scv26
#       Creation time:       Fri Mar 27 01:07:14 2020


#       File generated by GOLD software.
#

@<TRIPOS>MOLECULE
AV-unprocessed.smi:767
    52    54     1
SMALL
NO_CHARGES


@<TRIPOS>ATOM
      1 ****        -0.7831   2.8319   4.1024 C.3            1 S1                 0.0000
      2 ****        -1.5475   2.2901   2.9128 C.ar           1 S1                 0.0000
      3 ****        -1.2812   2.7640   1.6116 C.ar           1 S1                 0.0000
      4 ****        -2.0156   2.2244   0.5386 C.ar           1 S1                 0.0000
      5 ****        -2.9815   1.2325   0.8047 C.ar           1 S1                 0.0000
      6 ****        -3.7727   0.5937  -0.3249 C.3            1 S1                 0.0000
      7 ****        -3.4765  -0.9083  -0.5176 C.3            1 S1                 0.0000
      8 ****        -2.0499  -1.2155  -0.4909 N.am           1 S1                 0.0000
      9 ****        -1.1762  -0.9224  -1.4627 C.2            1 S1                 0.0000
     10 ****        -1.4801  -0.3923  -2.5312 O.2            1 S1                 0.0000
     11 ****         0.0730  -1.2524  -1.1132 N.am           1 S1                 0.0000
     12 ****         1.2685  -1.0095  -1.9224 C.3            1 S1                 0.0000
     13 ****         2.0715   0.2349  -1.4713 C.3            1 S1                 0.0000
     14 ****         1.5290   1.2600  -0.5067 C.3            1 S1                 0.0000
     15 ****         2.0705   0.7838   0.8447 C.3            1 S1                 0.0000
     16 ****         2.4276  -0.5826   0.6410 O.3            1 S1                 0.0000
     17 ****         2.9598  -0.7077  -0.6766 C.3            1 S1                 0.0000
     18 ****         2.4627  -1.9095  -1.5078 C.3            1 S1                 0.0000
     19 ****         2.1783  -3.2042  -0.7342 C.3            1 S1                 0.0000
     20 ****         3.3896  -2.2954  -2.6648 C.3            1 S1                 0.0000
     21 ****        -3.1788   0.8367   2.1444 C.ar           1 S1                 0.0000
     22 ****        -2.4797   1.3489   3.1801 N.ar           1 S1                 0.0000
     23 ****         0.2034   3.1856   3.8012 H              1 S1                 0.0000
     24 ****        -0.6471   2.0620   4.8628 H              1 S1                 0.0000
     25 ****        -1.3256   3.6652   4.5493 H              1 S1                 0.0000
     26 ****        -0.5282   3.5183   1.4366 H              1 S1                 0.0000
     27 ****        -1.8280   2.5577  -0.4717 H              1 S1                 0.0000
     28 ****        -4.8368   0.7391  -0.1367 H              1 S1                 0.0000
     29 ****        -3.5562   1.1255  -1.2523 H              1 S1                 0.0000
     30 ****        -3.9357  -1.4726   0.2943 H              1 S1                 0.0000
     31 ****        -3.9292  -1.2739  -1.4404 H              1 S1                 0.0000
     32 ****        -1.6951  -1.6477   0.3496 H              1 S1                 0.0000
     33 ****         0.2187  -1.6747  -0.2078 H              1 S1                 0.0000
     34 ****         1.0821  -1.0266  -2.9979 H              1 S1                 0.0000
     35 ****         2.6132   0.6699  -2.3128 H              1 S1                 0.0000
     36 ****         1.8804   2.2664  -0.7354 H              1 S1                 0.0000
     37 ****         0.4415   1.2899  -0.5116 H              1 S1                 0.0000
     38 ****         2.9645   1.3462   1.1175 H              1 S1                 0.0000
     39 ****         1.3416   0.8906   1.6483 H              1 S1                 0.0000
     40 ****         4.0249  -0.4803  -0.7424 H              1 S1                 0.0000
     41 ****         3.1010  -3.6968  -0.4259 H              1 S1                 0.0000
     42 ****         1.6137  -3.9134  -1.3403 H              1 S1                 0.0000
     43 ****         1.6022  -3.0252   0.1737 H              1 S1                 0.0000
     44 ****         4.3283  -2.7167  -2.3038 H              1 S1                 0.0000
     45 ****         3.6433  -1.4341  -3.2834 H              1 S1                 0.0000
     46 ****         2.9258  -3.0344  -3.3189 H              1 S1                 0.0000
     47 ****        -3.9089   0.0801   2.3909 H              1 S1                 0.0000
     48 ****        -2.4329  -0.1522  -2.7170 LP             1 S1                 0.0000
     49 ****        -0.7742  -0.2018  -3.2134 LP             1 S1                 0.0000
     50 ****         1.6186  -1.1627   0.7367 LP             1 S1                 0.0000
     51 ****         3.1159  -0.8572   1.3125 LP             1 S1                 0.0000
     52 ****        -2.6468   1.0409   4.1167 LP             1 S1                 0.0000
@<TRIPOS>BOND
    1    1    2 1     
    2    1   23 1     
    3    1   24 1     
    4    1   25 1     
    5    2   22 ar    
    6    2    3 ar    
    7    3    4 ar    
    8    3   26 1     
    9    4    5 ar    
   10    4   27 1     
   11    5    6 1     
   12    5   21 ar    
   13    6    7 1     
   14    6   28 1     
   15    6   29 1     
   16    7    8 1     
   17    7   30 1     
   18    7   31 1     
   19    8    9 am    
   20    8   32 1     
   21    9   10 2     
   22    9   11 am    
   23   11   12 1     
   24   11   33 1     
   25   12   18 1     
   26   12   13 1     
   27   12   34 1     
   28   13   17 1     
   29   13   14 1     
   30   13   35 1     
   31   14   15 1     
   32   14   36 1     
   33   14   37 1     
   34   15   16 1     
   35   15   38 1     
   36   15   39 1     
   37   16   17 1     
   38   17   18 1     
   39   17   40 1     
   40   18   19 1     
   41   18   20 1     
   42   19   41 1     
   43   19   42 1     
   44   19   43 1     
   45   20   44 1     
   46   20   45 1     
   47   20   46 1     
   48   21   22 ar    
   49   21   47 1     
   50   10   48 1     
   51   10   49 1     
   52   16   50 1     
   53   16   51 1     
   54   22   52 1     
@<TRIPOS>SUBSTRUCTURE
      1 S1             1
@<TRIPOS>SET
LONE_PAIRS      STATIC     ATOMS    <user>   **** ""
5 48 49 50 51 52
DONOR_HYDROGENS      STATIC     ATOMS    <user>   **** ""
2 32 33
ATOM$BLUE        STATIC     ATOMS    COLORGROUP SYSTEM
5 48 49 50 51 52
ATOM$RED        STATIC     ATOMS    COLORGROUP SYSTEM
2 32 33
