AV-unprocessed.smi:1480|AV-procd|sdf|5985|dock4
  -GOLD-   22720 6 73D 1   1.00000     0.00000
 Structure written by MMmdl.
 37 38  0  0  0  0  0  0  0  0  1 V2000
  152.5360  141.6778  159.5584 C   0  0  0  0  0  0  0  0  0  0  0  0
  151.7919  141.1919  158.3950 N   0  0  0  0  0  0  0  0  0  0  0  0
  150.5667  141.9418  158.0840 C   0  0  0  0  0  0  0  0  0  0  0  0
  150.0405  141.6969  156.6641 C   0  0  0  0  0  0  0  0  0  0  0  0
  150.0054  140.1921  156.3681 C   0  0  1  0  0  0  0  0  0  0  0  0
  149.4198  139.9256  154.9737 C   0  0  0  0  0  0  0  0  0  0  0  0
  150.0223  140.3189  153.9746 O   0  0  0  0  0  0  0  0  0  0  0  0
  148.2502  139.2605  154.9488 N   0  0  0  0  0  0  0  0  0  0  0  0
  147.4728  138.8752  153.8259 C   0  0  0  0  0  0  0  0  0  0  0  0
  147.4317  139.5371  152.5619 C   0  0  0  0  0  0  0  0  0  0  0  0
  146.5464  138.7850  151.8440 C   0  0  0  0  0  0  0  0  0  0  0  0
  146.1168  137.7560  152.6586 N   0  0  0  0  0  0  0  0  0  0  0  0
  145.1718  136.6964  152.3503 C   0  0  0  0  0  0  0  0  0  0  0  0
  145.5794  135.9334  151.0871 C   0  0  0  0  0  0  0  0  0  0  0  0
  145.4848  136.5843  149.9248 N   0  0  0  0  0  0  0  0  0  0  0  0
  145.9763  134.7722  151.1575 O   0  0  0  0  0  0  0  0  0  0  0  0
  146.6843  137.8156  153.8835 N   0  0  0  0  0  0  0  0  0  0  0  0
  151.4264  139.6065  156.4936 C   0  0  0  0  0  0  0  0  0  0  0  0
  152.2021  140.0823  157.7338 C   0  0  0  0  0  0  0  0  0  0  0  0
  153.2006  139.4452  158.0701 O   0  0  0  0  0  0  0  0  0  0  0  0
  152.6414  140.8913  160.3072 H   0  0  0  0  0  0  0  0  0  0  0  0
  152.0405  142.5201  160.0428 H   0  0  0  0  0  0  0  0  0  0  0  0
  153.5338  142.0051  159.2638 H   0  0  0  0  0  0  0  0  0  0  0  0
  149.8048  141.6539  158.8096 H   0  0  0  0  0  0  0  0  0  0  0  0
  150.7370  143.0110  158.2183 H   0  0  0  0  0  0  0  0  0  0  0  0
  149.0478  142.1370  156.5580 H   0  0  0  0  0  0  0  0  0  0  0  0
  150.6855  142.2073  155.9468 H   0  0  0  0  0  0  0  0  0  0  0  0
  149.3668  139.7114  157.1122 H   0  0  0  0  0  0  0  0  0  0  0  0
  147.8720  138.9921  155.8455 H   0  0  0  0  0  0  0  0  0  0  0  0
  147.9558  140.4167  152.2203 H   0  0  0  0  0  0  0  0  0  0  0  0
  146.1912  138.8934  150.8297 H   0  0  0  0  0  0  0  0  0  0  0  0
  145.1149  136.0003  153.1887 H   0  0  0  0  0  0  0  0  0  0  0  0
  144.1816  137.1393  152.2335 H   0  0  0  0  0  0  0  0  0  0  0  0
  145.7425  136.1234  149.0644 H   0  0  0  0  0  0  0  0  0  0  0  0
  145.1550  137.5385  149.9117 H   0  0  0  0  0  0  0  0  0  0  0  0
  151.3743  138.5170  156.5098 H   0  0  0  0  0  0  0  0  0  0  0  0
  152.0282  139.8719  155.6228 H   0  0  0  0  0  0  0  0  0  0  0  0
  1  2  1  0  0  0  0
  1 21  1  0  0  0  0
  1 22  1  0  0  0  0
  1 23  1  0  0  0  0
  2 19  1  0  0  0  0
  2  3  1  0  0  0  0
  3  4  1  0  0  0  0
  3 24  1  0  0  0  0
  3 25  1  0  0  0  0
  4  5  1  0  0  0  0
  4 26  1  0  0  0  0
  4 27  1  0  0  0  0
  5  6  1  0  0  0  0
  5 18  1  0  0  0  0
  5 28  1  0  0  0  0
  6  7  2  0  0  0  0
  6  8  1  0  0  0  0
  8  9  1  0  0  0  0
  8 29  1  0  0  0  0
  9 17  2  0  0  0  0
  9 10  1  0  0  0  0
 10 11  2  0  0  0  0
 10 30  1  0  0  0  0
 11 12  1  0  0  0  0
 11 31  1  0  0  0  0
 12 13  1  0  0  0  0
 12 17  1  0  0  0  0
 13 14  1  0  0  0  0
 13 32  1  0  0  0  0
 13 33  1  0  0  0  0
 14 15  1  0  0  0  0
 14 16  2  0  0  0  0
 15 34  1  0  0  0  0
 15 35  1  0  0  0  0
 18 19  1  0  0  0  0
 18 36  1  0  0  0  0
 18 37  1  0  0  0  0
 19 20  2  0  0  0  0
M  END
> <s_m_source_file>
AV-unprocessed.smi

> <i_m_source_file_index>
1480

> <i_lp_mmshare_version>
43012

> <i_f3d_flags>
0

> <s_epik_input>
W0NIM11OMVtDSDJdW0NIMl1bQ0BIXShbQ0gyXUMxPU8pQyg9TylbTkhdYzJbY0hdW2NIXW4objIpW0NIMl1DKD1PKVtOSDJd

> <s_epik_cmdline>
J2VwaWtfcHl0aG9uJywgJy1waCcsICc3LjAnLCAnLXRuJywgJzgnLCAnLW1hJywgJzIwMCcsICctbWV0YWxfYmluZGluZycsICctaW1hZScsICc8aW5maWxlLm1hZT4nLCAnLW9tYWUnLCAnPG91dGZpbGUubWFlPic=

> <r_lp_tautomer_probability>
1

> <r_epik_Ionization_Penalty>
3.93272e-06

> <r_epik_Ionization_Penalty_Charging>
0

> <r_epik_Ionization_Penalty_Neutral>
3.93272e-06

> <r_epik_State_Penalty>
-0

> <r_epik_Charging_Adjusted_Penalty>
0

> <i_epik_Tot_Q>
0

> <i_epik_Tot_abs_Q>
0

> <r_epik_Metal_State_Penalty>
-0

> <b_epik_Metal_Only>
0

> <s_lp_Force_Field>
OPLS_2005

> <r_lp_Energy>
17.1692

> <b_lp_Chiralities_Consistent>
1

> <s_lp_Variant>
AV-unprocessed.smi:1480-1

> <Gold.Version>
5.8.1

> <Gold.Id.Protein>
6NUR|6NUR_protein|mol2

> <Gold.PLP.Fitness>
44.2904

> <Gold.PLP.PLP>
-30.6321

> <Gold.PLP.part.hbond>
-4.0000

> <Gold.PLP.part.metal>
0.0000

> <Gold.PLP.part.buried>
-3.1269

> <Gold.PLP.part.nonpolar>
-27.8548

> <Gold.PLP.part.repulsive>
2.4296

> <Gold.PLP.ligand.clash>
0.0000

> <Gold.PLP.ligand.torsion>
0.3180

> <Gold.PLP.Chemscore.Hbond>
3.7600

> <Gold.PLP.Chemscore.CHOScore>
1.0000

> <Gold.PLP.Chemscore.Metal>
0.0000

> <Gold.Chemscore.Hbonds>
donor molecule, donor type, donor heavy atom, donor atom, acceptor molecule, acceptor atom, score
      L1  H    15    34       P1  7921  1.00
      L1  H    15    35       P1 10171  0.96
      P1  H  7989  7998       L1     7  0.80
      P1  H  7997  8010       L1    20  1.00
      L1  C    11    31       P1 10171  1.00

> <Gold.PLP.Chemscore.Internal.Correction>
0.0142

> <Gold.Rescore>
     Score         DG    S(hbond)    S(metal)    S(lipo)     H(rot)  DE(clash)    DE(int)     intcor
     15.86     -19.13       3.73        0.00      54.67       2.03       2.81       0.46       ----

> <Gold.Chemscore.Fitness>
15.8632

> <Gold.Chemscore.DG>
-19.1311

> <Gold.Chemscore.ZeroCoef>
-5.4800

> <Gold.Chemscore.Hbond>
3.7257

> <Gold.Chemscore.Metal>
0.0000

> <Gold.Chemscore.Lipo>
54.6680

> <Gold.Chemscore.Internal_Hbond>
0.0000

> <Gold.Chemscore.DEClash>
2.8091

> <Gold.Chemscore.DEInternal>
0.4588

> <Gold.Chemscore.Rot>
2.0269

> <Gold.Chemscore.Internal.Correction>
   9.000000E+99

> <Gold.Chemscore.Hbonds>
donor molecule, donor type, donor heavy atom, donor atom, acceptor molecule, acceptor atom, score
      L1  H    15    34       P1  7921  0.99
      L1  H    15    35       P1 10171  0.92
      P1  H  7989  7998       L1     7  0.80
      P1  H  7997  8010       L1    20  0.45

> <Gold.Chemscore.Hbond.Weighted>
-12.4437

> <Gold.Chemscore.Metal.Weighted>
-0.0000

> <Gold.Chemscore.Lipo.Weighted>
-6.3962

> <Gold.Chemscore.Internal_Hbond.Weighted>
0.0000

> <Gold.Chemscore.DEClash.Weighted>
2.8091

> <Gold.Chemscore.DEInternal.Weighted>
0.4588

> <Gold.Chemscore.Rot.Weighted>
5.1888

> <Gold.Chemscore.Internal.Correction.Weighted>
   9.000000E+99

> <Gold.Protein.RotatedTorsions>
[ 6907 6896 6895 6894 ] final   67.07 input  -60.11 | X-H torsion
[ 7974 7965 7964 7962 ] final  149.01 input  175.53 | X-H torsion
[ 8008 7997 7996 7995 ] final   40.99 input   59.86 | X-H torsion
[ 10167 10162 10161 10158 ] final   -5.49 input  -65.29 | X-H torsion
[ 10718 10713 10712 10709 ] final -147.05 input   66.30 | X-H torsion
[ 10763 10752 10751 10750 ] final -139.31 input  -60.55 | X-H torsion
[ 11005 11000 10999 10996 ] final  137.25 input  -57.11 | X-H torsion

> <Gold.Protein.ActiveResidues>
 VAL166  LYS551  ARG553  GLY616  TRP617  ASP618  TYR619  PRO620  LYS621  CYS622 
 ASP623  PHE694  ASN695  SER759  ASP760  ASP761  ALA762  ILE779  LEU786  VAL792 
 PHE793  MET794  SER795  GLU796  ALA797  LYS798  CYS799  TRP800  GLU811  SER814 

> <Gold.Protein.RotatedAtoms>
  152.4526  134.5360  159.9824 H   0  0  0  0  0  0  0  0  0  0  0  0  # atno 6907 bound_to 6896
  151.5429  133.3424  159.2946 H   0  0  0  0  0  0  0  0  0  0  0  0  # atno 6908 bound_to 6896
  150.8460  134.7800  159.7034 H   0  0  0  0  0  0  0  0  0  0  0  0  # atno 6909 bound_to 6896
  144.8470  139.6226  143.5991 H   0  0  0  0  0  0  0  0  0  0  0  0  # atno 7974 bound_to 7965
  155.2623  140.3360  155.4272 H   0  0  0  0  0  0  0  0  0  0  0  0  # atno 8008 bound_to 7997
  156.2169  140.1793  156.7610 H   0  0  0  0  0  0  0  0  0  0  0  0  # atno 8009 bound_to 7997
  154.5767  140.0660  156.9029 H   0  0  0  0  0  0  0  0  0  0  0  0  # atno 8010 bound_to 7997
  140.6965  143.6303  150.8529 H   0  0  0  0  0  0  0  0  0  0  0  0  # atno 10167 bound_to 10162
  156.4026  130.7941  151.2153 H   0  0  0  0  0  0  0  0  0  0  0  0  # atno 10718 bound_to 10713
  154.8613  135.3586  154.5526 H   0  0  0  0  0  0  0  0  0  0  0  0  # atno 10763 bound_to 10752
  153.6143  135.7008  153.5339 H   0  0  0  0  0  0  0  0  0  0  0  0  # atno 10764 bound_to 10752
  153.3182  135.4159  155.1355 H   0  0  0  0  0  0  0  0  0  0  0  0  # atno 10765 bound_to 10752
  140.0101  134.9442  157.0260 H   0  0  0  0  0  0  0  0  0  0  0  0  # atno 11005 bound_to 11000
  146.2753  139.6736  142.9267 LP  0  0  0  0  0  0  0  0  0  0  0  0  # atno 17320 bound_to 7965
  145.4577  141.0431  143.2769 LP  0  0  0  0  0  0  0  0  0  0  0  0  # atno 17321 bound_to 7965
  140.0021  143.5733  152.2871 LP  0  0  0  0  0  0  0  0  0  0  0  0  # atno 17342 bound_to 10162
  139.6426  144.7656  151.2308 LP  0  0  0  0  0  0  0  0  0  0  0  0  # atno 17343 bound_to 10162
  157.7504  131.0282  150.4039 LP  0  0  0  0  0  0  0  0  0  0  0  0  # atno 17370 bound_to 10713
  156.4321  130.3974  149.6753 LP  0  0  0  0  0  0  0  0  0  0  0  0  # atno 17371 bound_to 10713
  140.4569  134.1524  155.7187 LP  0  0  0  0  0  0  0  0  0  0  0  0  # atno 17394 bound_to 11000
  141.1705  133.8618  157.1585 LP  0  0  0  0  0  0  0  0  0  0  0  0  # atno 17395 bound_to 11000

$$$$
