#       Name:                AV-unprocessed.smi:72
#       Creating user name   scv26
#       Creation time:       Thu Mar 26 17:06:59 2020


#       File generated by GOLD software.
#

@<TRIPOS>MOLECULE
AV-unprocessed.smi:72
    41    42     1
SMALL
NO_CHARGES


@<TRIPOS>ATOM
      1 ****         1.2498   4.5641   1.3480 N.2            1 S1                 0.0000
      2 ****         0.6406   3.5316   0.9575 C.2            1 S1                 0.0000
      3 ****         0.8170   3.0556  -0.3961 N.2            1 S1                 0.0000
      4 ****         0.2222   1.9519  -0.7304 C.2            1 S1                 0.0000
      5 ****        -0.5647   1.1746   0.2232 N.am           1 S1                 0.0000
      6 ****        -1.2835  -0.1062  -0.1882 C.3            1 S1                 0.0000
      7 ****        -0.8290  -0.5208  -1.4494 O.3            1 S1                 0.0000
      8 ****         0.0376  -1.6508  -1.3574 C.3            1 S1                 0.0000
      9 ****         1.5073  -1.2084  -1.1693 C.3            1 S1                 0.0000
     10 ****         2.0221  -0.7181  -2.3891 O.3            1 S1                 0.0000
     11 ****        -0.5731  -2.4000  -0.1691 C.3            1 S1                 0.0000
     12 ****         0.3293  -3.2940   0.4529 O.3            1 S1                 0.0000
     13 ****        -1.0065  -1.2863   0.7750 C.3            1 S1                 0.0000
     14 ****        -2.1731  -1.6909   1.4635 O.3            1 S1                 0.0000
     15 ****        -0.8142   1.7356   1.5074 C.2            1 S1                 0.0000
     16 ****        -1.6006   1.1563   2.2561 O.2            1 S1                 0.0000
     17 ****        -0.1882   2.8949   1.8531 N.pl3          1 S1                -1.0000
     18 ****        -2.3341   0.1818  -0.2532 H              1 S1                 0.0000
     19 ****        -0.0437  -2.2579  -2.2601 H              1 S1                 0.0000
     20 ****        -1.4433  -2.9571  -0.5212 H              1 S1                 0.0000
     21 ****        -0.2036  -1.0308   1.4687 H              1 S1                 0.0000
     22 ****         1.0425   4.8005   2.3072 H              1 S1                 0.0000
     23 ****         0.2801   1.5456  -1.7401 H              1 S1                 0.0000
     24 ****         1.6247  -0.4707  -0.3773 H              1 S1                 0.0000
     25 ****         2.1312  -2.0589  -0.8956 H              1 S1                 0.0000
     26 ****         2.9200  -0.4575  -2.2519 H              1 S1                 0.0000
     27 ****        -0.1048  -3.6800   1.1983 H              1 S1                 0.0000
     28 ****        -2.4517  -0.9743   2.0147 H              1 S1                 0.0000
     29 ****         1.8716   5.0922   0.7696 LP             1 S1                 0.0000
     30 ****         1.3783   3.5598  -1.0524 LP             1 S1                 0.0000
     31 ****        -0.3321   0.2338  -1.8781 LP             1 S1                 0.0000
     32 ****        -1.6180  -0.7635  -2.0137 LP             1 S1                 0.0000
     33 ****         1.4844   0.0695  -2.6900 LP             1 S1                 0.0000
     34 ****         1.9814  -1.4350  -3.0850 LP             1 S1                 0.0000
     35 ****         1.1435  -2.7979   0.7546 LP             1 S1                 0.0000
     36 ****         0.5953  -4.0101  -0.1923 LP             1 S1                 0.0000
     37 ****        -1.9739  -2.4935   2.0257 LP             1 S1                 0.0000
     38 ****        -2.8939  -1.9141   0.8073 LP             1 S1                 0.0000
     39 ****        -2.0465   0.3128   1.9569 LP             1 S1                 0.0000
     40 ****        -1.7936   1.5292   3.1637 LP             1 S1                 0.0000
     41 ****        -0.3315   3.2855   2.7625 LP             1 S1                 0.0000
@<TRIPOS>BOND
    1    1    2 2     
    2    1   22 1     
    3    2   17 1     
    4    2    3 1     
    5    3    4 2     
    6    4    5 1     
    7    4   23 1     
    8    5    6 1     
    9    5   15 am    
   10    6   18 1     
   11    6   13 1     
   12    6    7 1     
   13    7    8 1     
   14    8   19 1     
   15    8    9 1     
   16    8   11 1     
   17    9   10 1     
   18    9   24 1     
   19    9   25 1     
   20   10   26 1     
   21   11   20 1     
   22   11   12 1     
   23   11   13 1     
   24   12   27 1     
   25   13   21 1     
   26   13   14 1     
   27   14   28 1     
   28   15   16 2     
   29   15   17 1     
   30    1   29 1     
   31    3   30 1     
   32    7   31 1     
   33    7   32 1     
   34   10   33 1     
   35   10   34 1     
   36   12   35 1     
   37   12   36 1     
   38   14   37 1     
   39   14   38 1     
   40   16   39 1     
   41   16   40 1     
   42   17   41 1     
@<TRIPOS>SUBSTRUCTURE
      1 S1             1
@<TRIPOS>SET
LONE_PAIRS      STATIC     ATOMS    <user>   **** ""
13 29 30 31 32 33 34 35 36 37 38 39 40 41
DONOR_HYDROGENS      STATIC     ATOMS    <user>   **** ""
4 22 26 27 28
ATOM$BLUE        STATIC     ATOMS    COLORGROUP SYSTEM
13 29 30 31 32 33 34 35 36 37 38 39 40 41
ATOM$RED        STATIC     ATOMS    COLORGROUP SYSTEM
4 22 26 27 28
