AV-unprocessed.smi:1645|AV-procd|sdf|6611|dock7
  -GOLD-   22720 7313D 1   1.00000     0.00000
 Structure written by MMmdl.
 56 59  0  0  0  0  0  0  0  0  3 V2000
  146.6151  138.0428  155.2180 O   0  0  0  0  0  0  0  0  0  0  0  0
  147.3181  137.5382  154.3428 C   0  0  0  0  0  0  0  0  0  0  0  0
  148.6215  137.8006  154.1476 N   0  0  0  0  0  0  0  0  0  0  0  0
  149.4505  138.6985  154.8714 C   0  0  0  0  0  0  0  0  0  0  0  0
  150.8230  138.9079  154.5860 C   0  0  0  0  0  0  0  0  0  0  0  0
  151.5652  139.8113  155.3738 C   0  0  0  0  0  0  0  0  0  0  0  0
  150.9299  140.4870  156.4404 C   0  0  0  0  0  0  0  0  0  0  0  0
  151.5869  141.4029  157.2721 N   0  0  0  0  0  0  0  0  0  0  0  0
  151.0433  142.7552  157.1716 C   0  0  0  0  0  0  0  0  0  0  0  0
  151.9113  143.7536  157.9569 C   0  0  0  0  0  0  0  0  0  0  0  0
  152.0863  143.2999  159.4151 C   0  0  0  0  0  0  0  0  0  0  0  0
  152.6303  141.8629  159.4631 C   0  0  0  0  0  0  0  0  0  0  0  0
  151.7451  140.9123  158.6388 C   0  0  0  0  0  0  0  0  0  0  0  0
  149.6236  140.2478  156.6882 N   0  3  0  0  0  0  0  0  0  0  0  0
  148.8779  139.3892  155.9599 C   0  0  0  0  0  0  0  0  0  0  0  0
  146.8674  136.6225  153.4740 N   0  0  0  0  0  0  0  0  0  0  0  0
  145.4977  136.1148  153.4424 C   0  0  1  0  0  0  0  0  0  0  0  0
  144.5381  136.9990  152.6351 C   0  0  0  0  0  0  0  0  0  0  0  0
  143.4960  136.0278  152.0512 C   0  0  0  0  0  0  0  0  0  0  0  0
  143.9025  134.6735  152.4896 N   0  3  1  0  0  0  0  0  0  0  0  0
  143.4582  133.5405  151.6380 C   0  0  0  0  0  0  0  0  0  0  0  0
  144.3173  133.3765  150.3732 C   0  0  0  0  0  0  0  0  0  0  0  0
  145.8021  133.2796  150.7377 C   0  0  0  0  0  0  0  0  0  0  0  0
  146.2208  134.5261  151.5241 C   0  0  0  0  0  0  0  0  0  0  0  0
  145.3502  134.7286  152.7915 C   0  0  1  0  0  0  0  0  0  0  0  0
  149.0902  137.2425  153.4486 H   0  0  0  0  0  0  0  0  0  0  0  0
  151.3244  138.3839  153.7868 H   0  0  0  0  0  0  0  0  0  0  0  0
  152.6111  139.9774  155.1600 H   0  0  0  0  0  0  0  0  0  0  0  0
  150.9912  143.0541  156.1237 H   0  0  0  0  0  0  0  0  0  0  0  0
  150.0237  142.7695  157.5593 H   0  0  0  0  0  0  0  0  0  0  0  0
  152.8893  143.8400  157.4814 H   0  0  0  0  0  0  0  0  0  0  0  0
  151.4616  144.7464  157.9238 H   0  0  0  0  0  0  0  0  0  0  0  0
  152.7591  143.9763  159.9430 H   0  0  0  0  0  0  0  0  0  0  0  0
  151.1267  143.3464  159.9318 H   0  0  0  0  0  0  0  0  0  0  0  0
  153.6486  141.8448  159.0721 H   0  0  0  0  0  0  0  0  0  0  0  0
  152.6885  141.5176  160.4957 H   0  0  0  0  0  0  0  0  0  0  0  0
  150.7652  140.8205  159.1093 H   0  0  0  0  0  0  0  0  0  0  0  0
  152.1870  139.9150  158.6233 H   0  0  0  0  0  0  0  0  0  0  0  0
  147.8465  139.2895  156.2657 H   0  0  0  0  0  0  0  0  0  0  0  0
  147.5103  136.2514  152.7896 H   0  0  0  0  0  0  0  0  0  0  0  0
  145.1176  136.0602  154.4650 H   0  0  0  0  0  0  0  0  0  0  0  0
  144.0803  137.7684  153.2576 H   0  0  0  0  0  0  0  0  0  0  0  0
  145.0630  137.5040  151.8227 H   0  0  0  0  0  0  0  0  0  0  0  0
  142.4887  136.2474  152.4061 H   0  0  0  0  0  0  0  0  0  0  0  0
  143.4884  136.1010  150.9631 H   0  0  0  0  0  0  0  0  0  0  0  0
  143.5230  132.6292  152.2341 H   0  0  0  0  0  0  0  0  0  0  0  0
  142.4064  133.6647  151.3778 H   0  0  0  0  0  0  0  0  0  0  0  0
  144.0086  132.4826  149.8305 H   0  0  0  0  0  0  0  0  0  0  0  0
  144.1565  134.2161  149.6963 H   0  0  0  0  0  0  0  0  0  0  0  0
  145.9837  132.3839  151.3331 H   0  0  0  0  0  0  0  0  0  0  0  0
  146.4057  133.1846  149.8344 H   0  0  0  0  0  0  0  0  0  0  0  0
  147.2727  134.4429  151.7997 H   0  0  0  0  0  0  0  0  0  0  0  0
  146.1450  135.3963  150.8708 H   0  0  0  0  0  0  0  0  0  0  0  0
  145.5889  133.9433  153.5102 H   0  0  0  0  0  0  0  0  0  0  0  0
  143.4491  134.5468  153.3833 H   0  0  0  0  0  0  0  0  0  0  0  0
  149.1792  140.7396  157.4640 H   0  0  0  0  0  0  0  0  0  0  0  0
  1  2  2  0  0  0  0
  2  3  1  0  0  0  0
  2 16  1  0  0  0  0
  3  4  1  0  0  0  0
  3 26  1  0  0  0  0
  4 15  1  0  0  0  0
  4  5  2  0  0  0  0
  5  6  1  0  0  0  0
  5 27  1  0  0  0  0
  6  7  2  0  0  0  0
  6 28  1  0  0  0  0
  7  8  1  0  0  0  0
  7 14  1  0  0  0  0
  8 13  1  0  0  0  0
  8  9  1  0  0  0  0
  9 10  1  0  0  0  0
  9 29  1  0  0  0  0
  9 30  1  0  0  0  0
 10 11  1  0  0  0  0
 10 31  1  0  0  0  0
 10 32  1  0  0  0  0
 11 12  1  0  0  0  0
 11 33  1  0  0  0  0
 11 34  1  0  0  0  0
 12 13  1  0  0  0  0
 12 35  1  0  0  0  0
 12 36  1  0  0  0  0
 13 37  1  0  0  0  0
 13 38  1  0  0  0  0
 14 15  2  0  0  0  0
 14 56  1  0  0  0  0
 15 39  1  0  0  0  0
 16 17  1  0  0  0  0
 16 40  1  0  0  0  0
 17 25  1  0  0  0  0
 17 18  1  0  0  0  0
 17 41  1  0  0  0  0
 18 19  1  0  0  0  0
 18 42  1  0  0  0  0
 18 43  1  0  0  0  0
 19 20  1  0  0  0  0
 19 44  1  0  0  0  0
 19 45  1  0  0  0  0
 20 25  1  0  0  0  0
 20 21  1  0  0  0  0
 20 55  1  0  0  0  0
 21 22  1  0  0  0  0
 21 46  1  0  0  0  0
 21 47  1  0  0  0  0
 22 23  1  0  0  0  0
 22 48  1  0  0  0  0
 22 49  1  0  0  0  0
 23 24  1  0  0  0  0
 23 50  1  0  0  0  0
 23 51  1  0  0  0  0
 24 25  1  0  0  0  0
 24 52  1  0  0  0  0
 24 53  1  0  0  0  0
 25 54  1  0  0  0  0
M  CHG  1  14   1
M  CHG  1  20   1
M  END
> <s_m_source_file>
AV-unprocessed.smi

> <i_m_source_file_index>
1645

> <i_lp_mmshare_version>
43012

> <i_f3d_flags>
0

> <s_epik_input>
W0NIMl0xW0NIMl1bQ0gyXVtDSDJdW0NASF0oTjEyKVtDQEBIXShbQ0gyXVtDSDJdMilbTkhdQyg9TylbTkhdYzNbY0hdW2NIXWMobltjSF0zKU40W0NIMl1bQ0gyXVtDSDJdW0NIMl1bQ0gyXTQ=

> <s_epik_cmdline>
J2VwaWtfcHl0aG9uJywgJy1waCcsICc3LjAnLCAnLXRuJywgJzgnLCAnLW1hJywgJzIwMCcsICctbWV0YWxfYmluZGluZycsICctaW1hZScsICc8aW5maWxlLm1hZT4nLCAnLW9tYWUnLCAnPG91dGZpbGUubWFlPic=

> <r_lp_tautomer_probability>
0.999994

> <r_epik_Ionization_Penalty>
1.26838

> <r_epik_Ionization_Penalty_Charging>
1.26836

> <r_epik_Ionization_Penalty_Neutral>
1.95562e-05

> <r_epik_State_Penalty>
1.33841

> <r_epik_Charging_Adjusted_Penalty>
2.60677

> <i_epik_Tot_Q>
2

> <i_epik_Tot_abs_Q>
2

> <r_epik_Metal_State_Penalty>
1.40601

> <b_epik_Metal_Only>
0

> <s_lp_Force_Field>
OPLS_2005

> <r_lp_Energy>
62.3043

> <b_lp_Chiralities_Consistent>
1

> <s_lp_Variant>
AV-unprocessed.smi:1645-12

> <Gold.Version>
5.8.1

> <Gold.Id.Protein>
6NUR|6NUR_protein|mol2

> <Gold.PLP.Fitness>
46.2890

> <Gold.PLP.PLP>
-41.5301

> <Gold.PLP.part.hbond>
-2.0000

> <Gold.PLP.part.metal>
0.0000

> <Gold.PLP.part.buried>
-4.1692

> <Gold.PLP.part.nonpolar>
-35.6756

> <Gold.PLP.part.repulsive>
0.0703

> <Gold.PLP.ligand.clash>
0.5210

> <Gold.PLP.ligand.torsion>
0.4191

> <Gold.PLP.Chemscore.Hbond>
1.9920

> <Gold.PLP.Chemscore.CHOScore>
0.0000

> <Gold.PLP.Chemscore.Metal>
0.0000

> <Gold.Chemscore.Hbonds>
donor molecule, donor type, donor heavy atom, donor atom, acceptor molecule, acceptor atom, score
      L1  H     3    26       P1  7948  0.98
      L1  H    16    40       P1  7948  1.00

> <Gold.PLP.Chemscore.Internal.Correction>
0.1422

> <Gold.Rescore>
     Score         DG    S(hbond)    S(metal)    S(lipo)     H(rot)  DE(clash)    DE(int)     intcor
     20.13     -22.11       1.93        0.00     112.86       1.18       0.14       1.84       ----

> <Gold.Chemscore.Fitness>
20.1310

> <Gold.Chemscore.DG>
-22.1133

> <Gold.Chemscore.ZeroCoef>
-5.4800

> <Gold.Chemscore.Hbond>
1.9334

> <Gold.Chemscore.Metal>
0.0000

> <Gold.Chemscore.Lipo>
112.8625

> <Gold.Chemscore.Internal_Hbond>
0.0000

> <Gold.Chemscore.DEClash>
0.1440

> <Gold.Chemscore.DEInternal>
1.8383

> <Gold.Chemscore.Rot>
1.1833

> <Gold.Chemscore.Internal.Correction>
   9.000000E+99

> <Gold.Chemscore.Hbonds>
donor molecule, donor type, donor heavy atom, donor atom, acceptor molecule, acceptor atom, score
      L1  H     3    26       P1  7948  0.93
      L1  H    16    40       P1  7948  0.98

> <Gold.Chemscore.Hbond.Weighted>
-6.4577

> <Gold.Chemscore.Metal.Weighted>
-0.0000

> <Gold.Chemscore.Lipo.Weighted>
-13.2049

> <Gold.Chemscore.Internal_Hbond.Weighted>
0.0000

> <Gold.Chemscore.DEClash.Weighted>
0.1440

> <Gold.Chemscore.DEInternal.Weighted>
1.8383

> <Gold.Chemscore.Rot.Weighted>
3.0293

> <Gold.Chemscore.Internal.Correction.Weighted>
   9.000000E+99

> <Gold.Protein.RotatedTorsions>
[ 6907 6896 6895 6894 ] final   46.27 input  -60.11 | X-H torsion
[ 7974 7965 7964 7962 ] final -135.91 input  175.53 | X-H torsion
[ 8008 7997 7996 7995 ] final  -38.97 input   59.86 | X-H torsion
[ 10167 10162 10161 10158 ] final  -48.67 input  -65.29 | X-H torsion
[ 10718 10713 10712 10709 ] final   13.58 input   66.30 | X-H torsion
[ 10763 10752 10751 10750 ] final  -71.08 input  -60.55 | X-H torsion
[ 11005 11000 10999 10996 ] final  -30.01 input  -57.11 | X-H torsion

> <Gold.Protein.ActiveResidues>
 VAL166  LYS551  ARG553  GLY616  TRP617  ASP618  TYR619  PRO620  LYS621  CYS622 
 ASP623  PHE694  ASN695  SER759  ASP760  ASP761  ALA762  ILE779  LEU786  VAL792 
 PHE793  MET794  SER795  GLU796  ALA797  LYS798  CYS799  TRP800  GLU811  SER814 

> <Gold.Protein.RotatedAtoms>
  152.2544  134.8100  160.0440 H   0  0  0  0  0  0  0  0  0  0  0  0  # atno 6907 bound_to 6896
  151.8768  133.3482  159.3761 H   0  0  0  0  0  0  0  0  0  0  0  0  # atno 6908 bound_to 6896
  150.7095  134.4985  159.5594 H   0  0  0  0  0  0  0  0  0  0  0  0  # atno 6909 bound_to 6896
  144.8973  140.6724  143.5107 H   0  0  0  0  0  0  0  0  0  0  0  0  # atno 7974 bound_to 7965
  154.4029  140.1564  156.2787 H   0  0  0  0  0  0  0  0  0  0  0  0  # atno 8008 bound_to 7997
  155.8889  140.3440  155.5919 H   0  0  0  0  0  0  0  0  0  0  0  0  # atno 8009 bound_to 7997
  155.7582  140.0814  157.2159 H   0  0  0  0  0  0  0  0  0  0  0  0  # atno 8010 bound_to 7997
  140.6720  143.2730  151.4105 H   0  0  0  0  0  0  0  0  0  0  0  0  # atno 10167 bound_to 10162
  157.0267  130.6176  149.5729 H   0  0  0  0  0  0  0  0  0  0  0  0  # atno 10718 bound_to 10713
  154.4267  135.5973  153.6043 H   0  0  0  0  0  0  0  0  0  0  0  0  # atno 10763 bound_to 10752
  152.9796  135.5965  154.3889 H   0  0  0  0  0  0  0  0  0  0  0  0  # atno 10764 bound_to 10752
  154.3722  135.2841  155.2238 H   0  0  0  0  0  0  0  0  0  0  0  0  # atno 10765 bound_to 10752
  140.9345  133.7317  156.0985 H   0  0  0  0  0  0  0  0  0  0  0  0  # atno 11005 bound_to 11000
  145.3678  139.1666  143.4348 LP  0  0  0  0  0  0  0  0  0  0  0  0  # atno 17320 bound_to 7965
  146.3088  140.3746  142.8677 LP  0  0  0  0  0  0  0  0  0  0  0  0  # atno 17321 bound_to 7965
  139.5993  144.1329  152.2180 LP  0  0  0  0  0  0  0  0  0  0  0  0  # atno 17342 bound_to 10162
  140.0708  144.5780  150.7193 LP  0  0  0  0  0  0  0  0  0  0  0  0  # atno 17343 bound_to 10162
  156.0083  130.5172  150.7905 LP  0  0  0  0  0  0  0  0  0  0  0  0  # atno 17370 bound_to 10713
  157.5209  131.0931  151.0080 LP  0  0  0  0  0  0  0  0  0  0  0  0  # atno 17371 bound_to 10713
  140.7817  134.3717  157.5485 LP  0  0  0  0  0  0  0  0  0  0  0  0  # atno 17394 bound_to 11000
  139.8804  134.9086  156.2971 LP  0  0  0  0  0  0  0  0  0  0  0  0  # atno 17395 bound_to 11000

$$$$
