AV-unprocessed.smi:1740|AV-procd|sdf|7014|dock4
  -GOLD-   22720 8233D 1   1.00000     0.00000
 Structure written by MMmdl.
 52 54  0  0  0  0  0  0  0  0  4 V2000
  141.8234  132.5361  148.0003 N   0  5  0  0  0  0  0  0  0  0  0  0
  143.0731  133.0421  148.0229 C   0  0  0  0  0  0  0  0  0  0  0  0
  143.5475  133.9157  147.3011 O   0  0  0  0  0  0  0  0  0  0  0  0
  143.9436  132.3987  149.1080 C   0  0  0  0  0  0  0  0  0  0  0  0
  144.7676  133.4220  149.8007 N   0  3  2  0  0  0  0  0  0  0  0  0
  145.5122  132.8834  150.9710 C   0  0  0  0  0  0  0  0  0  0  0  0
  146.4459  133.9460  151.5751 C   0  0  0  0  0  0  0  0  0  0  0  0
  145.6647  135.2142  151.9637 C   0  0  1  0  0  0  0  0  0  0  0  0
  146.5649  136.2543  152.4538 N   0  0  0  0  0  0  0  0  0  0  0  0
  146.1861  137.3446  153.1359 C   0  0  0  0  0  0  0  0  0  0  0  0
  145.0195  137.5813  153.4492 O   0  0  0  0  0  0  0  0  0  0  0  0
  147.2401  138.1199  153.4407 N   0  0  0  0  0  0  0  0  0  0  0  0
  147.2484  139.3401  154.1750 C   0  0  0  0  0  0  0  0  0  0  0  0
  146.0771  140.1318  154.2980 C   0  0  0  0  0  0  0  0  0  0  0  0
  146.1314  141.3692  154.9664 C   0  0  0  0  0  0  0  0  0  0  0  0
  147.3604  141.8065  155.4888 C   0  0  0  0  0  0  0  0  0  0  0  0
  148.4591  141.0374  155.3453 N   0  3  0  0  0  0  0  0  0  0  0  0
  148.4683  139.8303  154.7261 C   0  0  0  0  0  0  0  0  0  0  0  0
  149.6953  139.1314  154.6620 N   0  0  0  0  0  0  0  0  0  0  0  0
  150.9405  139.7861  155.0472 C   0  0  0  0  0  0  0  0  0  0  0  0
  151.9532  138.6538  155.1960 C   0  0  0  0  0  0  0  0  0  0  0  0
  151.0959  137.5172  155.7444 C   0  0  0  0  0  0  0  0  0  0  0  0
  149.7369  137.7304  155.0696 C   0  0  0  0  0  0  0  0  0  0  0  0
  144.8870  135.7292  150.7423 C   0  0  0  0  0  0  0  0  0  0  0  0
  143.9833  134.6313  150.1567 C   0  0  0  0  0  0  0  0  0  0  0  0
  141.0702  133.0656  148.4561 H   0  0  0  0  0  0  0  0  0  0  0  0
  143.2793  131.9015  149.8170 H   0  0  0  0  0  0  0  0  0  0  0  0
  144.5806  131.6219  148.6820 H   0  0  0  0  0  0  0  0  0  0  0  0
  144.8042  132.5362  151.7251 H   0  0  0  0  0  0  0  0  0  0  0  0
  146.1046  132.0174  150.6741 H   0  0  0  0  0  0  0  0  0  0  0  0
  146.9533  133.5321  152.4473 H   0  0  0  0  0  0  0  0  0  0  0  0
  147.2251  134.1952  150.8531 H   0  0  0  0  0  0  0  0  0  0  0  0
  144.9455  134.9648  152.7467 H   0  0  0  0  0  0  0  0  0  0  0  0
  147.5463  136.1383  152.2475 H   0  0  0  0  0  0  0  0  0  0  0  0
  148.1486  137.7493  153.2030 H   0  0  0  0  0  0  0  0  0  0  0  0
  145.1375  139.8206  153.8674 H   0  0  0  0  0  0  0  0  0  0  0  0
  145.2453  141.9794  155.0641 H   0  0  0  0  0  0  0  0  0  0  0  0
  147.4994  142.7433  156.0089 H   0  0  0  0  0  0  0  0  0  0  0  0
  151.2555  140.5156  154.3003 H   0  0  0  0  0  0  0  0  0  0  0  0
  150.8231  140.2993  156.0026 H   0  0  0  0  0  0  0  0  0  0  0  0
  152.3543  138.3794  154.2192 H   0  0  0  0  0  0  0  0  0  0  0  0
  152.7889  138.9125  155.8468 H   0  0  0  0  0  0  0  0  0  0  0  0
  151.5174  136.5312  155.5472 H   0  0  0  0  0  0  0  0  0  0  0  0
  150.9910  137.6273  156.8246 H   0  0  0  0  0  0  0  0  0  0  0  0
  148.9162  137.4700  155.7394 H   0  0  0  0  0  0  0  0  0  0  0  0
  149.6616  137.1051  154.1798 H   0  0  0  0  0  0  0  0  0  0  0  0
  144.2826  136.5937  151.0195 H   0  0  0  0  0  0  0  0  0  0  0  0
  145.5829  136.0711  149.9743 H   0  0  0  0  0  0  0  0  0  0  0  0
  143.4823  135.0183  149.2685 H   0  0  0  0  0  0  0  0  0  0  0  0
  143.2033  134.3628  150.8708 H   0  0  0  0  0  0  0  0  0  0  0  0
  145.4548  133.7145  149.1196 H   0  0  0  0  0  0  0  0  0  0  0  0
  149.3365  141.3834  155.7340 H   0  0  0  0  0  0  0  0  0  0  0  0
  1  2  1  0  0  0  0
  1 26  1  0  0  0  0
  2  3  2  0  0  0  0
  2  4  1  0  0  0  0
  4  5  1  0  0  0  0
  4 27  1  0  0  0  0
  4 28  1  0  0  0  0
  5 25  1  0  0  0  0
  5  6  1  0  0  0  0
  5 51  1  0  0  0  0
  6  7  1  0  0  0  0
  6 29  1  0  0  0  0
  6 30  1  0  0  0  0
  7  8  1  0  0  0  0
  7 31  1  0  0  0  0
  7 32  1  0  0  0  0
  8  9  1  0  0  0  0
  8 24  1  0  0  0  0
  8 33  1  0  0  0  0
  9 10  1  0  0  0  0
  9 34  1  0  0  0  0
 10 11  2  0  0  0  0
 10 12  1  0  0  0  0
 12 13  1  0  0  0  0
 12 35  1  0  0  0  0
 13 18  1  0  0  0  0
 13 14  2  0  0  0  0
 14 15  1  0  0  0  0
 14 36  1  0  0  0  0
 15 16  2  0  0  0  0
 15 37  1  0  0  0  0
 16 17  1  0  0  0  0
 16 38  1  0  0  0  0
 17 18  2  0  0  0  0
 17 52  1  0  0  0  0
 18 19  1  0  0  0  0
 19 23  1  0  0  0  0
 19 20  1  0  0  0  0
 20 21  1  0  0  0  0
 20 39  1  0  0  0  0
 20 40  1  0  0  0  0
 21 22  1  0  0  0  0
 21 41  1  0  0  0  0
 21 42  1  0  0  0  0
 22 23  1  0  0  0  0
 22 43  1  0  0  0  0
 22 44  1  0  0  0  0
 23 45  1  0  0  0  0
 23 46  1  0  0  0  0
 24 25  1  0  0  0  0
 24 47  1  0  0  0  0
 24 48  1  0  0  0  0
 25 49  1  0  0  0  0
 25 50  1  0  0  0  0
M  CHG  1   1  -1
M  CHG  1   5   1
M  CHG  1  17   1
M  END
> <s_m_source_file>
AV-unprocessed.smi

> <i_m_source_file_index>
1740

> <i_lp_mmshare_version>
43012

> <i_f3d_flags>
0

> <s_epik_input>
W05IMl1DKD1PKVtDSDJdTjFbQ0gyXVtDSDJdW0NIXShbQ0gyXVtDSDJdMSlbTkhdQyg9TylbTkhdYzJbY0hdW2NIXVtjSF1uYzJOM1tDSDJdW0NIMl1bQ0gyXVtDSDJdMw==

> <s_epik_cmdline>
J2VwaWtfcHl0aG9uJywgJy1waCcsICc3LjAnLCAnLXRuJywgJzgnLCAnLW1hJywgJzIwMCcsICctbWV0YWxfYmluZGluZycsICctaW1hZScsICc8aW5maWxlLm1hZT4nLCAnLW9tYWUnLCAnPG91dGZpbGUubWFlPic=

> <r_lp_tautomer_probability>
0.999994

> <r_epik_Ionization_Penalty>
6.97817

> <r_epik_Ionization_Penalty_Charging>
6.97815

> <r_epik_Ionization_Penalty_Neutral>
1.88285e-05

> <r_epik_State_Penalty>
7.80985

> <r_epik_Charging_Adjusted_Penalty>
14.788

> <i_epik_Tot_Q>
1

> <i_epik_Tot_abs_Q>
3

> <r_epik_Metal_State_Penalty>
3.85728

> <b_epik_Metal_Only>
1

> <s_lp_Force_Field>
OPLS_2005

> <r_lp_Energy>
44.3343

> <b_lp_Chiralities_Consistent>
1

> <s_lp_Variant>
AV-unprocessed.smi:1740-9

> <Gold.Version>
5.8.1

> <Gold.Id.Protein>
6NUR|6NUR_protein|mol2

> <Gold.PLP.Fitness>
46.0156

> <Gold.PLP.PLP>
-33.4465

> <Gold.PLP.part.hbond>
-6.8061

> <Gold.PLP.part.metal>
0.0000

> <Gold.PLP.part.buried>
4.9892

> <Gold.PLP.part.nonpolar>
-39.0059

> <Gold.PLP.part.repulsive>
6.8154

> <Gold.PLP.ligand.clash>
0.0000

> <Gold.PLP.ligand.torsion>
0.7821

> <Gold.PLP.Chemscore.Hbond>
4.5595

> <Gold.PLP.Chemscore.CHOScore>
0.0000

> <Gold.PLP.Chemscore.Metal>
0.0000

> <Gold.Chemscore.Hbonds>
donor molecule, donor type, donor heavy atom, donor atom, acceptor molecule, acceptor atom, score
      L1  H     1    26       P1 10186  0.74
      L1  H     5    51       P1  7921  1.00
      L1  H     9    34       P1  7948  0.80
      L1  H    12    35       P1  7948  0.49
      P1  H  7918  7932       L1     3  0.76
      P1  H 10192 10197       L1     3  1.00

> <Gold.PLP.Chemscore.Internal.Correction>
0.4548

> <Gold.Rescore>
     Score         DG    S(hbond)    S(metal)    S(lipo)     H(rot)  DE(clash)    DE(int)     intcor
     12.81     -21.70       3.45        0.00      87.85       2.18       6.46       2.43       ----

> <Gold.Chemscore.Fitness>
12.8110

> <Gold.Chemscore.DG>
-21.7025

> <Gold.Chemscore.ZeroCoef>
-5.4800

> <Gold.Chemscore.Hbond>
3.4531

> <Gold.Chemscore.Metal>
0.0000

> <Gold.Chemscore.Lipo>
87.8467

> <Gold.Chemscore.Internal_Hbond>
0.0000

> <Gold.Chemscore.DEClash>
6.4610

> <Gold.Chemscore.DEInternal>
2.4305

> <Gold.Chemscore.Rot>
2.1832

> <Gold.Chemscore.Internal.Correction>
   9.000000E+99

> <Gold.Chemscore.Hbonds>
donor molecule, donor type, donor heavy atom, donor atom, acceptor molecule, acceptor atom, score
      L1  H     1    26       P1 10186  0.74
      L1  H     5    51       P1  7921  0.53
      L1  H     9    34       P1  7948  0.79
      L1  H    12    35       P1  7948  0.49
      P1  H  7918  7932       L1     3  0.67
      P1  H 10192 10197       L1     3  0.34

> <Gold.Chemscore.Hbond.Weighted>
-11.5335

> <Gold.Chemscore.Metal.Weighted>
-0.0000

> <Gold.Chemscore.Lipo.Weighted>
-10.2781

> <Gold.Chemscore.Internal_Hbond.Weighted>
0.0000

> <Gold.Chemscore.DEClash.Weighted>
6.4610

> <Gold.Chemscore.DEInternal.Weighted>
2.4305

> <Gold.Chemscore.Rot.Weighted>
5.5891

> <Gold.Chemscore.Internal.Correction.Weighted>
   9.000000E+99

> <Gold.Protein.RotatedTorsions>
[ 6907 6896 6895 6894 ] final -132.62 input  -60.11 | X-H torsion
[ 7974 7965 7964 7962 ] final -163.81 input  175.53 | X-H torsion
[ 8008 7997 7996 7995 ] final    1.30 input   59.86 | X-H torsion
[ 10167 10162 10161 10158 ] final -162.76 input  -65.29 | X-H torsion
[ 10718 10713 10712 10709 ] final   76.93 input   66.30 | X-H torsion
[ 10763 10752 10751 10750 ] final  103.02 input  -60.55 | X-H torsion
[ 11005 11000 10999 10996 ] final   59.39 input  -57.11 | X-H torsion

> <Gold.Protein.ActiveResidues>
 VAL166  LYS551  ARG553  GLY616  TRP617  ASP618  TYR619  PRO620  LYS621  CYS622 
 ASP623  PHE694  ASN695  SER759  ASP760  ASP761  ALA762  ILE779  LEU786  VAL792 
 PHE793  MET794  SER795  GLU796  ALA797  LYS798  CYS799  TRP800  GLU811  SER814 

> <Gold.Protein.RotatedAtoms>
  150.9646  133.6409  159.2748 H   0  0  0  0  0  0  0  0  0  0  0  0  # atno 6907 bound_to 6896
  151.3719  135.0923  159.9478 H   0  0  0  0  0  0  0  0  0  0  0  0  # atno 6908 bound_to 6896
  152.5160  133.9198  159.7583 H   0  0  0  0  0  0  0  0  0  0  0  0  # atno 6909 bound_to 6896
  144.7315  140.3053  143.6197 H   0  0  0  0  0  0  0  0  0  0  0  0  # atno 7974 bound_to 7965
  154.6782  140.2627  155.6936 H   0  0  0  0  0  0  0  0  0  0  0  0  # atno 8008 bound_to 7997
  156.2686  140.2815  156.1238 H   0  0  0  0  0  0  0  0  0  0  0  0  # atno 8009 bound_to 7997
  155.1070  140.0375  157.2703 H   0  0  0  0  0  0  0  0  0  0  0  0  # atno 8010 bound_to 7997
  139.6369  144.0334  152.2061 H   0  0  0  0  0  0  0  0  0  0  0  0  # atno 10167 bound_to 10162
  157.6692  130.9798  150.1568 H   0  0  0  0  0  0  0  0  0  0  0  0  # atno 10718 bound_to 10713
  153.3472  135.3991  155.1618 H   0  0  0  0  0  0  0  0  0  0  0  0  # atno 10763 bound_to 10752
  154.8655  135.3647  154.5269 H   0  0  0  0  0  0  0  0  0  0  0  0  # atno 10764 bound_to 10752
  153.5718  135.7079  153.5561 H   0  0  0  0  0  0  0  0  0  0  0  0  # atno 10765 bound_to 10752
  140.0307  134.6016  155.9511 H   0  0  0  0  0  0  0  0  0  0  0  0  # atno 11005 bound_to 11000
  145.7719  139.1860  143.2207 LP  0  0  0  0  0  0  0  0  0  0  0  0  # atno 17320 bound_to 7965
  146.0903  140.7663  142.9598 LP  0  0  0  0  0  0  0  0  0  0  0  0  # atno 17321 bound_to 7965
  140.0013  144.6291  150.7727 LP  0  0  0  0  0  0  0  0  0  0  0  0  # atno 17342 bound_to 10162
  140.7470  143.2899  151.3359 LP  0  0  0  0  0  0  0  0  0  0  0  0  # atno 17343 bound_to 10162
  156.2354  130.3686  149.8397 LP  0  0  0  0  0  0  0  0  0  0  0  0  # atno 17370 bound_to 10713
  156.6212  130.8627  151.3476 LP  0  0  0  0  0  0  0  0  0  0  0  0  # atno 17371 bound_to 10713
  141.1829  133.6550  156.5095 LP  0  0  0  0  0  0  0  0  0  0  0  0  # atno 17394 bound_to 11000
  140.4230  134.7170  157.4900 LP  0  0  0  0  0  0  0  0  0  0  0  0  # atno 17395 bound_to 11000

$$$$
