AV-unprocessed.smi:745|AV-procd|sdf|3574|dock4
  -GOLD-   22720 0563D 1   1.00000     0.00000
 Structure written by MMmdl.
 42 43  0  0  0  0  0  0  0  0  2 V2000
  146.2895  142.1728  154.3842 C   0  0  0  0  0  0  0  0  0  0  0  0
  147.4352  141.2795  154.8905 C   0  0  2  0  0  0  0  0  0  0  0  0
  148.4189  142.1454  155.5421 N   0  0  0  0  0  0  0  0  0  0  0  0
  149.3386  141.7572  156.4395 C   0  0  0  0  0  0  0  0  0  0  0  0
  149.4881  140.5889  156.7990 O   0  0  0  0  0  0  0  0  0  0  0  0
  150.0612  142.8029  156.8781 N   0  0  0  0  0  0  0  0  0  0  0  0
  151.1168  142.8029  157.8289 C   0  0  0  0  0  0  0  0  0  0  0  0
  151.7127  144.0629  158.0623 C   0  0  0  0  0  0  0  0  0  0  0  0
  152.7680  144.1693  158.9891 C   0  0  0  0  0  0  0  0  0  0  0  0
  153.2012  143.0111  159.6590 C   0  0  0  0  0  0  0  0  0  0  0  0
  152.5552  141.7956  159.3670 C   0  0  0  0  0  0  0  0  0  0  0  0
  151.5440  141.6913  158.4790 N   0  0  0  0  0  0  0  0  0  0  0  0
  148.0990  140.4343  153.7632 C   0  0  2  0  0  0  0  0  0  0  0  0
  147.1161  139.4962  153.0271 C   0  0  0  0  0  0  0  0  0  0  0  0
  146.6825  138.3045  153.9016 C   0  0  0  0  0  0  0  0  0  0  0  0
  147.8585  137.5353  154.3797 N   0  3  2  0  0  0  0  0  0  0  0  0
  147.4713  136.3364  155.1539 C   0  0  0  0  0  0  0  0  0  0  0  0
  148.8314  138.3859  155.1084 C   0  0  0  0  0  0  0  0  0  0  0  0
  149.2897  139.5698  154.2383 C   0  0  0  0  0  0  0  0  0  0  0  0
  145.4481  141.5871  154.0160 H   0  0  0  0  0  0  0  0  0  0  0  0
  146.6210  142.8293  153.5790 H   0  0  0  0  0  0  0  0  0  0  0  0
  145.9042  142.8033  155.1866 H   0  0  0  0  0  0  0  0  0  0  0  0
  147.0043  140.6062  155.6315 H   0  0  0  0  0  0  0  0  0  0  0  0
  148.3782  143.1264  155.3065 H   0  0  0  0  0  0  0  0  0  0  0  0
  149.8224  143.7062  156.4965 H   0  0  0  0  0  0  0  0  0  0  0  0
  151.3669  144.9430  157.5399 H   0  0  0  0  0  0  0  0  0  0  0  0
  153.2357  145.1234  159.1825 H   0  0  0  0  0  0  0  0  0  0  0  0
  154.0070  143.0526  160.3768 H   0  0  0  0  0  0  0  0  0  0  0  0
  152.8581  140.8830  159.8587 H   0  0  0  0  0  0  0  0  0  0  0  0
  148.4884  141.1405  153.0282 H   0  0  0  0  0  0  0  0  0  0  0  0
  146.2419  140.0372  152.6677 H   0  0  0  0  0  0  0  0  0  0  0  0
  147.6023  139.1102  152.1300 H   0  0  0  0  0  0  0  0  0  0  0  0
  146.0925  138.6458  154.7530 H   0  0  0  0  0  0  0  0  0  0  0  0
  146.0358  137.6468  153.3193 H   0  0  0  0  0  0  0  0  0  0  0  0
  146.9542  136.6146  156.0733 H   0  0  0  0  0  0  0  0  0  0  0  0
  148.3513  135.7502  155.4202 H   0  0  0  0  0  0  0  0  0  0  0  0
  146.8103  135.6961  154.5690 H   0  0  0  0  0  0  0  0  0  0  0  0
  148.3849  138.7412  156.0376 H   0  0  0  0  0  0  0  0  0  0  0  0
  149.6983  137.7860  155.3878 H   0  0  0  0  0  0  0  0  0  0  0  0
  149.8149  139.1796  153.3654 H   0  0  0  0  0  0  0  0  0  0  0  0
  150.0284  140.1657  154.7736 H   0  0  0  0  0  0  0  0  0  0  0  0
  148.3348  137.2007  153.5542 H   0  0  0  0  0  0  0  0  0  0  0  0
  1  2  1  0  0  0  0
  1 20  1  0  0  0  0
  1 21  1  0  0  0  0
  1 22  1  0  0  0  0
  2  3  1  0  0  0  0
  2 13  1  0  0  0  0
  2 23  1  0  0  0  0
  3  4  1  0  0  0  0
  3 24  1  0  0  0  0
  4  5  2  0  0  0  0
  4  6  1  0  0  0  0
  6  7  1  0  0  0  0
  6 25  1  0  0  0  0
  7 12  1  0  0  0  0
  7  8  2  0  0  0  0
  8  9  1  0  0  0  0
  8 26  1  0  0  0  0
  9 10  2  0  0  0  0
  9 27  1  0  0  0  0
 10 11  1  0  0  0  0
 10 28  1  0  0  0  0
 11 12  2  0  0  0  0
 11 29  1  0  0  0  0
 13 19  1  0  0  0  0
 13 14  1  0  0  0  0
 13 30  1  0  0  0  0
 14 15  1  0  0  0  0
 14 31  1  0  0  0  0
 14 32  1  0  0  0  0
 15 16  1  0  0  0  0
 15 33  1  0  0  0  0
 15 34  1  0  0  0  0
 16 17  1  0  0  0  0
 16 18  1  0  0  0  0
 16 42  1  0  0  0  0
 17 35  1  0  0  0  0
 17 36  1  0  0  0  0
 17 37  1  0  0  0  0
 18 19  1  0  0  0  0
 18 38  1  0  0  0  0
 18 39  1  0  0  0  0
 19 40  1  0  0  0  0
 19 41  1  0  0  0  0
M  CHG  1  16   1
M  END
> <s_m_source_file>
AV-unprocessed.smi

> <i_m_source_file_index>
745

> <i_lp_mmshare_version>
43012

> <i_f3d_flags>
0

> <s_epik_input>
W0NIMl0xW0NIMl1OKFtDSDNdKVtDSDJdW0NIMl1bQ0hdMVtDQEhdKFtDSDNdKVtOSF1DKD1PKVtOSF1jMltjSF1bY0hdW2NIXVtjSF1uMg==

> <s_epik_cmdline>
J2VwaWtfcHl0aG9uJywgJy1waCcsICc3LjAnLCAnLXRuJywgJzgnLCAnLW1hJywgJzIwMCcsICctbWV0YWxfYmluZGluZycsICctaW1hZScsICc8aW5maWxlLm1hZT4nLCAnLW9tYWUnLCAnPG91dGZpbGUubWFlPic=

> <r_epik_Ionization_Penalty>
0.0011087

> <r_epik_Ionization_Penalty_Charging>
0.00106265

> <r_epik_Ionization_Penalty_Neutral>
4.60506e-05

> <r_epik_State_Penalty>
0.000695551

> <r_epik_Charging_Adjusted_Penalty>
0.0017582

> <i_epik_Tot_Q>
1

> <i_epik_Tot_abs_Q>
1

> <r_epik_Metal_State_Penalty>
-0

> <b_epik_Metal_Only>
0

> <s_lp_Force_Field>
OPLS_2005

> <r_lp_Energy>
21.1146

> <b_lp_Chiralities_Consistent>
1

> <s_lp_Variant>
AV-unprocessed.smi:745-3

> <Gold.Version>
5.8.1

> <Gold.Id.Protein>
6NUR|6NUR_protein|mol2

> <Gold.PLP.Fitness>
46.0577

> <Gold.PLP.PLP>
-34.5708

> <Gold.PLP.part.hbond>
-3.0000

> <Gold.PLP.part.metal>
0.0000

> <Gold.PLP.part.buried>
-1.7627

> <Gold.PLP.part.nonpolar>
-30.7171

> <Gold.PLP.part.repulsive>
0.1614

> <Gold.PLP.ligand.clash>
0.0000

> <Gold.PLP.ligand.torsion>
0.2659

> <Gold.PLP.Chemscore.Hbond>
4.0000

> <Gold.PLP.Chemscore.CHOScore>
0.0000

> <Gold.PLP.Chemscore.Metal>
0.0000

> <Gold.Chemscore.Hbonds>
donor molecule, donor type, donor heavy atom, donor atom, acceptor molecule, acceptor atom, score
      L1  H     3    24       P1  8028  0.99
      L1  H     6    25       P1  8028  1.00
      L1  H    16    42       P1  7948  1.95

> <Gold.PLP.Chemscore.Internal.Correction>
0.0187

> <Gold.Rescore>
     Score         DG    S(hbond)    S(metal)    S(lipo)     H(rot)  DE(clash)    DE(int)     intcor
     20.27     -22.03       2.94        0.00      85.09       1.26       0.07       1.68       ----

> <Gold.Chemscore.Fitness>
20.2734

> <Gold.Chemscore.DG>
-22.0294

> <Gold.Chemscore.ZeroCoef>
-5.4800

> <Gold.Chemscore.Hbond>
2.9402

> <Gold.Chemscore.Metal>
0.0000

> <Gold.Chemscore.Lipo>
85.0861

> <Gold.Chemscore.Internal_Hbond>
0.0000

> <Gold.Chemscore.DEClash>
0.0711

> <Gold.Chemscore.DEInternal>
1.6849

> <Gold.Chemscore.Rot>
1.2601

> <Gold.Chemscore.Internal.Correction>
   9.000000E+99

> <Gold.Chemscore.Hbonds>
donor molecule, donor type, donor heavy atom, donor atom, acceptor molecule, acceptor atom, score
      L1  H     3    24       P1  8028  0.93
      L1  H     6    25       P1  8028  0.97
      L1  H    16    42       P1  7948  0.91

> <Gold.Chemscore.Hbond.Weighted>
-9.8203

> <Gold.Chemscore.Metal.Weighted>
-0.0000

> <Gold.Chemscore.Lipo.Weighted>
-9.9551

> <Gold.Chemscore.Internal_Hbond.Weighted>
0.0000

> <Gold.Chemscore.DEClash.Weighted>
0.0711

> <Gold.Chemscore.DEInternal.Weighted>
1.6849

> <Gold.Chemscore.Rot.Weighted>
3.2260

> <Gold.Chemscore.Internal.Correction.Weighted>
   9.000000E+99

> <Gold.Protein.RotatedTorsions>
[ 6907 6896 6895 6894 ] final  -46.08 input  -60.11 | X-H torsion
[ 7974 7965 7964 7962 ] final   -1.52 input  175.53 | X-H torsion
[ 8008 7997 7996 7995 ] final -105.32 input   59.86 | X-H torsion
[ 10167 10162 10161 10158 ] final  124.35 input  -65.29 | X-H torsion
[ 10718 10713 10712 10709 ] final   91.88 input   66.30 | X-H torsion
[ 10763 10752 10751 10750 ] final   38.33 input  -60.55 | X-H torsion
[ 11005 11000 10999 10996 ] final   90.94 input  -57.11 | X-H torsion

> <Gold.Protein.ActiveResidues>
 VAL166  LYS551  ARG553  GLY616  TRP617  ASP618  TYR619  PRO620  LYS621  CYS622 
 ASP623  PHE694  ASN695  SER759  ASP760  ASP761  ALA762  ILE779  LEU786  VAL792 
 PHE793  MET794  SER795  GLU796  ALA797  LYS798  CYS799  TRP800  GLU811  SER814 

> <Gold.Protein.RotatedAtoms>
  150.9150  134.8568  159.7450 H   0  0  0  0  0  0  0  0  0  0  0  0  # atno 6907 bound_to 6896
  152.4964  134.4302  159.9519 H   0  0  0  0  0  0  0  0  0  0  0  0  # atno 6908 bound_to 6896
  151.4341  133.3622  159.2808 H   0  0  0  0  0  0  0  0  0  0  0  0  # atno 6909 bound_to 6896
  146.2416  140.1433  142.8335 H   0  0  0  0  0  0  0  0  0  0  0  0  # atno 7974 bound_to 7965
  154.8981  140.0413  157.1877 H   0  0  0  0  0  0  0  0  0  0  0  0  # atno 8008 bound_to 7997
  154.8472  140.2923  155.5600 H   0  0  0  0  0  0  0  0  0  0  0  0  # atno 8009 bound_to 7997
  156.2994  140.2471  156.3425 H   0  0  0  0  0  0  0  0  0  0  0  0  # atno 8010 bound_to 7997
  139.5747  144.6957  151.3686 H   0  0  0  0  0  0  0  0  0  0  0  0  # atno 10167 bound_to 10162
  157.6959  131.0423  150.3797 H   0  0  0  0  0  0  0  0  0  0  0  0  # atno 10718 bound_to 10713
  153.0005  135.6252  154.2287 H   0  0  0  0  0  0  0  0  0  0  0  0  # atno 10763 bound_to 10752
  154.2029  135.2803  155.2986 H   0  0  0  0  0  0  0  0  0  0  0  0  # atno 10764 bound_to 10752
  154.5669  135.5688  153.7118 H   0  0  0  0  0  0  0  0  0  0  0  0  # atno 10765 bound_to 10752
  139.8847  134.8644  156.3356 H   0  0  0  0  0  0  0  0  0  0  0  0  # atno 11005 bound_to 11000
  145.0228  140.8808  143.5156 LP  0  0  0  0  0  0  0  0  0  0  0  0  # atno 17320 bound_to 7965
  145.1484  139.2529  143.5453 LP  0  0  0  0  0  0  0  0  0  0  0  0  # atno 17321 bound_to 7965
  140.7030  143.7585  150.7434 LP  0  0  0  0  0  0  0  0  0  0  0  0  # atno 17342 bound_to 10162
  140.1101  143.4707  152.2375 LP  0  0  0  0  0  0  0  0  0  0  0  0  # atno 17343 bound_to 10162
  156.4212  130.3953  149.6823 LP  0  0  0  0  0  0  0  0  0  0  0  0  # atno 17370 bound_to 10713
  156.4073  130.7705  151.2716 LP  0  0  0  0  0  0  0  0  0  0  0  0  # atno 17371 bound_to 10713
  140.9693  133.7337  156.0512 LP  0  0  0  0  0  0  0  0  0  0  0  0  # atno 17394 bound_to 11000
  140.7891  134.3638  157.5469 LP  0  0  0  0  0  0  0  0  0  0  0  0  # atno 17395 bound_to 11000

$$$$
