AV-unprocessed.smi:3293|AV-procd|sdf|12630|dock4
  -GOLD-   2272018563D 1   1.00000     0.00000
 Structure written by MMmdl.
 44 45  0  0  0  0  0  0  0  0  2 V2000
  148.4684  141.7793  153.7912 C   0  0  0  0  0  0  0  0  0  0  0  0
  149.5176  141.0369  154.6025 C   0  0  0  0  0  0  0  0  0  0  0  0
  150.1968  141.6852  155.5682 C   0  0  0  0  0  0  0  0  0  0  0  0
  151.3108  141.0726  156.3852 C   0  0  0  0  0  0  0  0  0  0  0  0
  151.9049  139.8534  155.6766 C   0  0  0  0  0  0  0  0  0  0  0  0
  150.8065  138.8802  155.2179 C   0  0  2  0  0  0  0  0  0  0  0  0
  151.4589  137.6293  154.5976 C   0  0  0  0  0  0  0  0  0  0  0  0
  149.7774  139.5554  154.2589 C   0  0  1  0  0  0  0  0  0  0  0  0
  148.4744  138.7145  154.1993 C   0  0  0  0  0  0  0  0  0  0  0  0
  147.9062  138.6273  152.8382 N   0  3  0  0  0  0  0  0  0  0  0  0
  146.4325  138.6807  152.7960 C   0  0  0  0  0  0  0  0  0  0  0  0
  145.8941  138.0393  151.5106 C   0  0  0  0  0  0  0  0  0  0  0  0
  145.2169  136.7278  151.7929 C   0  0  0  0  0  0  0  0  0  0  0  0
  145.0315  136.0935  153.0546 C   0  0  0  0  0  0  0  0  0  0  0  0
  144.3973  134.9366  152.9604 N   0  0  0  0  0  0  0  0  0  0  0  0
  144.1532  134.7929  151.6417 N   0  0  0  0  0  0  0  0  0  0  0  0
  143.4577  133.6149  151.1693 C   0  0  0  0  0  0  0  0  0  0  0  0
  144.6360  135.8583  150.9126 C   0  0  0  0  0  0  0  0  0  0  0  0
  148.6446  141.6453  152.7237 H   0  0  0  0  0  0  0  0  0  0  0  0
  148.4938  142.8501  153.9967 H   0  0  0  0  0  0  0  0  0  0  0  0
  147.4662  141.4269  154.0345 H   0  0  0  0  0  0  0  0  0  0  0  0
  149.9659  142.7171  155.7900 H   0  0  0  0  0  0  0  0  0  0  0  0
  152.0884  141.8197  156.5471 H   0  0  0  0  0  0  0  0  0  0  0  0
  150.9177  140.8004  157.3652 H   0  0  0  0  0  0  0  0  0  0  0  0
  152.4858  140.1812  154.8132 H   0  0  0  0  0  0  0  0  0  0  0  0
  152.6049  139.3524  156.3465 H   0  0  0  0  0  0  0  0  0  0  0  0
  150.2734  138.5633  156.1158 H   0  0  0  0  0  0  0  0  0  0  0  0
  152.0009  137.8778  153.6846 H   0  0  0  0  0  0  0  0  0  0  0  0
  150.7318  136.8575  154.3505 H   0  0  0  0  0  0  0  0  0  0  0  0
  152.1723  137.1795  155.2889 H   0  0  0  0  0  0  0  0  0  0  0  0
  150.2240  139.5639  153.2633 H   0  0  0  0  0  0  0  0  0  0  0  0
  148.6519  137.6935  154.5333 H   0  0  0  0  0  0  0  0  0  0  0  0
  147.7326  139.1339  154.8809 H   0  0  0  0  0  0  0  0  0  0  0  0
  148.2705  139.3950  152.2918 H   0  0  0  0  0  0  0  0  0  0  0  0
  146.0297  138.1638  153.6682 H   0  0  0  0  0  0  0  0  0  0  0  0
  146.1099  139.7210  152.8582 H   0  0  0  0  0  0  0  0  0  0  0  0
  145.2008  138.7283  151.0264 H   0  0  0  0  0  0  0  0  0  0  0  0
  146.7145  137.8997  150.8056 H   0  0  0  0  0  0  0  0  0  0  0  0
  145.3398  136.4372  154.0312 H   0  0  0  0  0  0  0  0  0  0  0  0
  143.3730  133.6404  150.0827 H   0  0  0  0  0  0  0  0  0  0  0  0
  142.4574  133.5788  151.6021 H   0  0  0  0  0  0  0  0  0  0  0  0
  144.0068  132.7192  151.4606 H   0  0  0  0  0  0  0  0  0  0  0  0
  144.5280  135.9090  149.8390 H   0  0  0  0  0  0  0  0  0  0  0  0
  148.2094  137.7599  152.4185 H   0  0  0  0  0  0  0  0  0  0  0  0
  1  2  1  0  0  0  0
  1 19  1  0  0  0  0
  1 20  1  0  0  0  0
  1 21  1  0  0  0  0
  2  8  1  0  0  0  0
  2  3  2  0  0  0  0
  3  4  1  0  0  0  0
  3 22  1  0  0  0  0
  4  5  1  0  0  0  0
  4 23  1  0  0  0  0
  4 24  1  0  0  0  0
  5  6  1  0  0  0  0
  5 25  1  0  0  0  0
  5 26  1  0  0  0  0
  6  7  1  0  0  0  0
  6  8  1  0  0  0  0
  6 27  1  0  0  0  0
  7 28  1  0  0  0  0
  7 29  1  0  0  0  0
  7 30  1  0  0  0  0
  8  9  1  0  0  0  0
  8 31  1  0  0  0  0
  9 10  1  0  0  0  0
  9 32  1  0  0  0  0
  9 33  1  0  0  0  0
 10 11  1  0  0  0  0
 10 34  1  0  0  0  0
 10 44  1  0  0  0  0
 11 12  1  0  0  0  0
 11 35  1  0  0  0  0
 11 36  1  0  0  0  0
 12 13  1  0  0  0  0
 12 37  1  0  0  0  0
 12 38  1  0  0  0  0
 13 18  2  0  0  0  0
 13 14  1  0  0  0  0
 14 15  2  0  0  0  0
 14 39  1  0  0  0  0
 15 16  1  0  0  0  0
 16 17  1  0  0  0  0
 16 18  1  0  0  0  0
 17 40  1  0  0  0  0
 17 41  1  0  0  0  0
 17 42  1  0  0  0  0
 18 43  1  0  0  0  0
M  CHG  1  10   1
M  END
> <s_m_source_file>
AV-unprocessed.smi

> <i_m_source_file_index>
3293

> <i_lp_mmshare_version>
43012

> <i_f3d_flags>
0

> <s_epik_input>
W0NIM11DMT1bQ0hdW0NIMl1bQ0gyXVtDQEBIXShbQ0gzXSlbQ0BIXTFbQ0gyXVtOSF1bQ0gyXVtDSDJdYzJbY0hdbm4oW0NIM10pW2NIXTI=

> <s_epik_cmdline>
J2VwaWtfcHl0aG9uJywgJy1waCcsICc3LjAnLCAnLXRuJywgJzgnLCAnLW1hJywgJzIwMCcsICctbWV0YWxfYmluZGluZycsICctaW1hZScsICc8aW5maWxlLm1hZT4nLCAnLW9tYWUnLCAnPG91dGZpbGUubWFlPic=

> <r_lp_tautomer_probability>
1

> <r_epik_Ionization_Penalty>
0.000598621

> <r_epik_Ionization_Penalty_Charging>
0.000582095

> <r_epik_Ionization_Penalty_Neutral>
1.65262e-05

> <r_epik_State_Penalty>
-0

> <r_epik_Charging_Adjusted_Penalty>
0.000582095

> <i_epik_Tot_Q>
1

> <i_epik_Tot_abs_Q>
1

> <r_epik_Metal_State_Penalty>
-0

> <b_epik_Metal_Only>
0

> <s_lp_Force_Field>
OPLS_2005

> <r_lp_Energy>
11.6167

> <b_lp_Chiralities_Consistent>
1

> <s_lp_Variant>
AV-unprocessed.smi:3293-2

> <Gold.Version>
5.8.1

> <Gold.Id.Protein>
6NUR|6NUR_protein|mol2

> <Gold.PLP.Fitness>
49.4930

> <Gold.PLP.PLP>
-40.6110

> <Gold.PLP.part.hbond>
-2.0000

> <Gold.PLP.part.metal>
0.0000

> <Gold.PLP.part.buried>
0.8352

> <Gold.PLP.part.nonpolar>
-40.0179

> <Gold.PLP.part.repulsive>
0.1357

> <Gold.PLP.ligand.clash>
0.0000

> <Gold.PLP.ligand.torsion>
1.2298

> <Gold.PLP.Chemscore.Hbond>
2.7360

> <Gold.PLP.Chemscore.CHOScore>
1.0154

> <Gold.PLP.Chemscore.Metal>
0.0000

> <Gold.Chemscore.Hbonds>
donor molecule, donor type, donor heavy atom, donor atom, acceptor molecule, acceptor atom, score
      L1  H    10    34       P1  7957  0.96
      L1  H    10    44       P1  7948  2.00
      L1  C    18    43       P1 10171  0.16

> <Gold.PLP.Chemscore.Internal.Correction>
0.0873

> <Gold.Rescore>
     Score         DG    S(hbond)    S(metal)    S(lipo)     H(rot)  DE(clash)    DE(int)     intcor
     17.45     -19.73       1.80        0.00     102.92       1.48       1.13       1.15       ----

> <Gold.Chemscore.Fitness>
17.4481

> <Gold.Chemscore.DG>
-19.7304

> <Gold.Chemscore.ZeroCoef>
-5.4800

> <Gold.Chemscore.Hbond>
1.7992

> <Gold.Chemscore.Metal>
0.0000

> <Gold.Chemscore.Lipo>
102.9224

> <Gold.Chemscore.Internal_Hbond>
0.0000

> <Gold.Chemscore.DEClash>
1.1301

> <Gold.Chemscore.DEInternal>
1.1522

> <Gold.Chemscore.Rot>
1.4847

> <Gold.Chemscore.Internal.Correction>
   9.000000E+99

> <Gold.Chemscore.Hbonds>
donor molecule, donor type, donor heavy atom, donor atom, acceptor molecule, acceptor atom, score
      L1  H    10    34       P1  7957  0.92
      L1  H    10    44       P1  7948  1.00

> <Gold.Chemscore.Hbond.Weighted>
-6.0093

> <Gold.Chemscore.Metal.Weighted>
-0.0000

> <Gold.Chemscore.Lipo.Weighted>
-12.0419

> <Gold.Chemscore.Internal_Hbond.Weighted>
0.0000

> <Gold.Chemscore.DEClash.Weighted>
1.1301

> <Gold.Chemscore.DEInternal.Weighted>
1.1522

> <Gold.Chemscore.Rot.Weighted>
3.8008

> <Gold.Chemscore.Internal.Correction.Weighted>
   9.000000E+99

> <Gold.Protein.RotatedTorsions>
[ 6907 6896 6895 6894 ] final    9.33 input  -60.11 | X-H torsion
[ 7974 7965 7964 7962 ] final   85.37 input  175.53 | X-H torsion
[ 8008 7997 7996 7995 ] final  150.04 input   59.86 | X-H torsion
[ 10167 10162 10161 10158 ] final    0.20 input  -65.29 | X-H torsion
[ 10718 10713 10712 10709 ] final  127.76 input   66.30 | X-H torsion
[ 10763 10752 10751 10750 ] final  161.93 input  -60.55 | X-H torsion
[ 11005 11000 10999 10996 ] final  -74.95 input  -57.11 | X-H torsion

> <Gold.Protein.ActiveResidues>
 VAL166  LYS551  ARG553  GLY616  TRP617  ASP618  TYR619  PRO620  LYS621  CYS622 
 ASP623  PHE694  ASN695  SER759  ASP760  ASP761  ALA762  ILE779  LEU786  VAL792 
 PHE793  MET794  SER795  GLU796  ALA797  LYS798  CYS799  TRP800  GLU811  SER814 

> <Gold.Protein.RotatedAtoms>
  151.7204  135.0895  160.0282 H   0  0  0  0  0  0  0  0  0  0  0  0  # atno 6907 bound_to 6896
  152.3605  133.6287  159.6020 H   0  0  0  0  0  0  0  0  0  0  0  0  # atno 6908 bound_to 6896
  150.7601  133.9347  159.3479 H   0  0  0  0  0  0  0  0  0  0  0  0  # atno 6909 bound_to 6896
  145.5865  139.2332  143.2323 H   0  0  0  0  0  0  0  0  0  0  0  0  # atno 7974 bound_to 7965
  156.2731  140.2085  156.5954 H   0  0  0  0  0  0  0  0  0  0  0  0  # atno 8008 bound_to 7997
  154.6949  140.0526  157.0424 H   0  0  0  0  0  0  0  0  0  0  0  0  # atno 8009 bound_to 7997
  155.0815  140.3187  155.4603 H   0  0  0  0  0  0  0  0  0  0  0  0  # atno 8010 bound_to 7997
  140.6739  143.6971  150.7981 H   0  0  0  0  0  0  0  0  0  0  0  0  # atno 10167 bound_to 10162
  157.5304  131.1098  150.9017 H   0  0  0  0  0  0  0  0  0  0  0  0  # atno 10718 bound_to 10713
  154.2705  135.2766  155.2740 H   0  0  0  0  0  0  0  0  0  0  0  0  # atno 10763 bound_to 10752
  154.5306  135.5731  153.6759 H   0  0  0  0  0  0  0  0  0  0  0  0  # atno 10764 bound_to 10752
  152.9946  135.6227  154.2859 H   0  0  0  0  0  0  0  0  0  0  0  0  # atno 10765 bound_to 10752
  141.1640  133.6929  156.7443 H   0  0  0  0  0  0  0  0  0  0  0  0  # atno 11005 bound_to 11000
  146.1678  140.6691  142.9247 LP  0  0  0  0  0  0  0  0  0  0  0  0  # atno 17320 bound_to 7965
  144.7370  140.4837  143.6896 LP  0  0  0  0  0  0  0  0  0  0  0  0  # atno 17321 bound_to 7965
  140.0661  143.5107  152.2603 LP  0  0  0  0  0  0  0  0  0  0  0  0  # atno 17342 bound_to 10162
  139.6021  144.7585  151.3147 LP  0  0  0  0  0  0  0  0  0  0  0  0  # atno 17343 bound_to 10162
  156.9600  130.5451  149.5285 LP  0  0  0  0  0  0  0  0  0  0  0  0  # atno 17370 bound_to 10713
  156.0418  130.5500  150.8789 LP  0  0  0  0  0  0  0  0  0  0  0  0  # atno 17371 bound_to 10713
  140.2651  134.8436  157.3795 LP  0  0  0  0  0  0  0  0  0  0  0  0  # atno 17394 bound_to 11000
  140.1574  134.4772  155.7918 LP  0  0  0  0  0  0  0  0  0  0  0  0  # atno 17395 bound_to 11000

$$$$
