AV-unprocessed.smi:3338|AV-procd|sdf|12874|dock6
  -GOLD-   2272019273D 1   1.00000     0.00000
 Structure written by MMmdl.
 44 45  0  0  0  0  0  0  0  0  2 V2000
  145.3062  144.1292  156.8241 C   0  0  0  0  0  0  0  0  0  0  0  0
  145.1031  142.7613  156.1496 C   0  0  1  0  0  0  0  0  0  0  0  0
  144.7844  142.8764  154.6472 C   0  0  0  0  0  0  0  0  0  0  0  0
  146.0362  143.2437  153.8378 C   0  0  0  0  0  0  0  0  0  0  0  0
  147.1897  142.2725  154.1331 C   0  0  0  0  0  0  0  0  0  0  0  0
  147.4912  142.2273  155.5869 N   0  3  2  0  0  0  0  0  0  0  0  0
  148.6974  141.4165  155.8865 C   0  0  0  0  0  0  0  0  0  0  0  0
  148.9519  141.2874  157.4008 C   0  0  0  0  0  0  0  0  0  0  0  0
  150.0620  142.1301  157.8279 N   0  0  0  0  0  0  0  0  0  0  0  0
  149.9730  143.1099  158.7418 C   0  0  0  0  0  0  0  0  0  0  0  0
  148.9176  143.4016  159.3061 O   0  0  0  0  0  0  0  0  0  0  0  0
  151.2738  143.8662  159.0610 C   0  0  1  0  0  0  0  0  0  0  0  0
  151.0238  145.2784  159.6276 C   0  0  0  0  0  0  0  0  0  0  0  0
  152.1272  143.0741  159.9398 N   0  0  0  0  0  0  0  0  0  0  0  0
  152.7777  141.8912  159.6515 C   0  0  0  0  0  0  0  0  0  0  0  0
  153.4433  141.5029  160.7787 C   0  0  0  0  0  0  0  0  0  0  0  0
  153.1329  142.5211  161.7222 C   0  0  0  0  0  0  0  0  0  0  0  0
  152.3406  143.4548  161.2214 N   0  0  0  0  0  0  0  0  0  0  0  0
  146.2999  141.8151  156.3789 C   0  0  0  0  0  0  0  0  0  0  0  0
  146.1757  144.6544  156.4290 H   0  0  0  0  0  0  0  0  0  0  0  0
  145.4508  144.0161  157.8990 H   0  0  0  0  0  0  0  0  0  0  0  0
  144.4365  144.7707  156.6783 H   0  0  0  0  0  0  0  0  0  0  0  0
  144.2343  142.3099  156.6306 H   0  0  0  0  0  0  0  0  0  0  0  0
  144.3982  141.9213  154.2888 H   0  0  0  0  0  0  0  0  0  0  0  0
  143.9939  143.6080  154.4766 H   0  0  0  0  0  0  0  0  0  0  0  0
  145.8045  143.2307  152.7722 H   0  0  0  0  0  0  0  0  0  0  0  0
  146.3447  144.2635  154.0701 H   0  0  0  0  0  0  0  0  0  0  0  0
  146.9418  141.2702  153.7796 H   0  0  0  0  0  0  0  0  0  0  0  0
  148.0738  142.5942  153.5810 H   0  0  0  0  0  0  0  0  0  0  0  0
  148.6051  140.4371  155.4139 H   0  0  0  0  0  0  0  0  0  0  0  0
  149.5733  141.8894  155.4400 H   0  0  0  0  0  0  0  0  0  0  0  0
  148.0628  141.5927  157.9531 H   0  0  0  0  0  0  0  0  0  0  0  0
  149.1549  140.2555  157.6884 H   0  0  0  0  0  0  0  0  0  0  0  0
  150.9625  141.9533  157.4061 H   0  0  0  0  0  0  0  0  0  0  0  0
  151.8093  143.9890  158.1183 H   0  0  0  0  0  0  0  0  0  0  0  0
  150.4446  145.8850  158.9306 H   0  0  0  0  0  0  0  0  0  0  0  0
  151.9659  145.7974  159.8055 H   0  0  0  0  0  0  0  0  0  0  0  0
  150.4809  145.2506  160.5732 H   0  0  0  0  0  0  0  0  0  0  0  0
  152.7155  141.4290  158.6772 H   0  0  0  0  0  0  0  0  0  0  0  0
  154.0586  140.6250  160.9093 H   0  0  0  0  0  0  0  0  0  0  0  0
  153.4550  142.6078  162.7495 H   0  0  0  0  0  0  0  0  0  0  0  0
  146.5357  141.7851  157.4422 H   0  0  0  0  0  0  0  0  0  0  0  0
  146.0223  140.7978  156.0980 H   0  0  0  0  0  0  0  0  0  0  0  0
  147.7112  143.1756  155.8560 H   0  0  0  0  0  0  0  0  0  0  0  0
  1  2  1  0  0  0  0
  1 20  1  0  0  0  0
  1 21  1  0  0  0  0
  1 22  1  0  0  0  0
  2 19  1  0  0  0  0
  2  3  1  0  0  0  0
  2 23  1  0  0  0  0
  3  4  1  0  0  0  0
  3 24  1  0  0  0  0
  3 25  1  0  0  0  0
  4  5  1  0  0  0  0
  4 26  1  0  0  0  0
  4 27  1  0  0  0  0
  5  6  1  0  0  0  0
  5 28  1  0  0  0  0
  5 29  1  0  0  0  0
  6  7  1  0  0  0  0
  6 19  1  0  0  0  0
  6 44  1  0  0  0  0
  7  8  1  0  0  0  0
  7 30  1  0  0  0  0
  7 31  1  0  0  0  0
  8  9  1  0  0  0  0
  8 32  1  0  0  0  0
  8 33  1  0  0  0  0
  9 10  1  0  0  0  0
  9 34  1  0  0  0  0
 10 11  2  0  0  0  0
 10 12  1  0  0  0  0
 12 13  1  0  0  0  0
 12 14  1  0  0  0  0
 12 35  1  0  0  0  0
 13 36  1  0  0  0  0
 13 37  1  0  0  0  0
 13 38  1  0  0  0  0
 14 18  1  0  0  0  0
 14 15  1  0  0  0  0
 15 16  2  0  0  0  0
 15 39  1  0  0  0  0
 16 17  1  0  0  0  0
 16 40  1  0  0  0  0
 17 18  2  0  0  0  0
 17 41  1  0  0  0  0
 19 42  1  0  0  0  0
 19 43  1  0  0  0  0
M  CHG  1   6   1
M  END
> <s_m_source_file>
AV-unprocessed.smi

> <i_m_source_file_index>
3338

> <i_lp_mmshare_version>
43012

> <i_f3d_flags>
0

> <s_epik_input>
W0NIM11bQ0BASF0xW0NIMl1bQ0gyXVtDSDJdTihbQ0gyXTEpW0NIMl1bQ0gyXVtOSF1DKD1PKVtDQEhdKFtDSDNdKW4yW2NIXVtjSF1bY0hdbjI=

> <s_epik_cmdline>
J2VwaWtfcHl0aG9uJywgJy1waCcsICc3LjAnLCAnLXRuJywgJzgnLCAnLW1hJywgJzIwMCcsICctbWV0YWxfYmluZGluZycsICctaW1hZScsICc8aW5maWxlLm1hZT4nLCAnLW9tYWUnLCAnPG91dGZpbGUubWFlPic=

> <r_lp_tautomer_probability>
1

> <r_epik_Ionization_Penalty>
0.00225707

> <r_epik_Ionization_Penalty_Charging>
0.00223709

> <r_epik_Ionization_Penalty_Neutral>
1.99775e-05

> <r_epik_State_Penalty>
0.00153978

> <r_epik_Charging_Adjusted_Penalty>
0.00377687

> <i_epik_Tot_Q>
1

> <i_epik_Tot_abs_Q>
1

> <r_epik_Metal_State_Penalty>
-0

> <b_epik_Metal_Only>
0

> <s_lp_Force_Field>
OPLS_2005

> <r_lp_Energy>
22.3922

> <b_lp_Chiralities_Consistent>
1

> <s_lp_Variant>
AV-unprocessed.smi:3338-6

> <Gold.Version>
5.8.1

> <Gold.Id.Protein>
6NUR|6NUR_protein|mol2

> <Gold.PLP.Fitness>
43.6529

> <Gold.PLP.PLP>
-39.8488

> <Gold.PLP.part.hbond>
-2.0000

> <Gold.PLP.part.metal>
0.0000

> <Gold.PLP.part.buried>
-6.5211

> <Gold.PLP.part.nonpolar>
-32.5091

> <Gold.PLP.part.repulsive>
0.3743

> <Gold.PLP.ligand.clash>
0.0000

> <Gold.PLP.ligand.torsion>
1.1814

> <Gold.PLP.Chemscore.Hbond>
2.0152

> <Gold.PLP.Chemscore.CHOScore>
0.0000

> <Gold.PLP.Chemscore.Metal>
0.0000

> <Gold.Chemscore.Hbonds>
donor molecule, donor type, donor heavy atom, donor atom, acceptor molecule, acceptor atom, score
      L1  H     6    44       P1  8028  1.85
      P1  H  6933  6944       L1    11  0.05

> <Gold.PLP.Chemscore.Internal.Correction>
0.1212

> <Gold.Rescore>
     Score         DG    S(hbond)    S(metal)    S(lipo)     H(rot)  DE(clash)    DE(int)     intcor
     13.19     -14.26       0.94        0.00      86.69       1.76       0.29       0.78       ----

> <Gold.Chemscore.Fitness>
13.1900

> <Gold.Chemscore.DG>
-14.2627

> <Gold.Chemscore.ZeroCoef>
-5.4800

> <Gold.Chemscore.Hbond>
0.9394

> <Gold.Chemscore.Metal>
0.0000

> <Gold.Chemscore.Lipo>
86.6908

> <Gold.Chemscore.Internal_Hbond>
0.0000

> <Gold.Chemscore.DEClash>
0.2897

> <Gold.Chemscore.DEInternal>
0.7829

> <Gold.Chemscore.Rot>
1.7570

> <Gold.Chemscore.Internal.Correction>
   9.000000E+99

> <Gold.Chemscore.Hbonds>
donor molecule, donor type, donor heavy atom, donor atom, acceptor molecule, acceptor atom, score
      L1  H     6    44       P1  8028  0.20
      P1  H  6933  6944       L1    11  0.06

> <Gold.Chemscore.Hbond.Weighted>
-3.1377

> <Gold.Chemscore.Metal.Weighted>
-0.0000

> <Gold.Chemscore.Lipo.Weighted>
-10.1428

> <Gold.Chemscore.Internal_Hbond.Weighted>
0.0000

> <Gold.Chemscore.DEClash.Weighted>
0.2897

> <Gold.Chemscore.DEInternal.Weighted>
0.7829

> <Gold.Chemscore.Rot.Weighted>
4.4979

> <Gold.Chemscore.Internal.Correction.Weighted>
   9.000000E+99

> <Gold.Protein.RotatedTorsions>
[ 6907 6896 6895 6894 ] final   82.75 input  -60.11 | X-H torsion
[ 7974 7965 7964 7962 ] final  -62.30 input  175.53 | X-H torsion
[ 8008 7997 7996 7995 ] final -129.23 input   59.86 | X-H torsion
[ 10167 10162 10161 10158 ] final   24.14 input  -65.29 | X-H torsion
[ 10718 10713 10712 10709 ] final    0.37 input   66.30 | X-H torsion
[ 10763 10752 10751 10750 ] final  165.72 input  -60.55 | X-H torsion
[ 11005 11000 10999 10996 ] final  -35.15 input  -57.11 | X-H torsion

> <Gold.Protein.ActiveResidues>
 VAL166  LYS551  ARG553  GLY616  TRP617  ASP618  TYR619  PRO620  LYS621  CYS622 
 ASP623  PHE694  ASN695  SER759  ASP760  ASP761  ALA762  ILE779  LEU786  VAL792 
 PHE793  MET794  SER795  GLU796  ALA797  LYS798  CYS799  TRP800  GLU811  SER814 

> <Gold.Protein.RotatedAtoms>
  152.5308  134.3002  159.9075 H   0  0  0  0  0  0  0  0  0  0  0  0  # atno 6907 bound_to 6896
  151.2952  133.4140  159.2643 H   0  0  0  0  0  0  0  0  0  0  0  0  # atno 6908 bound_to 6896
  151.0166  134.9453  159.8093 H   0  0  0  0  0  0  0  0  0  0  0  0  # atno 6909 bound_to 6896
  145.7929  140.8699  143.0271 H   0  0  0  0  0  0  0  0  0  0  0  0  # atno 7974 bound_to 7965
  155.2758  140.0442  157.3011 H   0  0  0  0  0  0  0  0  0  0  0  0  # atno 8008 bound_to 7997
  154.5626  140.2350  155.8280 H   0  0  0  0  0  0  0  0  0  0  0  0  # atno 8009 bound_to 7997
  156.2059  140.3012  155.9634 H   0  0  0  0  0  0  0  0  0  0  0  0  # atno 8010 bound_to 7997
  140.5212  143.9998  150.6418 H   0  0  0  0  0  0  0  0  0  0  0  0  # atno 10167 bound_to 10162
  156.8324  130.5493  149.5685 H   0  0  0  0  0  0  0  0  0  0  0  0  # atno 10718 bound_to 10713
  154.3282  135.2755  155.2485 H   0  0  0  0  0  0  0  0  0  0  0  0  # atno 10763 bound_to 10752
  154.4808  135.5859  153.6392 H   0  0  0  0  0  0  0  0  0  0  0  0  # atno 10764 bound_to 10752
  152.9869  135.6111  154.3473 H   0  0  0  0  0  0  0  0  0  0  0  0  # atno 10765 bound_to 10752
  140.9773  133.7076  156.1624 H   0  0  0  0  0  0  0  0  0  0  0  0  # atno 11005 bound_to 11000
  144.6779  140.0149  143.7484 LP  0  0  0  0  0  0  0  0  0  0  0  0  # atno 17320 bound_to 7965
  145.9958  139.3051  143.0957 LP  0  0  0  0  0  0  0  0  0  0  0  0  # atno 17321 bound_to 7965
  140.3348  143.3055  152.0650 LP  0  0  0  0  0  0  0  0  0  0  0  0  # atno 17342 bound_to 10162
  139.4924  144.6484  151.6729 LP  0  0  0  0  0  0  0  0  0  0  0  0  # atno 17343 bound_to 10162
  156.0927  130.5908  150.9760 LP  0  0  0  0  0  0  0  0  0  0  0  0  # atno 17370 bound_to 10713
  157.6400  131.0911  150.8271 LP  0  0  0  0  0  0  0  0  0  0  0  0  # atno 17371 bound_to 10713
  140.7239  134.4328  157.5572 LP  0  0  0  0  0  0  0  0  0  0  0  0  # atno 17394 bound_to 11000
  139.8936  134.8727  156.2217 LP  0  0  0  0  0  0  0  0  0  0  0  0  # atno 17395 bound_to 11000

$$$$
