#       Name:                AV-unprocessed.smi:2226
#       Creating user name   scv26
#       Creation time:       Fri Mar 27 12:21:47 2020


#       File generated by GOLD software.
#

@<TRIPOS>MOLECULE
AV-unprocessed.smi:2226
    45    47     1
SMALL
NO_CHARGES


@<TRIPOS>ATOM
      1 ****        -3.8845  -1.3925  -0.5026 C.3            1 S1                 0.0000
      2 ****        -2.4675  -1.8266  -0.4696 N.4            1 S1                 1.0000
      3 ****        -1.6745  -1.4567  -1.6661 C.3            1 S1                 0.0000
      4 ****        -0.3832  -2.3071  -1.7012 C.3            1 S1                 0.0000
      5 ****         0.4376  -2.2555  -0.3979 C.3            1 S1                 0.0000
      6 ****        -0.4488  -2.3142   0.8605 C.3            1 S1                 0.0000
      7 ****        -1.7315  -1.4567   0.7626 C.3            1 S1                 0.0000
      8 ****        -1.5090   0.0740   0.8542 C.3            1 S1                 0.0000
      9 ****        -1.0078   0.7678  -0.4412 C.3            1 S1                 0.0000
     10 ****         0.4326   1.0120  -0.4361 N.am           1 S1                 0.0000
     11 ****         1.0771   1.9561   0.2664 C.2            1 S1                 0.0000
     12 ****         0.4716   2.7388   1.0054 O.2            1 S1                 0.0000
     13 ****         2.4410   1.8679   0.0321 N.2            1 S1                 0.0000
     14 ****         3.2633   2.5453   0.7719 C.2            1 S1                 0.0000
     15 ****         4.6454   2.5857   0.6805 N.pl3          1 S1                 0.0000
     16 ****         5.1122   3.4206   1.6579 C.2            1 S1                 0.0000
     17 ****         4.0684   3.8869   2.3373 C.2            1 S1                 0.0000
     18 ****         2.9201   3.3683   1.8198 O.3            1 S1                 0.0000
     19 ****        -1.4579   0.0750  -1.7509 C.3            1 S1                 0.0000
     20 ****        -3.9849  -0.3074  -0.4930 H              1 S1                 0.0000
     21 ****        -4.4229  -1.7885   0.3588 H              1 S1                 0.0000
     22 ****        -4.3762  -1.7689  -1.4000 H              1 S1                 0.0000
     23 ****        -2.2509  -1.7466  -2.5459 H              1 S1                 0.0000
     24 ****        -0.6661  -3.3452  -1.8810 H              1 S1                 0.0000
     25 ****         0.2407  -2.0190  -2.5478 H              1 S1                 0.0000
     26 ****         1.1456  -3.0848  -0.3822 H              1 S1                 0.0000
     27 ****         1.0615  -1.3686  -0.3770 H              1 S1                 0.0000
     28 ****        -0.7454  -3.3521   1.0174 H              1 S1                 0.0000
     29 ****         0.1314  -2.0350   1.7407 H              1 S1                 0.0000
     30 ****        -2.3506  -1.7413   1.6148 H              1 S1                 0.0000
     31 ****        -2.4664   0.5276   1.1128 H              1 S1                 0.0000
     32 ****        -0.8624   0.3063   1.7011 H              1 S1                 0.0000
     33 ****        -1.4589   1.7620  -0.4620 H              1 S1                 0.0000
     34 ****         0.9939   0.4078  -1.0188 H              1 S1                 0.0000
     35 ****         5.2442   2.1009   0.0276 H              1 S1                 0.0000
     36 ****         6.1723   3.5974   1.7649 H              1 S1                 0.0000
     37 ****         3.9802   4.5631   3.1748 H              1 S1                 0.0000
     38 ****        -0.7762   0.3142  -2.5683 H              1 S1                 0.0000
     39 ****        -2.4067   0.5234  -2.0477 H              1 S1                 0.0000
     40 ****        -2.5072  -2.8359  -0.4704 H              1 S1                 0.0000
     41 ****        -0.5229   2.6778   1.0908 LP             1 S1                 0.0000
     42 ****         0.9758   3.4336   1.5182 LP             1 S1                 0.0000
     43 ****         2.7885   1.2856  -0.7029 LP             1 S1                 0.0000
     44 ****         2.4382   2.8429   2.5209 LP             1 S1                 0.0000
     45 ****         2.3306   4.1070   1.4929 LP             1 S1                 0.0000
@<TRIPOS>BOND
    1    1    2 1     
    2    1   20 1     
    3    1   21 1     
    4    1   22 1     
    5    2    7 1     
    6    2    3 1     
    7    2   40 1     
    8    3   19 1     
    9    3    4 1     
   10    3   23 1     
   11    4    5 1     
   12    4   24 1     
   13    4   25 1     
   14    5    6 1     
   15    5   26 1     
   16    5   27 1     
   17    6    7 1     
   18    6   28 1     
   19    6   29 1     
   20    7    8 1     
   21    7   30 1     
   22    8    9 1     
   23    8   31 1     
   24    8   32 1     
   25    9   10 1     
   26    9   19 1     
   27    9   33 1     
   28   10   34 1     
   29   10   11 am    
   30   11   13 1     
   31   11   12 2     
   32   13   14 2     
   33   14   18 1     
   34   14   15 1     
   35   15   35 1     
   36   15   16 1     
   37   16   36 1     
   38   16   17 2     
   39   17   37 1     
   40   17   18 1     
   41   19   38 1     
   42   19   39 1     
   43   12   41 1     
   44   12   42 1     
   45   13   43 1     
   46   18   44 1     
   47   18   45 1     
@<TRIPOS>SUBSTRUCTURE
      1 S1             1
@<TRIPOS>SET
LONE_PAIRS      STATIC     ATOMS    <user>   **** ""
5 41 42 43 44 45
DONOR_HYDROGENS      STATIC     ATOMS    <user>   **** ""
3 40 34 35
ATOM$BLUE        STATIC     ATOMS    COLORGROUP SYSTEM
5 41 42 43 44 45
ATOM$RED        STATIC     ATOMS    COLORGROUP SYSTEM
3 40 34 35
