AV-unprocessed.smi:3200|AV-procd|sdf|12235|dock5
  -GOLD-   2272018 73D 1   1.00000     0.00000
 Structure written by MMmdl.
 38 39  0  0  0  0  0  0  0  0  2 V2000
  153.5340  138.5636  155.7070 C   0  0  0  0  0  0  0  0  0  0  0  0
  152.4637  139.4844  155.2282 C   0  0  0  0  0  0  0  0  0  0  0  0
  152.2385  139.6712  153.9331 N   0  0  0  0  0  0  0  0  0  0  0  0
  151.1736  140.5832  153.9177 O   0  0  0  0  0  0  0  0  0  0  0  0
  150.8986  140.8507  155.2167 C   0  0  0  0  0  0  0  0  0  0  0  0
  149.7656  141.7660  155.5403 C   0  0  0  0  0  0  0  0  0  0  0  0
  149.4387  141.7847  157.0389 C   0  0  0  0  0  0  0  0  0  0  0  0
  150.0527  142.9541  157.7002 N   0  3  0  0  0  0  0  0  0  0  0  0
  151.4602  142.7653  158.1190 C   0  0  2  0  0  0  0  0  0  0  0  0
  151.6838  141.5081  158.9710 C   0  0  0  0  0  0  0  0  0  0  0  0
  152.9302  141.8031  159.8157 C   0  0  0  0  0  0  0  0  0  0  0  0
  153.2660  143.2850  159.5895 C   0  0  0  0  0  0  0  0  0  0  0  0
  152.0108  143.9282  158.9722 C   0  0  0  0  0  0  0  0  0  0  0  0
  152.3778  145.1495  158.1085 C   0  0  0  0  0  0  0  0  0  0  0  0
  151.0400  144.3630  160.0950 C   0  0  0  0  0  0  0  0  0  0  0  0
  151.6574  140.1782  156.0780 N   0  0  0  0  0  0  0  0  0  0  0  0
  154.0402  138.0821  154.8694 H   0  0  0  0  0  0  0  0  0  0  0  0
  153.1066  137.7878  156.3426 H   0  0  0  0  0  0  0  0  0  0  0  0
  154.2743  139.1163  156.2853 H   0  0  0  0  0  0  0  0  0  0  0  0
  150.0225  142.7696  155.1984 H   0  0  0  0  0  0  0  0  0  0  0  0
  148.8919  141.4527  154.9672 H   0  0  0  0  0  0  0  0  0  0  0  0
  148.3576  141.8112  157.1807 H   0  0  0  0  0  0  0  0  0  0  0  0
  149.8048  140.8711  157.5094 H   0  0  0  0  0  0  0  0  0  0  0  0
  150.0259  143.7271  157.0505 H   0  0  0  0  0  0  0  0  0  0  0  0
  152.0743  142.6788  157.2203 H   0  0  0  0  0  0  0  0  0  0  0  0
  150.8317  141.3347  159.6297 H   0  0  0  0  0  0  0  0  0  0  0  0
  151.8080  140.6149  158.3576 H   0  0  0  0  0  0  0  0  0  0  0  0
  152.7238  141.6099  160.8688 H   0  0  0  0  0  0  0  0  0  0  0  0
  153.7687  141.1683  159.5273 H   0  0  0  0  0  0  0  0  0  0  0  0
  153.5896  143.7796  160.5065 H   0  0  0  0  0  0  0  0  0  0  0  0
  154.0992  143.3480  158.8879 H   0  0  0  0  0  0  0  0  0  0  0  0
  152.8439  145.9306  158.7101 H   0  0  0  0  0  0  0  0  0  0  0  0
  151.4944  145.5807  157.6363 H   0  0  0  0  0  0  0  0  0  0  0  0
  153.0778  144.8863  157.3148 H   0  0  0  0  0  0  0  0  0  0  0  0
  151.5009  145.1115  160.7403 H   0  0  0  0  0  0  0  0  0  0  0  0
  150.7450  143.5275  160.7301 H   0  0  0  0  0  0  0  0  0  0  0  0
  150.1299  144.8076  159.6918 H   0  0  0  0  0  0  0  0  0  0  0  0
  149.5044  143.1989  158.5125 H   0  0  0  0  0  0  0  0  0  0  0  0
  1  2  1  0  0  0  0
  1 17  1  0  0  0  0
  1 18  1  0  0  0  0
  1 19  1  0  0  0  0
  2 16  1  0  0  0  0
  2  3  2  0  0  0  0
  3  4  1  0  0  0  0
  4  5  1  0  0  0  0
  5  6  1  0  0  0  0
  5 16  2  0  0  0  0
  6  7  1  0  0  0  0
  6 20  1  0  0  0  0
  6 21  1  0  0  0  0
  7  8  1  0  0  0  0
  7 22  1  0  0  0  0
  7 23  1  0  0  0  0
  8  9  1  0  0  0  0
  8 24  1  0  0  0  0
  8 38  1  0  0  0  0
  9 13  1  0  0  0  0
  9 10  1  0  0  0  0
  9 25  1  0  0  0  0
 10 11  1  0  0  0  0
 10 26  1  0  0  0  0
 10 27  1  0  0  0  0
 11 12  1  0  0  0  0
 11 28  1  0  0  0  0
 11 29  1  0  0  0  0
 12 13  1  0  0  0  0
 12 30  1  0  0  0  0
 12 31  1  0  0  0  0
 13 14  1  0  0  0  0
 13 15  1  0  0  0  0
 14 32  1  0  0  0  0
 14 33  1  0  0  0  0
 14 34  1  0  0  0  0
 15 35  1  0  0  0  0
 15 36  1  0  0  0  0
 15 37  1  0  0  0  0
M  CHG  1   8   1
M  END
> <s_m_source_file>
AV-unprocessed.smi

> <i_m_source_file_index>
3200

> <i_lp_mmshare_version>
43012

> <i_f3d_flags>
0

> <s_epik_input>
W0NIM11jMW5vYyhuMSlbQ0gyXVtDSDJdW05IXVtDQEBIXShDMihbQ0gzXSlbQ0gzXSlbQ0gyXVtDSDJdW0NIMl0y

> <s_epik_cmdline>
J2VwaWtfcHl0aG9uJywgJy1waCcsICc3LjAnLCAnLXRuJywgJzgnLCAnLW1hJywgJzIwMCcsICctbWV0YWxfYmluZGluZycsICctaW1hZScsICc8aW5maWxlLm1hZT4nLCAnLW9tYWUnLCAnPG91dGZpbGUubWFlPic=

> <r_lp_tautomer_probability>
1

> <r_epik_Ionization_Penalty>
0.000953161

> <r_epik_Ionization_Penalty_Charging>
0.000953161

> <r_epik_Ionization_Penalty_Neutral>
4.23223e-13

> <r_epik_State_Penalty>
0.000619331

> <r_epik_Charging_Adjusted_Penalty>
0.00157249

> <i_epik_Tot_Q>
1

> <i_epik_Tot_abs_Q>
1

> <r_epik_Metal_State_Penalty>
-0

> <b_epik_Metal_Only>
0

> <s_lp_Force_Field>
OPLS_2005

> <r_lp_Energy>
25.4915

> <b_lp_Chiralities_Consistent>
1

> <s_lp_Variant>
AV-unprocessed.smi:3200-1

> <Gold.Version>
5.8.1

> <Gold.Id.Protein>
6NUR|6NUR_protein|mol2

> <Gold.PLP.Fitness>
42.9608

> <Gold.PLP.PLP>
-35.3555

> <Gold.PLP.part.hbond>
-2.6766

> <Gold.PLP.part.metal>
0.0000

> <Gold.PLP.part.buried>
-4.3055

> <Gold.PLP.part.nonpolar>
-28.8099

> <Gold.PLP.part.repulsive>
0.2316

> <Gold.PLP.ligand.clash>
0.0000

> <Gold.PLP.ligand.torsion>
0.4919

> <Gold.PLP.Chemscore.Hbond>
2.8560

> <Gold.PLP.Chemscore.CHOScore>
0.0000

> <Gold.PLP.Chemscore.Metal>
0.0000

> <Gold.Chemscore.Hbonds>
donor molecule, donor type, donor heavy atom, donor atom, acceptor molecule, acceptor atom, score
      L1  H     8    24       P1  8028  1.78

> <Gold.PLP.Chemscore.Internal.Correction>
0.0213

> <Gold.Rescore>
     Score         DG    S(hbond)    S(metal)    S(lipo)     H(rot)  DE(clash)    DE(int)     intcor
     14.94     -17.01       1.67        0.00      90.07       1.79       0.04       2.04       ----

> <Gold.Chemscore.Fitness>
14.9357

> <Gold.Chemscore.DG>
-17.0094

> <Gold.Chemscore.ZeroCoef>
-5.4800

> <Gold.Chemscore.Hbond>
1.6666

> <Gold.Chemscore.Metal>
0.0000

> <Gold.Chemscore.Lipo>
90.0699

> <Gold.Chemscore.Internal_Hbond>
0.0000

> <Gold.Chemscore.DEClash>
0.0383

> <Gold.Chemscore.DEInternal>
2.0354

> <Gold.Chemscore.Rot>
1.7872

> <Gold.Chemscore.Internal.Correction>
   9.000000E+99

> <Gold.Chemscore.Hbonds>
donor molecule, donor type, donor heavy atom, donor atom, acceptor molecule, acceptor atom, score
      L1  H     8    24       P1  8028  0.80

> <Gold.Chemscore.Hbond.Weighted>
-5.5665

> <Gold.Chemscore.Metal.Weighted>
-0.0000

> <Gold.Chemscore.Lipo.Weighted>
-10.5382

> <Gold.Chemscore.Internal_Hbond.Weighted>
0.0000

> <Gold.Chemscore.DEClash.Weighted>
0.0383

> <Gold.Chemscore.DEInternal.Weighted>
2.0354

> <Gold.Chemscore.Rot.Weighted>
4.5753

> <Gold.Chemscore.Internal.Correction.Weighted>
   9.000000E+99

> <Gold.Protein.RotatedTorsions>
[ 6907 6896 6895 6894 ] final  116.51 input  -60.11 | X-H torsion
[ 7974 7965 7964 7962 ] final -157.87 input  175.53 | X-H torsion
[ 8008 7997 7996 7995 ] final -106.47 input   59.86 | X-H torsion
[ 10167 10162 10161 10158 ] final   95.35 input  -65.29 | X-H torsion
[ 10718 10713 10712 10709 ] final  179.72 input   66.30 | X-H torsion
[ 10763 10752 10751 10750 ] final  -91.98 input  -60.55 | X-H torsion
[ 11005 11000 10999 10996 ] final  136.07 input  -57.11 | X-H torsion

> <Gold.Protein.ActiveResidues>
 VAL166  LYS551  ARG553  GLY616  TRP617  ASP618  TYR619  PRO620  LYS621  CYS622 
 ASP623  PHE694  ASN695  SER759  ASP760  ASP761  ALA762  ILE779  LEU786  VAL792 
 PHE793  MET794  SER795  GLU796  ALA797  LYS798  CYS799  TRP800  GLU811  SER814 

> <Gold.Protein.RotatedAtoms>
  152.4673  133.7951  159.6922 H   0  0  0  0  0  0  0  0  0  0  0  0  # atno 6907 bound_to 6896
  150.8644  133.7587  159.2988 H   0  0  0  0  0  0  0  0  0  0  0  0  # atno 6908 bound_to 6896
  151.5142  135.1069  159.9914 H   0  0  0  0  0  0  0  0  0  0  0  0  # atno 6909 bound_to 6896
  144.7529  140.3907  143.6034 H   0  0  0  0  0  0  0  0  0  0  0  0  # atno 7974 bound_to 7965
  154.9150  140.0409  157.1967 H   0  0  0  0  0  0  0  0  0  0  0  0  # atno 8008 bound_to 7997
  154.8310  140.2899  155.5700 H   0  0  0  0  0  0  0  0  0  0  0  0  # atno 8009 bound_to 7997
  156.2987  140.2500  156.3236 H   0  0  0  0  0  0  0  0  0  0  0  0  # atno 8010 bound_to 7997
  139.7997  144.6819  150.9782 H   0  0  0  0  0  0  0  0  0  0  0  0  # atno 10167 bound_to 10162
  156.8716  130.9786  151.3072 H   0  0  0  0  0  0  0  0  0  0  0  0  # atno 10718 bound_to 10713
  154.6815  135.5248  153.8269 H   0  0  0  0  0  0  0  0  0  0  0  0  # atno 10763 bound_to 10752
  153.0568  135.6553  154.0568 H   0  0  0  0  0  0  0  0  0  0  0  0  # atno 10764 bound_to 10752
  154.0454  135.2973  155.3328 H   0  0  0  0  0  0  0  0  0  0  0  0  # atno 10765 bound_to 10752
  140.0021  134.9474  157.0095 H   0  0  0  0  0  0  0  0  0  0  0  0  # atno 11005 bound_to 11000
  145.6879  139.1632  143.2663 LP  0  0  0  0  0  0  0  0  0  0  0  0  # atno 17320 bound_to 7965
  146.1504  140.6934  142.9325 LP  0  0  0  0  0  0  0  0  0  0  0  0  # atno 17321 bound_to 7965
  140.7820  143.4295  151.0717 LP  0  0  0  0  0  0  0  0  0  0  0  0  # atno 17342 bound_to 10162
  139.7967  143.8141  152.3158 LP  0  0  0  0  0  0  0  0  0  0  0  0  # atno 17343 bound_to 10162
  157.6192  130.8642  149.9080 LP  0  0  0  0  0  0  0  0  0  0  0  0  # atno 17370 bound_to 10713
  156.0723  130.3683  150.0749 LP  0  0  0  0  0  0  0  0  0  0  0  0  # atno 17371 bound_to 10713
  140.4708  134.1388  155.7203 LP  0  0  0  0  0  0  0  0  0  0  0  0  # atno 17394 bound_to 11000
  141.1650  133.8721  157.1741 LP  0  0  0  0  0  0  0  0  0  0  0  0  # atno 17395 bound_to 11000

$$$$
