AV-unprocessed.smi:1995|AV-procd|sdf|8079|dock1
  -GOLD-   2272010293D 1   1.00000     0.00000
 Structure written by MMmdl.
 43 44  0  0  0  0  0  0  0  0  2 V2000
  148.9703  133.2537  155.6618 C   0  0  0  0  0  0  0  0  0  0  0  0
  149.5297  134.5400  155.0274 C   0  0  0  0  0  0  0  0  0  0  0  0
  148.8226  135.8647  155.4491 C   0  0  2  0  0  0  0  0  0  0  0  0
  148.9327  135.9739  156.9928 C   0  0  0  0  0  0  0  0  0  0  0  0
  147.3132  135.8119  155.0554 C   0  0  0  0  0  0  0  0  0  0  0  0
  147.0807  135.5239  153.6400 N   0  0  0  0  0  0  0  0  0  0  0  0
  146.0589  134.8071  153.1488 C   0  0  0  0  0  0  0  0  0  0  0  0
  145.1680  134.3272  153.8502 O   0  0  0  0  0  0  0  0  0  0  0  0
  146.1418  134.6947  151.8118 N   0  0  0  0  0  0  0  0  0  0  0  0
  145.2591  134.0145  150.9325 C   0  0  0  0  0  0  0  0  0  0  0  0
  145.6549  133.2567  149.9031 N   0  0  0  0  0  0  0  0  0  0  0  0
  144.5732  132.7091  149.2086 C   0  0  0  0  0  0  0  0  0  0  0  0
  143.3521  133.0628  149.7269 C   0  0  0  0  0  0  0  0  0  0  0  0
  143.5134  134.1039  151.1162 S   0  0  0  0  0  0  0  0  0  0  0  0
  149.5014  137.0400  154.7897 N   0  3  0  0  0  0  0  0  0  0  0  0
  148.8260  138.3587  154.9556 C   0  0  0  0  0  0  0  0  0  0  0  0
  149.4909  139.4191  154.0637 C   0  0  0  0  0  0  0  0  0  0  0  0
  150.8676  139.5232  154.3986 O   0  0  0  0  0  0  0  0  0  0  0  0
  151.5568  138.3016  154.1741 C   0  0  0  0  0  0  0  0  0  0  0  0
  150.9598  137.1928  155.0577 C   0  0  0  0  0  0  0  0  0  0  0  0
  149.5241  132.3849  155.3055 H   0  0  0  0  0  0  0  0  0  0  0  0
  147.9234  133.0960  155.4041 H   0  0  0  0  0  0  0  0  0  0  0  0
  149.0525  133.2649  156.7486 H   0  0  0  0  0  0  0  0  0  0  0  0
  150.5989  134.5974  155.2301 H   0  0  0  0  0  0  0  0  0  0  0  0
  149.4660  134.4196  153.9456 H   0  0  0  0  0  0  0  0  0  0  0  0
  148.6566  135.0402  157.4840 H   0  0  0  0  0  0  0  0  0  0  0  0
  148.2693  136.7384  157.3978 H   0  0  0  0  0  0  0  0  0  0  0  0
  149.9469  136.2156  157.3114 H   0  0  0  0  0  0  0  0  0  0  0  0
  146.8030  135.0279  155.6138 H   0  0  0  0  0  0  0  0  0  0  0  0
  146.8058  136.7394  155.3205 H   0  0  0  0  0  0  0  0  0  0  0  0
  147.7622  135.8827  152.9870 H   0  0  0  0  0  0  0  0  0  0  0  0
  146.9311  135.1424  151.3702 H   0  0  0  0  0  0  0  0  0  0  0  0
  144.7644  132.0763  148.3547 H   0  0  0  0  0  0  0  0  0  0  0  0
  142.3718  132.7747  149.3768 H   0  0  0  0  0  0  0  0  0  0  0  0
  147.7717  138.3066  154.6912 H   0  0  0  0  0  0  0  0  0  0  0  0
  148.8813  138.6869  155.9935 H   0  0  0  0  0  0  0  0  0  0  0  0
  149.3739  139.1714  153.0072 H   0  0  0  0  0  0  0  0  0  0  0  0
  149.0174  140.3889  154.2183 H   0  0  0  0  0  0  0  0  0  0  0  0
  151.5034  138.0287  153.1189 H   0  0  0  0  0  0  0  0  0  0  0  0
  152.6113  138.4436  154.4121 H   0  0  0  0  0  0  0  0  0  0  0  0
  151.1282  137.4338  156.1075 H   0  0  0  0  0  0  0  0  0  0  0  0
  151.5069  136.2763  154.8454 H   0  0  0  0  0  0  0  0  0  0  0  0
  149.4410  136.8371  153.8021 H   0  0  0  0  0  0  0  0  0  0  0  0
  1  2  1  0  0  0  0
  1 21  1  0  0  0  0
  1 22  1  0  0  0  0
  1 23  1  0  0  0  0
  2  3  1  0  0  0  0
  2 24  1  0  0  0  0
  2 25  1  0  0  0  0
  3  4  1  0  0  0  0
  3  5  1  0  0  0  0
  3 15  1  0  0  0  0
  4 26  1  0  0  0  0
  4 27  1  0  0  0  0
  4 28  1  0  0  0  0
  5  6  1  0  0  0  0
  5 29  1  0  0  0  0
  5 30  1  0  0  0  0
  6  7  1  0  0  0  0
  6 31  1  0  0  0  0
  7  8  2  0  0  0  0
  7  9  1  0  0  0  0
  9 10  1  0  0  0  0
  9 32  1  0  0  0  0
 10 14  1  0  0  0  0
 10 11  2  0  0  0  0
 11 12  1  0  0  0  0
 12 13  2  0  0  0  0
 12 33  1  0  0  0  0
 13 14  1  0  0  0  0
 13 34  1  0  0  0  0
 15 20  1  0  0  0  0
 15 16  1  0  0  0  0
 15 43  1  0  0  0  0
 16 17  1  0  0  0  0
 16 35  1  0  0  0  0
 16 36  1  0  0  0  0
 17 18  1  0  0  0  0
 17 37  1  0  0  0  0
 17 38  1  0  0  0  0
 18 19  1  0  0  0  0
 19 20  1  0  0  0  0
 19 39  1  0  0  0  0
 19 40  1  0  0  0  0
 20 41  1  0  0  0  0
 20 42  1  0  0  0  0
M  CHG  1  15   1
M  END
> <s_m_source_file>
AV-unprocessed.smi

> <i_m_source_file_index>
1995

> <i_lp_mmshare_version>
43012

> <i_f3d_flags>
0

> <s_epik_input>
W0NIMl0xW0NIMl1PW0NIMl1bQ0gyXU4xW0NAQF0oW0NIM10pKFtDSDJdW0NIM10pW0NIMl1bTkhdQyg9TylbTkhdYzJuW2NIXVtjSF1zMg==

> <s_epik_cmdline>
J2VwaWtfcHl0aG9uJywgJy1waCcsICc3LjAnLCAnLXRuJywgJzgnLCAnLW1hJywgJzIwMCcsICctbWV0YWxfYmluZGluZycsICctaW1hZScsICc8aW5maWxlLm1hZT4nLCAnLW9tYWUnLCAnPG91dGZpbGUubWFlPic=

> <r_lp_tautomer_probability>
0.999

> <r_epik_Ionization_Penalty>
0.55406

> <r_epik_Ionization_Penalty_Charging>
0.553838

> <r_epik_Ionization_Penalty_Neutral>
0.000222147

> <r_epik_State_Penalty>
0.564424

> <r_epik_Charging_Adjusted_Penalty>
1.11826

> <i_epik_Tot_Q>
1

> <i_epik_Tot_abs_Q>
1

> <r_epik_Metal_State_Penalty>
0.573776

> <b_epik_Metal_Only>
0

> <s_lp_Force_Field>
OPLS_2005

> <r_lp_Energy>
26.593

> <b_lp_Chiralities_Consistent>
1

> <s_lp_Variant>
AV-unprocessed.smi:1995-4

> <Gold.Version>
5.8.1

> <Gold.Id.Protein>
6NUR|6NUR_protein|mol2

> <Gold.PLP.Fitness>
45.0255

> <Gold.PLP.PLP>
-29.5330

> <Gold.PLP.part.hbond>
-3.5941

> <Gold.PLP.part.metal>
0.0000

> <Gold.PLP.part.buried>
-4.4758

> <Gold.PLP.part.nonpolar>
-21.7794

> <Gold.PLP.part.repulsive>
1.5539

> <Gold.PLP.ligand.clash>
0.0000

> <Gold.PLP.ligand.torsion>
0.6111

> <Gold.PLP.Chemscore.Hbond>
4.2894

> <Gold.PLP.Chemscore.CHOScore>
1.2255

> <Gold.PLP.Chemscore.Metal>
0.0000

> <Gold.Chemscore.Hbonds>
donor molecule, donor type, donor heavy atom, donor atom, acceptor molecule, acceptor atom, score
      L1  H     6    31       P1  7948  1.00
      L1  H     9    32       P1  7948  0.28
      L1  H    15    43       P1  7948  1.82
      P1  H  7989  7998       L1    18  1.00
      L1  C    13    34       P1 10186  0.62
      L1  C    13    34       P1 10952  0.14

> <Gold.PLP.Chemscore.Internal.Correction>
0.1701

> <Gold.Rescore>
     Score         DG    S(hbond)    S(metal)    S(lipo)     H(rot)  DE(clash)    DE(int)     intcor
     16.17     -17.68       2.48        0.00      72.68       1.79       1.00       0.51       ----

> <Gold.Chemscore.Fitness>
16.1701

> <Gold.Chemscore.DG>
-17.6828

> <Gold.Chemscore.ZeroCoef>
-5.4800

> <Gold.Chemscore.Hbond>
2.4826

> <Gold.Chemscore.Metal>
0.0000

> <Gold.Chemscore.Lipo>
72.6826

> <Gold.Chemscore.Internal_Hbond>
0.0000

> <Gold.Chemscore.DEClash>
1.0046

> <Gold.Chemscore.DEInternal>
0.5080

> <Gold.Chemscore.Rot>
1.7942

> <Gold.Chemscore.Internal.Correction>
   9.000000E+99

> <Gold.Chemscore.Hbonds>
donor molecule, donor type, donor heavy atom, donor atom, acceptor molecule, acceptor atom, score
      L1  H     6    31       P1  7948  1.00
      L1  H     9    32       P1  7948  0.25
      L1  H    15    43       P1  7948  0.80
      P1  H  7989  7998       L1    18  0.58

> <Gold.Chemscore.Hbond.Weighted>
-8.2920

> <Gold.Chemscore.Metal.Weighted>
-0.0000

> <Gold.Chemscore.Lipo.Weighted>
-8.5039

> <Gold.Chemscore.Internal_Hbond.Weighted>
0.0000

> <Gold.Chemscore.DEClash.Weighted>
1.0046

> <Gold.Chemscore.DEInternal.Weighted>
0.5080

> <Gold.Chemscore.Rot.Weighted>
4.5931

> <Gold.Chemscore.Internal.Correction.Weighted>
   9.000000E+99

> <Gold.Protein.RotatedTorsions>
[ 6907 6896 6895 6894 ] final   17.61 input  -60.11 | X-H torsion
[ 7974 7965 7964 7962 ] final -105.43 input  175.53 | X-H torsion
[ 8008 7997 7996 7995 ] final -177.84 input   59.86 | X-H torsion
[ 10167 10162 10161 10158 ] final   52.64 input  -65.29 | X-H torsion
[ 10718 10713 10712 10709 ] final   60.83 input   66.30 | X-H torsion
[ 10763 10752 10751 10750 ] final -102.35 input  -60.55 | X-H torsion
[ 11005 11000 10999 10996 ] final  121.93 input  -57.11 | X-H torsion

> <Gold.Protein.ActiveResidues>
 VAL166  LYS551  ARG553  GLY616  TRP617  ASP618  TYR619  PRO620  LYS621  CYS622 
 ASP623  PHE694  ASN695  SER759  ASP760  ASP761  ALA762  ILE779  LEU786  VAL792 
 PHE793  MET794  SER795  GLU796  ALA797  LYS798  CYS799  TRP800  GLU811  SER814 

> <Gold.Protein.RotatedAtoms>
  151.8523  135.0553  160.0460 H   0  0  0  0  0  0  0  0  0  0  0  0  # atno 6907 bound_to 6896
  152.2727  133.5392  159.5457 H   0  0  0  0  0  0  0  0  0  0  0  0  # atno 6908 bound_to 6896
  150.7158  134.0592  159.3867 H   0  0  0  0  0  0  0  0  0  0  0  0  # atno 6909 bound_to 6896
  145.2306  140.9169  143.3207 H   0  0  0  0  0  0  0  0  0  0  0  0  # atno 7974 bound_to 7965
  156.0118  140.1242  157.0446 H   0  0  0  0  0  0  0  0  0  0  0  0  # atno 8008 bound_to 7997
  154.4278  140.1086  156.5909 H   0  0  0  0  0  0  0  0  0  0  0  0  # atno 8009 bound_to 7997
  155.6069  140.3471  155.4613 H   0  0  0  0  0  0  0  0  0  0  0  0  # atno 8010 bound_to 7997
  140.2492  144.3498  150.6354 H   0  0  0  0  0  0  0  0  0  0  0  0  # atno 10167 bound_to 10162
  157.5783  130.8961  149.9385 H   0  0  0  0  0  0  0  0  0  0  0  0  # atno 10718 bound_to 10713
  154.7727  135.4864  153.9682 H   0  0  0  0  0  0  0  0  0  0  0  0  # atno 10763 bound_to 10752
  153.1389  135.6768  153.9066 H   0  0  0  0  0  0  0  0  0  0  0  0  # atno 10764 bound_to 10752
  153.8747  135.3139  155.3422 H   0  0  0  0  0  0  0  0  0  0  0  0  # atno 10765 bound_to 10752
  139.9247  134.9640  156.8033 H   0  0  0  0  0  0  0  0  0  0  0  0  # atno 11005 bound_to 11000
  144.9680  139.3910  143.6323 LP  0  0  0  0  0  0  0  0  0  0  0  0  # atno 17320 bound_to 7965
  146.3354  139.8764  142.8831 LP  0  0  0  0  0  0  0  0  0  0  0  0  # atno 17321 bound_to 7965
  140.6054  143.2167  151.6992 LP  0  0  0  0  0  0  0  0  0  0  0  0  # atno 17342 bound_to 10162
  139.5052  144.3727  152.0454 LP  0  0  0  0  0  0  0  0  0  0  0  0  # atno 17343 bound_to 10162
  156.0828  130.3671  150.0547 LP  0  0  0  0  0  0  0  0  0  0  0  0  # atno 17370 bound_to 10713
  156.8690  130.9518  151.3611 LP  0  0  0  0  0  0  0  0  0  0  0  0  # atno 17371 bound_to 10713
  140.6372  133.9852  155.7690 LP  0  0  0  0  0  0  0  0  0  0  0  0  # atno 17394 bound_to 11000
  141.0795  134.0084  157.3407 LP  0  0  0  0  0  0  0  0  0  0  0  0  # atno 17395 bound_to 11000

$$$$
