AV-unprocessed.smi:888|AV-procd|sdf|4055|dock5
  -GOLD-   22720 1543D 1   1.00000     0.00000
 Structure written by MMmdl.
 45 46  0  0  0  0  0  0  0  0  1 V2000
  146.4538  142.4790  153.8397 C   0  0  0  0  0  0  0  0  0  0  0  0
  147.4009  142.0259  154.9558 C   0  0  0  0  0  0  0  0  0  0  0  0
  148.3845  140.9953  154.4943 C   0  0  0  0  0  0  0  0  0  0  0  0
  149.7102  141.1387  154.6119 N   0  0  0  0  0  0  0  0  0  0  0  0
  150.2577  139.9822  154.0929 N   0  0  0  0  0  0  0  0  0  0  0  0
  149.2073  139.2519  153.7214 C   0  0  0  0  0  0  0  0  0  0  0  0
  148.0124  139.8190  153.9469 N   0  0  0  0  0  0  0  0  0  0  0  0
  146.6943  139.2820  153.6631 C   0  0  0  0  0  0  0  0  0  0  0  0
  146.5628  138.8601  152.1938 C   0  0  0  0  0  0  0  0  0  0  0  0
  146.7405  137.4173  152.0598 N   0  0  0  0  0  0  0  0  0  0  0  0
  145.7947  136.4693  152.1723 C   0  0  0  0  0  0  0  0  0  0  0  0
  144.6232  136.7478  152.4198 O   0  0  0  0  0  0  0  0  0  0  0  0
  146.2434  135.2137  152.0002 N   0  0  0  0  0  0  0  0  0  0  0  0
  145.4348  133.9950  152.0678 C   0  0  1  0  0  0  0  0  0  0  0  0
  144.3221  134.0724  151.0061 C   0  0  0  0  0  0  0  0  0  0  0  0
  144.7616  133.1846  149.8337 C   0  0  0  0  0  0  0  0  0  0  0  0
  146.1529  132.6560  150.1952 C   0  0  0  0  0  0  0  0  0  0  0  0
  146.2422  132.7142  151.7287 C   0  0  0  0  0  0  0  0  0  0  0  0
  147.7100  132.7304  152.2083 C   0  0  0  0  0  0  0  0  0  0  0  0
  145.5467  131.4797  152.3429 C   0  0  0  0  0  0  0  0  0  0  0  0
  145.7484  143.2239  154.2084 H   0  0  0  0  0  0  0  0  0  0  0  0
  145.8784  141.6398  153.4475 H   0  0  0  0  0  0  0  0  0  0  0  0
  147.0052  142.9236  153.0111 H   0  0  0  0  0  0  0  0  0  0  0  0
  147.9314  142.8837  155.3686 H   0  0  0  0  0  0  0  0  0  0  0  0
  146.8205  141.6059  155.7779 H   0  0  0  0  0  0  0  0  0  0  0  0
  149.3126  138.2742  153.2741 H   0  0  0  0  0  0  0  0  0  0  0  0
  146.5219  138.4278  154.3194 H   0  0  0  0  0  0  0  0  0  0  0  0
  145.9443  140.0308  153.9204 H   0  0  0  0  0  0  0  0  0  0  0  0
  145.5816  139.1431  151.8093 H   0  0  0  0  0  0  0  0  0  0  0  0
  147.3105  139.3771  151.5900 H   0  0  0  0  0  0  0  0  0  0  0  0
  147.6797  137.1013  151.8647 H   0  0  0  0  0  0  0  0  0  0  0  0
  147.2261  135.0902  151.8057 H   0  0  0  0  0  0  0  0  0  0  0  0
  144.9855  133.9170  153.0598 H   0  0  0  0  0  0  0  0  0  0  0  0
  143.3875  133.6905  151.4188 H   0  0  0  0  0  0  0  0  0  0  0  0
  144.1254  135.0961  150.6836 H   0  0  0  0  0  0  0  0  0  0  0  0
  144.0633  132.3551  149.7165 H   0  0  0  0  0  0  0  0  0  0  0  0
  144.7768  133.7319  148.8907 H   0  0  0  0  0  0  0  0  0  0  0  0
  146.3341  131.6576  149.7958 H   0  0  0  0  0  0  0  0  0  0  0  0
  146.9029  133.3161  149.7567 H   0  0  0  0  0  0  0  0  0  0  0  0
  148.2127  131.7945  151.9628 H   0  0  0  0  0  0  0  0  0  0  0  0
  147.7692  132.8615  153.2893 H   0  0  0  0  0  0  0  0  0  0  0  0
  148.2873  133.5311  151.7452 H   0  0  0  0  0  0  0  0  0  0  0  0
  146.0428  130.5557  152.0443 H   0  0  0  0  0  0  0  0  0  0  0  0
  144.5029  131.4009  152.0377 H   0  0  0  0  0  0  0  0  0  0  0  0
  145.5634  131.5215  153.4325 H   0  0  0  0  0  0  0  0  0  0  0  0
  1  2  1  0  0  0  0
  1 21  1  0  0  0  0
  1 22  1  0  0  0  0
  1 23  1  0  0  0  0
  2  3  1  0  0  0  0
  2 24  1  0  0  0  0
  2 25  1  0  0  0  0
  3  7  1  0  0  0  0
  3  4  2  0  0  0  0
  4  5  1  0  0  0  0
  5  6  2  0  0  0  0
  6  7  1  0  0  0  0
  6 26  1  0  0  0  0
  7  8  1  0  0  0  0
  8  9  1  0  0  0  0
  8 27  1  0  0  0  0
  8 28  1  0  0  0  0
  9 10  1  0  0  0  0
  9 29  1  0  0  0  0
  9 30  1  0  0  0  0
 10 11  1  0  0  0  0
 10 31  1  0  0  0  0
 11 12  2  0  0  0  0
 11 13  1  0  0  0  0
 13 14  1  0  0  0  0
 13 32  1  0  0  0  0
 14 18  1  0  0  0  0
 14 15  1  0  0  0  0
 14 33  1  0  0  0  0
 15 16  1  0  0  0  0
 15 34  1  0  0  0  0
 15 35  1  0  0  0  0
 16 17  1  0  0  0  0
 16 36  1  0  0  0  0
 16 37  1  0  0  0  0
 17 18  1  0  0  0  0
 17 38  1  0  0  0  0
 17 39  1  0  0  0  0
 18 19  1  0  0  0  0
 18 20  1  0  0  0  0
 19 40  1  0  0  0  0
 19 41  1  0  0  0  0
 19 42  1  0  0  0  0
 20 43  1  0  0  0  0
 20 44  1  0  0  0  0
 20 45  1  0  0  0  0
M  END
> <s_m_source_file>
AV-unprocessed.smi

> <i_m_source_file_index>
888

> <i_lp_mmshare_version>
43012

> <i_f3d_flags>
0

> <s_epik_input>
W0NIM11bQ0gyXWMxbm5bY0hdbjFbQ0gyXVtDSDJdW05IXUMoPU8pW05IXVtDQEBIXShDMihbQ0gzXSlbQ0gzXSlbQ0gyXVtDSDJdW0NIMl0y

> <s_epik_cmdline>
J2VwaWtfcHl0aG9uJywgJy1waCcsICc3LjAnLCAnLXRuJywgJzgnLCAnLW1hJywgJzIwMCcsICctbWV0YWxfYmluZGluZycsICctaW1hZScsICc8aW5maWxlLm1hZT4nLCAnLW9tYWUnLCAnPG91dGZpbGUubWFlPic=

> <r_lp_tautomer_probability>
1

> <r_epik_Ionization_Penalty>
0.000379534

> <r_epik_Ionization_Penalty_Charging>
0

> <r_epik_Ionization_Penalty_Neutral>
0.000379534

> <r_epik_State_Penalty>
-0

> <r_epik_Charging_Adjusted_Penalty>
0

> <i_epik_Tot_Q>
0

> <i_epik_Tot_abs_Q>
0

> <r_epik_Metal_State_Penalty>
-0

> <b_epik_Metal_Only>
0

> <s_lp_Force_Field>
OPLS_2005

> <r_lp_Energy>
32.1677

> <b_lp_Chiralities_Consistent>
1

> <s_lp_Variant>
AV-unprocessed.smi:888-2

> <Gold.Version>
5.8.1

> <Gold.Id.Protein>
6NUR|6NUR_protein|mol2

> <Gold.PLP.Fitness>
44.5011

> <Gold.PLP.PLP>
-34.8338

> <Gold.PLP.part.hbond>
-4.0000

> <Gold.PLP.part.metal>
0.0000

> <Gold.PLP.part.buried>
1.0225

> <Gold.PLP.part.nonpolar>
-33.1415

> <Gold.PLP.part.repulsive>
1.4077

> <Gold.PLP.ligand.clash>
0.0000

> <Gold.PLP.ligand.torsion>
0.5162

> <Gold.PLP.Chemscore.Hbond>
2.5600

> <Gold.PLP.Chemscore.CHOScore>
0.9985

> <Gold.PLP.Chemscore.Metal>
0.0000

> <Gold.Chemscore.Hbonds>
donor molecule, donor type, donor heavy atom, donor atom, acceptor molecule, acceptor atom, score
      L1  H    10    31       P1  7948  0.98
      L1  H    13    32       P1  7948  0.78
      P1  H  7989  7998       L1     5  0.55
      L1  C     6    26       P1  7948  1.00

> <Gold.PLP.Chemscore.Internal.Correction>
0.0242

> <Gold.Rescore>
     Score         DG    S(hbond)    S(metal)    S(lipo)     H(rot)  DE(clash)    DE(int)     intcor
     16.16     -17.13       2.70        0.00      66.76       2.03       0.45       0.51       ----

> <Gold.Chemscore.Fitness>
16.1650

> <Gold.Chemscore.DG>
-17.1279

> <Gold.Chemscore.ZeroCoef>
-5.4800

> <Gold.Chemscore.Hbond>
2.7040

> <Gold.Chemscore.Metal>
0.0000

> <Gold.Chemscore.Lipo>
66.7647

> <Gold.Chemscore.Internal_Hbond>
0.0000

> <Gold.Chemscore.DEClash>
0.4498

> <Gold.Chemscore.DEInternal>
0.5131

> <Gold.Chemscore.Rot>
2.0293

> <Gold.Chemscore.Internal.Correction>
   9.000000E+99

> <Gold.Chemscore.Hbonds>
donor molecule, donor type, donor heavy atom, donor atom, acceptor molecule, acceptor atom, score
      L1  H    10    31       P1  7948  0.91
      L1  H    13    32       P1  7948  0.69
      P1  H  7989  7998       L1     5  0.03

> <Gold.Chemscore.Hbond.Weighted>
-9.0314

> <Gold.Chemscore.Metal.Weighted>
-0.0000

> <Gold.Chemscore.Lipo.Weighted>
-7.8115

> <Gold.Chemscore.Internal_Hbond.Weighted>
0.0000

> <Gold.Chemscore.DEClash.Weighted>
0.4498

> <Gold.Chemscore.DEInternal.Weighted>
0.5131

> <Gold.Chemscore.Rot.Weighted>
5.1950

> <Gold.Chemscore.Internal.Correction.Weighted>
   9.000000E+99

> <Gold.Protein.RotatedTorsions>
[ 6907 6896 6895 6894 ] final -123.56 input  -60.11 | X-H torsion
[ 7974 7965 7964 7962 ] final  134.70 input  175.53 | X-H torsion
[ 8008 7997 7996 7995 ] final -176.05 input   59.86 | X-H torsion
[ 10167 10162 10161 10158 ] final   48.46 input  -65.29 | X-H torsion
[ 10718 10713 10712 10709 ] final  108.17 input   66.30 | X-H torsion
[ 10763 10752 10751 10750 ] final  -51.15 input  -60.55 | X-H torsion
[ 11005 11000 10999 10996 ] final   42.43 input  -57.11 | X-H torsion

> <Gold.Protein.ActiveResidues>
 VAL166  LYS551  ARG553  GLY616  TRP617  ASP618  TYR619  PRO620  LYS621  CYS622 
 ASP623  PHE694  ASN695  SER759  ASP760  ASP761  ALA762  ILE779  LEU786  VAL792 
 PHE793  MET794  SER795  GLU796  ALA797  LYS798  CYS799  TRP800  GLU811  SER814 

> <Gold.Protein.RotatedAtoms>
  150.8683  133.7542  159.2969 H   0  0  0  0  0  0  0  0  0  0  0  0  # atno 6907 bound_to 6896
  151.5162  135.1064  159.9876 H   0  0  0  0  0  0  0  0  0  0  0  0  # atno 6908 bound_to 6896
  152.4677  133.7915  159.6960 H   0  0  0  0  0  0  0  0  0  0  0  0  # atno 6909 bound_to 6896
  144.9738  139.4577  143.5420 H   0  0  0  0  0  0  0  0  0  0  0  0  # atno 7974 bound_to 7965
  155.9901  140.1199  157.0646 H   0  0  0  0  0  0  0  0  0  0  0  0  # atno 8008 bound_to 7997
  154.4209  140.1127  156.5623 H   0  0  0  0  0  0  0  0  0  0  0  0  # atno 8009 bound_to 7997
  155.6354  140.3473  155.4699 H   0  0  0  0  0  0  0  0  0  0  0  0  # atno 8010 bound_to 7997
  140.2931  144.3023  150.6236 H   0  0  0  0  0  0  0  0  0  0  0  0  # atno 10167 bound_to 10162
  157.6597  131.0888  150.6266 H   0  0  0  0  0  0  0  0  0  0  0  0  # atno 10718 bound_to 10713
  154.1219  135.6533  153.4905 H   0  0  0  0  0  0  0  0  0  0  0  0  # atno 10763 bound_to 10752
  153.0222  135.5272  154.7088 H   0  0  0  0  0  0  0  0  0  0  0  0  # atno 10764 bound_to 10752
  154.6298  135.2975  155.0200 H   0  0  0  0  0  0  0  0  0  0  0  0  # atno 10765 bound_to 10752
  140.1740  134.4186  155.8240 H   0  0  0  0  0  0  0  0  0  0  0  0  # atno 11005 bound_to 11000
  146.3389  139.8967  142.8801 LP  0  0  0  0  0  0  0  0  0  0  0  0  # atno 17320 bound_to 7965
  145.2521  141.0047  143.3875 LP  0  0  0  0  0  0  0  0  0  0  0  0  # atno 17321 bound_to 7965
  140.5715  143.2180  151.7590 LP  0  0  0  0  0  0  0  0  0  0  0  0  # atno 17342 bound_to 10162
  139.4933  144.4209  151.9978 LP  0  0  0  0  0  0  0  0  0  0  0  0  # atno 17343 bound_to 10162
  156.6569  130.4501  149.5700 LP  0  0  0  0  0  0  0  0  0  0  0  0  # atno 17370 bound_to 10713
  156.2096  130.6670  151.1255 LP  0  0  0  0  0  0  0  0  0  0  0  0  # atno 17371 bound_to 10713
  141.2219  133.6969  156.7814 LP  0  0  0  0  0  0  0  0  0  0  0  0  # atno 17394 bound_to 11000
  140.2344  134.8661  157.3510 LP  0  0  0  0  0  0  0  0  0  0  0  0  # atno 17395 bound_to 11000

$$$$
