AV-unprocessed.smi:302|AV-procd|sdf|2272|dock9
  -GOLD-   2262022163D 1   1.00000     0.00000
 Structure written by MMmdl.
 44 45  0  0  0  0  0  0  0  0  1 V2000
  154.3695  131.7909  161.6689 C   0  0  0  0  0  0  0  0  0  0  0  0
  154.6962  133.0662  162.4488 C   0  0  0  0  0  0  0  0  0  0  0  0
  154.3597  134.1916  161.6448 O   0  0  0  0  0  0  0  0  0  0  0  0
  154.6114  135.4670  162.2319 C   0  0  2  0  0  0  0  0  0  0  0  0
  153.9854  135.4477  163.6418 C   0  0  0  0  0  0  0  0  0  0  0  0
  154.2379  136.7233  164.4601 C   0  0  0  0  0  0  0  0  0  0  0  0
  154.0298  136.5805  161.3420 C   0  0  0  0  0  0  0  0  0  0  0  0
  153.3214  136.2847  160.3798 O   0  0  0  0  0  0  0  0  0  0  0  0
  154.3782  137.8364  161.6773 N   0  0  0  0  0  0  0  0  0  0  0  0
  154.0280  139.0536  161.0343 C   0  0  0  0  0  0  0  0  0  0  0  0
  154.5622  140.3177  161.3744 C   0  0  0  0  0  0  0  0  0  0  0  0
  154.1411  141.4519  160.6542 C   0  0  0  0  0  0  0  0  0  0  0  0
  153.2041  141.2989  159.6049 C   0  0  0  0  0  0  0  0  0  0  0  0
  152.7609  142.4245  158.8766 N   0  0  0  0  0  0  0  0  0  0  0  0
  151.3652  142.4012  158.4461 C   0  0  0  0  0  0  0  0  0  0  0  0
  151.1106  143.5013  157.4011 C   0  0  0  0  0  0  0  0  0  0  0  0
  151.5077  144.7653  157.9227 O   0  0  0  0  0  0  0  0  0  0  0  0
  152.8970  144.7977  158.2313 C   0  0  0  0  0  0  0  0  0  0  0  0
  153.2130  143.7461  159.3080 C   0  0  0  0  0  0  0  0  0  0  0  0
  152.7034  140.0829  159.2751 N   0  0  0  0  0  0  0  0  0  0  0  0
  153.1115  138.9983  159.9660 C   0  0  0  0  0  0  0  0  0  0  0  0
  154.6103  130.9035  162.2548 H   0  0  0  0  0  0  0  0  0  0  0  0
  154.9394  131.7433  160.7403 H   0  0  0  0  0  0  0  0  0  0  0  0
  153.3099  131.7476  161.4156 H   0  0  0  0  0  0  0  0  0  0  0  0
  154.1268  133.0856  163.3792 H   0  0  0  0  0  0  0  0  0  0  0  0
  155.7551  133.0696  162.7095 H   0  0  0  0  0  0  0  0  0  0  0  0
  155.6898  135.6015  162.3384 H   0  0  0  0  0  0  0  0  0  0  0  0
  152.9118  135.2668  163.5738 H   0  0  0  0  0  0  0  0  0  0  0  0
  154.3937  134.5997  164.1924 H   0  0  0  0  0  0  0  0  0  0  0  0
  153.8229  136.6253  165.4633 H   0  0  0  0  0  0  0  0  0  0  0  0
  153.7760  137.5965  163.9990 H   0  0  0  0  0  0  0  0  0  0  0  0
  155.3053  136.9211  164.5608 H   0  0  0  0  0  0  0  0  0  0  0  0
  155.0335  137.9225  162.4408 H   0  0  0  0  0  0  0  0  0  0  0  0
  155.2884  140.4399  162.1630 H   0  0  0  0  0  0  0  0  0  0  0  0
  154.5300  142.4220  160.9249 H   0  0  0  0  0  0  0  0  0  0  0  0
  151.0873  141.4382  158.0211 H   0  0  0  0  0  0  0  0  0  0  0  0
  150.7271  142.5594  159.3164 H   0  0  0  0  0  0  0  0  0  0  0  0
  151.6516  143.2916  156.4769 H   0  0  0  0  0  0  0  0  0  0  0  0
  150.0511  143.5391  157.1477 H   0  0  0  0  0  0  0  0  0  0  0  0
  153.4854  144.6200  157.3297 H   0  0  0  0  0  0  0  0  0  0  0  0
  153.1585  145.7931  158.5906 H   0  0  0  0  0  0  0  0  0  0  0  0
  152.7183  144.0090  160.2441 H   0  0  0  0  0  0  0  0  0  0  0  0
  154.2873  143.7361  159.4967 H   0  0  0  0  0  0  0  0  0  0  0  0
  152.6830  138.0551  159.6595 H   0  0  0  0  0  0  0  0  0  0  0  0
  1  2  1  0  0  0  0
  1 22  1  0  0  0  0
  1 23  1  0  0  0  0
  1 24  1  0  0  0  0
  2  3  1  0  0  0  0
  2 25  1  0  0  0  0
  2 26  1  0  0  0  0
  3  4  1  0  0  0  0
  4  5  1  0  0  0  0
  4  7  1  0  0  0  0
  4 27  1  0  0  0  0
  5  6  1  0  0  0  0
  5 28  1  0  0  0  0
  5 29  1  0  0  0  0
  6 30  1  0  0  0  0
  6 31  1  0  0  0  0
  6 32  1  0  0  0  0
  7  8  2  0  0  0  0
  7  9  1  0  0  0  0
  9 10  1  0  0  0  0
  9 33  1  0  0  0  0
 10 21  1  0  0  0  0
 10 11  2  0  0  0  0
 11 12  1  0  0  0  0
 11 34  1  0  0  0  0
 12 13  2  0  0  0  0
 12 35  1  0  0  0  0
 13 14  1  0  0  0  0
 13 20  1  0  0  0  0
 14 19  1  0  0  0  0
 14 15  1  0  0  0  0
 15 16  1  0  0  0  0
 15 36  1  0  0  0  0
 15 37  1  0  0  0  0
 16 17  1  0  0  0  0
 16 38  1  0  0  0  0
 16 39  1  0  0  0  0
 17 18  1  0  0  0  0
 18 19  1  0  0  0  0
 18 40  1  0  0  0  0
 18 41  1  0  0  0  0
 19 42  1  0  0  0  0
 19 43  1  0  0  0  0
 20 21  2  0  0  0  0
 21 44  1  0  0  0  0
M  END
> <s_m_source_file>
AV-unprocessed.smi

> <i_m_source_file_index>
302

> <i_lp_mmshare_version>
43012

> <i_f3d_flags>
0

> <s_epik_input>
W0NIM11bQ0gyXU9bQ0BIXShbQ0gyXVtDSDNdKUMoPU8pW05IXWMxW2NIXVtjSF1jKG5bY0hdMSlOMltDSDJdW0NIMl1PW0NIMl1bQ0gyXTI=

> <s_epik_cmdline>
J2VwaWtfcHl0aG9uJywgJy1waCcsICc3LjAnLCAnLXRuJywgJzgnLCAnLW1hJywgJzIwMCcsICctbWV0YWxfYmluZGluZycsICctaW1hZScsICc8aW5maWxlLm1hZT4nLCAnLW9tYWUnLCAnPG91dGZpbGUubWFlPic=

> <r_lp_tautomer_probability>
1

> <r_epik_Ionization_Penalty>
0.000497413

> <r_epik_Ionization_Penalty_Charging>
0

> <r_epik_Ionization_Penalty_Neutral>
0.000497413

> <r_epik_State_Penalty>
0.000308489

> <r_epik_Charging_Adjusted_Penalty>
0.000308489

> <i_epik_Tot_Q>
0

> <i_epik_Tot_abs_Q>
0

> <r_epik_Metal_State_Penalty>
-0

> <b_epik_Metal_Only>
0

> <s_lp_Force_Field>
OPLS_2005

> <r_lp_Energy>
24.0205

> <b_lp_Chiralities_Consistent>
1

> <s_lp_Variant>
AV-unprocessed.smi:302-1

> <Gold.Version>
5.8.1

> <Gold.Id.Protein>
6NUR|6NUR_protein|mol2

> <Gold.PLP.Fitness>
41.3559

> <Gold.PLP.PLP>
-39.1579

> <Gold.PLP.part.hbond>
-1.0000

> <Gold.PLP.part.metal>
0.0000

> <Gold.PLP.part.buried>
-4.4570

> <Gold.PLP.part.nonpolar>
-33.0083

> <Gold.PLP.part.repulsive>
0.1508

> <Gold.PLP.ligand.clash>
0.0000

> <Gold.PLP.ligand.torsion>
0.5997

> <Gold.PLP.Chemscore.Hbond>
1.0000

> <Gold.PLP.Chemscore.CHOScore>
0.0000

> <Gold.PLP.Chemscore.Metal>
0.0000

> <Gold.Chemscore.Hbonds>
donor molecule, donor type, donor heavy atom, donor atom, acceptor molecule, acceptor atom, score
      P1  H  6896  6909       L1     8  1.00

> <Gold.PLP.Chemscore.Internal.Correction>
0.3975

> <Gold.Rescore>
     Score         DG    S(hbond)    S(metal)    S(lipo)     H(rot)  DE(clash)    DE(int)     intcor
     14.71     -17.63       1.00        0.00     110.85       1.63       0.06       2.86       ----

> <Gold.Chemscore.Fitness>
14.7092

> <Gold.Chemscore.DG>
-17.6258

> <Gold.Chemscore.ZeroCoef>
-5.4800

> <Gold.Chemscore.Hbond>
0.9997

> <Gold.Chemscore.Metal>
0.0000

> <Gold.Chemscore.Lipo>
110.8491

> <Gold.Chemscore.Internal_Hbond>
0.0000

> <Gold.Chemscore.DEClash>
0.0572

> <Gold.Chemscore.DEInternal>
2.8594

> <Gold.Chemscore.Rot>
1.6260

> <Gold.Chemscore.Internal.Correction>
   9.000000E+99

> <Gold.Chemscore.Hbonds>
donor molecule, donor type, donor heavy atom, donor atom, acceptor molecule, acceptor atom, score
      P1  H  6896  6909       L1     8  1.00

> <Gold.Chemscore.Hbond.Weighted>
-3.3391

> <Gold.Chemscore.Metal.Weighted>
-0.0000

> <Gold.Chemscore.Lipo.Weighted>
-12.9693

> <Gold.Chemscore.Internal_Hbond.Weighted>
0.0000

> <Gold.Chemscore.DEClash.Weighted>
0.0572

> <Gold.Chemscore.DEInternal.Weighted>
2.8594

> <Gold.Chemscore.Rot.Weighted>
4.1626

> <Gold.Chemscore.Internal.Correction.Weighted>
   9.000000E+99

> <Gold.Protein.RotatedTorsions>
[ 6907 6896 6895 6894 ] final  157.72 input  -60.11 | X-H torsion
[ 7974 7965 7964 7962 ] final    1.36 input  175.53 | X-H torsion
[ 8008 7997 7996 7995 ] final  -92.79 input   59.86 | X-H torsion
[ 10167 10162 10161 10158 ] final   70.81 input  -65.29 | X-H torsion
[ 10718 10713 10712 10709 ] final   98.95 input   66.30 | X-H torsion
[ 10763 10752 10751 10750 ] final  115.63 input  -60.55 | X-H torsion
[ 11005 11000 10999 10996 ] final  129.86 input  -57.11 | X-H torsion

> <Gold.Protein.ActiveResidues>
 VAL166  LYS551  ARG553  GLY616  TRP617  ASP618  TYR619  PRO620  LYS621  CYS622 
 ASP623  PHE694  ASN695  SER759  ASP760  ASP761  ALA762  ILE779  LEU786  VAL792 
 PHE793  MET794  SER795  GLU796  ALA797  LYS798  CYS799  TRP800  GLU811  SER814 

> <Gold.Protein.RotatedAtoms>
  152.0109  133.3861  159.4219 H   0  0  0  0  0  0  0  0  0  0  0  0  # atno 6907 bound_to 6896
  150.6899  134.3731  159.5010 H   0  0  0  0  0  0  0  0  0  0  0  0  # atno 6908 bound_to 6896
  152.1492  134.9001  160.0600 H   0  0  0  0  0  0  0  0  0  0  0  0  # atno 6909 bound_to 6896
  146.2440  140.0999  142.8348 H   0  0  0  0  0  0  0  0  0  0  0  0  # atno 7974 bound_to 7965
  154.7275  140.0505  157.0696 H   0  0  0  0  0  0  0  0  0  0  0  0  # atno 8008 bound_to 7997
  155.0346  140.3162  155.4727 H   0  0  0  0  0  0  0  0  0  0  0  0  # atno 8009 bound_to 7997
  156.2833  140.2144  156.5468 H   0  0  0  0  0  0  0  0  0  0  0  0  # atno 8010 bound_to 7997
  140.0529  144.5296  150.7350 H   0  0  0  0  0  0  0  0  0  0  0  0  # atno 10167 bound_to 10162
  157.6886  131.0655  150.4874 H   0  0  0  0  0  0  0  0  0  0  0  0  # atno 10718 bound_to 10713
  153.5250  135.3590  155.2649 H   0  0  0  0  0  0  0  0  0  0  0  0  # atno 10763 bound_to 10752
  154.8732  135.4054  154.3216 H   0  0  0  0  0  0  0  0  0  0  0  0  # atno 10764 bound_to 10752
  153.3894  135.7071  153.6573 H   0  0  0  0  0  0  0  0  0  0  0  0  # atno 10765 bound_to 10752
  139.9639  134.9595  156.9209 H   0  0  0  0  0  0  0  0  0  0  0  0  # atno 11005 bound_to 11000
  145.0578  140.9065  143.4957 LP  0  0  0  0  0  0  0  0  0  0  0  0  # atno 17320 bound_to 7965
  145.1108  139.2758  143.5638 LP  0  0  0  0  0  0  0  0  0  0  0  0  # atno 17321 bound_to 7965
  140.7208  143.2587  151.4284 LP  0  0  0  0  0  0  0  0  0  0  0  0  # atno 17342 bound_to 10162
  139.5941  144.1434  152.2124 LP  0  0  0  0  0  0  0  0  0  0  0  0  # atno 17343 bound_to 10162
  156.5203  130.4160  149.6254 LP  0  0  0  0  0  0  0  0  0  0  0  0  # atno 17370 bound_to 10713
  156.3160  130.7255  151.2157 LP  0  0  0  0  0  0  0  0  0  0  0  0  # atno 17371 bound_to 10713
  140.5440  134.0692  155.7349 LP  0  0  0  0  0  0  0  0  0  0  0  0  # atno 17394 bound_to 11000
  141.1318  133.9290  157.2520 LP  0  0  0  0  0  0  0  0  0  0  0  0  # atno 17395 bound_to 11000

$$$$
