AV-unprocessed.smi:52|AV-procd|sdf|512|dock7
  -GOLD-   2262016383D 1   1.00000     0.00000
 Structure written by MMmdl.
 26 27  0  0  0  0  0  0  0  0  2 V2000
  152.1991  137.4091  153.9739 O   0  0  0  0  0  0  0  0  0  0  0  0
  152.5987  138.4855  154.4710 C   0  0  0  0  0  0  0  0  0  0  0  0
  153.8121  138.7879  154.5002 O   0  5  0  0  0  0  0  0  0  0  0  0
  151.6028  139.4296  155.0419 C   0  0  0  0  0  0  0  0  0  0  0  0
  150.2547  139.2145  155.1812 C   0  0  0  0  0  0  0  0  0  0  0  0
  149.6781  140.3199  155.7457 O   0  0  0  0  0  0  0  0  0  0  0  0
  150.7155  141.1805  155.9314 C   0  0  0  0  0  0  0  0  0  0  0  0
  150.4436  142.5221  156.5280 C   0  0  0  0  0  0  0  0  0  0  0  0
  151.4610  142.9372  157.4880 N   0  0  0  0  0  0  0  0  0  0  0  0
  151.5407  144.3766  157.6781 C   0  0  0  0  0  0  0  0  0  0  0  0
  152.2459  144.6013  159.0232 C   0  0  0  0  0  0  0  0  0  0  0  0
  152.1680  143.2323  159.7188 C   0  0  1  0  0  0  0  0  0  0  0  0
  151.6891  143.3169  161.0443 O   0  0  0  0  0  0  0  0  0  0  0  0
  151.2284  142.4251  158.8219 C   0  0  0  0  0  0  0  0  0  0  0  0
  151.8897  140.6986  155.5300 N   0  0  0  0  0  0  0  0  0  0  0  0
  153.1558  142.7690  159.7244 H   0  0  0  0  0  0  0  0  0  0  0  0
  149.6002  138.3890  154.9434 H   0  0  0  0  0  0  0  0  0  0  0  0
  150.3550  143.2545  155.7244 H   0  0  0  0  0  0  0  0  0  0  0  0
  149.4720  142.4788  157.0215 H   0  0  0  0  0  0  0  0  0  0  0  0
  152.0633  144.8601  156.8520 H   0  0  0  0  0  0  0  0  0  0  0  0
  150.5368  144.8020  157.7271 H   0  0  0  0  0  0  0  0  0  0  0  0
  153.2854  144.8986  158.8796 H   0  0  0  0  0  0  0  0  0  0  0  0
  151.7487  145.3898  159.5896 H   0  0  0  0  0  0  0  0  0  0  0  0
  150.7594  143.1473  161.0389 H   0  0  0  0  0  0  0  0  0  0  0  0
  150.1909  142.6034  159.1111 H   0  0  0  0  0  0  0  0  0  0  0  0
  151.4140  141.3521  158.8814 H   0  0  0  0  0  0  0  0  0  0  0  0
  1  2  2  0  0  0  0
  2  3  1  0  0  0  0
  2  4  1  0  0  0  0
  4 15  1  0  0  0  0
  4  5  2  0  0  0  0
  5  6  1  0  0  0  0
  5 17  1  0  0  0  0
  6  7  1  0  0  0  0
  7  8  1  0  0  0  0
  7 15  2  0  0  0  0
  8  9  1  0  0  0  0
  8 18  1  0  0  0  0
  8 19  1  0  0  0  0
  9 14  1  0  0  0  0
  9 10  1  0  0  0  0
 10 11  1  0  0  0  0
 10 20  1  0  0  0  0
 10 21  1  0  0  0  0
 11 12  1  0  0  0  0
 11 22  1  0  0  0  0
 11 23  1  0  0  0  0
 12 16  1  0  0  0  0
 12 13  1  0  0  0  0
 12 14  1  0  0  0  0
 13 24  1  0  0  0  0
 14 25  1  0  0  0  0
 14 26  1  0  0  0  0
M  CHG  1   3  -1
M  END
> <s_m_source_file>
AV-unprocessed.smi

> <i_m_source_file_index>
52

> <i_lp_mmshare_version>
43012

> <i_f3d_flags>
0

> <s_epik_input>
Tz1DKFtPSF0pYzFbY0hdb2MobjEpW0NIMl1OMltDSDJdW0NIMl1bQ0BIXShbT0hdKVtDSDJdMg==

> <s_epik_cmdline>
J2VwaWtfcHl0aG9uJywgJy1waCcsICc3LjAnLCAnLXRuJywgJzgnLCAnLW1hJywgJzIwMCcsICctbWV0YWxfYmluZGluZycsICctaW1hZScsICc8aW5maWxlLm1hZT4nLCAnLW9tYWUnLCAnPG91dGZpbGUubWFlPic=

> <r_epik_Ionization_Penalty>
1.6537

> <r_epik_Ionization_Penalty_Charging>
0.000221913

> <r_epik_Ionization_Penalty_Neutral>
1.65348

> <r_epik_State_Penalty>
1.75577

> <r_epik_Charging_Adjusted_Penalty>
1.75599

> <i_epik_Tot_Q>
-1

> <i_epik_Tot_abs_Q>
1

> <r_epik_Metal_State_Penalty>
1.75577

> <b_epik_Metal_Only>
0

> <s_lp_Force_Field>
OPLS_2005

> <r_lp_Energy>
35.559

> <b_lp_Chiralities_Consistent>
1

> <s_lp_Variant>
AV-unprocessed.smi:52-6

> <Gold.Version>
5.8.1

> <Gold.Id.Protein>
6NUR|6NUR_protein|mol2

> <Gold.PLP.Fitness>
41.3543

> <Gold.PLP.PLP>
-31.2982

> <Gold.PLP.part.hbond>
-3.7640

> <Gold.PLP.part.metal>
0.0000

> <Gold.PLP.part.buried>
-0.0523

> <Gold.PLP.part.nonpolar>
-27.6253

> <Gold.PLP.part.repulsive>
0.3945

> <Gold.PLP.ligand.clash>
0.0000

> <Gold.PLP.ligand.torsion>
0.5410

> <Gold.PLP.Chemscore.Hbond>
3.7120

> <Gold.PLP.Chemscore.CHOScore>
0.0000

> <Gold.PLP.Chemscore.Metal>
0.0000

> <Gold.Chemscore.Hbonds>
donor molecule, donor type, donor heavy atom, donor atom, acceptor molecule, acceptor atom, score
      P1  H  7997  8009       L1     3  1.95
      P1  H 10752 10765       L1     1  1.76

> <Gold.PLP.Chemscore.Internal.Correction>
0.0021

> <Gold.Rescore>
     Score         DG    S(hbond)    S(metal)    S(lipo)     H(rot)  DE(clash)    DE(int)     intcor
     12.33     -14.45       1.76        0.00      69.10       1.95       1.62       0.51       ----

> <Gold.Chemscore.Fitness>
12.3273

> <Gold.Chemscore.DG>
-14.4526

> <Gold.Chemscore.ZeroCoef>
-5.4800

> <Gold.Chemscore.Hbond>
1.7602

> <Gold.Chemscore.Metal>
0.0000

> <Gold.Chemscore.Lipo>
69.1012

> <Gold.Chemscore.Internal_Hbond>
0.0000

> <Gold.Chemscore.DEClash>
1.6197

> <Gold.Chemscore.DEInternal>
0.5055

> <Gold.Chemscore.Rot>
1.9497

> <Gold.Chemscore.Internal.Correction>
   9.000000E+99

> <Gold.Chemscore.Hbonds>
donor molecule, donor type, donor heavy atom, donor atom, acceptor molecule, acceptor atom, score
      P1  H  7997  8009       L1     3  0.88
      P1  H 10752 10765       L1     1  0.86

> <Gold.Chemscore.Hbond.Weighted>
-5.8790

> <Gold.Chemscore.Metal.Weighted>
-0.0000

> <Gold.Chemscore.Lipo.Weighted>
-8.0848

> <Gold.Chemscore.Internal_Hbond.Weighted>
0.0000

> <Gold.Chemscore.DEClash.Weighted>
1.6197

> <Gold.Chemscore.DEInternal.Weighted>
0.5055

> <Gold.Chemscore.Rot.Weighted>
4.9912

> <Gold.Chemscore.Internal.Correction.Weighted>
   9.000000E+99

> <Gold.Protein.RotatedTorsions>
[ 6907 6896 6895 6894 ] final   70.38 input  -60.11 | X-H torsion
[ 7974 7965 7964 7962 ] final   -8.21 input  175.53 | X-H torsion
[ 8008 7997 7996 7995 ] final -123.08 input   59.86 | X-H torsion
[ 10167 10162 10161 10158 ] final  -45.34 input  -65.29 | X-H torsion
[ 10718 10713 10712 10709 ] final   89.45 input   66.30 | X-H torsion
[ 10763 10752 10751 10750 ] final  155.48 input  -60.55 | X-H torsion
[ 11005 11000 10999 10996 ] final    5.88 input  -57.11 | X-H torsion

> <Gold.Protein.ActiveResidues>
 VAL166  LYS551  ARG553  GLY616  TRP617  ASP618  TYR619  PRO620  LYS621  CYS622 
 ASP623  PHE694  ASN695  SER759  ASP760  ASP761  ALA762  ILE779  LEU786  VAL792 
 PHE793  MET794  SER795  GLU796  ALA797  LYS798  CYS799  TRP800  GLU811  SER814 

> <Gold.Protein.RotatedAtoms>
  152.4746  134.4877  159.9685 H   0  0  0  0  0  0  0  0  0  0  0  0  # atno 6907 bound_to 6896
  151.4896  133.3522  159.2859 H   0  0  0  0  0  0  0  0  0  0  0  0  # atno 6908 bound_to 6896
  150.8776  134.8189  159.7262 H   0  0  0  0  0  0  0  0  0  0  0  0  # atno 6909 bound_to 6896
  146.2286  140.2434  142.8344 H   0  0  0  0  0  0  0  0  0  0  0  0  # atno 7974 bound_to 7965
  155.1747  140.0409  157.2870 H   0  0  0  0  0  0  0  0  0  0  0  0  # atno 8008 bound_to 7997
  154.6245  140.2509  155.7481 H   0  0  0  0  0  0  0  0  0  0  0  0  # atno 8009 bound_to 7997
  156.2452  140.2888  156.0569 H   0  0  0  0  0  0  0  0  0  0  0  0  # atno 8010 bound_to 7997
  140.6862  143.2884  151.3625 H   0  0  0  0  0  0  0  0  0  0  0  0  # atno 10167 bound_to 10162
  157.6955  131.0333  150.3427 H   0  0  0  0  0  0  0  0  0  0  0  0  # atno 10718 bound_to 10713
  154.1691  135.2805  155.3086 H   0  0  0  0  0  0  0  0  0  0  0  0  # atno 10763 bound_to 10752
  154.6089  135.5505  153.7455 H   0  0  0  0  0  0  0  0  0  0  0  0  # atno 10764 bound_to 10752
  153.0170  135.6410  154.1832 H   0  0  0  0  0  0  0  0  0  0  0  0  # atno 10765 bound_to 10752
  140.5657  134.0150  155.7989 H   0  0  0  0  0  0  0  0  0  0  0  0  # atno 11005 bound_to 11000
  144.9467  140.8136  143.5597 LP  0  0  0  0  0  0  0  0  0  0  0  0  # atno 17320 bound_to 7965
  145.2390  139.2081  143.5002 LP  0  0  0  0  0  0  0  0  0  0  0  0  # atno 17321 bound_to 7965
  139.6222  144.0884  152.2402 LP  0  0  0  0  0  0  0  0  0  0  0  0  # atno 17342 bound_to 10162
  140.0332  144.6064  150.7471 LP  0  0  0  0  0  0  0  0  0  0  0  0  # atno 17343 bound_to 10162
  156.3886  130.3893  149.7047 LP  0  0  0  0  0  0  0  0  0  0  0  0  # atno 17370 bound_to 10713
  156.4405  130.7858  151.2880 LP  0  0  0  0  0  0  0  0  0  0  0  0  # atno 17371 bound_to 10713
  141.1087  133.9651  157.2950 LP  0  0  0  0  0  0  0  0  0  0  0  0  # atno 17394 bound_to 11000
  139.9386  135.0194  156.8636 LP  0  0  0  0  0  0  0  0  0  0  0  0  # atno 17395 bound_to 11000

$$$$
