#       Name:                AV-unprocessed.smi:778
#       Creating user name   scv26
#       Creation time:       Fri Mar 27 01:12:34 2020


#       File generated by GOLD software.
#

@<TRIPOS>MOLECULE
AV-unprocessed.smi:778
    45    46     1
SMALL
NO_CHARGES


@<TRIPOS>ATOM
      1 ****        -0.9324   8.0801   0.8108 N.1            1 S1                 0.0000
      2 ****        -0.9279   6.9425   0.6000 C.1            1 S1                 0.0000
      3 ****        -0.9221   5.5104   0.3347 C.ar           1 S1                 0.0000
      4 ****        -0.0851   4.9725  -0.6666 C.ar           1 S1                 0.0000
      5 ****        -0.0546   3.6500  -0.9383 N.ar           1 S1                 0.0000
      6 ****        -0.8583   2.8727  -0.2078 C.ar           1 S1                 0.0000
      7 ****        -0.8510   1.1186  -0.5393 S.3            1 S1                 0.0000
      8 ****         0.5336   0.9307  -1.7050 C.3            1 S1                 0.0000
      9 ****         0.7631  -0.5393  -2.0655 C.3            1 S1                 0.0000
     10 ****         1.1448  -1.2362  -0.8892 O.3            1 S1                 0.0000
     11 ****         1.3700  -2.6315  -1.0534 C.3            1 S1                 0.0000
     12 ****         0.0796  -3.4409  -1.3148 C.3            1 S1                 0.0000
     13 ****        -1.0531  -3.2337  -0.2979 C.3            1 S1                 0.0000
     14 ****        -0.6845  -3.5721   1.1557 C.3            1 S1                 0.0000
     15 ****         0.2172  -2.5099   1.8015 C.3            1 S1                 0.0000
     16 ****         1.7267  -2.6760   1.5488 C.3            1 S1                 0.0000
     17 ****         2.1660  -3.1640   0.1529 C.3            1 S1                 0.0000
     18 ****        -1.6915   3.2621   0.7598 N.ar           1 S1                 0.0000
     19 ****        -1.7304   4.5830   1.0401 C.ar           1 S1                 0.0000
     20 ****        -2.6062   4.9714   2.0555 N.pl3          1 S1                 0.0000
     21 ****         0.5658   5.6025  -1.2556 H              1 S1                 0.0000
     22 ****         0.3160   1.4999  -2.6092 H              1 S1                 0.0000
     23 ****         1.4391   1.3493  -1.2645 H              1 S1                 0.0000
     24 ****        -0.1479  -0.9552  -2.4956 H              1 S1                 0.0000
     25 ****         1.5505  -0.6204  -2.8163 H              1 S1                 0.0000
     26 ****         2.0128  -2.7692  -1.9246 H              1 S1                 0.0000
     27 ****        -0.3024  -3.2032  -2.3073 H              1 S1                 0.0000
     28 ****         0.3274  -4.5020  -1.3582 H              1 S1                 0.0000
     29 ****        -1.4216  -2.2089  -0.3591 H              1 S1                 0.0000
     30 ****        -1.8917  -3.8637  -0.5959 H              1 S1                 0.0000
     31 ****        -1.6114  -3.6173   1.7282 H              1 S1                 0.0000
     32 ****        -0.2388  -4.5647   1.2301 H              1 S1                 0.0000
     33 ****        -0.1027  -1.5188   1.4776 H              1 S1                 0.0000
     34 ****         0.0570  -2.5195   2.8801 H              1 S1                 0.0000
     35 ****         2.2063  -1.7184   1.7547 H              1 S1                 0.0000
     36 ****         2.1345  -3.3665   2.2876 H              1 S1                 0.0000
     37 ****         2.1531  -4.2542   0.1331 H              1 S1                 0.0000
     38 ****         3.2145  -2.8920   0.0257 H              1 S1                 0.0000
     39 ****        -2.7010   5.9380   2.3322 H              1 S1                 0.0000
     40 ****        -3.1642   4.2938   2.5551 H              1 S1                 0.0000
     41 ****        -0.9363   9.0634   0.9929 LP             1 S1                 0.0000
     42 ****         0.5388   3.2724  -1.6492 LP             1 S1                 0.0000
     43 ****         0.4191  -1.1183  -0.2114 LP             1 S1                 0.0000
     44 ****         1.9900  -0.8252  -0.5474 LP             1 S1                 0.0000
     45 ****        -2.2610   2.6058   1.2546 LP             1 S1                 0.0000
@<TRIPOS>BOND
    1    1    2 3     
    2    2    3 1     
    3    3   19 ar    
    4    3    4 ar    
    5    4    5 ar    
    6    4   21 1     
    7    5    6 ar    
    8    6    7 1     
    9    6   18 ar    
   10    7    8 1     
   11    8    9 1     
   12    8   22 1     
   13    8   23 1     
   14    9   10 1     
   15    9   24 1     
   16    9   25 1     
   17   10   11 1     
   18   11   17 1     
   19   11   12 1     
   20   11   26 1     
   21   12   13 1     
   22   12   27 1     
   23   12   28 1     
   24   13   14 1     
   25   13   29 1     
   26   13   30 1     
   27   14   15 1     
   28   14   31 1     
   29   14   32 1     
   30   15   16 1     
   31   15   33 1     
   32   15   34 1     
   33   16   17 1     
   34   16   35 1     
   35   16   36 1     
   36   17   37 1     
   37   17   38 1     
   38   18   19 ar    
   39   19   20 1     
   40   20   39 1     
   41   20   40 1     
   42    1   41 1     
   43    5   42 1     
   44   10   43 1     
   45   10   44 1     
   46   18   45 1     
@<TRIPOS>SUBSTRUCTURE
      1 S1             1
@<TRIPOS>SET
LONE_PAIRS      STATIC     ATOMS    <user>   **** ""
5 41 42 43 44 45
DONOR_HYDROGENS      STATIC     ATOMS    <user>   **** ""
2 39 40
ATOM$BLUE        STATIC     ATOMS    COLORGROUP SYSTEM
5 41 42 43 44 45
ATOM$RED        STATIC     ATOMS    COLORGROUP SYSTEM
2 39 40
