#       Name:                AV-unprocessed.smi:2699
#       Creating user name   scv26
#       Creation time:       Fri Mar 27 14:46:25 2020


#       File generated by GOLD software.
#

@<TRIPOS>MOLECULE
AV-unprocessed.smi:2699
    49    51     1
SMALL
NO_CHARGES


@<TRIPOS>ATOM
      1 ****        -1.1669   3.0298   2.1462 C.3            1 S1                 0.0000
      2 ****        -1.5072   3.5644   0.7605 C.2            1 S1                 0.0000
      3 ****        -1.8995   4.8397   0.5858 C.2            1 S1                 0.0000
      4 ****        -2.1816   5.3273  -0.7418 C.2            1 S1                 0.0000
      5 ****        -2.5813   6.5921  -0.9220 O.3            1 S1                 0.0000
      6 ****        -2.0334   4.5065  -1.7976 C.2            1 S1                 0.0000
      7 ****        -1.6004   3.1159  -1.6430 C.2            1 S1                 0.0000
      8 ****        -1.4552   2.3786  -2.6193 O.2            1 S1                 0.0000
      9 ****        -1.3734   2.6896  -0.3582 N.am           1 S1                 0.0000
     10 ****        -0.9785   1.2770  -0.1463 C.3            1 S1                 0.0000
     11 ****         0.5415   1.0382  -0.2509 C.2            1 S1                 0.0000
     12 ****         1.3109   1.9799  -0.4362 O.2            1 S1                 0.0000
     13 ****         1.0076  -0.2141  -0.1283 N.am           1 S1                 0.0000
     14 ****         2.4049  -0.6310  -0.1985 C.3            1 S1                 0.0000
     15 ****         2.5653  -2.1523  -0.0152 C.3            1 S1                 0.0000
     16 ****         2.1278  -2.4927   1.4133 C.3            1 S1                 0.0000
     17 ****         3.0862  -2.4090   2.5745 C.3            1 S1                 0.0000
     18 ****         2.5193  -3.7514   2.1520 C.3            1 S1                 0.0000
     19 ****         1.9461  -3.0309  -1.1246 C.3            1 S1                 0.0000
     20 ****         3.2855  -3.0196  -1.8589 C.3            1 S1                 0.0000
     21 ****         3.9283  -2.6970  -0.5109 C.3            1 S1                 0.0000
     22 ****        -1.0546   3.8487   2.8571 H              1 S1                 0.0000
     23 ****        -0.2270   2.4785   2.1524 H              1 S1                 0.0000
     24 ****        -1.9635   2.3822   2.5131 H              1 S1                 0.0000
     25 ****        -1.9909   5.5037   1.4334 H              1 S1                 0.0000
     26 ****        -2.6171   7.0029  -0.0716 H              1 S1                 0.0000
     27 ****        -2.2412   4.8768  -2.7914 H              1 S1                 0.0000
     28 ****        -1.3393   0.9009   0.8095 H              1 S1                 0.0000
     29 ****        -1.4789   0.6353  -0.8732 H              1 S1                 0.0000
     30 ****         0.3299  -0.9465   0.0272 H              1 S1                 0.0000
     31 ****         2.8121  -0.3154  -1.1601 H              1 S1                 0.0000
     32 ****         2.9770  -0.1014   0.5646 H              1 S1                 0.0000
     33 ****         1.1081  -2.1772   1.6268 H              1 S1                 0.0000
     34 ****         4.1346  -2.2161   2.3564 H              1 S1                 0.0000
     35 ****         2.7147  -1.9716   3.4989 H              1 S1                 0.0000
     36 ****         1.7691  -4.2007   2.7994 H              1 S1                 0.0000
     37 ****         3.1937  -4.4590   1.6776 H              1 S1                 0.0000
     38 ****         1.6744  -4.0281  -0.7742 H              1 S1                 0.0000
     39 ****         1.1255  -2.5725  -1.6773 H              1 S1                 0.0000
     40 ****         3.5793  -3.9778  -2.2880 H              1 S1                 0.0000
     41 ****         3.3702  -2.2066  -2.5814 H              1 S1                 0.0000
     42 ****         4.7251  -1.9543  -0.5617 H              1 S1                 0.0000
     43 ****         4.2751  -3.5980  -0.0069 H              1 S1                 0.0000
     44 ****        -3.4865   6.6068  -1.3465 LP             1 S1                 0.0000
     45 ****        -1.9306   7.0756  -1.5075 LP             1 S1                 0.0000
     46 ****        -1.6338   2.7266  -3.5396 LP             1 S1                 0.0000
     47 ****        -1.1587   1.4321  -2.4914 LP             1 S1                 0.0000
     48 ****         0.9522   2.9095  -0.5202 LP             1 S1                 0.0000
     49 ****         2.2951   1.8158  -0.5027 LP             1 S1                 0.0000
@<TRIPOS>BOND
    1    1    2 1     
    2    1   22 1     
    3    1   23 1     
    4    1   24 1     
    5    2    9 1     
    6    2    3 2     
    7    3    4 1     
    8    3   25 1     
    9    4    5 1     
   10    4    6 2     
   11    5   26 1     
   12    6    7 1     
   13    6   27 1     
   14    7    8 2     
   15    7    9 am    
   16    9   10 1     
   17   10   11 1     
   18   10   28 1     
   19   10   29 1     
   20   11   12 2     
   21   11   13 am    
   22   13   14 1     
   23   13   30 1     
   24   14   15 1     
   25   14   31 1     
   26   14   32 1     
   27   15   21 1     
   28   15   16 1     
   29   15   19 1     
   30   16   18 1     
   31   16   17 1     
   32   16   33 1     
   33   17   18 1     
   34   17   34 1     
   35   17   35 1     
   36   18   36 1     
   37   18   37 1     
   38   19   20 1     
   39   19   38 1     
   40   19   39 1     
   41   20   21 1     
   42   20   40 1     
   43   20   41 1     
   44   21   42 1     
   45   21   43 1     
   46    5   44 1     
   47    5   45 1     
   48    8   46 1     
   49    8   47 1     
   50   12   48 1     
   51   12   49 1     
@<TRIPOS>SUBSTRUCTURE
      1 S1             1
@<TRIPOS>SET
LONE_PAIRS      STATIC     ATOMS    <user>   **** ""
6 44 45 46 47 48 49
DONOR_HYDROGENS      STATIC     ATOMS    <user>   **** ""
2 26 30
ATOM$BLUE        STATIC     ATOMS    COLORGROUP SYSTEM
6 44 45 46 47 48 49
ATOM$RED        STATIC     ATOMS    COLORGROUP SYSTEM
2 26 30
