AV-unprocessed.smi:13|AV-procd|sdf|72|dock2
  -GOLD-   2262015193D 1   1.00000     0.00000
 Structure written by MMmdl.
 54 58  0  0  0  0  0  0  0  0  1 V2000
  148.6883  141.2769  154.1813 C   0  0  0  0  0  0  0  0  0  0  0  0
  148.8007  140.1125  155.1648 C   0  0  0  0  0  0  0  0  0  0  0  0
  149.4574  140.6699  156.4355 C   0  0  0  0  0  0  0  0  0  0  0  0
  147.5145  139.2984  155.3874 C   0  0  0  0  0  0  0  0  0  0  0  0
  148.3581  138.1161  155.3980 N   0  0  0  0  0  0  0  0  0  0  0  0
  147.7449  136.9596  154.8445 C   0  0  0  0  0  0  0  0  0  0  0  0
  148.1793  135.7065  155.1488 N   0  0  0  0  0  0  0  0  0  0  0  0
  147.5841  134.6294  154.6286 C   0  0  0  0  0  0  0  0  0  0  0  0
  146.5519  134.5732  153.7861 N   0  0  0  0  0  0  0  0  0  0  0  0
  146.1141  135.8235  153.4646 C   0  0  0  0  0  0  0  0  0  0  0  0
  146.6485  137.0518  153.9458 C   0  0  0  0  0  0  0  0  0  0  0  0
  145.9408  138.1192  153.4091 N   0  0  0  0  0  0  0  0  0  0  0  0
  145.0371  137.5541  152.6559 C   0  0  0  0  0  0  0  0  0  0  0  0
  145.0773  136.1778  152.6180 N   0  0  0  0  0  0  0  0  0  0  0  0
  144.1889  135.2938  151.8772 C   0  0  0  0  0  0  0  0  0  0  0  0
  144.8478  134.5474  150.6882 C   0  0  2  0  0  0  0  0  0  0  0  0
  145.0029  135.4974  149.6494 O   0  0  0  0  0  0  0  0  0  0  0  0
  144.0537  133.3641  150.1329 C   0  0  0  0  0  0  0  0  0  0  0  0
  145.1422  132.4345  149.6146 C   0  0  0  0  0  0  0  0  0  0  0  0
  146.1441  132.5583  150.6082 O   0  0  0  0  0  0  0  0  0  0  0  0
  146.2331  133.9293  150.9794 C   0  0  0  0  0  0  0  0  0  0  0  0
  149.3610  138.7954  154.5849 C   0  0  2  0  0  0  0  0  0  0  0  0
  150.7711  138.2922  154.8950 C   0  0  2  0  0  0  0  0  0  0  0  0
  151.0556  138.1207  156.3890 C   0  0  0  0  0  0  0  0  0  0  0  0
  152.5412  138.4269  156.5238 C   0  0  0  0  0  0  0  0  0  0  0  0
  152.9533  138.9101  155.1325 C   0  0  0  0  0  0  0  0  0  0  0  0
  151.7303  139.2639  154.5079 O   0  0  0  0  0  0  0  0  0  0  0  0
  148.0980  142.0952  154.5947 H   0  0  0  0  0  0  0  0  0  0  0  0
  148.2070  140.9697  153.2523 H   0  0  0  0  0  0  0  0  0  0  0  0
  149.6692  141.6746  153.9196 H   0  0  0  0  0  0  0  0  0  0  0  0
  149.6147  139.8934  157.1847 H   0  0  0  0  0  0  0  0  0  0  0  0
  148.8367  141.4375  156.8985 H   0  0  0  0  0  0  0  0  0  0  0  0
  150.4284  141.1187  156.2257 H   0  0  0  0  0  0  0  0  0  0  0  0
  147.0121  139.4887  156.3361 H   0  0  0  0  0  0  0  0  0  0  0  0
  146.8249  139.3287  154.5411 H   0  0  0  0  0  0  0  0  0  0  0  0
  147.9935  133.6774  154.9319 H   0  0  0  0  0  0  0  0  0  0  0  0
  144.3090  138.1343  152.1082 H   0  0  0  0  0  0  0  0  0  0  0  0
  143.7730  134.5719  152.5817 H   0  0  0  0  0  0  0  0  0  0  0  0
  143.3451  135.8870  151.5220 H   0  0  0  0  0  0  0  0  0  0  0  0
  145.3708  135.0605  148.8966 H   0  0  0  0  0  0  0  0  0  0  0  0
  143.5169  132.8395  150.9210 H   0  0  0  0  0  0  0  0  0  0  0  0
  143.3255  133.6411  149.3695 H   0  0  0  0  0  0  0  0  0  0  0  0
  144.8036  131.4036  149.5088 H   0  0  0  0  0  0  0  0  0  0  0  0
  145.5284  132.7750  148.6525 H   0  0  0  0  0  0  0  0  0  0  0  0
  147.0223  134.4051  150.3948 H   0  0  0  0  0  0  0  0  0  0  0  0
  146.5285  134.0021  152.0242 H   0  0  0  0  0  0  0  0  0  0  0  0
  149.1348  138.7511  153.5180 H   0  0  0  0  0  0  0  0  0  0  0  0
  150.9867  137.3582  154.3720 H   0  0  0  0  0  0  0  0  0  0  0  0
  150.4798  138.8402  156.9729 H   0  0  0  0  0  0  0  0  0  0  0  0
  150.8012  137.1226  156.7458 H   0  0  0  0  0  0  0  0  0  0  0  0
  152.6987  139.2066  157.2700 H   0  0  0  0  0  0  0  0  0  0  0  0
  153.1175  137.5516  156.8250 H   0  0  0  0  0  0  0  0  0  0  0  0
  153.6443  139.7528  155.1656 H   0  0  0  0  0  0  0  0  0  0  0  0
  153.4242  138.1039  154.5680 H   0  0  0  0  0  0  0  0  0  0  0  0
  1  2  1  0  0  0  0
  1 28  1  0  0  0  0
  1 29  1  0  0  0  0
  1 30  1  0  0  0  0
  2 22  1  0  0  0  0
  2  3  1  0  0  0  0
  2  4  1  0  0  0  0
  3 31  1  0  0  0  0
  3 32  1  0  0  0  0
  3 33  1  0  0  0  0
  4  5  1  0  0  0  0
  4 34  1  0  0  0  0
  4 35  1  0  0  0  0
  5  6  1  0  0  0  0
  5 22  1  0  0  0  0
  6 11  1  0  0  0  0
  6  7  2  0  0  0  0
  7  8  1  0  0  0  0
  8  9  2  0  0  0  0
  8 36  1  0  0  0  0
  9 10  1  0  0  0  0
 10 14  1  0  0  0  0
 10 11  2  0  0  0  0
 11 12  1  0  0  0  0
 12 13  2  0  0  0  0
 13 14  1  0  0  0  0
 13 37  1  0  0  0  0
 14 15  1  0  0  0  0
 15 16  1  0  0  0  0
 15 38  1  0  0  0  0
 15 39  1  0  0  0  0
 16 21  1  0  0  0  0
 16 17  1  0  0  0  0
 16 18  1  0  0  0  0
 17 40  1  0  0  0  0
 18 19  1  0  0  0  0
 18 41  1  0  0  0  0
 18 42  1  0  0  0  0
 19 20  1  0  0  0  0
 19 43  1  0  0  0  0
 19 44  1  0  0  0  0
 20 21  1  0  0  0  0
 21 45  1  0  0  0  0
 21 46  1  0  0  0  0
 22 23  1  0  0  0  0
 22 47  1  0  0  0  0
 23 27  1  0  0  0  0
 23 24  1  0  0  0  0
 23 48  1  0  0  0  0
 24 25  1  0  0  0  0
 24 49  1  0  0  0  0
 24 50  1  0  0  0  0
 25 26  1  0  0  0  0
 25 51  1  0  0  0  0
 25 52  1  0  0  0  0
 26 27  1  0  0  0  0
 26 53  1  0  0  0  0
 26 54  1  0  0  0  0
M  END
> <s_m_source_file>
AV-unprocessed.smi

> <i_m_source_file_index>
13

> <i_lp_mmshare_version>
43012

> <i_f3d_flags>
0

> <s_epik_input>
TzFbQ0gyXVtDSDJdW0NIMl1bQ0BIXTFbQ0BASF0yTihbQ0gyXUMyKFtDSDNdKVtDSDNdKWMobltjSF1uMyljKGMzNCluW2NIXW40W0NIMl1bQ0BAXTUoW09IXSlbQ0gyXVtDSDJdT1tDSDJdNQ==

> <s_epik_cmdline>
J2VwaWtfcHl0aG9uJywgJy1waCcsICc3LjAnLCAnLXRuJywgJzgnLCAnLW1hJywgJzIwMCcsICctbWV0YWxfYmluZGluZycsICctaW1hZScsICc8aW5maWxlLm1hZT4nLCAnLW9tYWUnLCAnPG91dGZpbGUubWFlPic=

> <r_lp_tautomer_probability>
1

> <r_epik_Ionization_Penalty>
0.00202764

> <r_epik_Ionization_Penalty_Charging>
0

> <r_epik_Ionization_Penalty_Neutral>
0.00202764

> <r_epik_State_Penalty>
0.00134017

> <r_epik_Charging_Adjusted_Penalty>
0.00134017

> <i_epik_Tot_Q>
0

> <i_epik_Tot_abs_Q>
0

> <r_epik_Metal_State_Penalty>
-0

> <b_epik_Metal_Only>
0

> <s_lp_Force_Field>
OPLS_2005

> <r_lp_Energy>
64.4217

> <b_lp_Chiralities_Consistent>
1

> <s_lp_Variant>
AV-unprocessed.smi:13-4

> <Gold.Version>
5.8.1

> <Gold.Id.Protein>
6NUR|6NUR_protein|mol2

> <Gold.PLP.Fitness>
43.0645

> <Gold.PLP.PLP>
-32.8419

> <Gold.PLP.part.hbond>
-1.8300

> <Gold.PLP.part.metal>
0.0000

> <Gold.PLP.part.buried>
-2.1210

> <Gold.PLP.part.nonpolar>
-28.4481

> <Gold.PLP.part.repulsive>
0.7264

> <Gold.PLP.ligand.clash>
0.0000

> <Gold.PLP.ligand.torsion>
1.0821

> <Gold.PLP.Chemscore.Hbond>
2.0000

> <Gold.PLP.Chemscore.CHOScore>
1.9758

> <Gold.PLP.Chemscore.Metal>
0.0000

> <Gold.Chemscore.Hbonds>
donor molecule, donor type, donor heavy atom, donor atom, acceptor molecule, acceptor atom, score
      L1  H    17    40       P1  7921  0.91
      P1  H  7989  7998       L1    27  1.00
      L1  C    13    37       P1 10171  1.00
      L1  C    13    37       P1 10175  0.98

> <Gold.PLP.Chemscore.Internal.Correction>
0.4595

> <Gold.Rescore>
     Score         DG    S(hbond)    S(metal)    S(lipo)     H(rot)  DE(clash)    DE(int)     intcor
     12.54     -16.40       1.92        0.00      88.94       2.30       0.47       3.40       ----

> <Gold.Chemscore.Fitness>
12.5402

> <Gold.Chemscore.DG>
-16.4047

> <Gold.Chemscore.ZeroCoef>
-5.4800

> <Gold.Chemscore.Hbond>
1.9180

> <Gold.Chemscore.Metal>
0.0000

> <Gold.Chemscore.Lipo>
88.9368

> <Gold.Chemscore.Internal_Hbond>
0.0000

> <Gold.Chemscore.DEClash>
0.4675

> <Gold.Chemscore.DEInternal>
3.3969

> <Gold.Chemscore.Rot>
2.2996

> <Gold.Chemscore.Internal.Correction>
   9.000000E+99

> <Gold.Chemscore.Hbonds>
donor molecule, donor type, donor heavy atom, donor atom, acceptor molecule, acceptor atom, score
      L1  H    17    40       P1  7921  0.87
      P1  H  7989  7998       L1    27  0.93

> <Gold.Chemscore.Hbond.Weighted>
-6.4060

> <Gold.Chemscore.Metal.Weighted>
-0.0000

> <Gold.Chemscore.Lipo.Weighted>
-10.4056

> <Gold.Chemscore.Internal_Hbond.Weighted>
0.0000

> <Gold.Chemscore.DEClash.Weighted>
0.4675

> <Gold.Chemscore.DEInternal.Weighted>
3.3969

> <Gold.Chemscore.Rot.Weighted>
5.8869

> <Gold.Chemscore.Internal.Correction.Weighted>
   9.000000E+99

> <Gold.Protein.RotatedTorsions>
[ 6907 6896 6895 6894 ] final -149.72 input  -60.11 | X-H torsion
[ 7974 7965 7964 7962 ] final   72.33 input  175.53 | X-H torsion
[ 8008 7997 7996 7995 ] final  114.39 input   59.86 | X-H torsion
[ 10167 10162 10161 10158 ] final   28.65 input  -65.29 | X-H torsion
[ 10718 10713 10712 10709 ] final  -23.57 input   66.30 | X-H torsion
[ 10763 10752 10751 10750 ] final  -73.08 input  -60.55 | X-H torsion
[ 11005 11000 10999 10996 ] final  -83.73 input  -57.11 | X-H torsion

> <Gold.Protein.ActiveResidues>
 VAL166  LYS551  ARG553  GLY616  TRP617  ASP618  TYR619  PRO620  LYS621  CYS622 
 ASP623  PHE694  ASN695  SER759  ASP760  ASP761  ALA762  ILE779  LEU786  VAL792 
 PHE793  MET794  SER795  GLU796  ALA797  LYS798  CYS799  TRP800  GLU811  SER814 

> <Gold.Protein.RotatedAtoms>
  151.1881  133.4683  159.2594 H   0  0  0  0  0  0  0  0  0  0  0  0  # atno 6907 bound_to 6896
  151.1191  135.0069  159.8540 H   0  0  0  0  0  0  0  0  0  0  0  0  # atno 6908 bound_to 6896
  152.5455  134.1794  159.8682 H   0  0  0  0  0  0  0  0  0  0  0  0  # atno 6909 bound_to 6896
  145.7547  139.2774  143.1411 H   0  0  0  0  0  0  0  0  0  0  0  0  # atno 7974 bound_to 7965
  156.2318  140.2960  156.0208 H   0  0  0  0  0  0  0  0  0  0  0  0  # atno 8008 bound_to 7997
  155.2204  140.0415  157.2964 H   0  0  0  0  0  0  0  0  0  0  0  0  # atno 8009 bound_to 7997
  154.6009  140.2426  155.7802 H   0  0  0  0  0  0  0  0  0  0  0  0  # atno 8010 bound_to 7997
  140.4834  144.0580  150.6272 H   0  0  0  0  0  0  0  0  0  0  0  0  # atno 10167 bound_to 10162
  156.4893  130.4562  149.6765 H   0  0  0  0  0  0  0  0  0  0  0  0  # atno 10718 bound_to 10713
  154.4545  135.5909  153.6214 H   0  0  0  0  0  0  0  0  0  0  0  0  # atno 10763 bound_to 10752
  152.9817  135.6029  154.3563 H   0  0  0  0  0  0  0  0  0  0  0  0  # atno 10764 bound_to 10752
  154.3428  135.2841  155.2392 H   0  0  0  0  0  0  0  0  0  0  0  0  # atno 10765 bound_to 10752
  141.1656  133.7309  156.8764 H   0  0  0  0  0  0  0  0  0  0  0  0  # atno 11005 bound_to 11000
  146.0323  140.8246  142.9870 LP  0  0  0  0  0  0  0  0  0  0  0  0  # atno 17320 bound_to 7965
  144.6842  140.2787  143.7295 LP  0  0  0  0  0  0  0  0  0  0  0  0  # atno 17321 bound_to 7965
  140.3829  143.2793  152.0150 LP  0  0  0  0  0  0  0  0  0  0  0  0  # atno 17342 bound_to 10162
  139.4837  144.6140  151.7380 LP  0  0  0  0  0  0  0  0  0  0  0  0  # atno 17343 bound_to 10162
  156.3443  130.7398  151.2348 LP  0  0  0  0  0  0  0  0  0  0  0  0  # atno 17370 bound_to 10713
  157.7475  131.0395  150.4552 LP  0  0  0  0  0  0  0  0  0  0  0  0  # atno 17371 bound_to 10713
  140.1746  134.9076  157.2875 LP  0  0  0  0  0  0  0  0  0  0  0  0  # atno 17394 bound_to 11000
  140.2464  134.3735  155.7460 LP  0  0  0  0  0  0  0  0  0  0  0  0  # atno 17395 bound_to 11000

$$$$
