AV-unprocessed.smi:1588|AV-procd|sdf|6392|dock2
  -GOLD-   22720 7 23D 1   1.00000     0.00000
 Structure written by MMmdl.
 37 38  0  0  0  0  0  0  0  0  2 V2000
  151.2898  139.0077  154.6465 C   0  0  0  0  0  0  0  0  0  0  0  0
  150.2596  140.0938  154.9843 C   0  0  0  0  0  0  0  0  0  0  0  0
  149.2210  140.2268  153.9355 N   0  3  2  0  0  0  0  0  0  0  0  0
  148.2553  141.3272  154.1695 C   0  0  0  0  0  0  0  0  0  0  0  0
  146.8563  140.7478  153.9318 C   0  0  0  0  0  0  0  0  0  0  0  0
  147.1036  139.4837  153.1081 C   0  0  2  0  0  0  0  0  0  0  0  0
  145.9853  138.4257  153.1738 C   0  0  0  0  0  0  0  0  0  0  0  0
  146.3519  137.1977  152.4747 N   0  0  0  0  0  0  0  0  0  0  0  0
  145.4908  136.2870  151.9983 C   0  0  0  0  0  0  0  0  0  0  0  0
  144.2678  136.3910  152.0936 O   0  0  0  0  0  0  0  0  0  0  0  0
  146.1354  135.2674  151.4080 N   0  0  0  0  0  0  0  0  0  0  0  0
  145.5609  134.1319  150.7828 C   0  0  0  0  0  0  0  0  0  0  0  0
  146.2659  132.9386  150.4676 C   0  0  0  0  0  0  0  0  0  0  0  0
  145.4737  132.0470  149.8895 N   0  0  0  0  0  0  0  0  0  0  0  0
  144.2696  132.6597  149.8328 N   0  0  0  0  0  0  0  0  0  0  0  0
  144.2754  133.9306  150.3639 C   0  0  0  0  0  0  0  0  0  0  0  0
  148.4398  138.9989  153.6701 C   0  0  0  0  0  0  0  0  0  0  0  0
  143.4620  132.2022  149.4342 H   0  0  0  0  0  0  0  0  0  0  0  0
  152.0697  138.9673  155.4070 H   0  0  0  0  0  0  0  0  0  0  0  0
  151.7720  139.2058  153.6888 H   0  0  0  0  0  0  0  0  0  0  0  0
  150.8325  138.0194  154.5951 H   0  0  0  0  0  0  0  0  0  0  0  0
  149.7924  139.8896  155.9488 H   0  0  0  0  0  0  0  0  0  0  0  0
  150.7797  141.0476  155.0832 H   0  0  0  0  0  0  0  0  0  0  0  0
  148.3337  141.7453  155.1743 H   0  0  0  0  0  0  0  0  0  0  0  0
  148.4686  142.1286  153.4616 H   0  0  0  0  0  0  0  0  0  0  0  0
  146.4066  140.4847  154.8905 H   0  0  0  0  0  0  0  0  0  0  0  0
  146.1891  141.4532  153.4355 H   0  0  0  0  0  0  0  0  0  0  0  0
  147.2579  139.7752  152.0675 H   0  0  0  0  0  0  0  0  0  0  0  0
  145.7927  138.1662  154.2151 H   0  0  0  0  0  0  0  0  0  0  0  0
  145.0490  138.8290  152.7840 H   0  0  0  0  0  0  0  0  0  0  0  0
  147.3389  137.0247  152.3501 H   0  0  0  0  0  0  0  0  0  0  0  0
  147.1441  135.3070  151.4027 H   0  0  0  0  0  0  0  0  0  0  0  0
  147.3045  132.6943  150.6359 H   0  0  0  0  0  0  0  0  0  0  0  0
  143.3906  134.5493  150.3924 H   0  0  0  0  0  0  0  0  0  0  0  0
  148.9616  138.3326  152.9824 H   0  0  0  0  0  0  0  0  0  0  0  0
  148.2753  138.4575  154.6036 H   0  0  0  0  0  0  0  0  0  0  0  0
  149.6948  140.4577  153.0737 H   0  0  0  0  0  0  0  0  0  0  0  0
  1  2  1  0  0  0  0
  1 19  1  0  0  0  0
  1 20  1  0  0  0  0
  1 21  1  0  0  0  0
  2  3  1  0  0  0  0
  2 22  1  0  0  0  0
  2 23  1  0  0  0  0
  3 17  1  0  0  0  0
  3  4  1  0  0  0  0
  3 37  1  0  0  0  0
  4  5  1  0  0  0  0
  4 24  1  0  0  0  0
  4 25  1  0  0  0  0
  5  6  1  0  0  0  0
  5 26  1  0  0  0  0
  5 27  1  0  0  0  0
  6  7  1  0  0  0  0
  6 17  1  0  0  0  0
  6 28  1  0  0  0  0
  7  8  1  0  0  0  0
  7 29  1  0  0  0  0
  7 30  1  0  0  0  0
  8  9  1  0  0  0  0
  8 31  1  0  0  0  0
  9 10  2  0  0  0  0
  9 11  1  0  0  0  0
 11 12  1  0  0  0  0
 11 32  1  0  0  0  0
 12 16  2  0  0  0  0
 12 13  1  0  0  0  0
 13 14  2  0  0  0  0
 13 33  1  0  0  0  0
 14 15  1  0  0  0  0
 15 18  1  0  0  0  0
 15 16  1  0  0  0  0
 16 34  1  0  0  0  0
 17 35  1  0  0  0  0
 17 36  1  0  0  0  0
M  CHG  1   3   1
M  END
> <s_m_source_file>
AV-unprocessed.smi

> <i_m_source_file_index>
1588

> <i_lp_mmshare_version>
43012

> <i_f3d_flags>
0

> <s_epik_input>
W0NIM11bQ0gyXU4xW0NIMl1bQ0gyXVtDQEhdKFtDSDJdMSlbQ0gyXVtOSF1DKD1PKVtOSF1jMltjSF1uW25IXVtjSF0y

> <s_epik_cmdline>
J2VwaWtfcHl0aG9uJywgJy1waCcsICc3LjAnLCAnLXRuJywgJzgnLCAnLW1hJywgJzIwMCcsICctbWV0YWxfYmluZGluZycsICctaW1hZScsICc8aW5maWxlLm1hZT4nLCAnLW9tYWUnLCAnPG91dGZpbGUubWFlPic=

> <r_lp_tautomer_probability>
0.5

> <r_epik_Ionization_Penalty>
0.000628417

> <r_epik_Ionization_Penalty_Charging>
0.000582718

> <r_epik_Ionization_Penalty_Neutral>
4.56984e-05

> <r_epik_State_Penalty>
0.000366292

> <r_epik_Charging_Adjusted_Penalty>
0.00094901

> <i_epik_Tot_Q>
1

> <i_epik_Tot_abs_Q>
1

> <r_epik_Metal_State_Penalty>
-0

> <b_epik_Metal_Only>
0

> <s_lp_Force_Field>
OPLS_2005

> <r_lp_Energy>
30.9502

> <b_lp_Chiralities_Consistent>
1

> <s_lp_Variant>
AV-unprocessed.smi:1588-4

> <Gold.Version>
5.8.1

> <Gold.Id.Protein>
6NUR|6NUR_protein|mol2

> <Gold.PLP.Fitness>
42.5443

> <Gold.PLP.PLP>
-28.6370

> <Gold.PLP.part.hbond>
-3.0000

> <Gold.PLP.part.metal>
0.0000

> <Gold.PLP.part.buried>
-2.3811

> <Gold.PLP.part.nonpolar>
-24.0301

> <Gold.PLP.part.repulsive>
0.6878

> <Gold.PLP.ligand.clash>
0.0000

> <Gold.PLP.ligand.torsion>
0.2292

> <Gold.PLP.Chemscore.Hbond>
2.8000

> <Gold.PLP.Chemscore.CHOScore>
1.9848

> <Gold.PLP.Chemscore.Metal>
0.0000

> <Gold.Chemscore.Hbonds>
donor molecule, donor type, donor heavy atom, donor atom, acceptor molecule, acceptor atom, score
      L1  H     3    37       P1  7957  0.82
      L1  H     8    31       P1  7948  1.00
      L1  H    11    32       P1  7948  0.99
      L1  C    13    33       P1 10747  1.00
      L1  C    16    34       P1 10186  1.00

> <Gold.PLP.Chemscore.Internal.Correction>
0.0113

> <Gold.Rescore>
     Score         DG    S(hbond)    S(metal)    S(lipo)     H(rot)  DE(clash)    DE(int)     intcor
     16.90     -18.29       2.66        0.00      67.97       1.58       0.27       1.13       ----

> <Gold.Chemscore.Fitness>
16.9001

> <Gold.Chemscore.DG>
-18.2933

> <Gold.Chemscore.ZeroCoef>
-5.4800

> <Gold.Chemscore.Hbond>
2.6627

> <Gold.Chemscore.Metal>
0.0000

> <Gold.Chemscore.Lipo>
67.9699

> <Gold.Chemscore.Internal_Hbond>
0.0000

> <Gold.Chemscore.DEClash>
0.2660

> <Gold.Chemscore.DEInternal>
1.1272

> <Gold.Chemscore.Rot>
1.5753

> <Gold.Chemscore.Internal.Correction>
   9.000000E+99

> <Gold.Chemscore.Hbonds>
donor molecule, donor type, donor heavy atom, donor atom, acceptor molecule, acceptor atom, score
      L1  H     3    37       P1  7957  0.78
      L1  H     8    31       P1  7948  1.00
      L1  H    11    32       P1  7948  0.82

> <Gold.Chemscore.Hbond.Weighted>
-8.8936

> <Gold.Chemscore.Metal.Weighted>
-0.0000

> <Gold.Chemscore.Lipo.Weighted>
-7.9525

> <Gold.Chemscore.Internal_Hbond.Weighted>
0.0000

> <Gold.Chemscore.DEClash.Weighted>
0.2660

> <Gold.Chemscore.DEInternal.Weighted>
1.1272

> <Gold.Chemscore.Rot.Weighted>
4.0328

> <Gold.Chemscore.Internal.Correction.Weighted>
   9.000000E+99

> <Gold.Protein.RotatedTorsions>
[ 6907 6896 6895 6894 ] final  139.51 input  -60.11 | X-H torsion
[ 7974 7965 7964 7962 ] final  144.46 input  175.53 | X-H torsion
[ 8008 7997 7996 7995 ] final -116.48 input   59.86 | X-H torsion
[ 10167 10162 10161 10158 ] final   76.07 input  -65.29 | X-H torsion
[ 10718 10713 10712 10709 ] final -111.33 input   66.30 | X-H torsion
[ 10763 10752 10751 10750 ] final  -80.67 input  -60.55 | X-H torsion
[ 11005 11000 10999 10996 ] final  -84.36 input  -57.11 | X-H torsion

> <Gold.Protein.ActiveResidues>
 VAL166  LYS551  ARG553  GLY616  TRP617  ASP618  TYR619  PRO620  LYS621  CYS622 
 ASP623  PHE694  ASN695  SER759  ASP760  ASP761  ALA762  ILE779  LEU786  VAL792 
 PHE793  MET794  SER795  GLU796  ALA797  LYS798  CYS799  TRP800  GLU811  SER814 

> <Gold.Protein.RotatedAtoms>
  152.2540  133.5240  159.5342 H   0  0  0  0  0  0  0  0  0  0  0  0  # atno 6907 bound_to 6896
  150.7103  134.0920  159.3944 H   0  0  0  0  0  0  0  0  0  0  0  0  # atno 6908 bound_to 6896
  151.8840  135.0442  160.0542 H   0  0  0  0  0  0  0  0  0  0  0  0  # atno 6909 bound_to 6896
  144.8834  139.5665  143.5832 H   0  0  0  0  0  0  0  0  0  0  0  0  # atno 7974 bound_to 7965
  155.0685  140.0393  157.2600 H   0  0  0  0  0  0  0  0  0  0  0  0  # atno 8008 bound_to 7997
  154.7002  140.2671  155.6702 H   0  0  0  0  0  0  0  0  0  0  0  0  # atno 8009 bound_to 7997
  156.2758  140.2742  156.1610 H   0  0  0  0  0  0  0  0  0  0  0  0  # atno 8010 bound_to 7997
  139.9961  144.5721  150.7776 H   0  0  0  0  0  0  0  0  0  0  0  0  # atno 10167 bound_to 10162
  156.0641  130.5862  150.8359 H   0  0  0  0  0  0  0  0  0  0  0  0  # atno 10718 bound_to 10713
  154.5541  135.5653  153.6948 H   0  0  0  0  0  0  0  0  0  0  0  0  # atno 10763 bound_to 10752
  152.9998  135.6258  154.2334 H   0  0  0  0  0  0  0  0  0  0  0  0  # atno 10764 bound_to 10752
  154.2270  135.2867  155.2884 H   0  0  0  0  0  0  0  0  0  0  0  0  # atno 10765 bound_to 10752
  141.1651  133.7342  156.8856 H   0  0  0  0  0  0  0  0  0  0  0  0  # atno 11005 bound_to 11000
  146.3009  139.7423  142.9092 LP  0  0  0  0  0  0  0  0  0  0  0  0  # atno 17320 bound_to 7965
  145.3913  141.0373  143.3122 LP  0  0  0  0  0  0  0  0  0  0  0  0  # atno 17321 bound_to 7965
  140.7436  143.2849  151.3492 LP  0  0  0  0  0  0  0  0  0  0  0  0  # atno 17342 bound_to 10162
  139.6305  144.0731  152.2472 LP  0  0  0  0  0  0  0  0  0  0  0  0  # atno 17343 bound_to 10162
  157.5670  131.0946  150.9474 LP  0  0  0  0  0  0  0  0  0  0  0  0  # atno 17370 bound_to 10713
  156.9699  130.5487  149.5290 LP  0  0  0  0  0  0  0  0  0  0  0  0  # atno 17371 bound_to 10713
  140.1684  134.9117  157.2803 LP  0  0  0  0  0  0  0  0  0  0  0  0  # atno 17394 bound_to 11000
  140.2530  134.3661  155.7435 LP  0  0  0  0  0  0  0  0  0  0  0  0  # atno 17395 bound_to 11000

$$$$
