AV-unprocessed.smi:686|AV-procd|sdf|3349|dock8
  -GOLD-   22720 0323D 1   1.00000     0.00000
 Structure written by MMmdl.
 40 41  0  0  0  0  0  0  0  0  3 V2000
  150.7639  136.3251  154.8346 C   0  0  0  0  0  0  0  0  0  0  0  0
  150.1245  135.1304  155.5837 C   0  0  2  0  0  0  0  0  0  0  0  0
  149.7226  134.0236  154.6008 C   0  0  0  0  0  0  0  0  0  0  0  0
  148.3626  134.3823  154.1317 N   0  3  1  0  0  0  0  0  0  0  0  0
  147.5383  133.2559  153.6076 C   0  0  0  0  0  0  0  0  0  0  0  0
  148.4140  132.1196  153.0443 C   0  0  0  0  0  0  0  0  0  0  0  0
  146.5684  133.7424  152.5143 C   0  0  0  0  0  0  0  0  0  0  0  0
  147.7260  135.1983  155.1986 C   0  0  0  0  0  0  0  0  0  0  0  0
  148.7823  135.4077  156.2927 C   0  0  2  0  0  0  0  0  0  0  0  0
  148.6912  136.7313  156.9003 N   0  5  0  0  0  0  0  0  0  0  0  0
  148.8828  136.9522  158.5021 S   0  0  0  0  0  0  0  0  0  0  0  0
  150.2111  136.5593  159.0020 O   0  0  0  0  0  0  0  0  0  0  0  0
  148.3948  138.2783  158.9095 O   0  0  0  0  0  0  0  0  0  0  0  0
  147.6743  135.7444  159.2145 C   0  0  0  0  0  0  0  0  0  0  0  0
  147.6122  135.9032  160.7074 C   0  0  0  0  0  0  0  0  0  0  0  0
  147.7337  134.9018  161.7105 C   0  0  0  0  0  0  0  0  0  0  0  0
  147.6046  135.6001  162.8760 C   0  0  0  0  0  0  0  0  0  0  0  0
  147.4283  136.9211  162.6215 O   0  0  0  0  0  0  0  0  0  0  0  0
  147.4379  137.1054  161.2343 N   0  0  0  0  0  0  0  0  0  0  0  0
  150.0914  136.7693  154.0984 H   0  0  0  0  0  0  0  0  0  0  0  0
  151.6584  136.0043  154.3000 H   0  0  0  0  0  0  0  0  0  0  0  0
  151.0793  137.1146  155.5189 H   0  0  0  0  0  0  0  0  0  0  0  0
  150.8565  134.7475  156.2958 H   0  0  0  0  0  0  0  0  0  0  0  0
  150.4198  133.9373  153.7663 H   0  0  0  0  0  0  0  0  0  0  0  0
  149.7029  133.0518  155.1026 H   0  0  0  0  0  0  0  0  0  0  0  0
  146.9522  132.8523  154.4347 H   0  0  0  0  0  0  0  0  0  0  0  0
  147.7980  131.3263  152.6192 H   0  0  0  0  0  0  0  0  0  0  0  0
  149.0322  131.6570  153.8137 H   0  0  0  0  0  0  0  0  0  0  0  0
  149.0744  132.4817  152.2557 H   0  0  0  0  0  0  0  0  0  0  0  0
  145.9798  132.9139  152.1193 H   0  0  0  0  0  0  0  0  0  0  0  0
  147.1075  134.1904  151.6788 H   0  0  0  0  0  0  0  0  0  0  0  0
  145.8608  134.4824  152.8875 H   0  0  0  0  0  0  0  0  0  0  0  0
  147.4038  136.1413  154.7543 H   0  0  0  0  0  0  0  0  0  0  0  0
  146.8450  134.7161  155.6241 H   0  0  0  0  0  0  0  0  0  0  0  0
  148.6349  134.6195  157.0325 H   0  0  0  0  0  0  0  0  0  0  0  0
  146.6995  135.9303  158.7643 H   0  0  0  0  0  0  0  0  0  0  0  0
  147.9797  134.7344  158.9427 H   0  0  0  0  0  0  0  0  0  0  0  0
  147.8834  133.8392  161.5909 H   0  0  0  0  0  0  0  0  0  0  0  0
  147.6173  135.3145  163.9174 H   0  0  0  0  0  0  0  0  0  0  0  0
  148.5065  135.0191  153.3612 H   0  0  0  0  0  0  0  0  0  0  0  0
  1  2  1  0  0  0  0
  1 20  1  0  0  0  0
  1 21  1  0  0  0  0
  1 22  1  0  0  0  0
  2  9  1  0  0  0  0
  2  3  1  0  0  0  0
  2 23  1  0  0  0  0
  3  4  1  0  0  0  0
  3 24  1  0  0  0  0
  3 25  1  0  0  0  0
  4  5  1  0  0  0  0
  4  8  1  0  0  0  0
  4 40  1  0  0  0  0
  5  6  1  0  0  0  0
  5  7  1  0  0  0  0
  5 26  1  0  0  0  0
  6 27  1  0  0  0  0
  6 28  1  0  0  0  0
  6 29  1  0  0  0  0
  7 30  1  0  0  0  0
  7 31  1  0  0  0  0
  7 32  1  0  0  0  0
  8  9  1  0  0  0  0
  8 33  1  0  0  0  0
  8 34  1  0  0  0  0
  9 10  1  0  0  0  0
  9 35  1  0  0  0  0
 10 11  1  0  0  0  0
 11 12  2  0  0  0  0
 11 13  2  0  0  0  0
 11 14  1  0  0  0  0
 14 15  1  0  0  0  0
 14 36  1  0  0  0  0
 14 37  1  0  0  0  0
 15 19  2  0  0  0  0
 15 16  1  0  0  0  0
 16 17  2  0  0  0  0
 16 38  1  0  0  0  0
 17 18  1  0  0  0  0
 17 39  1  0  0  0  0
 18 19  1  0  0  0  0
M  CHG  1   4   1
M  CHG  1  10  -1
M  END
> <s_m_source_file>
AV-unprocessed.smi

> <i_m_source_file_index>
686

> <i_lp_mmshare_version>
43012

> <i_f3d_flags>
0

> <s_epik_input>
W0NIM11bQ0BASF0xW0NIMl1OKFtDSF0oW0NIM10pW0NIM10pW0NIMl1bQ0BIXTFbTkhdUyg9TykoPU8pW0NIMl1jMltjSF1bY0hdb24y

> <s_epik_cmdline>
J2VwaWtfcHl0aG9uJywgJy1waCcsICc3LjAnLCAnLXRuJywgJzgnLCAnLW1hJywgJzIwMCcsICctbWV0YWxfYmluZGluZycsICctaW1hZScsICc8aW5maWxlLm1hZT4nLCAnLW9tYWUnLCAnPG91dGZpbGUubWFlPic=

> <r_epik_Ionization_Penalty>
3.62478

> <r_epik_Ionization_Penalty_Charging>
3.62478

> <r_epik_Ionization_Penalty_Neutral>
2.03645e-10

> <r_epik_State_Penalty>
3.6247

> <r_epik_Charging_Adjusted_Penalty>
7.24949

> <i_epik_Tot_Q>
0

> <i_epik_Tot_abs_Q>
2

> <r_epik_Metal_State_Penalty>
0.530836

> <b_epik_Metal_Only>
1

> <s_lp_Force_Field>
OPLS_2005

> <r_lp_Energy>
21.5589

> <b_lp_Chiralities_Consistent>
1

> <s_lp_Variant>
AV-unprocessed.smi:686-13

> <Gold.Version>
5.8.1

> <Gold.Id.Protein>
6NUR|6NUR_protein|mol2

> <Gold.PLP.Fitness>
40.3532

> <Gold.PLP.PLP>
-30.6037

> <Gold.PLP.part.hbond>
-6.0790

> <Gold.PLP.part.metal>
0.0000

> <Gold.PLP.part.buried>
-3.6184

> <Gold.PLP.part.nonpolar>
-21.7081

> <Gold.PLP.part.repulsive>
0.0000

> <Gold.PLP.ligand.clash>
0.0000

> <Gold.PLP.ligand.torsion>
1.6270

> <Gold.PLP.Chemscore.Hbond>
3.9920

> <Gold.PLP.Chemscore.CHOScore>
0.0000

> <Gold.PLP.Chemscore.Metal>
0.0000

> <Gold.Chemscore.Hbonds>
donor molecule, donor type, donor heavy atom, donor atom, acceptor molecule, acceptor atom, score
      L1  H     4    40       P1  7948  2.00
      P1  H  6896  6909       L1    12  1.00
      P1  H  6934  6947       L1    19  0.98

> <Gold.PLP.Chemscore.Internal.Correction>
1.0274

> <Gold.Rescore>
     Score         DG    S(hbond)    S(metal)    S(lipo)     H(rot)  DE(clash)    DE(int)     intcor
     14.97     -17.91       2.73        0.00      63.58       1.61       0.08       2.86       ----

> <Gold.Chemscore.Fitness>
14.9652

> <Gold.Chemscore.DG>
-17.9131

> <Gold.Chemscore.ZeroCoef>
-5.4800

> <Gold.Chemscore.Hbond>
2.7329

> <Gold.Chemscore.Metal>
0.0000

> <Gold.Chemscore.Lipo>
63.5830

> <Gold.Chemscore.Internal_Hbond>
0.0000

> <Gold.Chemscore.DEClash>
0.0846

> <Gold.Chemscore.DEInternal>
2.8632

> <Gold.Chemscore.Rot>
1.6149

> <Gold.Chemscore.Internal.Correction>
   9.000000E+99

> <Gold.Chemscore.Hbonds>
donor molecule, donor type, donor heavy atom, donor atom, acceptor molecule, acceptor atom, score
      L1  H     4    40       P1  7948  0.81
      P1  H  6896  6909       L1    12  0.99
      P1  H  6934  6947       L1    19  0.51

> <Gold.Chemscore.Hbond.Weighted>
-9.1280

> <Gold.Chemscore.Metal.Weighted>
-0.0000

> <Gold.Chemscore.Lipo.Weighted>
-7.4392

> <Gold.Chemscore.Internal_Hbond.Weighted>
0.0000

> <Gold.Chemscore.DEClash.Weighted>
0.0846

> <Gold.Chemscore.DEInternal.Weighted>
2.8632

> <Gold.Chemscore.Rot.Weighted>
4.1341

> <Gold.Chemscore.Internal.Correction.Weighted>
   9.000000E+99

> <Gold.Protein.RotatedTorsions>
[ 6907 6896 6895 6894 ] final   91.74 input  -60.11 | X-H torsion
[ 7974 7965 7964 7962 ] final  161.95 input  175.53 | X-H torsion
[ 8008 7997 7996 7995 ] final   71.61 input   59.86 | X-H torsion
[ 10167 10162 10161 10158 ] final  -45.70 input  -65.29 | X-H torsion
[ 10718 10713 10712 10709 ] final  -29.48 input   66.30 | X-H torsion
[ 10763 10752 10751 10750 ] final  141.35 input  -60.55 | X-H torsion
[ 11005 11000 10999 10996 ] final  -65.12 input  -57.11 | X-H torsion

> <Gold.Protein.ActiveResidues>
 VAL166  LYS551  ARG553  GLY616  TRP617  ASP618  TYR619  PRO620  LYS621  CYS622 
 ASP623  PHE694  ASN695  SER759  ASP760  ASP761  ALA762  ILE779  LEU786  VAL792 
 PHE793  MET794  SER795  GLU796  ALA797  LYS798  CYS799  TRP800  GLU811  SER814 

> <Gold.Protein.RotatedAtoms>
  152.5451  134.1610  159.8557 H   0  0  0  0  0  0  0  0  0  0  0  0  # atno 6907 bound_to 6896
  151.1629  133.4827  159.2601 H   0  0  0  0  0  0  0  0  0  0  0  0  # atno 6908 bound_to 6896
  151.1355  135.0163  159.8657 H   0  0  0  0  0  0  0  0  0  0  0  0  # atno 6909 bound_to 6896
  144.7660  139.7971  143.6315 H   0  0  0  0  0  0  0  0  0  0  0  0  # atno 7974 bound_to 7965
  155.7565  140.3487  155.5176 H   0  0  0  0  0  0  0  0  0  0  0  0  # atno 8008 bound_to 7997
  155.8955  140.1025  157.1409 H   0  0  0  0  0  0  0  0  0  0  0  0  # atno 8009 bound_to 7997
  154.4038  140.1296  156.4356 H   0  0  0  0  0  0  0  0  0  0  0  0  # atno 8010 bound_to 7997
  140.6847  143.2867  151.3676 H   0  0  0  0  0  0  0  0  0  0  0  0  # atno 10167 bound_to 10162
  156.4119  130.4410  149.7246 H   0  0  0  0  0  0  0  0  0  0  0  0  # atno 10718 bound_to 10713
  153.9378  135.2983  155.3444 H   0  0  0  0  0  0  0  0  0  0  0  0  # atno 10763 bound_to 10752
  154.7493  135.4988  153.9263 H   0  0  0  0  0  0  0  0  0  0  0  0  # atno 10764 bound_to 10752
  153.1058  135.6746  153.9695 H   0  0  0  0  0  0  0  0  0  0  0  0  # atno 10765 bound_to 10752
  141.1445  133.6676  156.5937 H   0  0  0  0  0  0  0  0  0  0  0  0  # atno 11005 bound_to 11000
  146.1768  139.4942  142.9892 LP  0  0  0  0  0  0  0  0  0  0  0  0  # atno 17320 bound_to 7965
  145.6468  141.0272  143.1782 LP  0  0  0  0  0  0  0  0  0  0  0  0  # atno 17321 bound_to 7965
  139.6197  144.0932  152.2379 LP  0  0  0  0  0  0  0  0  0  0  0  0  # atno 17342 bound_to 10162
  140.0372  144.6035  150.7440 LP  0  0  0  0  0  0  0  0  0  0  0  0  # atno 17343 bound_to 10162
  156.4221  130.7774  151.2791 LP  0  0  0  0  0  0  0  0  0  0  0  0  # atno 17370 bound_to 10713
  157.7507  131.0179  150.3606 LP  0  0  0  0  0  0  0  0  0  0  0  0  # atno 17371 bound_to 10713
  140.3743  134.7579  157.4619 LP  0  0  0  0  0  0  0  0  0  0  0  0  # atno 17394 bound_to 11000
  140.0687  134.5893  155.8666 LP  0  0  0  0  0  0  0  0  0  0  0  0  # atno 17395 bound_to 11000

$$$$
