AV-unprocessed.smi:1096|AV-procd|sdf|4750|dock2
  -GOLD-   22720 3283D 1   1.00000     0.00000
 Structure written by MMmdl.
 48 50  0  0  0  0  0  0  0  0  1 V2000
  144.6381  136.5449  152.7491 O   0  0  0  0  0  0  0  0  0  0  0  0
  145.8381  136.3610  152.5418 C   0  0  0  0  0  0  0  0  0  0  0  0
  146.3606  135.3201  151.8695 N   0  0  0  0  0  0  0  0  0  0  0  0
  145.6744  134.2486  151.2371 C   0  0  0  0  0  0  0  0  0  0  0  0
  146.5053  133.2960  150.6046 C   0  0  0  0  0  0  0  0  0  0  0  0
  145.9219  132.1968  149.9450 C   0  0  0  0  0  0  0  0  0  0  0  0
  144.5207  132.0784  149.9337 C   0  0  0  0  0  0  0  0  0  0  0  0
  143.7665  133.0707  150.5868 C   0  0  0  0  0  0  0  0  0  0  0  0
  144.3234  134.1246  151.2198 N   0  0  0  0  0  0  0  0  0  0  0  0
  146.7990  137.1916  152.9737 N   0  0  0  0  0  0  0  0  0  0  0  0
  146.5747  138.4148  153.7388 C   0  0  2  0  0  0  0  0  0  0  0  0
  147.0413  139.6316  152.9217 C   0  0  0  0  0  0  0  0  0  0  0  0
  146.8251  140.9386  153.7040 C   0  0  0  0  0  0  0  0  0  0  0  0
  147.5337  140.9444  155.0782 C   0  0  2  0  0  0  0  0  0  0  0  0
  149.0588  141.1805  154.9426 C   0  0  0  0  0  0  0  0  0  0  0  0
  149.5468  141.2572  153.8145 O   0  0  0  0  0  0  0  0  0  0  0  0
  149.8334  141.2617  156.0552 N   0  0  0  0  0  0  0  0  0  0  0  0
  151.3004  141.2739  155.9882 C   0  0  0  0  0  0  0  0  0  0  0  0
  151.8259  139.8665  156.3203 C   0  0  0  0  0  0  0  0  0  0  0  0
  151.3691  139.3764  158.0140 S   0  0  0  0  0  0  0  0  0  0  0  0
  149.5927  139.7745  157.9836 C   0  0  0  0  0  0  0  0  0  0  0  0
  149.3608  141.1952  157.4438 C   0  0  0  0  0  0  0  0  0  0  0  0
  147.1688  139.6689  155.8810 C   0  0  0  0  0  0  0  0  0  0  0  0
  147.3122  138.3530  155.0894 C   0  0  0  0  0  0  0  0  0  0  0  0
  147.3666  135.2953  151.7936 H   0  0  0  0  0  0  0  0  0  0  0  0
  147.5804  133.4028  150.6223 H   0  0  0  0  0  0  0  0  0  0  0  0
  146.5396  131.4583  149.4557 H   0  0  0  0  0  0  0  0  0  0  0  0
  144.0365  131.2502  149.4376 H   0  0  0  0  0  0  0  0  0  0  0  0
  142.6879  133.0183  150.6005 H   0  0  0  0  0  0  0  0  0  0  0  0
  147.7581  136.9613  152.7592 H   0  0  0  0  0  0  0  0  0  0  0  0
  145.5050  138.5268  153.9264 H   0  0  0  0  0  0  0  0  0  0  0  0
  148.0946  139.5256  152.6579 H   0  0  0  0  0  0  0  0  0  0  0  0
  146.4929  139.6784  151.9802 H   0  0  0  0  0  0  0  0  0  0  0  0
  147.1582  141.7820  153.0977 H   0  0  0  0  0  0  0  0  0  0  0  0
  145.7556  141.0884  153.8562 H   0  0  0  0  0  0  0  0  0  0  0  0
  147.1251  141.7618  155.6702 H   0  0  0  0  0  0  0  0  0  0  0  0
  151.6694  141.5836  155.0097 H   0  0  0  0  0  0  0  0  0  0  0  0
  151.7063  142.0032  156.6907 H   0  0  0  0  0  0  0  0  0  0  0  0
  151.4228  139.1356  155.6182 H   0  0  0  0  0  0  0  0  0  0  0  0
  152.9114  139.8336  156.2271 H   0  0  0  0  0  0  0  0  0  0  0  0
  149.0733  139.0400  157.3667 H   0  0  0  0  0  0  0  0  0  0  0  0
  149.1961  139.6813  158.9945 H   0  0  0  0  0  0  0  0  0  0  0  0
  149.9058  141.9148  158.0565 H   0  0  0  0  0  0  0  0  0  0  0  0
  148.3163  141.4833  157.5520 H   0  0  0  0  0  0  0  0  0  0  0  0
  147.7649  139.6136  156.7930 H   0  0  0  0  0  0  0  0  0  0  0  0
  146.1338  139.7568  156.2139 H   0  0  0  0  0  0  0  0  0  0  0  0
  146.9199  137.5309  155.6894 H   0  0  0  0  0  0  0  0  0  0  0  0
  148.3642  138.1218  154.9246 H   0  0  0  0  0  0  0  0  0  0  0  0
  1  2  2  0  0  0  0
  2  3  1  0  0  0  0
  2 10  1  0  0  0  0
  3  4  1  0  0  0  0
  3 25  1  0  0  0  0
  4  9  1  0  0  0  0
  4  5  2  0  0  0  0
  5  6  1  0  0  0  0
  5 26  1  0  0  0  0
  6  7  2  0  0  0  0
  6 27  1  0  0  0  0
  7  8  1  0  0  0  0
  7 28  1  0  0  0  0
  8  9  2  0  0  0  0
  8 29  1  0  0  0  0
 10 11  1  0  0  0  0
 10 30  1  0  0  0  0
 11 24  1  0  0  0  0
 11 12  1  0  0  0  0
 11 31  1  0  0  0  0
 12 13  1  0  0  0  0
 12 32  1  0  0  0  0
 12 33  1  0  0  0  0
 13 14  1  0  0  0  0
 13 34  1  0  0  0  0
 13 35  1  0  0  0  0
 14 15  1  0  0  0  0
 14 23  1  0  0  0  0
 14 36  1  0  0  0  0
 15 16  2  0  0  0  0
 15 17  1  0  0  0  0
 17 22  1  0  0  0  0
 17 18  1  0  0  0  0
 18 19  1  0  0  0  0
 18 37  1  0  0  0  0
 18 38  1  0  0  0  0
 19 20  1  0  0  0  0
 19 39  1  0  0  0  0
 19 40  1  0  0  0  0
 20 21  1  0  0  0  0
 21 22  1  0  0  0  0
 21 41  1  0  0  0  0
 21 42  1  0  0  0  0
 22 43  1  0  0  0  0
 22 44  1  0  0  0  0
 23 24  1  0  0  0  0
 23 45  1  0  0  0  0
 23 46  1  0  0  0  0
 24 47  1  0  0  0  0
 24 48  1  0  0  0  0
M  END
> <s_m_source_file>
AV-unprocessed.smi

> <i_m_source_file_index>
1096

> <i_lp_mmshare_version>
43012

> <i_f3d_flags>
0

> <s_epik_input>
bjFbY0hdW2NIXVtjSF1bY0hdYzFbTkhdQyg9TylbTkhdW0NAQEhdMltDSDJdW0NIMl1bQ0BIXShbQ0gyXVtDSDJdMilDKD1PKU4zW0NIMl1bQ0gyXVNbQ0gyXVtDSDJdMw==

> <s_epik_cmdline>
J2VwaWtfcHl0aG9uJywgJy1waCcsICc3LjAnLCAnLXRuJywgJzgnLCAnLW1hJywgJzIwMCcsICctbWV0YWxfYmluZGluZycsICctaW1hZScsICc8aW5maWxlLm1hZT4nLCAnLW9tYWUnLCAnPG91dGZpbGUubWFlPic=

> <r_lp_tautomer_probability>
1

> <r_epik_Ionization_Penalty>
5.08504e-05

> <r_epik_Ionization_Penalty_Charging>
0

> <r_epik_Ionization_Penalty_Neutral>
5.08504e-05

> <r_epik_State_Penalty>
-0

> <r_epik_Charging_Adjusted_Penalty>
0

> <i_epik_Tot_Q>
0

> <i_epik_Tot_abs_Q>
0

> <r_epik_Metal_State_Penalty>
-0

> <b_epik_Metal_Only>
0

> <s_lp_Force_Field>
OPLS_2005

> <r_lp_Energy>
29.5517

> <b_lp_Chiralities_Consistent>
1

> <s_lp_Variant>
AV-unprocessed.smi:1096-2

> <Gold.Version>
5.8.1

> <Gold.Id.Protein>
6NUR|6NUR_protein|mol2

> <Gold.PLP.Fitness>
49.8544

> <Gold.PLP.PLP>
-37.6915

> <Gold.PLP.part.hbond>
-4.0000

> <Gold.PLP.part.metal>
0.0000

> <Gold.PLP.part.buried>
-4.4118

> <Gold.PLP.part.nonpolar>
-30.1449

> <Gold.PLP.part.repulsive>
1.8990

> <Gold.PLP.ligand.clash>
0.0000

> <Gold.PLP.ligand.torsion>
0.0468

> <Gold.PLP.Chemscore.Hbond>
3.0583

> <Gold.PLP.Chemscore.CHOScore>
1.0000

> <Gold.PLP.Chemscore.Metal>
0.0000

> <Gold.Chemscore.Hbonds>
donor molecule, donor type, donor heavy atom, donor atom, acceptor molecule, acceptor atom, score
      L1  H     3    25       P1  7948  0.98
      L1  H    10    30       P1  7948  1.00
      P1  H  7989  7998       L1    16  0.22
      P1  H  8011  8017       L1    16  0.85
      L1  C     8    29       P1 10186  1.00

> <Gold.PLP.Chemscore.Internal.Correction>
0.0818

> <Gold.Rescore>
     Score         DG    S(hbond)    S(metal)    S(lipo)     H(rot)  DE(clash)    DE(int)     intcor
     20.22     -21.84       2.90        0.00      84.62       1.26       0.30       1.33       ----

> <Gold.Chemscore.Fitness>
20.2192

> <Gold.Chemscore.DG>
-21.8438

> <Gold.Chemscore.ZeroCoef>
-5.4800

> <Gold.Chemscore.Hbond>
2.8993

> <Gold.Chemscore.Metal>
0.0000

> <Gold.Chemscore.Lipo>
84.6150

> <Gold.Chemscore.Internal_Hbond>
0.0000

> <Gold.Chemscore.DEClash>
0.2969

> <Gold.Chemscore.DEInternal>
1.3277

> <Gold.Chemscore.Rot>
1.2578

> <Gold.Chemscore.Internal.Correction>
   9.000000E+99

> <Gold.Chemscore.Hbonds>
donor molecule, donor type, donor heavy atom, donor atom, acceptor molecule, acceptor atom, score
      L1  H     3    25       P1  7948  0.90
      L1  H    10    30       P1  7948  0.97
      P1  H  7989  7998       L1    16  0.20
      P1  H  8011  8017       L1    16  0.83

> <Gold.Chemscore.Hbond.Weighted>
-9.6838

> <Gold.Chemscore.Metal.Weighted>
-0.0000

> <Gold.Chemscore.Lipo.Weighted>
-9.9000

> <Gold.Chemscore.Internal_Hbond.Weighted>
0.0000

> <Gold.Chemscore.DEClash.Weighted>
0.2969

> <Gold.Chemscore.DEInternal.Weighted>
1.3277

> <Gold.Chemscore.Rot.Weighted>
3.2200

> <Gold.Chemscore.Internal.Correction.Weighted>
   9.000000E+99

> <Gold.Protein.RotatedTorsions>
[ 6907 6896 6895 6894 ] final   99.47 input  -60.11 | X-H torsion
[ 7974 7965 7964 7962 ] final  141.32 input  175.53 | X-H torsion
[ 8008 7997 7996 7995 ] final  155.44 input   59.86 | X-H torsion
[ 10167 10162 10161 10158 ] final -112.52 input  -65.29 | X-H torsion
[ 10718 10713 10712 10709 ] final -166.94 input   66.30 | X-H torsion
[ 10763 10752 10751 10750 ] final -106.86 input  -60.55 | X-H torsion
[ 11005 11000 10999 10996 ] final  175.78 input  -57.11 | X-H torsion

> <Gold.Protein.ActiveResidues>
 VAL166  LYS551  ARG553  GLY616  TRP617  ASP618  TYR619  PRO620  LYS621  CYS622 
 ASP623  PHE694  ASN695  SER759  ASP760  ASP761  ALA762  ILE779  LEU786  VAL792 
 PHE793  MET794  SER795  GLU796  ALA797  LYS798  CYS799  TRP800  GLU811  SER814 

> <Gold.Protein.RotatedAtoms>
  152.5391  134.0424  159.8073 H   0  0  0  0  0  0  0  0  0  0  0  0  # atno 6907 bound_to 6896
  151.0578  133.5562  159.2644 H   0  0  0  0  0  0  0  0  0  0  0  0  # atno 6908 bound_to 6896
  151.2472  135.0617  159.9102 H   0  0  0  0  0  0  0  0  0  0  0  0  # atno 6909 bound_to 6896
  144.9107  139.5297  143.5710 H   0  0  0  0  0  0  0  0  0  0  0  0  # atno 7974 bound_to 7965
  156.2478  140.1939  156.6801 H   0  0  0  0  0  0  0  0  0  0  0  0  # atno 8008 bound_to 7997
  154.6328  140.0593  156.9778 H   0  0  0  0  0  0  0  0  0  0  0  0  # atno 8009 bound_to 7997
  155.1684  140.3266  155.4400 H   0  0  0  0  0  0  0  0  0  0  0  0  # atno 8010 bound_to 7997
  140.1219  143.4436  152.1685 H   0  0  0  0  0  0  0  0  0  0  0  0  # atno 10167 bound_to 10162
  156.6752  130.9100  151.3049 H   0  0  0  0  0  0  0  0  0  0  0  0  # atno 10718 bound_to 10713
  154.8039  135.4696  154.0344 H   0  0  0  0  0  0  0  0  0  0  0  0  # atno 10763 bound_to 10752
  153.1828  135.6843  153.8462 H   0  0  0  0  0  0  0  0  0  0  0  0  # atno 10764 bound_to 10752
  153.8006  135.3230  155.3367 H   0  0  0  0  0  0  0  0  0  0  0  0  # atno 10765 bound_to 10752
  140.3659  134.7072  157.4361 H   0  0  0  0  0  0  0  0  0  0  0  0  # atno 11005 bound_to 11000
  146.3157  139.7911  142.8985 LP  0  0  0  0  0  0  0  0  0  0  0  0  # atno 17320 bound_to 7965
  145.3459  141.0297  143.3366 LP  0  0  0  0  0  0  0  0  0  0  0  0  # atno 17321 bound_to 7965
  139.5564  144.7376  151.4281 LP  0  0  0  0  0  0  0  0  0  0  0  0  # atno 17342 bound_to 10162
  140.6867  143.7957  150.7196 LP  0  0  0  0  0  0  0  0  0  0  0  0  # atno 17343 bound_to 10162
  157.7063  130.9389  150.0942 LP  0  0  0  0  0  0  0  0  0  0  0  0  # atno 17370 bound_to 10713
  156.1909  130.3654  149.8911 LP  0  0  0  0  0  0  0  0  0  0  0  0  # atno 17371 bound_to 10713
  140.0589  134.6023  155.8772 LP  0  0  0  0  0  0  0  0  0  0  0  0  # atno 17394 bound_to 11000
  141.1969  133.6594  156.5717 LP  0  0  0  0  0  0  0  0  0  0  0  0  # atno 17395 bound_to 11000

$$$$
