AV-unprocessed.smi:528|AV-procd|sdf|2833|dock7
  -GOLD-   2262023323D 1   1.00000     0.00000
 Structure written by MMmdl.
 45 47  0  0  0  0  0  0  0  0  1 V2000
  149.5910  138.4419  155.4515 C   0  0  0  0  0  0  0  0  0  0  0  0
  149.9018  138.3102  156.9529 C   0  0  2  0  0  0  0  0  0  0  0  0
  148.7008  137.8291  157.6346 N   0  0  0  0  0  0  0  0  0  0  0  0
  148.6030  136.6940  158.3434 C   0  0  0  0  0  0  0  0  0  0  0  0
  149.5474  135.9230  158.5194 O   0  0  0  0  0  0  0  0  0  0  0  0
  147.2210  136.4040  158.9473 C   0  0  0  0  0  0  0  0  0  0  0  0
  147.2701  135.5895  160.1737 N   0  0  0  0  0  0  0  0  0  0  0  0
  147.1320  134.1955  160.0235 C   0  0  0  0  0  0  0  0  0  0  0  0
  147.1736  133.3382  161.0616 C   0  0  0  0  0  0  0  0  0  0  0  0
  146.9664  131.8433  160.8741 C   0  0  0  0  0  0  0  0  0  0  0  0
  147.9955  131.1509  161.3628 F   0  0  0  0  0  0  0  0  0  0  0  0
  145.8552  131.4296  161.4847 F   0  0  0  0  0  0  0  0  0  0  0  0
  146.8554  131.5613  159.5767 F   0  0  0  0  0  0  0  0  0  0  0  0
  147.3354  133.9258  162.3770 C   0  0  0  0  0  0  0  0  0  0  0  0
  147.4563  135.2579  162.5396 C   0  0  0  0  0  0  0  0  0  0  0  0
  147.4313  136.1753  161.3981 C   0  0  0  0  0  0  0  0  0  0  0  0
  147.5464  137.3937  161.5338 O   0  0  0  0  0  0  0  0  0  0  0  0
  150.3631  139.6418  157.5957 C   0  0  1  0  0  0  0  0  0  0  0  0
  151.6732  140.2017  156.9852 C   0  0  0  0  0  0  0  0  0  0  0  0
  151.2957  141.6398  156.5882 C   0  0  2  0  0  0  0  0  0  0  0  0
  151.0840  142.4857  157.8567 C   0  0  0  0  0  0  0  0  0  0  0  0
  149.7497  141.9454  158.4032 C   0  0  0  0  0  0  0  0  0  0  0  0
  149.3935  140.8350  157.3957 C   0  0  1  0  0  0  0  0  0  0  0  0
  149.8708  141.4542  156.0858 C   0  0  0  0  0  0  0  0  0  0  0  0
  150.4757  138.7071  154.8748 H   0  0  0  0  0  0  0  0  0  0  0  0
  148.8318  139.2030  155.2687 H   0  0  0  0  0  0  0  0  0  0  0  0
  149.2195  137.5004  155.0453 H   0  0  0  0  0  0  0  0  0  0  0  0
  150.7027  137.5785  157.0706 H   0  0  0  0  0  0  0  0  0  0  0  0
  147.8744  138.4032  157.5497 H   0  0  0  0  0  0  0  0  0  0  0  0
  146.7281  137.3578  159.1408 H   0  0  0  0  0  0  0  0  0  0  0  0
  146.6002  135.9108  158.1966 H   0  0  0  0  0  0  0  0  0  0  0  0
  146.9820  133.8659  159.0055 H   0  0  0  0  0  0  0  0  0  0  0  0
  147.3625  133.2867  163.2473 H   0  0  0  0  0  0  0  0  0  0  0  0
  147.5760  135.6604  163.5347 H   0  0  0  0  0  0  0  0  0  0  0  0
  150.5064  139.4665  158.6635 H   0  0  0  0  0  0  0  0  0  0  0  0
  152.5048  140.1704  157.6897 H   0  0  0  0  0  0  0  0  0  0  0  0
  151.9737  139.6432  156.0974 H   0  0  0  0  0  0  0  0  0  0  0  0
  151.9822  142.0899  155.8706 H   0  0  0  0  0  0  0  0  0  0  0  0
  151.9024  142.3727  158.5686 H   0  0  0  0  0  0  0  0  0  0  0  0
  150.9968  143.5446  157.6101 H   0  0  0  0  0  0  0  0  0  0  0  0
  149.8356  141.5733  159.4246 H   0  0  0  0  0  0  0  0  0  0  0  0
  148.9905  142.7286  158.3981 H   0  0  0  0  0  0  0  0  0  0  0  0
  148.3361  140.5753  157.4161 H   0  0  0  0  0  0  0  0  0  0  0  0
  149.3719  142.3949  155.8451 H   0  0  0  0  0  0  0  0  0  0  0  0
  149.7954  140.7817  155.2298 H   0  0  0  0  0  0  0  0  0  0  0  0
  1  2  1  0  0  0  0
  1 25  1  0  0  0  0
  1 26  1  0  0  0  0
  1 27  1  0  0  0  0
  2  3  1  0  0  0  0
  2 18  1  0  0  0  0
  2 28  1  0  0  0  0
  3  4  1  0  0  0  0
  3 29  1  0  0  0  0
  4  5  2  0  0  0  0
  4  6  1  0  0  0  0
  6  7  1  0  0  0  0
  6 30  1  0  0  0  0
  6 31  1  0  0  0  0
  7 16  1  0  0  0  0
  7  8  1  0  0  0  0
  8  9  2  0  0  0  0
  8 32  1  0  0  0  0
  9 10  1  0  0  0  0
  9 14  1  0  0  0  0
 10 11  1  0  0  0  0
 10 12  1  0  0  0  0
 10 13  1  0  0  0  0
 14 15  2  0  0  0  0
 14 33  1  0  0  0  0
 15 16  1  0  0  0  0
 15 34  1  0  0  0  0
 16 17  2  0  0  0  0
 18 23  1  0  0  0  0
 18 19  1  0  0  0  0
 18 35  1  0  0  0  0
 19 20  1  0  0  0  0
 19 36  1  0  0  0  0
 19 37  1  0  0  0  0
 20 24  1  0  0  0  0
 20 21  1  0  0  0  0
 20 38  1  0  0  0  0
 21 22  1  0  0  0  0
 21 39  1  0  0  0  0
 21 40  1  0  0  0  0
 22 23  1  0  0  0  0
 22 41  1  0  0  0  0
 22 42  1  0  0  0  0
 23 24  1  0  0  0  0
 23 43  1  0  0  0  0
 24 44  1  0  0  0  0
 24 45  1  0  0  0  0
M  END
> <s_m_source_file>
AV-unprocessed.smi

> <i_m_source_file_index>
528

> <i_lp_mmshare_version>
43012

> <i_f3d_flags>
0

> <s_epik_input>
W0NIMl0xW0NIMl1bQ0BASF0oW0NIMl0yKVtDQEBIXShbQ0gyXVtDQEhdMTIpW0NASF0oW0NIM10pW05IXUMoPU8pW0NIMl1uM1tjSF1jKEMoRikoRilGKVtjSF1bY0hdYzM9Tw==

> <s_epik_cmdline>
J2VwaWtfcHl0aG9uJywgJy1waCcsICc3LjAnLCAnLXRuJywgJzgnLCAnLW1hJywgJzIwMCcsICctbWV0YWxfYmluZGluZycsICctaW1hZScsICc8aW5maWxlLm1hZT4nLCAnLW9tYWUnLCAnPG91dGZpbGUubWFlPic=

> <r_lp_tautomer_probability>
1

> <r_epik_Ionization_Penalty>
4.09479e-08

> <r_epik_Ionization_Penalty_Charging>
1.9321e-08

> <r_epik_Ionization_Penalty_Neutral>
2.16269e-08

> <r_epik_State_Penalty>
-0

> <r_epik_Charging_Adjusted_Penalty>
1.9321e-08

> <i_epik_Tot_Q>
0

> <i_epik_Tot_abs_Q>
0

> <r_epik_Metal_State_Penalty>
-0

> <b_epik_Metal_Only>
0

> <s_lp_Force_Field>
OPLS_2005

> <r_lp_Energy>
62.8308

> <b_lp_Chiralities_Consistent>
1

> <s_lp_Variant>
AV-unprocessed.smi:528-3

> <Gold.Version>
5.8.1

> <Gold.Id.Protein>
6NUR|6NUR_protein|mol2

> <Gold.PLP.Fitness>
43.9436

> <Gold.PLP.PLP>
-39.4626

> <Gold.PLP.part.hbond>
-3.0000

> <Gold.PLP.part.metal>
0.0000

> <Gold.PLP.part.buried>
-5.5090

> <Gold.PLP.part.nonpolar>
-31.0474

> <Gold.PLP.part.repulsive>
0.0669

> <Gold.PLP.ligand.clash>
2.2953

> <Gold.PLP.ligand.torsion>
0.7943

> <Gold.PLP.Chemscore.Hbond>
2.7600

> <Gold.PLP.Chemscore.CHOScore>
0.0000

> <Gold.PLP.Chemscore.Metal>
0.0000

> <Gold.Chemscore.Hbonds>
donor molecule, donor type, donor heavy atom, donor atom, acceptor molecule, acceptor atom, score
      P1  H  6896  6907       L1     5  1.00
      P1  H  6931  6943       L1    17  0.85
      P1  H  6934  6947       L1    17  0.78

> <Gold.PLP.Chemscore.Internal.Correction>
0.0849

> <Gold.Rescore>
     Score         DG    S(hbond)    S(metal)    S(lipo)     H(rot)  DE(clash)    DE(int)     intcor
     18.03     -19.68       2.76        0.00      79.95       1.71       0.02       1.63       ----

> <Gold.Chemscore.Fitness>
18.0284

> <Gold.Chemscore.DG>
-19.6782

> <Gold.Chemscore.ZeroCoef>
-5.4800

> <Gold.Chemscore.Hbond>
2.7630

> <Gold.Chemscore.Metal>
0.0000

> <Gold.Chemscore.Lipo>
79.9464

> <Gold.Chemscore.Internal_Hbond>
0.0000

> <Gold.Chemscore.DEClash>
0.0243

> <Gold.Chemscore.DEInternal>
1.6255

> <Gold.Chemscore.Rot>
1.7125

> <Gold.Chemscore.Internal.Correction>
   9.000000E+99

> <Gold.Chemscore.Hbonds>
donor molecule, donor type, donor heavy atom, donor atom, acceptor molecule, acceptor atom, score
      P1  H  6896  6907       L1     5  0.94
      P1  H  6931  6943       L1    17  0.85
      P1  H  6934  6947       L1    17  0.78

> <Gold.Chemscore.Hbond.Weighted>
-9.2284

> <Gold.Chemscore.Metal.Weighted>
-0.0000

> <Gold.Chemscore.Lipo.Weighted>
-9.3537

> <Gold.Chemscore.Internal_Hbond.Weighted>
0.0000

> <Gold.Chemscore.DEClash.Weighted>
0.0243

> <Gold.Chemscore.DEInternal.Weighted>
1.6255

> <Gold.Chemscore.Rot.Weighted>
4.3840

> <Gold.Chemscore.Internal.Correction.Weighted>
   9.000000E+99

> <Gold.Protein.RotatedTorsions>
[ 6907 6896 6895 6894 ] final  -54.06 input  -60.11 | X-H torsion
[ 7974 7965 7964 7962 ] final   -9.02 input  175.53 | X-H torsion
[ 8008 7997 7996 7995 ] final -125.91 input   59.86 | X-H torsion
[ 10167 10162 10161 10158 ] final   25.19 input  -65.29 | X-H torsion
[ 10718 10713 10712 10709 ] final  177.03 input   66.30 | X-H torsion
[ 10763 10752 10751 10750 ] final  108.99 input  -60.55 | X-H torsion
[ 11005 11000 10999 10996 ] final   21.69 input  -57.11 | X-H torsion

> <Gold.Protein.ActiveResidues>
 VAL166  LYS551  ARG553  GLY616  TRP617  ASP618  TYR619  PRO620  LYS621  CYS622 
 ASP623  PHE694  ASN695  SER759  ASP760  ASP761  ALA762  ILE779  LEU786  VAL792 
 PHE793  MET794  SER795  GLU796  ALA797  LYS798  CYS799  TRP800  GLU811  SER814 

> <Gold.Protein.RotatedAtoms>
  150.8371  134.7649  159.6901 H   0  0  0  0  0  0  0  0  0  0  0  0  # atno 6907 bound_to 6896
  152.4466  134.5478  159.9868 H   0  0  0  0  0  0  0  0  0  0  0  0  # atno 6908 bound_to 6896
  151.5626  133.3363  159.3010 H   0  0  0  0  0  0  0  0  0  0  0  0  # atno 6909 bound_to 6896
  146.2264  140.2555  142.8349 H   0  0  0  0  0  0  0  0  0  0  0  0  # atno 7974 bound_to 7965
  155.2211  140.0422  157.2948 H   0  0  0  0  0  0  0  0  0  0  0  0  # atno 8008 bound_to 7997
  154.5949  140.2436  155.7841 H   0  0  0  0  0  0  0  0  0  0  0  0  # atno 8009 bound_to 7997
  156.2283  140.2947  156.0133 H   0  0  0  0  0  0  0  0  0  0  0  0  # atno 8010 bound_to 7997
  140.5127  144.0134  150.6380 H   0  0  0  0  0  0  0  0  0  0  0  0  # atno 10167 bound_to 10162
  156.9113  130.9911  151.3020 H   0  0  0  0  0  0  0  0  0  0  0  0  # atno 10718 bound_to 10713
  153.4284  135.3794  155.2155 H   0  0  0  0  0  0  0  0  0  0  0  0  # atno 10763 bound_to 10752
  154.8748  135.3834  154.4298 H   0  0  0  0  0  0  0  0  0  0  0  0  # atno 10764 bound_to 10752
  153.4827  135.7088  153.5992 H   0  0  0  0  0  0  0  0  0  0  0  0  # atno 10765 bound_to 10752
  140.3888  134.1842  155.7663 H   0  0  0  0  0  0  0  0  0  0  0  0  # atno 11005 bound_to 11000
  144.9379  140.8047  143.5648 LP  0  0  0  0  0  0  0  0  0  0  0  0  # atno 17320 bound_to 7965
  145.2504  139.2034  143.4945 LP  0  0  0  0  0  0  0  0  0  0  0  0  # atno 17321 bound_to 7965
  140.3461  143.2990  152.0537 LP  0  0  0  0  0  0  0  0  0  0  0  0  # atno 17342 bound_to 10162
  139.4900  144.6408  151.6882 LP  0  0  0  0  0  0  0  0  0  0  0  0  # atno 17343 bound_to 10162
  157.5965  130.8481  149.8737 LP  0  0  0  0  0  0  0  0  0  0  0  0  # atno 17370 bound_to 10713
  156.0534  130.3713  150.1147 LP  0  0  0  0  0  0  0  0  0  0  0  0  # atno 17371 bound_to 10713
  141.1898  133.8230  157.0942 LP  0  0  0  0  0  0  0  0  0  0  0  0  # atno 17394 bound_to 11000
  140.0423  134.9848  157.0984 LP  0  0  0  0  0  0  0  0  0  0  0  0  # atno 17395 bound_to 11000

$$$$
