#       Name:                AV-unprocessed.smi:1651
#       Creating user name   scv26
#       Creation time:       Fri Mar 27 07:34:03 2020


#       File generated by GOLD software.
#

@<TRIPOS>MOLECULE
AV-unprocessed.smi:1651
    46    48     1
SMALL
NO_CHARGES


@<TRIPOS>ATOM
      1 ****         3.2221  -0.5019  -0.1826 O.2            1 S1                 0.0000
      2 ****         2.6412  -1.5863  -0.2128 C.2            1 S1                 0.0000
      3 ****         3.2779  -2.7655  -0.1981 N.am           1 S1                 0.0000
      4 ****         4.7232  -2.9323  -0.1171 C.3            1 S1                 0.0000
      5 ****         5.3118  -2.7442   1.2682 C.3            1 S1                 0.0000
      6 ****         5.9148  -1.4242   1.6919 C.3            1 S1                 0.0000
      7 ****         6.8066  -2.6169   1.4479 C.3            1 S1                 0.0000
      8 ****         1.3096  -1.7564  -0.2812 N.am           1 S1                 0.0000
      9 ****         0.2814  -0.7746  -0.2699 C.ar           1 S1                 0.0000
     10 ****         0.4533   0.5640   0.1579 C.ar           1 S1                 0.0000
     11 ****        -0.6554   1.4317   0.1410 C.ar           1 S1                 0.0000
     12 ****        -1.9015   0.9364  -0.2942 C.ar           1 S1                 0.0000
     13 ****        -3.0098   1.7952  -0.3071 N.3            1 S1                 0.0000
     14 ****        -3.4786   2.1054  -1.6555 C.3            1 S1                 0.0000
     15 ****        -4.5545   3.2049  -1.6213 C.3            1 S1                 0.0000
     16 ****        -5.7031   2.8210  -0.6743 C.3            1 S1                 0.0000
     17 ****        -5.1503   2.4773   0.7183 C.3            1 S1                 0.0000
     18 ****        -4.0622   1.3939   0.6237 C.3            1 S1                 0.0000
     19 ****        -2.0758  -0.3442  -0.6975 N.ar           1 S1                 0.0000
     20 ****        -1.0089  -1.1705  -0.6792 C.ar           1 S1                 0.0000
     21 ****         2.7236  -3.6084  -0.2344 H              1 S1                 0.0000
     22 ****         4.9553  -3.9445  -0.4484 H              1 S1                 0.0000
     23 ****         5.2171  -2.2607  -0.8216 H              1 S1                 0.0000
     24 ****         4.7974  -3.3098   2.0430 H              1 S1                 0.0000
     25 ****         5.9399  -0.6194   0.9596 H              1 S1                 0.0000
     26 ****         5.7617  -1.1113   2.7226 H              1 S1                 0.0000
     27 ****         7.2513  -3.0988   2.3163 H              1 S1                 0.0000
     28 ****         7.4262  -2.6041   0.5533 H              1 S1                 0.0000
     29 ****         0.9913  -2.7092  -0.3807 H              1 S1                 0.0000
     30 ****         1.4000   0.9410   0.5109 H              1 S1                 0.0000
     31 ****        -0.5497   2.4573   0.4636 H              1 S1                 0.0000
     32 ****        -2.6388   2.4275  -2.2726 H              1 S1                 0.0000
     33 ****        -3.8859   1.2038  -2.1152 H              1 S1                 0.0000
     34 ****        -4.1066   4.1427  -1.2900 H              1 S1                 0.0000
     35 ****        -4.9392   3.3824  -2.6258 H              1 S1                 0.0000
     36 ****        -6.4240   3.6361  -0.6044 H              1 S1                 0.0000
     37 ****        -6.2398   1.9616  -1.0780 H              1 S1                 0.0000
     38 ****        -4.7324   3.3746   1.1767 H              1 S1                 0.0000
     39 ****        -5.9567   2.1420   1.3709 H              1 S1                 0.0000
     40 ****        -4.5051   0.4543   0.2901 H              1 S1                 0.0000
     41 ****        -3.6320   1.2123   1.6096 H              1 S1                 0.0000
     42 ****        -1.1935  -2.1842  -1.0040 H              1 S1                 0.0000
     43 ****         4.2209  -0.4706  -0.1449 LP             1 S1                 0.0000
     44 ****         2.6953   0.3481  -0.1957 LP             1 S1                 0.0000
     45 ****        -2.6848   2.6702   0.0518 LP             1 S1                 0.0000
     46 ****        -2.9715  -0.6692  -1.0009 LP             1 S1                 0.0000
@<TRIPOS>BOND
    1    1    2 2     
    2    2    3 am    
    3    2    8 am    
    4    3    4 1     
    5    3   21 1     
    6    4    5 1     
    7    4   22 1     
    8    4   23 1     
    9    5    7 1     
   10    5    6 1     
   11    5   24 1     
   12    6    7 1     
   13    6   25 1     
   14    6   26 1     
   15    7   27 1     
   16    7   28 1     
   17    8    9 1     
   18    8   29 1     
   19    9   20 ar    
   20    9   10 ar    
   21   10   11 ar    
   22   10   30 1     
   23   11   12 ar    
   24   11   31 1     
   25   12   13 1     
   26   12   19 ar    
   27   13   18 1     
   28   13   14 1     
   29   14   15 1     
   30   14   32 1     
   31   14   33 1     
   32   15   16 1     
   33   15   34 1     
   34   15   35 1     
   35   16   17 1     
   36   16   36 1     
   37   16   37 1     
   38   17   18 1     
   39   17   38 1     
   40   17   39 1     
   41   18   40 1     
   42   18   41 1     
   43   19   20 ar    
   44   20   42 1     
   45    1   43 1     
   46    1   44 1     
   47   13   45 1     
   48   19   46 1     
@<TRIPOS>SUBSTRUCTURE
      1 S1             1
@<TRIPOS>SET
LONE_PAIRS      STATIC     ATOMS    <user>   **** ""
4 43 44 45 46
DONOR_HYDROGENS      STATIC     ATOMS    <user>   **** ""
2 21 29
ATOM$BLUE        STATIC     ATOMS    COLORGROUP SYSTEM
4 43 44 45 46
ATOM$RED        STATIC     ATOMS    COLORGROUP SYSTEM
2 21 29
