AV-unprocessed.smi:1847|AV-procd|sdf|7515|dock3
  -GOLD-   22720 9223D 1   1.00000     0.00000
 Structure written by MMmdl.
 25 26  0  0  0  0  0  0  0  0  1 V2000
  152.2268  140.0180  159.0469 O   0  0  0  0  0  0  0  0  0  0  0  0
  152.0722  140.5952  157.9697 C   0  0  0  0  0  0  0  0  0  0  0  0
  151.9538  141.9312  157.8423 N   0  0  0  0  0  0  0  0  0  0  0  0
  151.9918  142.9312  158.8514 C   0  0  0  0  0  0  0  0  0  0  0  0
  152.3246  142.5304  160.1619 C   0  0  0  0  0  0  0  0  0  0  0  0
  152.3540  143.5015  161.1825 C   0  0  0  0  0  0  0  0  0  0  0  0
  152.0672  144.8039  160.9754 N   0  0  0  0  0  0  0  0  0  0  0  0
  151.7320  145.1827  159.7238 C   0  0  0  0  0  0  0  0  0  0  0  0
  151.6743  144.2933  158.6322 C   0  0  0  0  0  0  0  0  0  0  0  0
  151.9707  139.9266  156.6776 C   0  0  0  0  0  0  0  0  0  0  0  0
  150.9482  140.2350  155.8466 C   0  0  0  0  0  0  0  0  0  0  0  0
  150.7470  139.6342  154.6292 O   0  0  0  0  0  0  0  0  0  0  0  0
  151.5402  138.4754  154.4012 C   0  0  0  0  0  0  0  0  0  0  0  0
  152.9688  138.6948  154.9200 C   0  0  0  0  0  0  0  0  0  0  0  0
  152.9448  139.0258  156.3046 O   0  0  0  0  0  0  0  0  0  0  0  0
  151.7479  142.2629  156.9109 H   0  0  0  0  0  0  0  0  0  0  0  0
  152.5606  141.5001  160.3847 H   0  0  0  0  0  0  0  0  0  0  0  0
  152.6127  143.2233  162.1934 H   0  0  0  0  0  0  0  0  0  0  0  0
  151.4948  146.2276  159.5888 H   0  0  0  0  0  0  0  0  0  0  0  0
  151.3784  144.6676  157.6644 H   0  0  0  0  0  0  0  0  0  0  0  0
  150.1684  140.9498  156.0679 H   0  0  0  0  0  0  0  0  0  0  0  0
  151.0806  137.6220  154.9014 H   0  0  0  0  0  0  0  0  0  0  0  0
  151.5513  138.2543  153.3338 H   0  0  0  0  0  0  0  0  0  0  0  0
  153.5680  137.7951  154.7790 H   0  0  0  0  0  0  0  0  0  0  0  0
  153.4578  139.4975  154.3663 H   0  0  0  0  0  0  0  0  0  0  0  0
  1  2  2  0  0  0  0
  2  3  1  0  0  0  0
  2 10  1  0  0  0  0
  3  4  1  0  0  0  0
  3 16  1  0  0  0  0
  4  9  1  0  0  0  0
  4  5  2  0  0  0  0
  5  6  1  0  0  0  0
  5 17  1  0  0  0  0
  6  7  2  0  0  0  0
  6 18  1  0  0  0  0
  7  8  1  0  0  0  0
  8  9  2  0  0  0  0
  8 19  1  0  0  0  0
  9 20  1  0  0  0  0
 10 15  1  0  0  0  0
 10 11  2  0  0  0  0
 11 12  1  0  0  0  0
 11 21  1  0  0  0  0
 12 13  1  0  0  0  0
 13 14  1  0  0  0  0
 13 22  1  0  0  0  0
 13 23  1  0  0  0  0
 14 15  1  0  0  0  0
 14 24  1  0  0  0  0
 14 25  1  0  0  0  0
M  END
> <s_m_source_file>
AV-unprocessed.smi

> <i_m_source_file_index>
1847

> <i_lp_mmshare_version>
43012

> <i_f3d_flags>
0

> <s_epik_input>
TzFbQ0gyXVtDSDJdT1tDSF09QzFDKD1PKVtOSF1jMltjSF1bY0hdbltjSF1bY0hdMg==

> <s_epik_cmdline>
J2VwaWtfcHl0aG9uJywgJy1waCcsICc3LjAnLCAnLXRuJywgJzgnLCAnLW1hJywgJzIwMCcsICctbWV0YWxfYmluZGluZycsICctaW1hZScsICc8aW5maWxlLm1hZT4nLCAnLW9tYWUnLCAnPG91dGZpbGUubWFlPic=

> <r_epik_Ionization_Penalty>
0.039624

> <r_epik_Ionization_Penalty_Charging>
0

> <r_epik_Ionization_Penalty_Neutral>
0.039624

> <r_epik_State_Penalty>
0.0332371

> <r_epik_Charging_Adjusted_Penalty>
0.0332371

> <i_epik_Tot_Q>
0

> <i_epik_Tot_abs_Q>
0

> <r_epik_Metal_State_Penalty>
0.0856011

> <b_epik_Metal_Only>
0

> <s_lp_Force_Field>
OPLS_2005

> <r_lp_Energy>
7.75987

> <b_lp_Chiralities_Consistent>
1

> <s_lp_Variant>
AV-unprocessed.smi:1847-1

> <Gold.Version>
5.8.1

> <Gold.Id.Protein>
6NUR|6NUR_protein|mol2

> <Gold.PLP.Fitness>
38.4909

> <Gold.PLP.PLP>
-34.4713

> <Gold.PLP.part.hbond>
-2.0000

> <Gold.PLP.part.metal>
0.0000

> <Gold.PLP.part.buried>
-3.3960

> <Gold.PLP.part.nonpolar>
-29.7615

> <Gold.PLP.part.repulsive>
0.3422

> <Gold.PLP.ligand.clash>
0.0000

> <Gold.PLP.ligand.torsion>
0.9162

> <Gold.PLP.Chemscore.Hbond>
1.9500

> <Gold.PLP.Chemscore.CHOScore>
0.0000

> <Gold.PLP.Chemscore.Metal>
0.0000

> <Gold.Chemscore.Hbonds>
donor molecule, donor type, donor heavy atom, donor atom, acceptor molecule, acceptor atom, score
      P1  H  7989  7998       L1    12  1.00
      P1  H  7997  8008       L1    15  0.95

> <Gold.PLP.Chemscore.Internal.Correction>
0.0020

> <Gold.Rescore>
     Score         DG    S(hbond)    S(metal)    S(lipo)     H(rot)  DE(clash)    DE(int)     intcor
     15.53     -17.86       0.58        0.00      89.34       0.00       0.16       2.17       ----

> <Gold.Chemscore.Fitness>
15.5325

> <Gold.Chemscore.DG>
-17.8631

> <Gold.Chemscore.ZeroCoef>
-5.4800

> <Gold.Chemscore.Hbond>
0.5781

> <Gold.Chemscore.Metal>
0.0000

> <Gold.Chemscore.Lipo>
89.3360

> <Gold.Chemscore.Internal_Hbond>
0.0000

> <Gold.Chemscore.DEClash>
0.1617

> <Gold.Chemscore.DEInternal>
2.1689

> <Gold.Chemscore.Rot>
0.0000

> <Gold.Chemscore.Internal.Correction>
   9.000000E+99

> <Gold.Chemscore.Hbonds>
donor molecule, donor type, donor heavy atom, donor atom, acceptor molecule, acceptor atom, score
      P1  H  7989  7998       L1    12  0.08
      P1  H  7997  8008       L1    15  0.06

> <Gold.Chemscore.Hbond.Weighted>
-1.9308

> <Gold.Chemscore.Metal.Weighted>
-0.0000

> <Gold.Chemscore.Lipo.Weighted>
-10.4523

> <Gold.Chemscore.Internal_Hbond.Weighted>
0.0000

> <Gold.Chemscore.DEClash.Weighted>
0.1617

> <Gold.Chemscore.DEInternal.Weighted>
2.1689

> <Gold.Chemscore.Rot.Weighted>
0.0000

> <Gold.Chemscore.Internal.Correction.Weighted>
   9.000000E+99

> <Gold.Protein.RotatedTorsions>
[ 6907 6896 6895 6894 ] final  -84.48 input  -60.11 | X-H torsion
[ 7974 7965 7964 7962 ] final  -29.75 input  175.53 | X-H torsion
[ 8008 7997 7996 7995 ] final  -45.81 input   59.86 | X-H torsion
[ 10167 10162 10161 10158 ] final  -69.86 input  -65.29 | X-H torsion
[ 10718 10713 10712 10709 ] final  161.50 input   66.30 | X-H torsion
[ 10763 10752 10751 10750 ] final  -34.02 input  -60.55 | X-H torsion
[ 11005 11000 10999 10996 ] final -109.99 input  -57.11 | X-H torsion

> <Gold.Protein.ActiveResidues>
 VAL166  LYS551  ARG553  GLY616  TRP617  ASP618  TYR619  PRO620  LYS621  CYS622 
 ASP623  PHE694  ASN695  SER759  ASP760  ASP761  ALA762  ILE779  LEU786  VAL792 
 PHE793  MET794  SER795  GLU796  ALA797  LYS798  CYS799  TRP800  GLU811  SER814 

> <Gold.Protein.RotatedAtoms>
  150.6876  134.3352  159.4843 H   0  0  0  0  0  0  0  0  0  0  0  0  # atno 6907 bound_to 6896
  152.1212  134.9201  160.0572 H   0  0  0  0  0  0  0  0  0  0  0  0  # atno 6908 bound_to 6896
  152.0407  133.3941  159.4372 H   0  0  0  0  0  0  0  0  0  0  0  0  # atno 6909 bound_to 6896
  146.1194  140.5452  142.8742 H   0  0  0  0  0  0  0  0  0  0  0  0  # atno 7974 bound_to 7965
  154.4003  140.1387  156.3908 H   0  0  0  0  0  0  0  0  0  0  0  0  # atno 8008 bound_to 7997
  155.7916  140.3478  155.5332 H   0  0  0  0  0  0  0  0  0  0  0  0  # atno 8009 bound_to 7997
  155.8573  140.0951  157.1626 H   0  0  0  0  0  0  0  0  0  0  0  0  # atno 8010 bound_to 7997
  140.5397  143.2315  151.7111 H   0  0  0  0  0  0  0  0  0  0  0  0  # atno 10167 bound_to 10162
  157.1356  131.0527  151.2351 H   0  0  0  0  0  0  0  0  0  0  0  0  # atno 10718 bound_to 10713
  153.8397  135.6858  153.4804 H   0  0  0  0  0  0  0  0  0  0  0  0  # atno 10763 bound_to 10752
  153.1461  135.4637  154.9566 H   0  0  0  0  0  0  0  0  0  0  0  0  # atno 10764 bound_to 10752
  154.7850  135.3281  154.7852 H   0  0  0  0  0  0  0  0  0  0  0  0  # atno 10765 bound_to 10752
  141.0817  133.9209  157.2274 H   0  0  0  0  0  0  0  0  0  0  0  0  # atno 11005 bound_to 11000
  144.7583  140.5360  143.6753 LP  0  0  0  0  0  0  0  0  0  0  0  0  # atno 17320 bound_to 7965
  145.5498  139.1476  143.3400 LP  0  0  0  0  0  0  0  0  0  0  0  0  # atno 17321 bound_to 7965
  139.4984  144.3987  152.0204 LP  0  0  0  0  0  0  0  0  0  0  0  0  # atno 17342 bound_to 10162
  140.3095  144.3554  150.6037 LP  0  0  0  0  0  0  0  0  0  0  0  0  # atno 17343 bound_to 10162
  157.4353  130.7513  149.7024 LP  0  0  0  0  0  0  0  0  0  0  0  0  # atno 17370 bound_to 10713
  155.9799  130.4035  150.3561 LP  0  0  0  0  0  0  0  0  0  0  0  0  # atno 17371 bound_to 10713
  139.9631  135.0149  156.9315 LP  0  0  0  0  0  0  0  0  0  0  0  0  # atno 17394 bound_to 11000
  140.5454  134.0679  155.7353 LP  0  0  0  0  0  0  0  0  0  0  0  0  # atno 17395 bound_to 11000

$$$$
