AV-unprocessed.smi:1935|AV-procd|sdf|7828|dock2
  -GOLD-   22720 9573D 1   1.00000     0.00000
 Structure written by MMmdl.
 53 55  0  0  0  0  0  0  0  0  2 V2000
  150.8180  134.1988  155.4787 O   0  0  0  0  0  0  0  0  0  0  0  0
  150.2121  134.7534  154.5624 C   0  0  0  0  0  0  0  0  0  0  0  0
  150.3601  136.0493  154.2538 N   0  0  0  0  0  0  0  0  0  0  0  0
  151.2215  136.9830  154.9685 C   0  0  0  0  0  0  0  0  0  0  0  0
  151.4592  138.2750  154.1636 C   0  0  0  0  0  0  0  0  0  0  0  0
  151.3550  139.4599  155.0247 N   0  0  0  0  0  0  0  0  0  0  0  0
  150.1545  140.2944  154.8488 C   0  0  0  0  0  0  0  0  0  0  0  0
  149.1617  140.2179  156.0328 C   0  0  0  0  0  0  0  0  0  0  0  0
  149.7684  139.9141  157.4170 C   0  0  0  0  0  0  0  0  0  0  0  0
  150.9254  140.8429  157.8409 C   0  0  0  0  0  0  0  0  0  0  0  0
  152.0991  140.9816  156.8425 C   0  0  0  0  0  0  0  0  0  0  0  0
  152.3094  139.7533  155.9427 C   0  0  0  0  0  0  0  0  0  0  0  0
  153.3266  139.0761  156.0928 O   0  0  0  0  0  0  0  0  0  0  0  0
  149.3382  134.1533  153.7368 N   0  0  0  0  0  0  0  0  0  0  0  0
  148.9416  132.7852  153.7136 C   0  0  0  0  0  0  0  0  0  0  0  0
  149.7459  131.7558  154.2670 C   0  0  0  0  0  0  0  0  0  0  0  0
  149.2878  130.4242  154.2521 C   0  0  0  0  0  0  0  0  0  0  0  0
  148.0281  130.1420  153.6950 C   0  0  0  0  0  0  0  0  0  0  0  0
  147.2807  131.1451  153.1901 N   0  3  0  0  0  0  0  0  0  0  0  0
  147.6689  132.4443  153.1778 C   0  0  0  0  0  0  0  0  0  0  0  0
  146.8110  133.4067  152.6033 N   0  0  0  0  0  0  0  0  0  0  0  0
  146.6555  133.2803  151.1560 C   0  0  0  0  0  0  0  0  0  0  0  0
  145.1889  133.5903  150.8460 C   0  0  0  0  0  0  0  0  0  0  0  0
  144.4756  133.2461  152.1479 C   0  0  0  0  0  0  0  0  0  0  0  0
  145.5010  133.6601  153.2008 C   0  0  0  0  0  0  0  0  0  0  0  0
  149.8287  136.4224  153.4808 H   0  0  0  0  0  0  0  0  0  0  0  0
  150.7416  137.2226  155.9177 H   0  0  0  0  0  0  0  0  0  0  0  0
  152.1667  136.4963  155.2151 H   0  0  0  0  0  0  0  0  0  0  0  0
  152.4419  138.2507  153.6889 H   0  0  0  0  0  0  0  0  0  0  0  0
  150.7481  138.3301  153.3387 H   0  0  0  0  0  0  0  0  0  0  0  0
  150.4602  141.3287  154.6904 H   0  0  0  0  0  0  0  0  0  0  0  0
  149.6224  140.0361  153.9329 H   0  0  0  0  0  0  0  0  0  0  0  0
  148.5952  141.1487  156.0782 H   0  0  0  0  0  0  0  0  0  0  0  0
  148.4283  139.4401  155.8173 H   0  0  0  0  0  0  0  0  0  0  0  0
  148.9786  139.9708  158.1668 H   0  0  0  0  0  0  0  0  0  0  0  0
  150.1063  138.8773  157.4432 H   0  0  0  0  0  0  0  0  0  0  0  0
  150.5252  141.8367  158.0442 H   0  0  0  0  0  0  0  0  0  0  0  0
  151.3164  140.4856  158.7943 H   0  0  0  0  0  0  0  0  0  0  0  0
  151.9569  141.8614  156.2154 H   0  0  0  0  0  0  0  0  0  0  0  0
  153.0175  141.1810  157.3962 H   0  0  0  0  0  0  0  0  0  0  0  0
  148.9832  134.7203  152.9807 H   0  0  0  0  0  0  0  0  0  0  0  0
  150.7027  131.9647  154.7206 H   0  0  0  0  0  0  0  0  0  0  0  0
  149.8930  129.6325  154.6693 H   0  0  0  0  0  0  0  0  0  0  0  0
  147.5961  129.1531  153.6421 H   0  0  0  0  0  0  0  0  0  0  0  0
  147.3221  133.9622  150.6274 H   0  0  0  0  0  0  0  0  0  0  0  0
  146.8963  132.2644  150.8380 H   0  0  0  0  0  0  0  0  0  0  0  0
  145.0726  134.6541  150.6341 H   0  0  0  0  0  0  0  0  0  0  0  0
  144.8094  133.0319  149.9899 H   0  0  0  0  0  0  0  0  0  0  0  0
  143.5193  133.7574  152.2607 H   0  0  0  0  0  0  0  0  0  0  0  0
  144.2966  132.1713  152.2021 H   0  0  0  0  0  0  0  0  0  0  0  0
  145.3282  133.1600  154.1535 H   0  0  0  0  0  0  0  0  0  0  0  0
  145.4249  134.7313  153.3906 H   0  0  0  0  0  0  0  0  0  0  0  0
  146.3711  130.9110  152.7922 H   0  0  0  0  0  0  0  0  0  0  0  0
  1  2  2  0  0  0  0
  2  3  1  0  0  0  0
  2 14  1  0  0  0  0
  3  4  1  0  0  0  0
  3 26  1  0  0  0  0
  4  5  1  0  0  0  0
  4 27  1  0  0  0  0
  4 28  1  0  0  0  0
  5  6  1  0  0  0  0
  5 29  1  0  0  0  0
  5 30  1  0  0  0  0
  6 12  1  0  0  0  0
  6  7  1  0  0  0  0
  7  8  1  0  0  0  0
  7 31  1  0  0  0  0
  7 32  1  0  0  0  0
  8  9  1  0  0  0  0
  8 33  1  0  0  0  0
  8 34  1  0  0  0  0
  9 10  1  0  0  0  0
  9 35  1  0  0  0  0
  9 36  1  0  0  0  0
 10 11  1  0  0  0  0
 10 37  1  0  0  0  0
 10 38  1  0  0  0  0
 11 12  1  0  0  0  0
 11 39  1  0  0  0  0
 11 40  1  0  0  0  0
 12 13  2  0  0  0  0
 14 15  1  0  0  0  0
 14 41  1  0  0  0  0
 15 20  1  0  0  0  0
 15 16  2  0  0  0  0
 16 17  1  0  0  0  0
 16 42  1  0  0  0  0
 17 18  2  0  0  0  0
 17 43  1  0  0  0  0
 18 19  1  0  0  0  0
 18 44  1  0  0  0  0
 19 20  2  0  0  0  0
 19 53  1  0  0  0  0
 20 21  1  0  0  0  0
 21 25  1  0  0  0  0
 21 22  1  0  0  0  0
 22 23  1  0  0  0  0
 22 45  1  0  0  0  0
 22 46  1  0  0  0  0
 23 24  1  0  0  0  0
 23 47  1  0  0  0  0
 23 48  1  0  0  0  0
 24 25  1  0  0  0  0
 24 49  1  0  0  0  0
 24 50  1  0  0  0  0
 25 51  1  0  0  0  0
 25 52  1  0  0  0  0
M  CHG  1  19   1
M  END
> <s_m_source_file>
AV-unprocessed.smi

> <i_m_source_file_index>
1935

> <i_lp_mmshare_version>
43012

> <i_f3d_flags>
0

> <s_epik_input>
Tz1DMVtDSDJdW0NIMl1bQ0gyXVtDSDJdW0NIMl1OMVtDSDJdW0NIMl1bTkhdQyg9TylbTkhdYzJbY0hdW2NIXVtjSF1uYzJOM1tDSDJdW0NIMl1bQ0gyXVtDSDJdMw==

> <s_epik_cmdline>
J2VwaWtfcHl0aG9uJywgJy1waCcsICc3LjAnLCAnLXRuJywgJzgnLCAnLW1hJywgJzIwMCcsICctbWV0YWxfYmluZGluZycsICctaW1hZScsICc8aW5maWxlLm1hZT4nLCAnLW9tYWUnLCAnPG91dGZpbGUubWFlPic=

> <r_lp_tautomer_probability>
0.999994

> <r_epik_Ionization_Penalty>
1.12691

> <r_epik_Ionization_Penalty_Charging>
1.12689

> <r_epik_Ionization_Penalty_Neutral>
1.90064e-05

> <r_epik_State_Penalty>
1.18624

> <r_epik_Charging_Adjusted_Penalty>
2.31313

> <i_epik_Tot_Q>
1

> <i_epik_Tot_abs_Q>
1

> <r_epik_Metal_State_Penalty>
1.27004

> <b_epik_Metal_Only>
0

> <s_lp_Force_Field>
OPLS_2005

> <r_lp_Energy>
56.6577

> <b_lp_Chiralities_Consistent>
1

> <s_lp_Variant>
AV-unprocessed.smi:1935-2

> <Gold.Version>
5.8.1

> <Gold.Id.Protein>
6NUR|6NUR_protein|mol2

> <Gold.PLP.Fitness>
49.6693

> <Gold.PLP.PLP>
-42.7950

> <Gold.PLP.part.hbond>
-4.0825

> <Gold.PLP.part.metal>
0.0000

> <Gold.PLP.part.buried>
-4.9012

> <Gold.PLP.part.nonpolar>
-33.4351

> <Gold.PLP.part.repulsive>
0.2571

> <Gold.PLP.ligand.clash>
0.0000

> <Gold.PLP.ligand.torsion>
0.7402

> <Gold.PLP.Chemscore.Hbond>
2.7260

> <Gold.PLP.Chemscore.CHOScore>
0.0000

> <Gold.PLP.Chemscore.Metal>
0.0000

> <Gold.Chemscore.Hbonds>
donor molecule, donor type, donor heavy atom, donor atom, acceptor molecule, acceptor atom, score
      L1  H     3    26       P1  7948  0.95
      L1  H    14    41       P1  7948  0.60
      P1  H  7997  8009       L1    13  0.82

> <Gold.PLP.Chemscore.Internal.Correction>
0.1767

> <Gold.Rescore>
     Score         DG    S(hbond)    S(metal)    S(lipo)     H(rot)  DE(clash)    DE(int)     intcor
     16.33     -18.26       2.51        0.00      73.77       1.66       0.02       1.91       ----

> <Gold.Chemscore.Fitness>
16.3268

> <Gold.Chemscore.DG>
-18.2560

> <Gold.Chemscore.ZeroCoef>
-5.4800

> <Gold.Chemscore.Hbond>
2.5116

> <Gold.Chemscore.Metal>
0.0000

> <Gold.Chemscore.Lipo>
73.7734

> <Gold.Chemscore.Internal_Hbond>
0.0000

> <Gold.Chemscore.DEClash>
0.0234

> <Gold.Chemscore.DEInternal>
1.9058

> <Gold.Chemscore.Rot>
1.6579

> <Gold.Chemscore.Internal.Correction>
   9.000000E+99

> <Gold.Chemscore.Hbonds>
donor molecule, donor type, donor heavy atom, donor atom, acceptor molecule, acceptor atom, score
      L1  H     3    26       P1  7948  0.21
      L1  H    14    41       P1  7948  0.04
      P1  H  7997  8009       L1    13  0.42

> <Gold.Chemscore.Hbond.Weighted>
-8.3888

> <Gold.Chemscore.Metal.Weighted>
-0.0000

> <Gold.Chemscore.Lipo.Weighted>
-8.6315

> <Gold.Chemscore.Internal_Hbond.Weighted>
0.0000

> <Gold.Chemscore.DEClash.Weighted>
0.0234

> <Gold.Chemscore.DEInternal.Weighted>
1.9058

> <Gold.Chemscore.Rot.Weighted>
4.2443

> <Gold.Chemscore.Internal.Correction.Weighted>
   9.000000E+99

> <Gold.Protein.RotatedTorsions>
[ 6907 6896 6895 6894 ] final  -95.18 input  -60.11 | X-H torsion
[ 7974 7965 7964 7962 ] final -171.88 input  175.53 | X-H torsion
[ 8008 7997 7996 7995 ] final  176.44 input   59.86 | X-H torsion
[ 10167 10162 10161 10158 ] final  -72.16 input  -65.29 | X-H torsion
[ 10718 10713 10712 10709 ] final  145.26 input   66.30 | X-H torsion
[ 10763 10752 10751 10750 ] final  -77.39 input  -60.55 | X-H torsion
[ 11005 11000 10999 10996 ] final  133.24 input  -57.11 | X-H torsion

> <Gold.Protein.ActiveResidues>
 VAL166  LYS551  ARG553  GLY616  TRP617  ASP618  TYR619  PRO620  LYS621  CYS622 
 ASP623  PHE694  ASN695  SER759  ASP760  ASP761  ALA762  ILE779  LEU786  VAL792 
 PHE793  MET794  SER795  GLU796  ALA797  LYS798  CYS799  TRP800  GLU811  SER814 

> <Gold.Protein.RotatedAtoms>
  150.6958  134.1697  159.4207 H   0  0  0  0  0  0  0  0  0  0  0  0  # atno 6907 bound_to 6896
  151.9676  135.0090  160.0560 H   0  0  0  0  0  0  0  0  0  0  0  0  # atno 6908 bound_to 6896
  152.1871  133.4712  159.5025 H   0  0  0  0  0  0  0  0  0  0  0  0  # atno 6909 bound_to 6896
  144.7152  140.1856  143.6354 H   0  0  0  0  0  0  0  0  0  0  0  0  # atno 7974 bound_to 7965
  156.0765  140.1383  156.9765 H   0  0  0  0  0  0  0  0  0  0  0  0  # atno 8008 bound_to 7997
  154.4560  140.0961  156.6809 H   0  0  0  0  0  0  0  0  0  0  0  0  # atno 8009 bound_to 7997
  155.5145  140.3454  155.4397 H   0  0  0  0  0  0  0  0  0  0  0  0  # atno 8010 bound_to 7997
  140.5215  143.2331  151.7421 H   0  0  0  0  0  0  0  0  0  0  0  0  # atno 10167 bound_to 10162
  157.3474  131.0945  151.1030 H   0  0  0  0  0  0  0  0  0  0  0  0  # atno 10718 bound_to 10713
  154.5123  135.5765  153.6614 H   0  0  0  0  0  0  0  0  0  0  0  0  # atno 10763 bound_to 10752
  152.9899  135.6161  154.2863 H   0  0  0  0  0  0  0  0  0  0  0  0  # atno 10764 bound_to 10752
  154.2778  135.2851  155.2690 H   0  0  0  0  0  0  0  0  0  0  0  0  # atno 10765 bound_to 10752
  139.9839  134.9539  156.9697 H   0  0  0  0  0  0  0  0  0  0  0  0  # atno 11005 bound_to 11000
  145.8816  139.2326  143.1602 LP  0  0  0  0  0  0  0  0  0  0  0  0  # atno 17320 bound_to 7965
  145.9989  140.8537  143.0028 LP  0  0  0  0  0  0  0  0  0  0  0  0  # atno 17321 bound_to 7965
  139.4925  144.4248  151.9938 LP  0  0  0  0  0  0  0  0  0  0  0  0  # atno 17342 bound_to 10162
  140.3344  144.3277  150.5980 LP  0  0  0  0  0  0  0  0  0  0  0  0  # atno 17343 bound_to 10162
  157.2218  130.6485  149.5814 LP  0  0  0  0  0  0  0  0  0  0  0  0  # atno 17370 bound_to 10713
  155.9716  130.4627  150.6154 LP  0  0  0  0  0  0  0  0  0  0  0  0  # atno 17371 bound_to 10713
  140.5040  134.1068  155.7256 LP  0  0  0  0  0  0  0  0  0  0  0  0  # atno 17394 bound_to 11000
  141.1507  133.8973  157.2104 LP  0  0  0  0  0  0  0  0  0  0  0  0  # atno 17395 bound_to 11000

$$$$
