AV-unprocessed.smi:1383|AV-procd|sdf|5623|dock3
  -GOLD-   22720 5233D 1   1.00000     0.00000
 Structure written by MMmdl.
 31 31  0  0  0  0  0  0  0  0  1 V2000
  152.0536  144.5630  160.8235 C   0  0  0  0  0  0  0  0  0  0  0  0
  152.0835  143.3548  159.8739 C   0  0  0  0  0  0  0  0  0  0  0  0
  151.3635  143.5876  158.5272 C   0  0  1  0  0  0  0  0  0  0  0  0
  152.1343  144.5979  157.6598 C   0  0  0  0  0  0  0  0  0  0  0  0
  151.1566  142.2744  157.7561 C   0  0  0  0  0  0  0  0  0  0  0  0
  151.7038  141.2438  158.1503 O   0  0  0  0  0  0  0  0  0  0  0  0
  150.3612  142.3498  156.6723 N   0  0  0  0  0  0  0  0  0  0  0  0
  149.9761  141.3082  155.7886 C   0  0  0  0  0  0  0  0  0  0  0  0
  150.5738  140.1134  155.7244 N   0  0  0  0  0  0  0  0  0  0  0  0
  149.9830  139.2745  154.7731 C   0  0  0  0  0  0  0  0  0  0  0  0
  150.5170  137.8869  154.5593 C   0  0  0  0  0  0  0  0  0  0  0  0
  149.6694  136.8554  155.3092 C   0  0  0  0  0  0  0  0  0  0  0  0
  149.0927  135.8909  154.5859 N   0  0  0  0  0  0  0  0  0  0  0  0
  149.5452  136.9207  156.5302 O   0  0  0  0  0  0  0  0  0  0  0  0
  148.9337  139.8645  154.1098 C   0  0  0  0  0  0  0  0  0  0  0  0
  148.6410  141.4918  154.6625 S   0  0  0  0  0  0  0  0  0  0  0  0
  152.6293  144.3577  161.7260 H   0  0  0  0  0  0  0  0  0  0  0  0
  151.0375  144.8078  161.1338 H   0  0  0  0  0  0  0  0  0  0  0  0
  152.4829  145.4464  160.3500 H   0  0  0  0  0  0  0  0  0  0  0  0
  153.1260  143.1017  159.6776 H   0  0  0  0  0  0  0  0  0  0  0  0
  151.6581  142.4876  160.3810 H   0  0  0  0  0  0  0  0  0  0  0  0
  150.3850  144.0219  158.7392 H   0  0  0  0  0  0  0  0  0  0  0  0
  151.6335  144.7667  156.7057 H   0  0  0  0  0  0  0  0  0  0  0  0
  153.1481  144.2552  157.4482 H   0  0  0  0  0  0  0  0  0  0  0  0
  152.2116  145.5629  158.1614 H   0  0  0  0  0  0  0  0  0  0  0  0
  149.9744  143.2590  156.4658 H   0  0  0  0  0  0  0  0  0  0  0  0
  150.5261  137.6349  153.4982 H   0  0  0  0  0  0  0  0  0  0  0  0
  151.5516  137.8198  154.8989 H   0  0  0  0  0  0  0  0  0  0  0  0
  148.5346  135.1831  155.0404 H   0  0  0  0  0  0  0  0  0  0  0  0
  149.2281  135.8682  153.5855 H   0  0  0  0  0  0  0  0  0  0  0  0
  148.3156  139.4406  153.3325 H   0  0  0  0  0  0  0  0  0  0  0  0
  1  2  1  0  0  0  0
  1 17  1  0  0  0  0
  1 18  1  0  0  0  0
  1 19  1  0  0  0  0
  2  3  1  0  0  0  0
  2 20  1  0  0  0  0
  2 21  1  0  0  0  0
  3  4  1  0  0  0  0
  3  5  1  0  0  0  0
  3 22  1  0  0  0  0
  4 23  1  0  0  0  0
  4 24  1  0  0  0  0
  4 25  1  0  0  0  0
  5  6  2  0  0  0  0
  5  7  1  0  0  0  0
  7  8  1  0  0  0  0
  7 26  1  0  0  0  0
  8 16  1  0  0  0  0
  8  9  2  0  0  0  0
  9 10  1  0  0  0  0
 10 11  1  0  0  0  0
 10 15  2  0  0  0  0
 11 12  1  0  0  0  0
 11 27  1  0  0  0  0
 11 28  1  0  0  0  0
 12 13  1  0  0  0  0
 12 14  2  0  0  0  0
 13 29  1  0  0  0  0
 13 30  1  0  0  0  0
 15 16  1  0  0  0  0
 15 31  1  0  0  0  0
M  END
> <s_m_source_file>
AV-unprocessed.smi

> <i_m_source_file_index>
1383

> <i_lp_mmshare_version>
43012

> <i_f3d_flags>
0

> <s_epik_input>
W0NIM11bQ0gyXVtDQEhdKFtDSDNdKUMoPU8pW05IXWMxbmMoW2NIXXMxKVtDSDJdQyg9TylbTkgyXQ==

> <s_epik_cmdline>
J2VwaWtfcHl0aG9uJywgJy1waCcsICc3LjAnLCAnLXRuJywgJzgnLCAnLW1hJywgJzIwMCcsICctbWV0YWxfYmluZGluZycsICctaW1hZScsICc8aW5maWxlLm1hZT4nLCAnLW9tYWUnLCAnPG91dGZpbGUubWFlPic=

> <r_lp_tautomer_probability>
1

> <r_epik_Ionization_Penalty>
0.00017492

> <r_epik_Ionization_Penalty_Charging>
0

> <r_epik_Ionization_Penalty_Neutral>
0.00017492

> <r_epik_State_Penalty>
-0

> <r_epik_Charging_Adjusted_Penalty>
0

> <i_epik_Tot_Q>
0

> <i_epik_Tot_abs_Q>
0

> <r_epik_Metal_State_Penalty>
0.109333

> <b_epik_Metal_Only>
0

> <s_lp_Force_Field>
OPLS_2005

> <r_lp_Energy>
2.80551

> <b_lp_Chiralities_Consistent>
1

> <s_lp_Variant>
AV-unprocessed.smi:1383-2

> <Gold.Version>
5.8.1

> <Gold.Id.Protein>
6NUR|6NUR_protein|mol2

> <Gold.PLP.Fitness>
39.7417

> <Gold.PLP.PLP>
-33.2903

> <Gold.PLP.part.hbond>
-2.0000

> <Gold.PLP.part.metal>
0.0000

> <Gold.PLP.part.buried>
-3.6952

> <Gold.PLP.part.nonpolar>
-28.4329

> <Gold.PLP.part.repulsive>
0.1239

> <Gold.PLP.ligand.clash>
0.0000

> <Gold.PLP.ligand.torsion>
0.5314

> <Gold.PLP.Chemscore.Hbond>
2.0000

> <Gold.PLP.Chemscore.CHOScore>
0.4781

> <Gold.PLP.Chemscore.Metal>
0.0000

> <Gold.Chemscore.Hbonds>
donor molecule, donor type, donor heavy atom, donor atom, acceptor molecule, acceptor atom, score
      L1  H     7    26       P1  8028  1.00
      L1  H    13    30       P1  7948  1.00
      L1  C    15    31       P1  7957  0.40

> <Gold.PLP.Chemscore.Internal.Correction>
0.0798

> <Gold.Rescore>
     Score         DG    S(hbond)    S(metal)    S(lipo)     H(rot)  DE(clash)    DE(int)     intcor
     13.41     -15.40       1.98        0.00      76.21       2.19       0.30       1.69       ----

> <Gold.Chemscore.Fitness>
13.4145

> <Gold.Chemscore.DG>
-15.4041

> <Gold.Chemscore.ZeroCoef>
-5.4800

> <Gold.Chemscore.Hbond>
1.9841

> <Gold.Chemscore.Metal>
0.0000

> <Gold.Chemscore.Lipo>
76.2050

> <Gold.Chemscore.Internal_Hbond>
0.0000

> <Gold.Chemscore.DEClash>
0.3022

> <Gold.Chemscore.DEInternal>
1.6874

> <Gold.Chemscore.Rot>
2.1948

> <Gold.Chemscore.Internal.Correction>
   9.000000E+99

> <Gold.Chemscore.Hbonds>
donor molecule, donor type, donor heavy atom, donor atom, acceptor molecule, acceptor atom, score
      L1  H     7    26       P1  8028  0.97
      L1  H    13    30       P1  7948  0.74

> <Gold.Chemscore.Hbond.Weighted>
-6.6268

> <Gold.Chemscore.Metal.Weighted>
-0.0000

> <Gold.Chemscore.Lipo.Weighted>
-8.9160

> <Gold.Chemscore.Internal_Hbond.Weighted>
0.0000

> <Gold.Chemscore.DEClash.Weighted>
0.3022

> <Gold.Chemscore.DEInternal.Weighted>
1.6874

> <Gold.Chemscore.Rot.Weighted>
5.6186

> <Gold.Chemscore.Internal.Correction.Weighted>
   9.000000E+99

> <Gold.Protein.RotatedTorsions>
[ 6907 6896 6895 6894 ] final -122.88 input  -60.11 | X-H torsion
[ 7974 7965 7964 7962 ] final  -94.57 input  175.53 | X-H torsion
[ 8008 7997 7996 7995 ] final  -31.52 input   59.86 | X-H torsion
[ 10167 10162 10161 10158 ] final   73.05 input  -65.29 | X-H torsion
[ 10718 10713 10712 10709 ] final   82.75 input   66.30 | X-H torsion
[ 10763 10752 10751 10750 ] final  -25.04 input  -60.55 | X-H torsion
[ 11005 11000 10999 10996 ] final  -14.62 input  -57.11 | X-H torsion

> <Gold.Protein.ActiveResidues>
 VAL166  LYS551  ARG553  GLY616  TRP617  ASP618  TYR619  PRO620  LYS621  CYS622 
 ASP623  PHE694  ASN695  SER759  ASP760  ASP761  ALA762  ILE779  LEU786  VAL792 
 PHE793  MET794  SER795  GLU796  ALA797  LYS798  CYS799  TRP800  GLU811  SER814 

> <Gold.Protein.RotatedAtoms>
  150.8617  133.7633  159.2989 H   0  0  0  0  0  0  0  0  0  0  0  0  # atno 6907 bound_to 6896
  151.5273  135.1066  159.9903 H   0  0  0  0  0  0  0  0  0  0  0  0  # atno 6908 bound_to 6896
  152.4631  133.7821  159.6912 H   0  0  0  0  0  0  0  0  0  0  0  0  # atno 6909 bound_to 6896
  145.3715  140.9506  143.2445 H   0  0  0  0  0  0  0  0  0  0  0  0  # atno 7974 bound_to 7965
  154.4211  140.1762  156.1579 H   0  0  0  0  0  0  0  0  0  0  0  0  # atno 8008 bound_to 7997
  155.9862  140.3373  155.6685 H   0  0  0  0  0  0  0  0  0  0  0  0  # atno 8009 bound_to 7997
  155.6434  140.0682  157.2602 H   0  0  0  0  0  0  0  0  0  0  0  0  # atno 8010 bound_to 7997
  140.0287  144.5483  150.7524 H   0  0  0  0  0  0  0  0  0  0  0  0  # atno 10167 bound_to 10162
  157.6864  131.0061  150.2421 H   0  0  0  0  0  0  0  0  0  0  0  0  # atno 10718 bound_to 10713
  153.6934  135.6960  153.5083 H   0  0  0  0  0  0  0  0  0  0  0  0  # atno 10763 bound_to 10752
  153.2396  135.4310  155.0682 H   0  0  0  0  0  0  0  0  0  0  0  0  # atno 10764 bound_to 10752
  154.8366  135.3504  154.6476 H   0  0  0  0  0  0  0  0  0  0  0  0  # atno 10765 bound_to 10752
  140.7882  133.8308  155.9355 H   0  0  0  0  0  0  0  0  0  0  0  0  # atno 11005 bound_to 11000
  144.8573  139.5230  143.6828 LP  0  0  0  0  0  0  0  0  0  0  0  0  # atno 17320 bound_to 7965
  146.2883  139.7067  142.9179 LP  0  0  0  0  0  0  0  0  0  0  0  0  # atno 17321 bound_to 7965
  140.7311  143.2691  151.3946 LP  0  0  0  0  0  0  0  0  0  0  0  0  # atno 17342 bound_to 10162
  139.6091  144.1136  152.2280 LP  0  0  0  0  0  0  0  0  0  0  0  0  # atno 17343 bound_to 10162
  156.3033  130.3761  149.7729 LP  0  0  0  0  0  0  0  0  0  0  0  0  # atno 17370 bound_to 10713
  156.5353  130.8275  151.3251 LP  0  0  0  0  0  0  0  0  0  0  0  0  # atno 17371 bound_to 10713
  140.9415  134.1894  157.4794 LP  0  0  0  0  0  0  0  0  0  0  0  0  # atno 17394 bound_to 11000
  139.8734  134.9874  156.5365 LP  0  0  0  0  0  0  0  0  0  0  0  0  # atno 17395 bound_to 11000

$$$$
