#       Name:                AV-unprocessed.smi:945
#       Creating user name   scv26
#       Creation time:       Fri Mar 27 02:14:14 2020


#       File generated by GOLD software.
#

@<TRIPOS>MOLECULE
AV-unprocessed.smi:945
    34    35     1
SMALL
NO_CHARGES


@<TRIPOS>ATOM
      1 ****        -4.9645   2.0931  -1.1030 C.3            1 S1                 0.0000
      2 ****        -4.6591   1.9638   0.3932 C.3            1 S1                 0.0000
      3 ****        -3.6571   0.8967   0.6821 C.2            1 S1                 0.0000
      4 ****        -2.3371   1.0977   0.6452 N.2            1 S1                 0.0000
      5 ****        -1.6074  -0.0639   0.9166 C.2            1 S1                 0.0000
      6 ****        -0.1095  -0.0239   0.9125 C.3            1 S1                 0.0000
      7 ****         0.4644  -0.0591  -0.5136 C.3            1 S1                 0.0000
      8 ****         1.9210   0.0138  -0.5136 N.am           1 S1                 0.0000
      9 ****         2.7460  -1.0198  -0.2877 C.2            1 S1                 0.0000
     10 ****         2.3439  -2.1576  -0.0392 O.2            1 S1                 0.0000
     11 ****         4.1953  -0.6665  -0.3675 C.3            1 S1                 0.0000
     12 ****         5.1386  -1.7046  -0.9404 C.3            1 S1                 0.0000
     13 ****         5.1540  -1.4118   0.5387 C.3            1 S1                 0.0000
     14 ****        -2.4011  -1.1588   1.1520 C.2            1 S1                 0.0000
     15 ****        -4.0954  -0.7707   1.0355 S.3            1 S1                 0.0000
     16 ****        -5.6976   2.8793  -1.2835 H              1 S1                 0.0000
     17 ****        -5.3666   1.1625  -1.5047 H              1 S1                 0.0000
     18 ****        -4.0649   2.3407  -1.6674 H              1 S1                 0.0000
     19 ****        -4.2861   2.9125   0.7807 H              1 S1                 0.0000
     20 ****        -5.5749   1.7408   0.9412 H              1 S1                 0.0000
     21 ****         0.2384   0.8752   1.4231 H              1 S1                 0.0000
     22 ****         0.2822  -0.8636   1.4876 H              1 S1                 0.0000
     23 ****         0.1346  -0.9592  -1.0356 H              1 S1                 0.0000
     24 ****         0.0862   0.7875  -1.0873 H              1 S1                 0.0000
     25 ****         2.3321   0.9151  -0.7097 H              1 S1                 0.0000
     26 ****         4.4312   0.3757  -0.5774 H              1 S1                 0.0000
     27 ****         4.7287  -2.6625  -1.2561 H              1 S1                 0.0000
     28 ****         5.9684  -1.3395  -1.5421 H              1 S1                 0.0000
     29 ****         5.9935  -0.8473   0.9389 H              1 S1                 0.0000
     30 ****         4.7554  -2.1760   1.2036 H              1 S1                 0.0000
     31 ****        -2.0920  -2.1686   1.3785 H              1 S1                 0.0000
     32 ****        -1.9165   1.9826   0.4452 LP             1 S1                 0.0000
     33 ****         1.3621  -2.3433   0.0012 LP             1 S1                 0.0000
     34 ****         2.9993  -2.8955   0.1220 LP             1 S1                 0.0000
@<TRIPOS>BOND
    1    1    2 1     
    2    1   16 1     
    3    1   17 1     
    4    1   18 1     
    5    2    3 1     
    6    2   19 1     
    7    2   20 1     
    8    3   15 1     
    9    3    4 2     
   10    4    5 1     
   11    5    6 1     
   12    5   14 2     
   13    6    7 1     
   14    6   21 1     
   15    6   22 1     
   16    7    8 1     
   17    7   23 1     
   18    7   24 1     
   19    8    9 am    
   20    8   25 1     
   21    9   10 2     
   22    9   11 1     
   23   11   13 1     
   24   11   12 1     
   25   11   26 1     
   26   12   13 1     
   27   12   27 1     
   28   12   28 1     
   29   13   29 1     
   30   13   30 1     
   31   14   15 1     
   32   14   31 1     
   33    4   32 1     
   34   10   33 1     
   35   10   34 1     
@<TRIPOS>SUBSTRUCTURE
      1 S1             1
@<TRIPOS>SET
LONE_PAIRS      STATIC     ATOMS    <user>   **** ""
3 32 33 34
DONOR_HYDROGENS      STATIC     ATOMS    <user>   **** ""
1 25
ATOM$BLUE        STATIC     ATOMS    COLORGROUP SYSTEM
3 32 33 34
ATOM$RED        STATIC     ATOMS    COLORGROUP SYSTEM
1 25
