#       Name:                AV-unprocessed.smi:2720
#       Creating user name   scv26
#       Creation time:       Fri Mar 27 14:54:28 2020


#       File generated by GOLD software.
#

@<TRIPOS>MOLECULE
AV-unprocessed.smi:2720
    34    35     1
SMALL
NO_CHARGES


@<TRIPOS>ATOM
      1 ****        -0.8224   1.2563   1.2384 O.3            1 S1                 0.0000
      2 ****        -0.3488  -0.0391   0.9143 C.3            1 S1                 0.0000
      3 ****         1.2002   0.0476   0.8593 C.3            1 S1                 0.0000
      4 ****         1.7732   0.6177  -0.4305 C.ar           1 S1                 0.0000
      5 ****         2.2781  -0.2366  -1.4371 C.ar           1 S1                 0.0000
      6 ****         2.8044   0.3260  -2.6181 C.ar           1 S1                 0.0000
      7 ****         2.8220   1.6677  -2.7746 N.pl3          1 S1                 1.0000
      8 ****         2.3525   2.5199  -1.8375 C.ar           1 S1                 0.0000
      9 ****         1.8154   2.0148  -0.6358 C.ar           1 S1                 0.0000
     10 ****        -0.7932  -1.0061   2.0367 C.3            1 S1                 0.0000
     11 ****        -2.3203  -1.2005   2.0873 C.3            1 S1                 0.0000
     12 ****        -2.8372  -1.6396   0.7747 N.4            1 S1                 1.0000
     13 ****        -2.5160  -0.6900  -0.3108 C.3            1 S1                 0.0000
     14 ****        -0.9945  -0.4746  -0.4260 C.3            1 S1                 0.0000
     15 ****        -0.4528   1.5166   2.0690 H              1 S1                 0.0000
     16 ****         1.5845   0.6168   1.7074 H              1 S1                 0.0000
     17 ****         1.6172  -0.9537   0.9753 H              1 S1                 0.0000
     18 ****         2.2630  -1.3094  -1.3100 H              1 S1                 0.0000
     19 ****         3.2096  -0.2523  -3.4357 H              1 S1                 0.0000
     20 ****         2.4210   3.5715  -2.0751 H              1 S1                 0.0000
     21 ****         1.4397   2.6929   0.1169 H              1 S1                 0.0000
     22 ****        -0.3270  -1.9802   1.8805 H              1 S1                 0.0000
     23 ****        -0.4347  -0.6535   3.0048 H              1 S1                 0.0000
     24 ****        -2.5801  -1.9478   2.8373 H              1 S1                 0.0000
     25 ****        -2.8176  -0.2746   2.3793 H              1 S1                 0.0000
     26 ****        -2.4331  -2.5378   0.5505 H              1 S1                 0.0000
     27 ****        -2.9134  -1.0777  -1.2491 H              1 S1                 0.0000
     28 ****        -3.0235   0.2567  -0.1209 H              1 S1                 0.0000
     29 ****        -0.8008   0.2609  -1.2078 H              1 S1                 0.0000
     30 ****        -0.5333  -1.4048  -0.7614 H              1 S1                 0.0000
     31 ****        -3.8406  -1.7404   0.8355 H              1 S1                 0.0000
     32 ****         3.2078   2.0542  -3.6367 H              1 S1                 0.0000
     33 ****        -1.8201   1.2428   1.3039 LP             1 S1                 0.0000
     34 ****        -0.5436   1.9034   0.5288 LP             1 S1                 0.0000
@<TRIPOS>BOND
    1    1    2 1     
    2    1   15 1     
    3    2   14 1     
    4    2    3 1     
    5    2   10 1     
    6    3    4 1     
    7    3   16 1     
    8    3   17 1     
    9    4    9 ar    
   10    4    5 ar    
   11    5    6 ar    
   12    5   18 1     
   13    6    7 ar    
   14    6   19 1     
   15    7    8 ar    
   16    7   32 1     
   17    8    9 ar    
   18    8   20 1     
   19    9   21 1     
   20   10   11 1     
   21   10   22 1     
   22   10   23 1     
   23   11   12 1     
   24   11   24 1     
   25   11   25 1     
   26   12   13 1     
   27   12   26 1     
   28   12   31 1     
   29   13   14 1     
   30   13   27 1     
   31   13   28 1     
   32   14   29 1     
   33   14   30 1     
   34    1   33 1     
   35    1   34 1     
@<TRIPOS>SUBSTRUCTURE
      1 S1             1
@<TRIPOS>SET
LONE_PAIRS      STATIC     ATOMS    <user>   **** ""
2 33 34
DONOR_HYDROGENS      STATIC     ATOMS    <user>   **** ""
4 15 32 26 31
ATOM$BLUE        STATIC     ATOMS    COLORGROUP SYSTEM
2 33 34
ATOM$RED        STATIC     ATOMS    COLORGROUP SYSTEM
4 15 32 26 31
