#       Name:                AV-unprocessed.smi:3050
#       Creating user name   scv26
#       Creation time:       Fri Mar 27 17:02:06 2020


#       File generated by GOLD software.
#

@<TRIPOS>MOLECULE
AV-unprocessed.smi:3050
    50    51     1
SMALL
NO_CHARGES


@<TRIPOS>ATOM
      1 ****        -4.1462  -1.3693   3.0243 C.3            1 S1                 0.0000
      2 ****        -2.6192  -1.4027   2.8826 C.3            1 S1                 0.0000
      3 ****        -2.1212  -0.6785   1.6176 C.3            1 S1                 0.0000
      4 ****        -2.5693  -1.4220   0.4846 O.3            1 S1                 0.0000
      5 ****        -2.3994  -0.8046  -0.7881 C.3            1 S1                 0.0000
      6 ****        -3.6079  -1.0902  -1.6773 C.3            1 S1                 0.0000
      7 ****        -3.0923  -0.8837  -3.1043 C.3            1 S1                 0.0000
      8 ****        -1.5820  -1.1643  -3.0544 C.3            1 S1                 0.0000
      9 ****        -1.2376  -1.4105  -1.5803 C.3            1 S1                 0.0000
     10 ****        -0.5886  -0.5542   1.6110 C.2            1 S1                 0.0000
     11 ****         0.1167  -1.5453   1.8011 O.2            1 S1                 0.0000
     12 ****        -0.0906   0.6695   1.3752 N.am           1 S1                 0.0000
     13 ****         1.3273   1.0037   1.3181 C.3            1 S1                 0.0000
     14 ****         1.9464   0.6295  -0.0381 C.3            1 S1                 0.0000
     15 ****         3.3919   1.0330  -0.1130 C.2            1 S1                 0.0000
     16 ****         4.5314   0.2739   0.2787 C.2            1 S1                 0.0000
     17 ****         5.6703   0.9191   0.0861 N.2            1 S1                 0.0000
     18 ****         5.2995   2.1074  -0.4332 N.pl3          1 S1                 0.0000
     19 ****         6.3118   3.0842  -0.7730 C.3            1 S1                 0.0000
     20 ****         3.9310   2.2041  -0.5656 C.2            1 S1                 0.0000
     21 ****        -4.4624  -1.8793   3.9344 H              1 S1                 0.0000
     22 ****        -4.6324  -1.8625   2.1822 H              1 S1                 0.0000
     23 ****        -4.5151  -0.3445   3.0716 H              1 S1                 0.0000
     24 ****        -2.1783  -0.9424   3.7680 H              1 S1                 0.0000
     25 ****        -2.2823  -2.4404   2.8763 H              1 S1                 0.0000
     26 ****        -2.5656   0.3188   1.5934 H              1 S1                 0.0000
     27 ****        -2.2770   0.2773  -0.7075 H              1 S1                 0.0000
     28 ****        -3.9210  -2.1278  -1.5515 H              1 S1                 0.0000
     29 ****        -4.4625  -0.4554  -1.4411 H              1 S1                 0.0000
     30 ****        -3.6081  -1.5279  -3.8169 H              1 S1                 0.0000
     31 ****        -3.2624   0.1482  -3.4137 H              1 S1                 0.0000
     32 ****        -1.3108  -2.0249  -3.6669 H              1 S1                 0.0000
     33 ****        -1.0303  -0.3049  -3.4379 H              1 S1                 0.0000
     34 ****        -0.2718  -0.9896  -1.3043 H              1 S1                 0.0000
     35 ****        -1.1918  -2.4845  -1.3949 H              1 S1                 0.0000
     36 ****        -0.7437   1.4247   1.2249 H              1 S1                 0.0000
     37 ****         1.4244   2.0766   1.4863 H              1 S1                 0.0000
     38 ****         1.8615   0.5116   2.1329 H              1 S1                 0.0000
     39 ****         1.8486  -0.4446  -0.1991 H              1 S1                 0.0000
     40 ****         1.3760   1.1023  -0.8385 H              1 S1                 0.0000
     41 ****         4.5629  -0.7217   0.6963 H              1 S1                 0.0000
     42 ****         5.8415   4.0153  -1.0903 H              1 S1                 0.0000
     43 ****         6.9318   2.7045  -1.5856 H              1 S1                 0.0000
     44 ****         6.9404   3.2835   0.0954 H              1 S1                 0.0000
     45 ****         3.4581   3.0890  -0.9655 H              1 S1                 0.0000
     46 ****        -3.5452  -1.6032   0.6066 LP             1 S1                 0.0000
     47 ****        -2.0687  -2.2876   0.4717 LP             1 S1                 0.0000
     48 ****        -0.3067  -2.4371   1.9609 LP             1 S1                 0.0000
     49 ****         1.1129  -1.4585   1.7957 LP             1 S1                 0.0000
     50 ****         6.5970   0.5981   0.2815 LP             1 S1                 0.0000
@<TRIPOS>BOND
    1    1    2 1     
    2    1   21 1     
    3    1   22 1     
    4    1   23 1     
    5    2    3 1     
    6    2   24 1     
    7    2   25 1     
    8    3    4 1     
    9    3   10 1     
   10    3   26 1     
   11    4    5 1     
   12    5    9 1     
   13    5    6 1     
   14    5   27 1     
   15    6    7 1     
   16    6   28 1     
   17    6   29 1     
   18    7    8 1     
   19    7   30 1     
   20    7   31 1     
   21    8    9 1     
   22    8   32 1     
   23    8   33 1     
   24    9   34 1     
   25    9   35 1     
   26   10   11 2     
   27   10   12 am    
   28   12   13 1     
   29   12   36 1     
   30   13   14 1     
   31   13   37 1     
   32   13   38 1     
   33   14   15 1     
   34   14   39 1     
   35   14   40 1     
   36   15   20 2     
   37   15   16 1     
   38   16   17 2     
   39   16   41 1     
   40   17   18 1     
   41   18   19 1     
   42   18   20 1     
   43   19   42 1     
   44   19   43 1     
   45   19   44 1     
   46   20   45 1     
   47    4   46 1     
   48    4   47 1     
   49   11   48 1     
   50   11   49 1     
   51   17   50 1     
@<TRIPOS>SUBSTRUCTURE
      1 S1             1
@<TRIPOS>SET
LONE_PAIRS      STATIC     ATOMS    <user>   **** ""
5 46 47 48 49 50
DONOR_HYDROGENS      STATIC     ATOMS    <user>   **** ""
1 36
ATOM$BLUE        STATIC     ATOMS    COLORGROUP SYSTEM
5 46 47 48 49 50
ATOM$RED        STATIC     ATOMS    COLORGROUP SYSTEM
1 36
