AV-unprocessed.smi:3140|AV-procd|sdf|11961|dock8
  -GOLD-   2272017363D 1   1.00000     0.00000
 Structure written by MMmdl.
 37 38  0  0  0  0  0  0  0  0  1 V2000
  152.2318  139.5879  155.7907 C   0  0  0  0  0  0  0  0  0  0  0  0
  150.9150  140.3697  155.6379 C   0  0  1  0  0  0  0  0  0  0  0  0
  149.8328  139.4991  154.9677 C   0  0  0  0  0  0  0  0  0  0  0  0
  148.6527  140.2634  154.6009 N   0  0  0  0  0  0  0  0  0  0  0  0
  148.4123  141.6079  154.7920 C   0  0  0  0  0  0  0  0  0  0  0  0
  147.1721  141.8756  154.2873 C   0  0  0  0  0  0  0  0  0  0  0  0
  146.7276  140.6152  153.7988 C   0  0  0  0  0  0  0  0  0  0  0  0
  147.6168  139.6530  153.9849 N   0  0  0  0  0  0  0  0  0  0  0  0
  150.4335  140.8008  156.9462 N   0  0  0  0  0  0  0  0  0  0  0  0
  151.2659  141.8402  157.5316 C   0  0  0  0  0  0  0  0  0  0  0  0
  152.1813  141.2190  158.5970 C   0  0  0  0  0  0  0  0  0  0  0  0
  152.3512  142.1138  159.7378 N   0  0  0  0  0  0  0  0  0  0  0  0
  151.5964  143.3523  159.8285 C   0  0  0  0  0  0  0  0  0  0  0  0
  152.1910  144.0930  161.0349 C   0  0  0  0  0  0  0  0  0  0  0  0
  153.0318  143.0559  161.7879 C   0  0  0  0  0  0  0  0  0  0  0  0
  153.1358  141.9048  160.8017 C   0  0  0  0  0  0  0  0  0  0  0  0
  153.8564  140.9260  160.9919 O   0  0  0  0  0  0  0  0  0  0  0  0
  152.5772  139.2193  154.8246 H   0  0  0  0  0  0  0  0  0  0  0  0
  152.1088  138.7253  156.4466 H   0  0  0  0  0  0  0  0  0  0  0  0
  153.0309  140.2065  156.1981 H   0  0  0  0  0  0  0  0  0  0  0  0
  151.0892  141.2442  155.0092 H   0  0  0  0  0  0  0  0  0  0  0  0
  150.2289  139.0519  154.0553 H   0  0  0  0  0  0  0  0  0  0  0  0
  149.5421  138.6705  155.6163 H   0  0  0  0  0  0  0  0  0  0  0  0
  149.1357  142.2532  155.2680 H   0  0  0  0  0  0  0  0  0  0  0  0
  146.6608  142.8266  154.2693 H   0  0  0  0  0  0  0  0  0  0  0  0
  145.7921  140.3731  153.3160 H   0  0  0  0  0  0  0  0  0  0  0  0
  150.3579  140.0097  157.5698 H   0  0  0  0  0  0  0  0  0  0  0  0
  151.8655  142.3226  156.7604 H   0  0  0  0  0  0  0  0  0  0  0  0
  150.6332  142.6052  157.9834 H   0  0  0  0  0  0  0  0  0  0  0  0
  151.7658  140.2705  158.9413 H   0  0  0  0  0  0  0  0  0  0  0  0
  153.1601  140.9910  158.1712 H   0  0  0  0  0  0  0  0  0  0  0  0
  151.6805  143.9374  158.9117 H   0  0  0  0  0  0  0  0  0  0  0  0
  150.5432  143.1202  159.9917 H   0  0  0  0  0  0  0  0  0  0  0  0
  152.8291  144.9099  160.6953 H   0  0  0  0  0  0  0  0  0  0  0  0
  151.4139  144.5251  161.6661 H   0  0  0  0  0  0  0  0  0  0  0  0
  154.0159  143.4400  162.0577 H   0  0  0  0  0  0  0  0  0  0  0  0
  152.5273  142.7147  162.6923 H   0  0  0  0  0  0  0  0  0  0  0  0
  1  2  1  0  0  0  0
  1 18  1  0  0  0  0
  1 19  1  0  0  0  0
  1 20  1  0  0  0  0
  2  3  1  0  0  0  0
  2  9  1  0  0  0  0
  2 21  1  0  0  0  0
  3  4  1  0  0  0  0
  3 22  1  0  0  0  0
  3 23  1  0  0  0  0
  4  8  1  0  0  0  0
  4  5  1  0  0  0  0
  5  6  2  0  0  0  0
  5 24  1  0  0  0  0
  6  7  1  0  0  0  0
  6 25  1  0  0  0  0
  7  8  2  0  0  0  0
  7 26  1  0  0  0  0
  9 10  1  0  0  0  0
  9 27  1  0  0  0  0
 10 11  1  0  0  0  0
 10 28  1  0  0  0  0
 10 29  1  0  0  0  0
 11 12  1  0  0  0  0
 11 30  1  0  0  0  0
 11 31  1  0  0  0  0
 12 16  1  0  0  0  0
 12 13  1  0  0  0  0
 13 14  1  0  0  0  0
 13 32  1  0  0  0  0
 13 33  1  0  0  0  0
 14 15  1  0  0  0  0
 14 34  1  0  0  0  0
 14 35  1  0  0  0  0
 15 16  1  0  0  0  0
 15 36  1  0  0  0  0
 15 37  1  0  0  0  0
 16 17  2  0  0  0  0
M  END
> <s_m_source_file>
AV-unprocessed.smi

> <i_m_source_file_index>
3140

> <i_lp_mmshare_version>
43012

> <i_f3d_flags>
0

> <s_epik_input>
bjFbY0hdW2NIXVtjSF1uMVtDSDJdW0NAQEhdKFtDSDNdKVtOSF1bQ0gyXVtDSDJdTjJbQ0gyXVtDSDJdW0NIMl1DMj1P

> <s_epik_cmdline>
J2VwaWtfcHl0aG9uJywgJy1waCcsICc3LjAnLCAnLXRuJywgJzgnLCAnLW1hJywgJzIwMCcsICctbWV0YWxfYmluZGluZycsICctaW1hZScsICc8aW5maWxlLm1hZT4nLCAnLW9tYWUnLCAnPG91dGZpbGUubWFlPic=

> <r_lp_tautomer_probability>
1

> <r_epik_Ionization_Penalty>
2.53587

> <r_epik_Ionization_Penalty_Charging>
0

> <r_epik_Ionization_Penalty_Neutral>
2.53587

> <r_epik_State_Penalty>
2.70334

> <r_epik_Charging_Adjusted_Penalty>
2.70334

> <i_epik_Tot_Q>
0

> <i_epik_Tot_abs_Q>
0

> <r_epik_Metal_State_Penalty>
2.7033

> <b_epik_Metal_Only>
0

> <s_lp_Force_Field>
OPLS_2005

> <r_lp_Energy>
20.5339

> <b_lp_Chiralities_Consistent>
1

> <s_lp_Variant>
AV-unprocessed.smi:3140-4

> <Gold.Version>
5.8.1

> <Gold.Id.Protein>
6NUR|6NUR_protein|mol2

> <Gold.PLP.Fitness>
44.8270

> <Gold.PLP.PLP>
-40.6492

> <Gold.PLP.part.hbond>
0.0000

> <Gold.PLP.part.metal>
0.0000

> <Gold.PLP.part.buried>
-2.7624

> <Gold.PLP.part.nonpolar>
-37.7242

> <Gold.PLP.part.repulsive>
0.3091

> <Gold.PLP.ligand.clash>
0.0000

> <Gold.PLP.ligand.torsion>
0.6788

> <Gold.PLP.Chemscore.Hbond>
0.0000

> <Gold.PLP.Chemscore.CHOScore>
1.8388

> <Gold.PLP.Chemscore.Metal>
0.0000

> <Gold.Chemscore.Hbonds>
donor molecule, donor type, donor heavy atom, donor atom, acceptor molecule, acceptor atom, score
      L1  C     5    24       P1  8028  0.91
      L1  C     7    26       P1 10175  1.00

> <Gold.PLP.Chemscore.Internal.Correction>
0.0189

> <Gold.Rescore>
     Score         DG    S(hbond)    S(metal)    S(lipo)     H(rot)  DE(clash)    DE(int)     intcor
     10.28     -11.30       0.00        0.00      92.93       1.97       0.07       0.95       ----

> <Gold.Chemscore.Fitness>
10.2824

> <Gold.Chemscore.DG>
-11.3043

> <Gold.Chemscore.ZeroCoef>
-5.4800

> <Gold.Chemscore.Hbond>
0.0000

> <Gold.Chemscore.Metal>
0.0000

> <Gold.Chemscore.Lipo>
92.9322

> <Gold.Chemscore.Internal_Hbond>
0.0000

> <Gold.Chemscore.DEClash>
0.0700

> <Gold.Chemscore.DEInternal>
0.9520

> <Gold.Chemscore.Rot>
1.9722

> <Gold.Chemscore.Internal.Correction>
   9.000000E+99

> <Gold.Chemscore.Hbond.Weighted>
-0.0000

> <Gold.Chemscore.Metal.Weighted>
-0.0000

> <Gold.Chemscore.Lipo.Weighted>
-10.8731

> <Gold.Chemscore.Internal_Hbond.Weighted>
0.0000

> <Gold.Chemscore.DEClash.Weighted>
0.0700

> <Gold.Chemscore.DEInternal.Weighted>
0.9520

> <Gold.Chemscore.Rot.Weighted>
5.0487

> <Gold.Chemscore.Internal.Correction.Weighted>
   9.000000E+99

> <Gold.Protein.RotatedTorsions>
[ 6907 6896 6895 6894 ] final  -73.07 input  -60.11 | X-H torsion
[ 7974 7965 7964 7962 ] final  -62.72 input  175.53 | X-H torsion
[ 8008 7997 7996 7995 ] final    8.97 input   59.86 | X-H torsion
[ 10167 10162 10161 10158 ] final  140.35 input  -65.29 | X-H torsion
[ 10718 10713 10712 10709 ] final  -51.54 input   66.30 | X-H torsion
[ 10763 10752 10751 10750 ] final  -13.15 input  -60.55 | X-H torsion
[ 11005 11000 10999 10996 ] final -163.83 input  -57.11 | X-H torsion

> <Gold.Protein.ActiveResidues>
 VAL166  LYS551  ARG553  GLY616  TRP617  ASP618  TYR619  PRO620  LYS621  CYS622 
 ASP623  PHE694  ASN695  SER759  ASP760  ASP761  ALA762  ILE779  LEU786  VAL792 
 PHE793  MET794  SER795  GLU796  ALA797  LYS798  CYS799  TRP800  GLU811  SER814 

> <Gold.Protein.RotatedAtoms>
  150.7144  134.5071  159.5588 H   0  0  0  0  0  0  0  0  0  0  0  0  # atno 6907 bound_to 6896
  152.2655  134.7985  160.0432 H   0  0  0  0  0  0  0  0  0  0  0  0  # atno 6908 bound_to 6896
  151.8684  133.3435  159.3763 H   0  0  0  0  0  0  0  0  0  0  0  0  # atno 6909 bound_to 6896
  145.7879  140.8726  143.0296 H   0  0  0  0  0  0  0  0  0  0  0  0  # atno 7974 bound_to 7965
  154.7738  140.2807  155.6117 H   0  0  0  0  0  0  0  0  0  0  0  0  # atno 8008 bound_to 7997
  156.2938  140.2636  156.2475 H   0  0  0  0  0  0  0  0  0  0  0  0  # atno 8009 bound_to 7997
  154.9867  140.0374  157.2291 H   0  0  0  0  0  0  0  0  0  0  0  0  # atno 8010 bound_to 7997
  139.5051  144.6239  151.5984 H   0  0  0  0  0  0  0  0  0  0  0  0  # atno 10167 bound_to 10162
  156.1701  130.4149  149.9661 H   0  0  0  0  0  0  0  0  0  0  0  0  # atno 10718 bound_to 10713
  153.5091  135.7016  153.5790 H   0  0  0  0  0  0  0  0  0  0  0  0  # atno 10763 bound_to 10752
  153.3889  135.3901  155.1909 H   0  0  0  0  0  0  0  0  0  0  0  0  # atno 10764 bound_to 10752
  154.8704  135.3853  154.4569 H   0  0  0  0  0  0  0  0  0  0  0  0  # atno 10765 bound_to 10752
  140.5937  134.5018  157.5196 H   0  0  0  0  0  0  0  0  0  0  0  0  # atno 11005 bound_to 11000
  144.6786  140.0081  143.7484 LP  0  0  0  0  0  0  0  0  0  0  0  0  # atno 17320 bound_to 7965
  146.0007  139.3089  143.0929 LP  0  0  0  0  0  0  0  0  0  0  0  0  # atno 17321 bound_to 7965
  140.5950  143.9712  150.6349 LP  0  0  0  0  0  0  0  0  0  0  0  0  # atno 17342 bound_to 10162
  140.2905  143.3327  152.1067 LP  0  0  0  0  0  0  0  0  0  0  0  0  # atno 17343 bound_to 10162
  156.7464  130.9099  151.3635 LP  0  0  0  0  0  0  0  0  0  0  0  0  # atno 17370 bound_to 10713
  157.6796  130.9127  150.0235 LP  0  0  0  0  0  0  0  0  0  0  0  0  # atno 17371 bound_to 10713
  139.9263  134.8050  156.1060 LP  0  0  0  0  0  0  0  0  0  0  0  0  # atno 17394 bound_to 11000
  141.0918  133.6711  156.2557 LP  0  0  0  0  0  0  0  0  0  0  0  0  # atno 17395 bound_to 11000

$$$$
