#       Name:                AV-unprocessed.smi:1167
#       Creating user name   scv26
#       Creation time:       Fri Mar 27 03:52:24 2020


#       File generated by GOLD software.
#

@<TRIPOS>MOLECULE
AV-unprocessed.smi:1167
    48    49     1
SMALL
NO_CHARGES


@<TRIPOS>ATOM
      1 ****        -7.6223   2.5556  -0.6808 C.3            1 S1                 0.0000
      2 ****        -7.0785   1.2423  -0.7544 O.3            1 S1                 0.0000
      3 ****        -5.7323   1.0752  -0.5019 C.ar           1 S1                 0.0000
      4 ****        -5.1907  -0.2235  -0.5650 C.ar           1 S1                 0.0000
      5 ****        -3.8182  -0.4045  -0.3065 C.ar           1 S1                 0.0000
      6 ****        -3.0254   0.7261   0.0089 C.ar           1 S1                 0.0000
      7 ****        -1.6312   0.6956   0.2919 N.am           1 S1                 0.0000
      8 ****        -0.7911  -0.3522   0.3575 C.2            1 S1                 0.0000
      9 ****        -1.0948  -1.5300   0.1727 O.2            1 S1                 0.0000
     10 ****         0.4529   0.0484   0.6566 N.am           1 S1                 0.0000
     11 ****         1.6087  -0.8309   0.8062 C.3            1 S1                 0.0000
     12 ****         2.6585  -0.1558   1.7148 C.3            1 S1                 0.0000
     13 ****         3.9711  -0.9589   1.7470 C.3            1 S1                 0.0000
     14 ****         4.4584  -1.1256   0.3729 N.am           1 S1                 0.0000
     15 ****         5.5547  -0.4844  -0.0986 C.2            1 S1                 0.0000
     16 ****         5.9532  -0.6622  -1.5655 C.3            1 S1                 0.0000
     17 ****         6.2535   0.2445   0.6058 O.2            1 S1                 0.0000
     18 ****         3.5395  -1.9416  -0.4305 C.3            1 S1                 0.0000
     19 ****         2.2047  -1.1892  -0.5752 C.3            1 S1                 0.0000
     20 ****        -3.6658   1.9824   0.0431 C.ar           1 S1                 0.0000
     21 ****        -4.9805   2.1629  -0.2027 N.ar           1 S1                 0.0000
     22 ****        -8.6886   2.5170  -0.9033 H              1 S1                 0.0000
     23 ****        -7.1567   3.2220  -1.4084 H              1 S1                 0.0000
     24 ****        -7.5079   2.9794   0.3181 H              1 S1                 0.0000
     25 ****        -5.8177  -1.0690  -0.8072 H              1 S1                 0.0000
     26 ****        -3.4167  -1.4031  -0.3593 H              1 S1                 0.0000
     27 ****        -1.2169   1.5973   0.4773 H              1 S1                 0.0000
     28 ****         0.6144   1.0358   0.7916 H              1 S1                 0.0000
     29 ****         1.2944  -1.7545   1.2962 H              1 S1                 0.0000
     30 ****         2.8680   0.8525   1.3538 H              1 S1                 0.0000
     31 ****         2.2648  -0.0467   2.7259 H              1 S1                 0.0000
     32 ****         4.6944  -0.4619   2.3948 H              1 S1                 0.0000
     33 ****         3.8002  -1.9401   2.1923 H              1 S1                 0.0000
     34 ****         5.1501  -0.3368  -2.2274 H              1 S1                 0.0000
     35 ****         6.1888  -1.7055  -1.7780 H              1 S1                 0.0000
     36 ****         6.8375  -0.0678  -1.7981 H              1 S1                 0.0000
     37 ****         3.9284  -2.1980  -1.4148 H              1 S1                 0.0000
     38 ****         3.3748  -2.8953   0.0728 H              1 S1                 0.0000
     39 ****         1.4994  -1.7957  -1.1445 H              1 S1                 0.0000
     40 ****         2.3683  -0.2797  -1.1554 H              1 S1                 0.0000
     41 ****        -3.1054   2.8762   0.2766 H              1 S1                 0.0000
     42 ****        -7.2504   0.9023  -1.6790 LP             1 S1                 0.0000
     43 ****        -7.5754   0.6790  -0.0943 LP             1 S1                 0.0000
     44 ****        -2.0390  -1.7742  -0.0482 LP             1 S1                 0.0000
     45 ****        -0.3974  -2.2432   0.2434 LP             1 S1                 0.0000
     46 ****         6.0201   0.3827   1.5683 LP             1 S1                 0.0000
     47 ****         7.0546   0.6984   0.2154 LP             1 S1                 0.0000
     48 ****        -5.3892   3.0748  -0.1651 LP             1 S1                 0.0000
@<TRIPOS>BOND
    1    1    2 1     
    2    1   22 1     
    3    1   23 1     
    4    1   24 1     
    5    2    3 1     
    6    3   21 ar    
    7    3    4 ar    
    8    4    5 ar    
    9    4   25 1     
   10    5    6 ar    
   11    5   26 1     
   12    6    7 1     
   13    6   20 ar    
   14    7    8 am    
   15    7   27 1     
   16    8    9 2     
   17    8   10 am    
   18   10   11 1     
   19   10   28 1     
   20   11   19 1     
   21   11   12 1     
   22   11   29 1     
   23   12   13 1     
   24   12   30 1     
   25   12   31 1     
   26   13   14 1     
   27   13   32 1     
   28   13   33 1     
   29   14   15 am    
   30   14   18 1     
   31   15   16 1     
   32   15   17 2     
   33   16   34 1     
   34   16   35 1     
   35   16   36 1     
   36   18   19 1     
   37   18   37 1     
   38   18   38 1     
   39   19   39 1     
   40   19   40 1     
   41   20   21 ar    
   42   20   41 1     
   43    2   42 1     
   44    2   43 1     
   45    9   44 1     
   46    9   45 1     
   47   17   46 1     
   48   17   47 1     
   49   21   48 1     
@<TRIPOS>SUBSTRUCTURE
      1 S1             1
@<TRIPOS>SET
LONE_PAIRS      STATIC     ATOMS    <user>   **** ""
7 42 43 44 45 46 47 48
DONOR_HYDROGENS      STATIC     ATOMS    <user>   **** ""
2 27 28
ATOM$BLUE        STATIC     ATOMS    COLORGROUP SYSTEM
7 42 43 44 45 46 47 48
ATOM$RED        STATIC     ATOMS    COLORGROUP SYSTEM
2 27 28
