#       Name:                AV-unprocessed.smi:2520
#       Creating user name   scv26
#       Creation time:       Fri Mar 27 13:55:09 2020


#       File generated by GOLD software.
#

@<TRIPOS>MOLECULE
AV-unprocessed.smi:2520
    47    50     1
SMALL
NO_CHARGES


@<TRIPOS>ATOM
      1 ****        -2.1071  -1.9403   0.4515 O.2            1 S1                 0.0000
      2 ****        -0.8938  -1.8192   0.6092 C.2            1 S1                 0.0000
      3 ****        -0.0760  -2.8926   0.5660 N.am           1 S1                 0.0000
      4 ****        -0.3467  -4.2772   0.3591 C.ar           1 S1                 0.0000
      5 ****         0.7944  -5.1077   0.3521 C.ar           1 S1                 0.0000
      6 ****         0.6177  -6.4881   0.1561 C.ar           1 S1                 0.0000
      7 ****        -0.6976  -6.9499  -0.0192 C.ar           1 S1                 0.0000
      8 ****        -1.7636  -6.1213  -0.0028 N.ar           1 S1                 0.0000
      9 ****        -1.5858  -4.8095   0.1850 N.ar           1 S1                 0.0000
     10 ****        -0.3057  -0.6331   0.8270 N.am           1 S1                 0.0000
     11 ****        -0.9874   0.6549   0.8456 C.3            1 S1                 0.0000
     12 ****        -0.0201   1.8156   1.0779 C.3            1 S1                 0.0000
     13 ****         0.2007   2.7796   2.1882 C.3            1 S1                 0.0000
     14 ****         0.2711   4.0751   1.3372 C.3            1 S1                 0.0000
     15 ****        -0.1613   3.7007   0.0068 O.3            1 S1                 0.0000
     16 ****        -1.0043   2.5868   0.2228 C.3            1 S1                 0.0000
     17 ****        -1.1976   1.2865  -0.5843 C.3            1 S1                 0.0000
     18 ****        -2.5715   1.0752  -1.2360 C.3            1 S1                 0.0000
     19 ****        -2.3627   0.6708  -2.6974 C.3            1 S1                 0.0000
     20 ****        -0.9384   0.1377  -2.7539 C.3            1 S1                 0.0000
     21 ****        -0.1980   0.9771  -1.7180 C.3            1 S1                 0.0000
     22 ****         0.8958  -2.6812   0.7394 H              1 S1                 0.0000
     23 ****         1.7847  -4.6992   0.4923 H              1 S1                 0.0000
     24 ****         1.4576  -7.1664   0.1407 H              1 S1                 0.0000
     25 ****        -0.8997  -7.9994  -0.1747 H              1 S1                 0.0000
     26 ****         0.6966  -0.6198   0.9534 H              1 S1                 0.0000
     27 ****        -1.8703   0.6869   1.4908 H              1 S1                 0.0000
     28 ****         0.9275   1.6314   0.5621 H              1 S1                 0.0000
     29 ****        -0.6363   2.7948   2.8877 H              1 S1                 0.0000
     30 ****         1.1224   2.5884   2.7381 H              1 S1                 0.0000
     31 ****        -0.3825   4.8458   1.7474 H              1 S1                 0.0000
     32 ****         1.2832   4.4780   1.2909 H              1 S1                 0.0000
     33 ****        -1.9155   2.8869   0.7531 H              1 S1                 0.0000
     34 ****        -3.1168   0.2863  -0.7179 H              1 S1                 0.0000
     35 ****        -3.1941   1.9685  -1.1743 H              1 S1                 0.0000
     36 ****        -3.0976  -0.0575  -3.0416 H              1 S1                 0.0000
     37 ****        -2.4449   1.5525  -3.3342 H              1 S1                 0.0000
     38 ****        -0.9263  -0.9111  -2.4539 H              1 S1                 0.0000
     39 ****        -0.4986   0.2080  -3.7489 H              1 S1                 0.0000
     40 ****         0.1319   1.9073  -2.1822 H              1 S1                 0.0000
     41 ****         0.7023   0.4629  -1.3815 H              1 S1                 0.0000
     42 ****        -2.5023  -2.8442   0.2882 LP             1 S1                 0.0000
     43 ****        -2.6987  -1.1348   0.4865 LP             1 S1                 0.0000
     44 ****        -2.6849  -6.4884  -0.1308 LP             1 S1                 0.0000
     45 ****        -2.3829  -4.2057   0.1977 LP             1 S1                 0.0000
     46 ****         0.6207   3.4495  -0.5637 LP             1 S1                 0.0000
     47 ****        -0.6641   4.4483  -0.4272 LP             1 S1                 0.0000
@<TRIPOS>BOND
    1    1    2 2     
    2    2    3 am    
    3    2   10 am    
    4    3    4 1     
    5    3   22 1     
    6    4    9 ar    
    7    4    5 ar    
    8    5    6 ar    
    9    5   23 1     
   10    6    7 ar    
   11    6   24 1     
   12    7    8 ar    
   13    7   25 1     
   14    8    9 ar    
   15   10   11 1     
   16   10   26 1     
   17   11   17 1     
   18   11   12 1     
   19   11   27 1     
   20   12   16 1     
   21   12   13 1     
   22   12   28 1     
   23   13   14 1     
   24   13   29 1     
   25   13   30 1     
   26   14   15 1     
   27   14   31 1     
   28   14   32 1     
   29   15   16 1     
   30   16   17 1     
   31   16   33 1     
   32   17   21 1     
   33   17   18 1     
   34   18   19 1     
   35   18   34 1     
   36   18   35 1     
   37   19   20 1     
   38   19   36 1     
   39   19   37 1     
   40   20   21 1     
   41   20   38 1     
   42   20   39 1     
   43   21   40 1     
   44   21   41 1     
   45    1   42 1     
   46    1   43 1     
   47    8   44 1     
   48    9   45 1     
   49   15   46 1     
   50   15   47 1     
@<TRIPOS>SUBSTRUCTURE
      1 S1             1
@<TRIPOS>SET
LONE_PAIRS      STATIC     ATOMS    <user>   **** ""
6 42 43 44 45 46 47
DONOR_HYDROGENS      STATIC     ATOMS    <user>   **** ""
2 22 26
ATOM$BLUE        STATIC     ATOMS    COLORGROUP SYSTEM
6 42 43 44 45 46 47
ATOM$RED        STATIC     ATOMS    COLORGROUP SYSTEM
2 22 26
