AV-unprocessed.smi:1215|AV-procd|sdf|5096|dock1
  -GOLD-   22720 4143D 1   1.00000     0.00000
 Structure written by MMmdl.
 46 47  0  0  0  0  0  0  0  0  2 V2000
  150.3342  141.8337  156.8201 C   0  0  0  0  0  0  0  0  0  0  0  0
  150.2124  141.7782  155.2926 C   0  0  0  0  0  0  0  0  0  0  0  0
  148.8848  141.3728  154.8735 N   0  0  0  0  0  0  0  0  0  0  0  0
  148.5338  140.3216  154.0498 C   0  0  0  0  0  0  0  0  0  0  0  0
  147.1705  140.3583  153.9650 C   0  0  0  0  0  0  0  0  0  0  0  0
  146.2898  139.5077  153.2499 N   0  0  0  0  0  0  0  0  0  0  0  0
  146.3164  138.1660  153.1966 C   0  0  0  0  0  0  0  0  0  0  0  0
  147.1280  137.4485  153.7818 O   0  0  0  0  0  0  0  0  0  0  0  0
  145.3399  137.6879  152.4124 N   0  0  0  0  0  0  0  0  0  0  0  0
  145.0986  136.2739  152.1499 C   0  0  0  0  0  0  0  0  0  0  0  0
  145.8244  135.8036  150.8733 C   0  0  0  0  0  0  0  0  0  0  0  0
  145.6608  134.3493  150.6024 N   0  3  2  0  0  0  0  0  0  0  0  0
  144.3480  133.8377  151.0819 C   0  0  0  0  0  0  0  0  0  0  0  0
  144.0962  132.3990  150.6036 C   0  0  0  0  0  0  0  0  0  0  0  0
  145.2344  131.4679  151.0328 C   0  0  0  0  0  0  0  0  0  0  0  0
  146.5768  132.0263  150.5412 C   0  0  0  0  0  0  0  0  0  0  0  0
  146.8106  133.4794  151.0068 C   0  0  2  0  0  0  0  0  0  0  0  0
  147.1515  133.5615  152.5103 C   0  0  0  0  0  0  0  0  0  0  0  0
  146.7625  141.4582  154.7638 C   0  0  0  0  0  0  0  0  0  0  0  0
  147.8043  142.0675  155.3086 N   0  0  0  0  0  0  0  0  0  0  0  0
  151.3415  142.1248  157.1183 H   0  0  0  0  0  0  0  0  0  0  0  0
  150.1224  140.8619  157.2668 H   0  0  0  0  0  0  0  0  0  0  0  0
  149.6393  142.5579  157.2464 H   0  0  0  0  0  0  0  0  0  0  0  0
  150.4365  142.7532  154.8574 H   0  0  0  0  0  0  0  0  0  0  0  0
  150.9377  141.0741  154.8832 H   0  0  0  0  0  0  0  0  0  0  0  0
  149.2712  139.6636  153.6144 H   0  0  0  0  0  0  0  0  0  0  0  0
  145.5673  139.9717  152.7189 H   0  0  0  0  0  0  0  0  0  0  0  0
  144.7160  138.3486  151.9718 H   0  0  0  0  0  0  0  0  0  0  0  0
  145.4047  135.6756  153.0099 H   0  0  0  0  0  0  0  0  0  0  0  0
  144.0206  136.1530  152.0499 H   0  0  0  0  0  0  0  0  0  0  0  0
  145.5073  136.3899  150.0107 H   0  0  0  0  0  0  0  0  0  0  0  0
  146.8899  136.0044  150.9927 H   0  0  0  0  0  0  0  0  0  0  0  0
  144.2988  133.8910  152.1698 H   0  0  0  0  0  0  0  0  0  0  0  0
  143.5473  134.4753  150.7053 H   0  0  0  0  0  0  0  0  0  0  0  0
  143.1477  132.0349  150.9999 H   0  0  0  0  0  0  0  0  0  0  0  0
  144.0031  132.3857  149.5169 H   0  0  0  0  0  0  0  0  0  0  0  0
  145.2433  131.3653  152.1183 H   0  0  0  0  0  0  0  0  0  0  0  0
  145.0731  130.4681  150.6287 H   0  0  0  0  0  0  0  0  0  0  0  0
  147.3929  131.3845  150.8751 H   0  0  0  0  0  0  0  0  0  0  0  0
  146.5955  131.9929  149.4508 H   0  0  0  0  0  0  0  0  0  0  0  0
  147.6917  133.8201  150.4642 H   0  0  0  0  0  0  0  0  0  0  0  0
  147.9773  132.8926  152.7534 H   0  0  0  0  0  0  0  0  0  0  0  0
  146.3110  133.2790  153.1434 H   0  0  0  0  0  0  0  0  0  0  0  0
  147.4661  134.5636  152.8007 H   0  0  0  0  0  0  0  0  0  0  0  0
  145.7672  141.8278  154.9625 H   0  0  0  0  0  0  0  0  0  0  0  0
  145.6149  134.2748  149.5961 H   0  0  0  0  0  0  0  0  0  0  0  0
  1  2  1  0  0  0  0
  1 21  1  0  0  0  0
  1 22  1  0  0  0  0
  1 23  1  0  0  0  0
  2  3  1  0  0  0  0
  2 24  1  0  0  0  0
  2 25  1  0  0  0  0
  3 20  1  0  0  0  0
  3  4  1  0  0  0  0
  4  5  2  0  0  0  0
  4 26  1  0  0  0  0
  5  6  1  0  0  0  0
  5 19  1  0  0  0  0
  6  7  1  0  0  0  0
  6 27  1  0  0  0  0
  7  8  2  0  0  0  0
  7  9  1  0  0  0  0
  9 10  1  0  0  0  0
  9 28  1  0  0  0  0
 10 11  1  0  0  0  0
 10 29  1  0  0  0  0
 10 30  1  0  0  0  0
 11 12  1  0  0  0  0
 11 31  1  0  0  0  0
 11 32  1  0  0  0  0
 12 17  1  0  0  0  0
 12 13  1  0  0  0  0
 12 46  1  0  0  0  0
 13 14  1  0  0  0  0
 13 33  1  0  0  0  0
 13 34  1  0  0  0  0
 14 15  1  0  0  0  0
 14 35  1  0  0  0  0
 14 36  1  0  0  0  0
 15 16  1  0  0  0  0
 15 37  1  0  0  0  0
 15 38  1  0  0  0  0
 16 17  1  0  0  0  0
 16 39  1  0  0  0  0
 16 40  1  0  0  0  0
 17 18  1  0  0  0  0
 17 41  1  0  0  0  0
 18 42  1  0  0  0  0
 18 43  1  0  0  0  0
 18 44  1  0  0  0  0
 19 20  2  0  0  0  0
 19 45  1  0  0  0  0
M  CHG  1  12   1
M  END
> <s_m_source_file>
AV-unprocessed.smi

> <i_m_source_file_index>
1215

> <i_lp_mmshare_version>
43012

> <i_f3d_flags>
0

> <s_epik_input>
W0NIM11bQ0gyXW4xW2NIXWMoW2NIXW4xKVtOSF1DKD1PKVtOSF1bQ0gyXVtDSDJdTjJbQ0gyXVtDSDJdW0NIMl1bQ0gyXVtDQEhdMltDSDNd

> <s_epik_cmdline>
J2VwaWtfcHl0aG9uJywgJy1waCcsICc3LjAnLCAnLXRuJywgJzgnLCAnLW1hJywgJzIwMCcsICctbWV0YWxfYmluZGluZycsICctaW1hZScsICc8aW5maWxlLm1hZT4nLCAnLW9tYWUnLCAnPG91dGZpbGUubWFlPic=

> <r_lp_tautomer_probability>
1

> <r_epik_Ionization_Penalty>
0.00247187

> <r_epik_Ionization_Penalty_Charging>
0.00232067

> <r_epik_Ionization_Penalty_Neutral>
0.000151201

> <r_epik_State_Penalty>
0.00160128

> <r_epik_Charging_Adjusted_Penalty>
0.00392194

> <i_epik_Tot_Q>
1

> <i_epik_Tot_abs_Q>
1

> <r_epik_Metal_State_Penalty>
-0

> <b_epik_Metal_Only>
0

> <s_lp_Force_Field>
OPLS_2005

> <r_lp_Energy>
24.1958

> <b_lp_Chiralities_Consistent>
1

> <s_lp_Variant>
AV-unprocessed.smi:1215-3

> <Gold.Version>
5.8.1

> <Gold.Id.Protein>
6NUR|6NUR_protein|mol2

> <Gold.PLP.Fitness>
45.0035

> <Gold.PLP.PLP>
-37.2602

> <Gold.PLP.part.hbond>
-4.0000

> <Gold.PLP.part.metal>
0.0000

> <Gold.PLP.part.buried>
-3.7364

> <Gold.PLP.part.nonpolar>
-31.0923

> <Gold.PLP.part.repulsive>
1.8899

> <Gold.PLP.ligand.clash>
0.0000

> <Gold.PLP.ligand.torsion>
1.0442

> <Gold.PLP.Chemscore.Hbond>
2.4752

> <Gold.PLP.Chemscore.CHOScore>
0.7596

> <Gold.PLP.Chemscore.Metal>
0.0000

> <Gold.Chemscore.Hbonds>
donor molecule, donor type, donor heavy atom, donor atom, acceptor molecule, acceptor atom, score
      L1  H     6    27       P1 10175  1.00
      L1  H     9    28       P1 10171  0.18
      L1  H    12    46       P1  7921  0.83
      L1  C     4    26       P1  7957  0.67

> <Gold.PLP.Chemscore.Internal.Correction>
0.1274

> <Gold.Rescore>
     Score         DG    S(hbond)    S(metal)    S(lipo)     H(rot)  DE(clash)    DE(int)     intcor
     19.33     -21.05       2.79        0.00      88.32       1.59       0.93       0.79       ----

> <Gold.Chemscore.Fitness>
19.3300

> <Gold.Chemscore.DG>
-21.0503

> <Gold.Chemscore.ZeroCoef>
-5.4800

> <Gold.Chemscore.Hbond>
2.7872

> <Gold.Chemscore.Metal>
0.0000

> <Gold.Chemscore.Lipo>
88.3237

> <Gold.Chemscore.Internal_Hbond>
0.0000

> <Gold.Chemscore.DEClash>
0.9293

> <Gold.Chemscore.DEInternal>
0.7910

> <Gold.Chemscore.Rot>
1.5909

> <Gold.Chemscore.Internal.Correction>
   9.000000E+99

> <Gold.Chemscore.Hbonds>
donor molecule, donor type, donor heavy atom, donor atom, acceptor molecule, acceptor atom, score
      L1  H     6    27       P1 10175  0.93
      L1  H     9    28       P1 10171  0.19
      L1  H    12    46       P1  7921  0.63

> <Gold.Chemscore.Hbond.Weighted>
-9.3092

> <Gold.Chemscore.Metal.Weighted>
-0.0000

> <Gold.Chemscore.Lipo.Weighted>
-10.3339

> <Gold.Chemscore.Internal_Hbond.Weighted>
0.0000

> <Gold.Chemscore.DEClash.Weighted>
0.9293

> <Gold.Chemscore.DEInternal.Weighted>
0.7910

> <Gold.Chemscore.Rot.Weighted>
4.0728

> <Gold.Chemscore.Internal.Correction.Weighted>
   9.000000E+99

> <Gold.Protein.RotatedTorsions>
[ 6907 6896 6895 6894 ] final  117.58 input  -60.11 | X-H torsion
[ 7974 7965 7964 7962 ] final   36.15 input  175.53 | X-H torsion
[ 8008 7997 7996 7995 ] final  -51.65 input   59.86 | X-H torsion
[ 10167 10162 10161 10158 ] final  -55.48 input  -65.29 | X-H torsion
[ 10718 10713 10712 10709 ] final -115.41 input   66.30 | X-H torsion
[ 10763 10752 10751 10750 ] final  141.99 input  -60.55 | X-H torsion
[ 11005 11000 10999 10996 ] final   14.14 input  -57.11 | X-H torsion

> <Gold.Protein.ActiveResidues>
 VAL166  LYS551  ARG553  GLY616  TRP617  ASP618  TYR619  PRO620  LYS621  CYS622 
 ASP623  PHE694  ASN695  SER759  ASP760  ASP761  ALA762  ILE779  LEU786  VAL792 
 PHE793  MET794  SER795  GLU796  ALA797  LYS798  CYS799  TRP800  GLU811  SER814 

> <Gold.Protein.RotatedAtoms>
  152.4602  133.7806  159.6848 H   0  0  0  0  0  0  0  0  0  0  0  0  # atno 6907 bound_to 6896
  150.8543  133.7729  159.3020 H   0  0  0  0  0  0  0  0  0  0  0  0  # atno 6908 bound_to 6896
  151.5315  135.1071  159.9955 H   0  0  0  0  0  0  0  0  0  0  0  0  # atno 6909 bound_to 6896
  146.1232  139.6054  142.9276 H   0  0  0  0  0  0  0  0  0  0  0  0  # atno 7974 bound_to 7965
  154.4088  140.1243  156.4863 H   0  0  0  0  0  0  0  0  0  0  0  0  # atno 8008 bound_to 7997
  155.7035  140.3494  155.4923 H   0  0  0  0  0  0  0  0  0  0  0  0  # atno 8009 bound_to 7997
  155.9364  140.1079  157.1081 H   0  0  0  0  0  0  0  0  0  0  0  0  # atno 8010 bound_to 7997
  140.6372  143.2488  151.5086 H   0  0  0  0  0  0  0  0  0  0  0  0  # atno 10167 bound_to 10162
  156.0894  130.6079  150.8903 H   0  0  0  0  0  0  0  0  0  0  0  0  # atno 10718 bound_to 10713
  153.9483  135.2972  155.3440 H   0  0  0  0  0  0  0  0  0  0  0  0  # atno 10763 bound_to 10752
  154.7440  135.5011  153.9174 H   0  0  0  0  0  0  0  0  0  0  0  0  # atno 10764 bound_to 10752
  153.1007  135.6733  153.9787 H   0  0  0  0  0  0  0  0  0  0  0  0  # atno 10765 bound_to 10752
  140.4729  134.1013  155.7736 H   0  0  0  0  0  0  0  0  0  0  0  0  # atno 11005 bound_to 11000
  145.5421  141.0420  143.2325 LP  0  0  0  0  0  0  0  0  0  0  0  0  # atno 17320 bound_to 7965
  144.7617  139.6941  143.7231 LP  0  0  0  0  0  0  0  0  0  0  0  0  # atno 17321 bound_to 7965
  139.5582  144.2222  152.1648 LP  0  0  0  0  0  0  0  0  0  0  0  0  # atno 17342 bound_to 10162
  140.1482  144.5139  150.6703 LP  0  0  0  0  0  0  0  0  0  0  0  0  # atno 17343 bound_to 10162
  157.6039  131.0940  150.8913 LP  0  0  0  0  0  0  0  0  0  0  0  0  # atno 17370 bound_to 10713
  156.9066  130.5265  149.5281 LP  0  0  0  0  0  0  0  0  0  0  0  0  # atno 17371 bound_to 10713
  141.1568  133.8867  157.1955 LP  0  0  0  0  0  0  0  0  0  0  0  0  # atno 17394 bound_to 11000
  139.9874  135.0077  156.9895 LP  0  0  0  0  0  0  0  0  0  0  0  0  # atno 17395 bound_to 11000

$$$$
