AV-unprocessed.smi:1718|AV-procd|sdf|6923|dock5
  -GOLD-   22720 8133D 1   1.00000     0.00000
 Structure written by MMmdl.
 40 41  0  0  0  0  0  0  0  0  1 V2000
  150.8819  138.6426  156.5204 C   0  0  0  0  0  0  0  0  0  0  0  0
  151.2929  138.8254  157.9892 C   0  0  1  0  0  0  0  0  0  0  0  0
  150.9306  140.1490  158.3734 O   0  0  0  0  0  0  0  0  0  0  0  0
  151.4668  141.1906  157.5651 C   0  0  0  0  0  0  0  0  0  0  0  0
  151.6485  142.4426  158.4312 C   0  0  2  0  0  0  0  0  0  0  0  0
  152.0261  143.6979  157.6494 C   0  0  0  0  0  0  0  0  0  0  0  0
  152.6508  144.5483  158.7323 C   0  0  0  0  0  0  0  0  0  0  0  0
  153.3744  143.5091  159.5882 C   0  0  0  0  0  0  0  0  0  0  0  0
  152.7215  142.2635  159.3491 O   0  0  0  0  0  0  0  0  0  0  0  0
  150.6016  137.7965  158.8991 C   0  0  0  0  0  0  0  0  0  0  0  0
  151.2857  137.0603  159.6098 O   0  0  0  0  0  0  0  0  0  0  0  0
  149.2549  137.7875  158.8427 N   0  0  0  0  0  0  0  0  0  0  0  0
  148.3413  136.9445  159.4973 C   0  0  0  0  0  0  0  0  0  0  0  0
  148.2384  136.8097  160.8454 C   0  0  0  0  0  0  0  0  0  0  0  0
  147.2810  135.9051  161.4595 C   0  0  0  0  0  0  0  0  0  0  0  0
  147.1197  135.8225  162.9695 C   0  0  0  0  0  0  0  0  0  0  0  0
  145.8838  136.1565  163.3437 F   0  0  0  0  0  0  0  0  0  0  0  0
  147.3564  134.5781  163.3822 F   0  0  0  0  0  0  0  0  0  0  0  0
  147.9779  136.6346  163.5874 F   0  0  0  0  0  0  0  0  0  0  0  0
  146.4907  135.2086  160.6218 C   0  0  0  0  0  0  0  0  0  0  0  0
  146.6058  135.3242  159.2347 N   0  0  0  0  0  0  0  0  0  0  0  0
  147.4813  136.1436  158.6104 C   0  0  0  0  0  0  0  0  0  0  0  0
  147.5234  136.1870  157.3814 O   0  0  0  0  0  0  0  0  0  0  0  0
  145.9882  134.7549  158.6740 H   0  0  0  0  0  0  0  0  0  0  0  0
  151.1219  137.6403  156.1634 H   0  0  0  0  0  0  0  0  0  0  0  0
  151.4063  139.3538  155.8819 H   0  0  0  0  0  0  0  0  0  0  0  0
  149.8123  138.8026  156.3792 H   0  0  0  0  0  0  0  0  0  0  0  0
  152.3771  138.7137  158.0562 H   0  0  0  0  0  0  0  0  0  0  0  0
  152.4330  140.8975  157.1534 H   0  0  0  0  0  0  0  0  0  0  0  0
  150.8046  141.4037  156.7246 H   0  0  0  0  0  0  0  0  0  0  0  0
  150.7435  142.6304  159.0117 H   0  0  0  0  0  0  0  0  0  0  0  0
  152.7655  143.4671  156.8811 H   0  0  0  0  0  0  0  0  0  0  0  0
  151.1701  144.1745  157.1708 H   0  0  0  0  0  0  0  0  0  0  0  0
  153.3168  145.3188  158.3431 H   0  0  0  0  0  0  0  0  0  0  0  0
  151.8696  145.0366  159.3165 H   0  0  0  0  0  0  0  0  0  0  0  0
  154.4177  143.4175  159.2853 H   0  0  0  0  0  0  0  0  0  0  0  0
  153.3521  143.7680  160.6471 H   0  0  0  0  0  0  0  0  0  0  0  0
  148.8291  138.5028  158.2705 H   0  0  0  0  0  0  0  0  0  0  0  0
  148.8868  137.3577  161.5094 H   0  0  0  0  0  0  0  0  0  0  0  0
  145.7192  134.5236  160.9416 H   0  0  0  0  0  0  0  0  0  0  0  0
  1  2  1  0  0  0  0
  1 25  1  0  0  0  0
  1 26  1  0  0  0  0
  1 27  1  0  0  0  0
  2  3  1  0  0  0  0
  2 10  1  0  0  0  0
  2 28  1  0  0  0  0
  3  4  1  0  0  0  0
  4  5  1  0  0  0  0
  4 29  1  0  0  0  0
  4 30  1  0  0  0  0
  5  9  1  0  0  0  0
  5  6  1  0  0  0  0
  5 31  1  0  0  0  0
  6  7  1  0  0  0  0
  6 32  1  0  0  0  0
  6 33  1  0  0  0  0
  7  8  1  0  0  0  0
  7 34  1  0  0  0  0
  7 35  1  0  0  0  0
  8  9  1  0  0  0  0
  8 36  1  0  0  0  0
  8 37  1  0  0  0  0
 10 11  2  0  0  0  0
 10 12  1  0  0  0  0
 12 13  1  0  0  0  0
 12 38  1  0  0  0  0
 13 22  1  0  0  0  0
 13 14  2  0  0  0  0
 14 15  1  0  0  0  0
 14 39  1  0  0  0  0
 15 16  1  0  0  0  0
 15 20  2  0  0  0  0
 16 17  1  0  0  0  0
 16 18  1  0  0  0  0
 16 19  1  0  0  0  0
 20 21  1  0  0  0  0
 20 40  1  0  0  0  0
 21 24  1  0  0  0  0
 21 22  1  0  0  0  0
 22 23  2  0  0  0  0
M  END
> <s_m_source_file>
AV-unprocessed.smi

> <i_m_source_file_index>
1718

> <i_lp_mmshare_version>
43012

> <i_f3d_flags>
0

> <s_epik_input>
TzFbQ0gyXVtDSDJdW0NIMl1bQ0BIXTFbQ0gyXU9bQ0BASF0oW0NIM10pQyg9TylbTkhdYzJbY0hdYyhDKEYpKEYpRilbY0hdW25IXWMyPU8=

> <s_epik_cmdline>
J2VwaWtfcHl0aG9uJywgJy1waCcsICc3LjAnLCAnLXRuJywgJzgnLCAnLW1hJywgJzIwMCcsICctbWV0YWxfYmluZGluZycsICctaW1hZScsICc8aW5maWxlLm1hZT4nLCAnLW9tYWUnLCAnPG91dGZpbGUubWFlPic=

> <r_lp_tautomer_probability>
0.999

> <r_epik_Ionization_Penalty>
0.00894336

> <r_epik_Ionization_Penalty_Charging>
0.00894326

> <r_epik_Ionization_Penalty_Neutral>
1.00145e-07

> <r_epik_State_Penalty>
0.00676626

> <r_epik_Charging_Adjusted_Penalty>
0.0157095

> <i_epik_Tot_Q>
0

> <i_epik_Tot_abs_Q>
0

> <r_epik_Metal_State_Penalty>
0.321145

> <b_epik_Metal_Only>
0

> <s_lp_Force_Field>
OPLS_2005

> <r_lp_Energy>
34.2201

> <b_lp_Chiralities_Consistent>
1

> <s_lp_Variant>
AV-unprocessed.smi:1718-2

> <Gold.Version>
5.8.1

> <Gold.Id.Protein>
6NUR|6NUR_protein|mol2

> <Gold.PLP.Fitness>
45.1797

> <Gold.PLP.PLP>
-43.7292

> <Gold.PLP.part.hbond>
-1.0000

> <Gold.PLP.part.metal>
0.0000

> <Gold.PLP.part.buried>
-6.8564

> <Gold.PLP.part.nonpolar>
-36.7464

> <Gold.PLP.part.repulsive>
0.1688

> <Gold.PLP.ligand.clash>
0.0000

> <Gold.PLP.ligand.torsion>
0.8353

> <Gold.PLP.Chemscore.Hbond>
1.0000

> <Gold.PLP.Chemscore.CHOScore>
0.0000

> <Gold.PLP.Chemscore.Metal>
0.0000

> <Gold.Chemscore.Hbonds>
donor molecule, donor type, donor heavy atom, donor atom, acceptor molecule, acceptor atom, score
      P1  H  6896  6909       L1    11  1.00

> <Gold.PLP.Chemscore.Internal.Correction>
0.1210

> <Gold.Rescore>
     Score         DG    S(hbond)    S(metal)    S(lipo)     H(rot)  DE(clash)    DE(int)     intcor
     13.42     -14.33       0.99        0.00      88.49       1.88       0.01       0.91       ----

> <Gold.Chemscore.Fitness>
13.4181

> <Gold.Chemscore.DG>
-14.3343

> <Gold.Chemscore.ZeroCoef>
-5.4800

> <Gold.Chemscore.Hbond>
0.9915

> <Gold.Chemscore.Metal>
0.0000

> <Gold.Chemscore.Lipo>
88.4870

> <Gold.Chemscore.Internal_Hbond>
0.0000

> <Gold.Chemscore.DEClash>
0.0074

> <Gold.Chemscore.DEInternal>
0.9087

> <Gold.Chemscore.Rot>
1.8790

> <Gold.Chemscore.Internal.Correction>
   9.000000E+99

> <Gold.Chemscore.Hbonds>
donor molecule, donor type, donor heavy atom, donor atom, acceptor molecule, acceptor atom, score
      P1  H  6896  6909       L1    11  0.99

> <Gold.Chemscore.Hbond.Weighted>
-3.3115

> <Gold.Chemscore.Metal.Weighted>
-0.0000

> <Gold.Chemscore.Lipo.Weighted>
-10.3530

> <Gold.Chemscore.Internal_Hbond.Weighted>
0.0000

> <Gold.Chemscore.DEClash.Weighted>
0.0074

> <Gold.Chemscore.DEInternal.Weighted>
0.9087

> <Gold.Chemscore.Rot.Weighted>
4.8102

> <Gold.Chemscore.Internal.Correction.Weighted>
   9.000000E+99

> <Gold.Protein.RotatedTorsions>
[ 6907 6896 6895 6894 ] final  114.32 input  -60.11 | X-H torsion
[ 7974 7965 7964 7962 ] final   11.18 input  175.53 | X-H torsion
[ 8008 7997 7996 7995 ] final   58.66 input   59.86 | X-H torsion
[ 10167 10162 10161 10158 ] final  -78.11 input  -65.29 | X-H torsion
[ 10718 10713 10712 10709 ] final  -99.81 input   66.30 | X-H torsion
[ 10763 10752 10751 10750 ] final -162.85 input  -60.55 | X-H torsion
[ 11005 11000 10999 10996 ] final -152.96 input  -57.11 | X-H torsion

> <Gold.Protein.ActiveResidues>
 VAL166  LYS551  ARG553  GLY616  TRP617  ASP618  TYR619  PRO620  LYS621  CYS622 
 ASP623  PHE694  ASN695  SER759  ASP760  ASP761  ALA762  ILE779  LEU786  VAL792 
 PHE793  MET794  SER795  GLU796  ALA797  LYS798  CYS799  TRP800  GLU811  SER814 

> <Gold.Protein.RotatedAtoms>
  152.4809  133.8253  159.7074 H   0  0  0  0  0  0  0  0  0  0  0  0  # atno 6907 bound_to 6896
  150.8859  133.7299  159.2925 H   0  0  0  0  0  0  0  0  0  0  0  0  # atno 6908 bound_to 6896
  151.4788  135.1054  159.9824 H   0  0  0  0  0  0  0  0  0  0  0  0  # atno 6909 bound_to 6896
  146.2375  139.9523  142.8469 H   0  0  0  0  0  0  0  0  0  0  0  0  # atno 7974 bound_to 7965
  155.5536  140.3487  155.4474 H   0  0  0  0  0  0  0  0  0  0  0  0  # atno 8008 bound_to 7997
  156.0565  140.1330  157.0016 H   0  0  0  0  0  0  0  0  0  0  0  0  # atno 8009 bound_to 7997
  154.4459  140.0994  156.6438 H   0  0  0  0  0  0  0  0  0  0  0  0  # atno 8010 bound_to 7997
  140.4711  143.2426  151.8203 H   0  0  0  0  0  0  0  0  0  0  0  0  # atno 10167 bound_to 10162
  156.0145  130.5299  150.6725 H   0  0  0  0  0  0  0  0  0  0  0  0  # atno 10718 bound_to 10713
  154.7176  135.3019  154.9098 H   0  0  0  0  0  0  0  0  0  0  0  0  # atno 10763 bound_to 10752
  153.9980  135.6710  153.4761 H   0  0  0  0  0  0  0  0  0  0  0  0  # atno 10764 bound_to 10752
  153.0807  135.5010  154.8412 H   0  0  0  0  0  0  0  0  0  0  0  0  # atno 10765 bound_to 10752
  140.7133  134.3808  157.5194 H   0  0  0  0  0  0  0  0  0  0  0  0  # atno 11005 bound_to 11000
  145.1849  140.9785  143.4244 LP  0  0  0  0  0  0  0  0  0  0  0  0  # atno 17320 bound_to 7965
  144.9908  139.3691  143.6215 LP  0  0  0  0  0  0  0  0  0  0  0  0  # atno 17321 bound_to 7965
  139.4819  144.4890  151.9209 LP  0  0  0  0  0  0  0  0  0  0  0  0  # atno 17342 bound_to 10162
  140.3975  144.2536  150.5895 LP  0  0  0  0  0  0  0  0  0  0  0  0  # atno 17343 bound_to 10162
  157.4445  131.0865  151.0910 LP  0  0  0  0  0  0  0  0  0  0  0  0  # atno 17370 bound_to 10713
  157.1444  130.6157  149.5564 LP  0  0  0  0  0  0  0  0  0  0  0  0  # atno 17371 bound_to 10713
  139.8866  134.8905  156.2575 LP  0  0  0  0  0  0  0  0  0  0  0  0  # atno 17394 bound_to 11000
  141.0066  133.7120  156.1044 LP  0  0  0  0  0  0  0  0  0  0  0  0  # atno 17395 bound_to 11000

$$$$
