AV-unprocessed.smi:2980|AV-procd|sdf|11373|dock5
  -GOLD-   2272016293D 1   1.00000     0.00000
 Structure written by MMmdl.
 39 40  0  0  0  0  0  0  0  0  2 V2000
  150.5990  137.1961  155.3061 C   0  0  0  0  0  0  0  0  0  0  0  0
  151.1535  138.0238  154.1447 C   0  0  0  0  0  0  0  0  0  0  0  0
  151.4916  139.3121  154.6272 O   0  0  0  0  0  0  0  0  0  0  0  0
  152.3730  139.2732  155.7375 C   0  0  0  0  0  0  0  0  0  0  0  0
  151.5913  139.5496  157.0297 C   0  0  0  0  0  0  0  0  0  0  0  0
  151.1746  140.9572  157.1439 N   0  0  0  0  0  0  0  0  0  0  0  0
  150.3349  141.6987  156.3631 C   0  0  0  0  0  0  0  0  0  0  0  0
  149.6076  141.2535  155.1352 C   0  0  0  0  0  0  0  0  0  0  0  0
  148.1049  141.5654  155.2253 C   0  0  0  0  0  0  0  0  0  0  0  0
  147.3397  141.2232  153.9389 C   0  0  0  0  0  0  0  0  0  0  0  0
  145.9596  141.4703  154.1061 O   0  0  0  0  0  0  0  0  0  0  0  0
  150.2919  142.9528  156.8954 N   0  3  0  0  0  0  0  0  0  0  0  0
  151.1101  143.0174  158.0231 C   0  0  0  0  0  0  0  0  0  0  0  0
  151.3875  144.0725  158.8867 C   0  0  0  0  0  0  0  0  0  0  0  0
  152.2798  143.8058  159.9457 C   0  0  0  0  0  0  0  0  0  0  0  0
  152.8592  142.5314  160.1135 C   0  0  0  0  0  0  0  0  0  0  0  0
  152.5693  141.4697  159.2317 C   0  0  0  0  0  0  0  0  0  0  0  0
  151.6835  141.7401  158.1883 C   0  0  0  0  0  0  0  0  0  0  0  0
  150.3267  136.1938  154.9752 H   0  0  0  0  0  0  0  0  0  0  0  0
  149.7089  137.6627  155.7286 H   0  0  0  0  0  0  0  0  0  0  0  0
  151.3365  137.0974  156.1032 H   0  0  0  0  0  0  0  0  0  0  0  0
  152.0337  137.5340  153.7260 H   0  0  0  0  0  0  0  0  0  0  0  0
  150.4079  138.1021  153.3521 H   0  0  0  0  0  0  0  0  0  0  0  0
  152.8556  138.2968  155.7966 H   0  0  0  0  0  0  0  0  0  0  0  0
  153.1609  140.0179  155.6163 H   0  0  0  0  0  0  0  0  0  0  0  0
  150.6977  138.9274  157.0673 H   0  0  0  0  0  0  0  0  0  0  0  0
  152.1811  139.2781  157.9051 H   0  0  0  0  0  0  0  0  0  0  0  0
  150.0439  141.7324  154.2592 H   0  0  0  0  0  0  0  0  0  0  0  0
  149.7597  140.1813  155.0072 H   0  0  0  0  0  0  0  0  0  0  0  0
  147.6740  140.9963  156.0499 H   0  0  0  0  0  0  0  0  0  0  0  0
  147.9531  142.6172  155.4712 H   0  0  0  0  0  0  0  0  0  0  0  0
  147.7151  141.8041  153.0958 H   0  0  0  0  0  0  0  0  0  0  0  0
  147.4745  140.1699  153.6910 H   0  0  0  0  0  0  0  0  0  0  0  0
  145.4868  141.0104  153.4289 H   0  0  0  0  0  0  0  0  0  0  0  0
  150.9471  145.0502  158.7578 H   0  0  0  0  0  0  0  0  0  0  0  0
  152.5266  144.5946  160.6413 H   0  0  0  0  0  0  0  0  0  0  0  0
  153.5413  142.3644  160.9344 H   0  0  0  0  0  0  0  0  0  0  0  0
  153.0249  140.5000  159.3670 H   0  0  0  0  0  0  0  0  0  0  0  0
  149.7442  143.7107  156.5091 H   0  0  0  0  0  0  0  0  0  0  0  0
  1  2  1  0  0  0  0
  1 19  1  0  0  0  0
  1 20  1  0  0  0  0
  1 21  1  0  0  0  0
  2  3  1  0  0  0  0
  2 22  1  0  0  0  0
  2 23  1  0  0  0  0
  3  4  1  0  0  0  0
  4  5  1  0  0  0  0
  4 24  1  0  0  0  0
  4 25  1  0  0  0  0
  5  6  1  0  0  0  0
  5 26  1  0  0  0  0
  5 27  1  0  0  0  0
  6 18  1  0  0  0  0
  6  7  1  0  0  0  0
  7  8  1  0  0  0  0
  7 12  2  0  0  0  0
  8  9  1  0  0  0  0
  8 28  1  0  0  0  0
  8 29  1  0  0  0  0
  9 10  1  0  0  0  0
  9 30  1  0  0  0  0
  9 31  1  0  0  0  0
 10 11  1  0  0  0  0
 10 32  1  0  0  0  0
 10 33  1  0  0  0  0
 11 34  1  0  0  0  0
 12 13  1  0  0  0  0
 12 39  1  0  0  0  0
 13 18  2  0  0  0  0
 13 14  1  0  0  0  0
 14 15  2  0  0  0  0
 14 35  1  0  0  0  0
 15 16  1  0  0  0  0
 15 36  1  0  0  0  0
 16 17  2  0  0  0  0
 16 37  1  0  0  0  0
 17 18  1  0  0  0  0
 17 38  1  0  0  0  0
M  CHG  1  12   1
M  END
> <s_m_source_file>
AV-unprocessed.smi

> <i_m_source_file_index>
2980

> <i_lp_mmshare_version>
43012

> <i_f3d_flags>
0

> <s_epik_input>
W0NIM11bQ0gyXU9bQ0gyXVtDSDJdbihjKG4xKVtDSDJdW0NIMl1bQ0gyXVtPSF0pYyhjMTIpW2NIXVtjSF1bY0hdW2NIXTI=

> <s_epik_cmdline>
J2VwaWtfcHl0aG9uJywgJy1waCcsICc3LjAnLCAnLXRuJywgJzgnLCAnLW1hJywgJzIwMCcsICctbWV0YWxfYmluZGluZycsICctaW1hZScsICc8aW5maWxlLm1hZT4nLCAnLW9tYWUnLCAnPG91dGZpbGUubWFlPic=

> <r_epik_Ionization_Penalty>
0.813193

> <r_epik_Ionization_Penalty_Charging>
0.813193

> <r_epik_Ionization_Penalty_Neutral>
1.64912e-07

> <r_epik_State_Penalty>
0.845533

> <r_epik_Charging_Adjusted_Penalty>
1.65873

> <i_epik_Tot_Q>
1

> <i_epik_Tot_abs_Q>
1

> <r_epik_Metal_State_Penalty>
4.77586

> <b_epik_Metal_Only>
0

> <s_lp_Force_Field>
OPLS_2005

> <r_lp_Energy>
11.2721

> <b_lp_Chiralities_Consistent>
1

> <s_lp_Variant>
AV-unprocessed.smi:2980-2

> <Gold.Version>
5.8.1

> <Gold.Id.Protein>
6NUR|6NUR_protein|mol2

> <Gold.PLP.Fitness>
53.0191

> <Gold.PLP.PLP>
-42.1623

> <Gold.PLP.part.hbond>
-3.0000

> <Gold.PLP.part.metal>
0.0000

> <Gold.PLP.part.buried>
-5.7136

> <Gold.PLP.part.nonpolar>
-35.7316

> <Gold.PLP.part.repulsive>
0.1191

> <Gold.PLP.ligand.clash>
0.0000

> <Gold.PLP.ligand.torsion>
0.4213

> <Gold.PLP.Chemscore.Hbond>
3.8775

> <Gold.PLP.Chemscore.CHOScore>
0.0000

> <Gold.PLP.Chemscore.Metal>
0.0000

> <Gold.Chemscore.Hbonds>
donor molecule, donor type, donor heavy atom, donor atom, acceptor molecule, acceptor atom, score
      L1  H    11    34       P1 10175  0.83
      L1  H    12    39       P1  8028  2.00
      P1  H  7989  7998       L1     3  1.00

> <Gold.PLP.Chemscore.Internal.Correction>
0.0668

> <Gold.Rescore>
     Score         DG    S(hbond)    S(metal)    S(lipo)     H(rot)  DE(clash)    DE(int)     intcor
     18.37     -20.20       2.66        0.00     106.43       2.58       0.08       1.76       ----

> <Gold.Chemscore.Fitness>
18.3659

> <Gold.Chemscore.DG>
-20.1996

> <Gold.Chemscore.ZeroCoef>
-5.4800

> <Gold.Chemscore.Hbond>
2.6552

> <Gold.Chemscore.Metal>
0.0000

> <Gold.Chemscore.Lipo>
106.4277

> <Gold.Chemscore.Internal_Hbond>
0.0000

> <Gold.Chemscore.DEClash>
0.0756

> <Gold.Chemscore.DEInternal>
1.7580

> <Gold.Chemscore.Rot>
2.5784

> <Gold.Chemscore.Internal.Correction>
   9.000000E+99

> <Gold.Chemscore.Hbonds>
donor molecule, donor type, donor heavy atom, donor atom, acceptor molecule, acceptor atom, score
      L1  H    11    34       P1 10175  0.47
      L1  H    12    39       P1  8028  0.97
      P1  H  7989  7998       L1     3  0.91

> <Gold.Chemscore.Hbond.Weighted>
-8.8683

> <Gold.Chemscore.Metal.Weighted>
-0.0000

> <Gold.Chemscore.Lipo.Weighted>
-12.4520

> <Gold.Chemscore.Internal_Hbond.Weighted>
0.0000

> <Gold.Chemscore.DEClash.Weighted>
0.0756

> <Gold.Chemscore.DEInternal.Weighted>
1.7580

> <Gold.Chemscore.Rot.Weighted>
6.6007

> <Gold.Chemscore.Internal.Correction.Weighted>
   9.000000E+99

> <Gold.Protein.RotatedTorsions>
[ 6907 6896 6895 6894 ] final  -55.20 input  -60.11 | X-H torsion
[ 7974 7965 7964 7962 ] final  138.85 input  175.53 | X-H torsion
[ 8008 7997 7996 7995 ] final  122.45 input   59.86 | X-H torsion
[ 10167 10162 10161 10158 ] final -121.78 input  -65.29 | X-H torsion
[ 10718 10713 10712 10709 ] final  109.49 input   66.30 | X-H torsion
[ 10763 10752 10751 10750 ] final  147.96 input  -60.55 | X-H torsion
[ 11005 11000 10999 10996 ] final  -17.28 input  -57.11 | X-H torsion

> <Gold.Protein.ActiveResidues>
 VAL166  LYS551  ARG553  GLY616  TRP617  ASP618  TYR619  PRO620  LYS621  CYS622 
 ASP623  PHE694  ASN695  SER759  ASP760  ASP761  ALA762  ILE779  LEU786  VAL792 
 PHE793  MET794  SER795  GLU796  ALA797  LYS798  CYS799  TRP800  GLU811  SER814 

> <Gold.Protein.RotatedAtoms>
  150.8272  134.7508  159.6822 H   0  0  0  0  0  0  0  0  0  0  0  0  # atno 6907 bound_to 6896
  152.4381  134.5642  159.9912 H   0  0  0  0  0  0  0  0  0  0  0  0  # atno 6908 bound_to 6896
  151.5812  133.3340  159.3044 H   0  0  0  0  0  0  0  0  0  0  0  0  # atno 6909 bound_to 6896
  144.9334  139.5019  143.5607 H   0  0  0  0  0  0  0  0  0  0  0  0  # atno 7974 bound_to 7965
  156.2728  140.2785  156.1470 H   0  0  0  0  0  0  0  0  0  0  0  0  # atno 8008 bound_to 7997
  155.0893  140.0388  157.2681 H   0  0  0  0  0  0  0  0  0  0  0  0  # atno 8009 bound_to 7997
  154.6902  140.2627  155.6826 H   0  0  0  0  0  0  0  0  0  0  0  0  # atno 8010 bound_to 7997
  140.0213  143.5341  152.2219 H   0  0  0  0  0  0  0  0  0  0  0  0  # atno 10167 bound_to 10162
  157.6539  131.0914  150.6461 H   0  0  0  0  0  0  0  0  0  0  0  0  # atno 10718 bound_to 10713
  154.0470  135.2885  155.3346 H   0  0  0  0  0  0  0  0  0  0  0  0  # atno 10763 bound_to 10752
  154.6893  135.5232  153.8374 H   0  0  0  0  0  0  0  0  0  0  0  0  # atno 10764 bound_to 10752
  153.0576  135.6601  154.0669 H   0  0  0  0  0  0  0  0  0  0  0  0  # atno 10765 bound_to 10752
  140.8152  133.8110  155.9604 H   0  0  0  0  0  0  0  0  0  0  0  0  # atno 11005 bound_to 11000
  146.3256  139.8300  142.8910 LP  0  0  0  0  0  0  0  0  0  0  0  0  # atno 17320 bound_to 7965
  145.3106  141.0219  143.3557 LP  0  0  0  0  0  0  0  0  0  0  0  0  # atno 17321 bound_to 7965
  139.6138  144.7615  151.2893 LP  0  0  0  0  0  0  0  0  0  0  0  0  # atno 17342 bound_to 10162
  140.7341  143.6775  150.8029 LP  0  0  0  0  0  0  0  0  0  0  0  0  # atno 17343 bound_to 10162
  156.6770  130.4556  149.5639 LP  0  0  0  0  0  0  0  0  0  0  0  0  # atno 17370 bound_to 10713
  156.1956  130.6588  151.1111 LP  0  0  0  0  0  0  0  0  0  0  0  0  # atno 17371 bound_to 10713
  140.9156  134.2206  157.4959 LP  0  0  0  0  0  0  0  0  0  0  0  0  # atno 17394 bound_to 11000
  139.8711  134.9769  156.4940 LP  0  0  0  0  0  0  0  0  0  0  0  0  # atno 17395 bound_to 11000

$$$$
