AV-unprocessed.smi:1999|AV-procd|sdf|8094|dock1
  -GOLD-   2272010313D 1   1.00000     0.00000
 Structure written by MMmdl.
 39 40  0  0  0  0  0  0  0  0  2 V2000
  144.2364  144.1330  162.4742 C   0  0  0  0  0  0  0  0  0  0  0  0
  145.0985  143.6018  161.3806 C   0  0  0  0  0  0  0  0  0  0  0  0
  145.1509  142.3004  161.0720 N   0  0  0  0  0  0  0  0  0  0  0  0
  146.0192  142.0433  160.0203 N   0  0  0  0  0  0  0  0  0  0  0  0
  146.5990  143.1628  159.5661 C   0  0  0  0  0  0  0  0  0  0  0  0
  147.5254  143.1901  158.4901 N   0  0  0  0  0  0  0  0  0  0  0  0
  148.0713  142.1500  157.8364 C   0  0  0  0  0  0  0  0  0  0  0  0
  147.8758  140.9628  158.0975 O   0  0  0  0  0  0  0  0  0  0  0  0
  148.8636  142.5653  156.8365 N   0  0  0  0  0  0  0  0  0  0  0  0
  149.6390  141.7073  155.9388 C   0  0  2  0  0  0  0  0  0  0  0  0
  148.7609  141.3184  154.7416 C   0  0  0  0  0  0  0  0  0  0  0  0
  150.1721  140.4531  156.6707 C   0  0  0  0  0  0  0  0  0  0  0  0
  150.7178  139.4250  155.7483 N   0  3  0  0  0  0  0  0  0  0  0  0
  152.1941  139.4698  155.6359 C   0  0  0  0  0  0  0  0  0  0  0  0
  152.6804  138.4342  154.6072 C   0  0  0  0  0  0  0  0  0  0  0  0
  152.2263  137.1386  154.9797 O   0  0  0  0  0  0  0  0  0  0  0  0
  150.8061  137.0606  155.0148 C   0  0  0  0  0  0  0  0  0  0  0  0
  150.2642  138.0479  156.0613 C   0  0  0  0  0  0  0  0  0  0  0  0
  146.1225  144.6366  160.3918 S   0  0  0  0  0  0  0  0  0  0  0  0
  144.3947  143.5619  163.3892 H   0  0  0  0  0  0  0  0  0  0  0  0
  143.1864  144.0594  162.1907 H   0  0  0  0  0  0  0  0  0  0  0  0
  144.4732  145.1788  162.6710 H   0  0  0  0  0  0  0  0  0  0  0  0
  147.7966  144.1106  158.1773 H   0  0  0  0  0  0  0  0  0  0  0  0
  148.9607  143.5610  156.6985 H   0  0  0  0  0  0  0  0  0  0  0  0
  150.4788  142.2773  155.5396 H   0  0  0  0  0  0  0  0  0  0  0  0
  149.3170  140.7074  154.0300 H   0  0  0  0  0  0  0  0  0  0  0  0
  148.4084  142.2022  154.2085 H   0  0  0  0  0  0  0  0  0  0  0  0
  147.8864  140.7484  155.0567 H   0  0  0  0  0  0  0  0  0  0  0  0
  150.9585  140.7713  157.3570 H   0  0  0  0  0  0  0  0  0  0  0  0
  149.3932  140.0068  157.2909 H   0  0  0  0  0  0  0  0  0  0  0  0
  152.5137  140.4663  155.3289 H   0  0  0  0  0  0  0  0  0  0  0  0
  152.6425  139.2727  156.6109 H   0  0  0  0  0  0  0  0  0  0  0  0
  152.3237  138.6830  153.6063 H   0  0  0  0  0  0  0  0  0  0  0  0
  153.7696  138.4289  154.5651 H   0  0  0  0  0  0  0  0  0  0  0  0
  150.3914  137.2720  154.0276 H   0  0  0  0  0  0  0  0  0  0  0  0
  150.5138  136.0423  155.2716 H   0  0  0  0  0  0  0  0  0  0  0  0
  150.6098  137.7632  157.0563 H   0  0  0  0  0  0  0  0  0  0  0  0
  149.1758  137.9988  156.0752 H   0  0  0  0  0  0  0  0  0  0  0  0
  150.3590  139.6482  154.8304 H   0  0  0  0  0  0  0  0  0  0  0  0
  1  2  1  0  0  0  0
  1 20  1  0  0  0  0
  1 21  1  0  0  0  0
  1 22  1  0  0  0  0
  2 19  1  0  0  0  0
  2  3  2  0  0  0  0
  3  4  1  0  0  0  0
  4  5  2  0  0  0  0
  5  6  1  0  0  0  0
  5 19  1  0  0  0  0
  6  7  1  0  0  0  0
  6 23  1  0  0  0  0
  7  8  2  0  0  0  0
  7  9  1  0  0  0  0
  9 10  1  0  0  0  0
  9 24  1  0  0  0  0
 10 11  1  0  0  0  0
 10 12  1  0  0  0  0
 10 25  1  0  0  0  0
 11 26  1  0  0  0  0
 11 27  1  0  0  0  0
 11 28  1  0  0  0  0
 12 13  1  0  0  0  0
 12 29  1  0  0  0  0
 12 30  1  0  0  0  0
 13 18  1  0  0  0  0
 13 14  1  0  0  0  0
 13 39  1  0  0  0  0
 14 15  1  0  0  0  0
 14 31  1  0  0  0  0
 14 32  1  0  0  0  0
 15 16  1  0  0  0  0
 15 33  1  0  0  0  0
 15 34  1  0  0  0  0
 16 17  1  0  0  0  0
 17 18  1  0  0  0  0
 17 35  1  0  0  0  0
 17 36  1  0  0  0  0
 18 37  1  0  0  0  0
 18 38  1  0  0  0  0
M  CHG  1  13   1
M  END
> <s_m_source_file>
AV-unprocessed.smi

> <i_m_source_file_index>
1999

> <i_lp_mmshare_version>
43012

> <i_f3d_flags>
0

> <s_epik_input>
W0NIM11jMW5uYyhzMSlbTkhdQyg9TylbTkhdW0NASF0oW0NIM10pW0NIMl1OMltDSDJdW0NIMl1PW0NIMl1bQ0gyXTI=

> <s_epik_cmdline>
J2VwaWtfcHl0aG9uJywgJy1waCcsICc3LjAnLCAnLXRuJywgJzgnLCAnLW1hJywgJzIwMCcsICctbWV0YWxfYmluZGluZycsICctaW1hZScsICc8aW5maWxlLm1hZT4nLCAnLW9tYWUnLCAnPG91dGZpbGUubWFlPic=

> <r_lp_tautomer_probability>
1

> <r_epik_Ionization_Penalty>
0.701298

> <r_epik_Ionization_Penalty_Charging>
0.695697

> <r_epik_Ionization_Penalty_Neutral>
0.00560124

> <r_epik_State_Penalty>
0.717972

> <r_epik_Charging_Adjusted_Penalty>
1.41367

> <i_epik_Tot_Q>
1

> <i_epik_Tot_abs_Q>
1

> <r_epik_Metal_State_Penalty>
1.07748

> <b_epik_Metal_Only>
0

> <s_lp_Force_Field>
OPLS_2005

> <r_lp_Energy>
20.3025

> <b_lp_Chiralities_Consistent>
1

> <s_lp_Variant>
AV-unprocessed.smi:1999-3

> <Gold.Version>
5.8.1

> <Gold.Id.Protein>
6NUR|6NUR_protein|mol2

> <Gold.PLP.Fitness>
39.3515

> <Gold.PLP.PLP>
-30.3668

> <Gold.PLP.part.hbond>
-5.1223

> <Gold.PLP.part.metal>
0.0000

> <Gold.PLP.part.buried>
-2.5336

> <Gold.PLP.part.nonpolar>
-23.2619

> <Gold.PLP.part.repulsive>
0.2844

> <Gold.PLP.ligand.clash>
0.0000

> <Gold.PLP.ligand.torsion>
1.0455

> <Gold.PLP.Chemscore.Hbond>
3.6780

> <Gold.PLP.Chemscore.CHOScore>
0.0000

> <Gold.PLP.Chemscore.Metal>
0.0000

> <Gold.Chemscore.Hbonds>
donor molecule, donor type, donor heavy atom, donor atom, acceptor molecule, acceptor atom, score
      L1  H     6    23       P1  8029  0.99
      L1  H     9    24       P1  8028  0.91
      P1  H  6934  6946       L1     4  0.95
      P1  H 10752 10765       L1    16  0.82

> <Gold.PLP.Chemscore.Internal.Correction>
0.0417

> <Gold.Rescore>
     Score         DG    S(hbond)    S(metal)    S(lipo)     H(rot)  DE(clash)    DE(int)     intcor
     12.11     -17.21       2.64        0.00      60.64       1.63       1.61       3.49       ----

> <Gold.Chemscore.Fitness>
12.1070

> <Gold.Chemscore.DG>
-17.2116

> <Gold.Chemscore.ZeroCoef>
-5.4800

> <Gold.Chemscore.Hbond>
2.6388

> <Gold.Chemscore.Metal>
0.0000

> <Gold.Chemscore.Lipo>
60.6447

> <Gold.Chemscore.Internal_Hbond>
0.0000

> <Gold.Chemscore.DEClash>
1.6138

> <Gold.Chemscore.DEInternal>
3.4908

> <Gold.Chemscore.Rot>
1.6317

> <Gold.Chemscore.Internal.Correction>
   9.000000E+99

> <Gold.Chemscore.Hbonds>
donor molecule, donor type, donor heavy atom, donor atom, acceptor molecule, acceptor atom, score
      L1  H     6    23       P1  8029  0.32
      L1  H     9    24       P1  8028  0.67
      P1  H  6934  6946       L1     4  0.21
      P1  H 10752 10765       L1    16  0.69

> <Gold.Chemscore.Hbond.Weighted>
-8.8135

> <Gold.Chemscore.Metal.Weighted>
-0.0000

> <Gold.Chemscore.Lipo.Weighted>
-7.0954

> <Gold.Chemscore.Internal_Hbond.Weighted>
0.0000

> <Gold.Chemscore.DEClash.Weighted>
1.6138

> <Gold.Chemscore.DEInternal.Weighted>
3.4908

> <Gold.Chemscore.Rot.Weighted>
4.1773

> <Gold.Chemscore.Internal.Correction.Weighted>
   9.000000E+99

> <Gold.Protein.RotatedTorsions>
[ 6907 6896 6895 6894 ] final  124.45 input  -60.11 | X-H torsion
[ 7974 7965 7964 7962 ] final  -91.63 input  175.53 | X-H torsion
[ 8008 7997 7996 7995 ] final   88.92 input   59.86 | X-H torsion
[ 10167 10162 10161 10158 ] final  109.83 input  -65.29 | X-H torsion
[ 10718 10713 10712 10709 ] final  -38.17 input   66.30 | X-H torsion
[ 10763 10752 10751 10750 ] final -179.02 input  -60.55 | X-H torsion
[ 11005 11000 10999 10996 ] final   90.17 input  -57.11 | X-H torsion

> <Gold.Protein.ActiveResidues>
 VAL166  LYS551  ARG553  GLY616  TRP617  ASP618  TYR619  PRO620  LYS621  CYS622 
 ASP623  PHE694  ASN695  SER759  ASP760  ASP761  ALA762  ILE779  LEU786  VAL792 
 PHE793  MET794  SER795  GLU796  ALA797  LYS798  CYS799  TRP800  GLU811  SER814 

> <Gold.Protein.RotatedAtoms>
  152.4077  133.6914  159.6369 H   0  0  0  0  0  0  0  0  0  0  0  0  # atno 6907 bound_to 6896
  150.7960  133.8680  159.3259 H   0  0  0  0  0  0  0  0  0  0  0  0  # atno 6908 bound_to 6896
  151.6431  135.1012  160.0197 H   0  0  0  0  0  0  0  0  0  0  0  0  # atno 6909 bound_to 6896
  145.4106  140.9544  143.2236 H   0  0  0  0  0  0  0  0  0  0  0  0  # atno 7974 bound_to 7965
  155.9936  140.3366  155.6777 H   0  0  0  0  0  0  0  0  0  0  0  0  # atno 8008 bound_to 7997
  155.6387  140.0693  157.2643 H   0  0  0  0  0  0  0  0  0  0  0  0  # atno 8009 bound_to 7997
  154.4227  140.1746  156.1537 H   0  0  0  0  0  0  0  0  0  0  0  0  # atno 8010 bound_to 7997
  139.6736  144.7124  151.1643 H   0  0  0  0  0  0  0  0  0  0  0  0  # atno 10167 bound_to 10162
  156.3068  130.4247  149.8089 H   0  0  0  0  0  0  0  0  0  0  0  0  # atno 10718 bound_to 10713
  154.5403  135.2805  155.1101 H   0  0  0  0  0  0  0  0  0  0  0  0  # atno 10763 bound_to 10752
  154.2586  135.6326  153.5270 H   0  0  0  0  0  0  0  0  0  0  0  0  # atno 10764 bound_to 10752
  152.9977  135.5600  154.5941 H   0  0  0  0  0  0  0  0  0  0  0  0  # atno 10765 bound_to 10752
  139.8861  134.8597  156.3247 H   0  0  0  0  0  0  0  0  0  0  0  0  # atno 11005 bound_to 11000
  144.8312  139.5626  143.6943 LP  0  0  0  0  0  0  0  0  0  0  0  0  # atno 17320 bound_to 7965
  146.2707  139.6627  142.9298 LP  0  0  0  0  0  0  0  0  0  0  0  0  # atno 17321 bound_to 7965
  140.7627  143.5807  150.8898 LP  0  0  0  0  0  0  0  0  0  0  0  0  # atno 17342 bound_to 10162
  139.9474  143.6312  152.3038 LP  0  0  0  0  0  0  0  0  0  0  0  0  # atno 17343 bound_to 10162
  156.5446  130.8315  151.3280 LP  0  0  0  0  0  0  0  0  0  0  0  0  # atno 17370 bound_to 10713
  157.7381  130.9808  150.2235 LP  0  0  0  0  0  0  0  0  0  0  0  0  # atno 17371 bound_to 10713
  140.9763  133.7295  156.0607 LP  0  0  0  0  0  0  0  0  0  0  0  0  # atno 17394 bound_to 11000
  140.7807  134.3729  157.5488 LP  0  0  0  0  0  0  0  0  0  0  0  0  # atno 17395 bound_to 11000

$$$$
