AV-unprocessed.smi:646|AV-procd|sdf|3168|dock2
  -GOLD-   22720 0 93D 1   1.00000     0.00000
 Structure written by MMmdl.
 44 45  0  0  0  0  0  0  0  0  1 V2000
  146.8451  139.1686  152.8193 C   0  0  0  0  0  0  0  0  0  0  0  0
  146.7753  140.4171  153.4960 O   0  0  0  0  0  0  0  0  0  0  0  0
  146.8410  140.3697  154.9220 C   0  0  2  0  0  0  0  0  0  0  0  0
  145.7746  139.4059  155.4654 C   0  0  0  0  0  0  0  0  0  0  0  0
  146.9308  141.7732  155.5492 C   0  0  0  0  0  0  0  0  0  0  0  0
  148.0054  141.1967  156.4687 C   0  0  2  0  0  0  0  0  0  0  0  0
  149.0747  142.1473  156.7470 N   0  0  0  0  0  0  0  0  0  0  0  0
  150.0843  141.9256  157.6015 C   0  0  0  0  0  0  0  0  0  0  0  0
  150.1703  140.9190  158.3044 O   0  0  0  0  0  0  0  0  0  0  0  0
  151.1785  142.9915  157.6509 C   0  0  0  0  0  0  0  0  0  0  0  0
  152.0181  142.7926  158.8876 C   0  0  0  0  0  0  0  0  0  0  0  0
  152.2371  143.7100  159.9552 C   0  0  0  0  0  0  0  0  0  0  0  0
  151.6926  145.1001  160.1174 C   0  0  0  0  0  0  0  0  0  0  0  0
  153.0167  143.1994  160.8935 N   0  0  0  0  0  0  0  0  0  0  0  0
  153.3414  141.9098  160.4617 O   0  0  0  0  0  0  0  0  0  0  0  0
  152.7342  141.6910  159.2678 C   0  0  0  0  0  0  0  0  0  0  0  0
  152.9530  140.3559  158.6411 C   0  0  0  0  0  0  0  0  0  0  0  0
  148.3304  140.1697  155.3532 C   0  0  0  0  0  0  0  0  0  0  0  0
  148.7298  138.7696  155.8293 C   0  0  0  0  0  0  0  0  0  0  0  0
  149.3988  140.5819  154.3186 C   0  0  0  0  0  0  0  0  0  0  0  0
  146.6860  139.3327  151.7537 H   0  0  0  0  0  0  0  0  0  0  0  0
  146.0790  138.4735  153.1629 H   0  0  0  0  0  0  0  0  0  0  0  0
  147.8218  138.6990  152.9309 H   0  0  0  0  0  0  0  0  0  0  0  0
  145.8846  139.2411  156.5371 H   0  0  0  0  0  0  0  0  0  0  0  0
  145.8349  138.4328  154.9779 H   0  0  0  0  0  0  0  0  0  0  0  0
  144.7658  139.7897  155.3170 H   0  0  0  0  0  0  0  0  0  0  0  0
  147.3028  142.5375  154.8641 H   0  0  0  0  0  0  0  0  0  0  0  0
  146.0271  142.1033  156.0619 H   0  0  0  0  0  0  0  0  0  0  0  0
  147.5743  140.7393  157.3623 H   0  0  0  0  0  0  0  0  0  0  0  0
  149.0830  143.0013  156.2085 H   0  0  0  0  0  0  0  0  0  0  0  0
  151.7769  142.9257  156.7418 H   0  0  0  0  0  0  0  0  0  0  0  0
  150.7187  143.9804  157.6408 H   0  0  0  0  0  0  0  0  0  0  0  0
  151.7376  145.6494  159.1769 H   0  0  0  0  0  0  0  0  0  0  0  0
  152.2540  145.6695  160.8589 H   0  0  0  0  0  0  0  0  0  0  0  0
  150.6502  145.0733  160.4357 H   0  0  0  0  0  0  0  0  0  0  0  0
  152.0800  140.0486  158.0652 H   0  0  0  0  0  0  0  0  0  0  0  0
  153.1401  139.5943  159.3986 H   0  0  0  0  0  0  0  0  0  0  0  0
  153.8104  140.3832  157.9684 H   0  0  0  0  0  0  0  0  0  0  0  0
  149.7613  138.7449  156.1826 H   0  0  0  0  0  0  0  0  0  0  0  0
  148.6379  138.0359  155.0278 H   0  0  0  0  0  0  0  0  0  0  0  0
  148.1090  138.4268  156.6566 H   0  0  0  0  0  0  0  0  0  0  0  0
  150.3993  140.5896  154.7523 H   0  0  0  0  0  0  0  0  0  0  0  0
  149.2215  141.5778  153.9126 H   0  0  0  0  0  0  0  0  0  0  0  0
  149.4214  139.8929  153.4737 H   0  0  0  0  0  0  0  0  0  0  0  0
  1  2  1  0  0  0  0
  1 21  1  0  0  0  0
  1 22  1  0  0  0  0
  1 23  1  0  0  0  0
  2  3  1  0  0  0  0
  3 18  1  0  0  0  0
  3  4  1  0  0  0  0
  3  5  1  0  0  0  0
  4 24  1  0  0  0  0
  4 25  1  0  0  0  0
  4 26  1  0  0  0  0
  5  6  1  0  0  0  0
  5 27  1  0  0  0  0
  5 28  1  0  0  0  0
  6  7  1  0  0  0  0
  6 18  1  0  0  0  0
  6 29  1  0  0  0  0
  7  8  1  0  0  0  0
  7 30  1  0  0  0  0
  8  9  2  0  0  0  0
  8 10  1  0  0  0  0
 10 11  1  0  0  0  0
 10 31  1  0  0  0  0
 10 32  1  0  0  0  0
 11 16  2  0  0  0  0
 11 12  1  0  0  0  0
 12 13  1  0  0  0  0
 12 14  2  0  0  0  0
 13 33  1  0  0  0  0
 13 34  1  0  0  0  0
 13 35  1  0  0  0  0
 14 15  1  0  0  0  0
 15 16  1  0  0  0  0
 16 17  1  0  0  0  0
 17 36  1  0  0  0  0
 17 37  1  0  0  0  0
 17 38  1  0  0  0  0
 18 19  1  0  0  0  0
 18 20  1  0  0  0  0
 19 39  1  0  0  0  0
 19 40  1  0  0  0  0
 19 41  1  0  0  0  0
 20 42  1  0  0  0  0
 20 43  1  0  0  0  0
 20 44  1  0  0  0  0
M  END
> <s_m_source_file>
AV-unprocessed.smi

> <i_m_source_file_index>
646

> <i_lp_mmshare_version>
43012

> <i_f3d_flags>
0

> <s_epik_input>
W0NIM11PW0NAQF0xKFtDSDNdKVtDSDJdW0NASF0oQzEoW0NIM10pW0NIM10pW05IXUMoPU8pW0NIMl1jMmMoW0NIM10pbm9jMltDSDNd

> <s_epik_cmdline>
J2VwaWtfcHl0aG9uJywgJy1waCcsICc3LjAnLCAnLXRuJywgJzgnLCAnLW1hJywgJzIwMCcsICctbWV0YWxfYmluZGluZycsICctaW1hZScsICc8aW5maWxlLm1hZT4nLCAnLW9tYWUnLCAnPG91dGZpbGUubWFlPic=

> <r_lp_tautomer_probability>
1

> <r_epik_Ionization_Penalty>
2.13169e-08

> <r_epik_Ionization_Penalty_Charging>
0

> <r_epik_Ionization_Penalty_Neutral>
2.13169e-08

> <r_epik_State_Penalty>
-0

> <r_epik_Charging_Adjusted_Penalty>
0

> <i_epik_Tot_Q>
0

> <i_epik_Tot_abs_Q>
0

> <r_epik_Metal_State_Penalty>
-0

> <b_epik_Metal_Only>
0

> <s_lp_Force_Field>
OPLS_2005

> <r_lp_Energy>
15.4726

> <b_lp_Chiralities_Consistent>
1

> <s_lp_Variant>
AV-unprocessed.smi:646-4

> <Gold.Version>
5.8.1

> <Gold.Id.Protein>
6NUR|6NUR_protein|mol2

> <Gold.PLP.Fitness>
35.0862

> <Gold.PLP.PLP>
-32.7287

> <Gold.PLP.part.hbond>
-1.0000

> <Gold.PLP.part.metal>
0.0000

> <Gold.PLP.part.buried>
-4.2109

> <Gold.PLP.part.nonpolar>
-27.8451

> <Gold.PLP.part.repulsive>
0.2828

> <Gold.PLP.ligand.clash>
0.0000

> <Gold.PLP.ligand.torsion>
0.5034

> <Gold.PLP.Chemscore.Hbond>
0.9920

> <Gold.PLP.Chemscore.CHOScore>
0.0000

> <Gold.PLP.Chemscore.Metal>
0.0000

> <Gold.Chemscore.Hbonds>
donor molecule, donor type, donor heavy atom, donor atom, acceptor molecule, acceptor atom, score
      L1  H     7    30       P1  8028  1.00

> <Gold.PLP.Chemscore.Internal.Correction>
0.3883

> <Gold.Rescore>
     Score         DG    S(hbond)    S(metal)    S(lipo)     H(rot)  DE(clash)    DE(int)     intcor
     14.24     -15.92       0.88        0.00      96.86       1.49       0.10       1.57       ----

> <Gold.Chemscore.Fitness>
14.2430

> <Gold.Chemscore.DG>
-15.9186

> <Gold.Chemscore.ZeroCoef>
-5.4800

> <Gold.Chemscore.Hbond>
0.8766

> <Gold.Chemscore.Metal>
0.0000

> <Gold.Chemscore.Lipo>
96.8586

> <Gold.Chemscore.Internal_Hbond>
0.0000

> <Gold.Chemscore.DEClash>
0.1021

> <Gold.Chemscore.DEInternal>
1.5734

> <Gold.Chemscore.Rot>
1.4928

> <Gold.Chemscore.Internal.Correction>
   9.000000E+99

> <Gold.Chemscore.Hbonds>
donor molecule, donor type, donor heavy atom, donor atom, acceptor molecule, acceptor atom, score
      L1  H     7    30       P1  8028  1.00

> <Gold.Chemscore.Hbond.Weighted>
-2.9278

> <Gold.Chemscore.Metal.Weighted>
-0.0000

> <Gold.Chemscore.Lipo.Weighted>
-11.3325

> <Gold.Chemscore.Internal_Hbond.Weighted>
0.0000

> <Gold.Chemscore.DEClash.Weighted>
0.1021

> <Gold.Chemscore.DEInternal.Weighted>
1.5734

> <Gold.Chemscore.Rot.Weighted>
3.8217

> <Gold.Chemscore.Internal.Correction.Weighted>
   9.000000E+99

> <Gold.Protein.RotatedTorsions>
[ 6907 6896 6895 6894 ] final  100.11 input  -60.11 | X-H torsion
[ 7974 7965 7964 7962 ] final   83.64 input  175.53 | X-H torsion
[ 8008 7997 7996 7995 ] final -160.47 input   59.86 | X-H torsion
[ 10167 10162 10161 10158 ] final -130.08 input  -65.29 | X-H torsion
[ 10718 10713 10712 10709 ] final    3.67 input   66.30 | X-H torsion
[ 10763 10752 10751 10750 ] final -123.07 input  -60.55 | X-H torsion
[ 11005 11000 10999 10996 ] final  -73.03 input  -57.11 | X-H torsion

> <Gold.Protein.ActiveResidues>
 VAL166  LYS551  ARG553  GLY616  TRP617  ASP618  TYR619  PRO620  LYS621  CYS622 
 ASP623  PHE694  ASN695  SER759  ASP760  ASP761  ALA762  ILE779  LEU786  VAL792 
 PHE793  MET794  SER795  GLU796  ALA797  LYS798  CYS799  TRP800  GLU811  SER814 

> <Gold.Protein.RotatedAtoms>
  152.5379  134.0326  159.8031 H   0  0  0  0  0  0  0  0  0  0  0  0  # atno 6907 bound_to 6896
  151.0495  133.5629  159.2651 H   0  0  0  0  0  0  0  0  0  0  0  0  # atno 6908 bound_to 6896
  151.2568  135.0648  159.9137 H   0  0  0  0  0  0  0  0  0  0  0  0  # atno 6909 bound_to 6896
  145.6093  139.2365  143.2201 H   0  0  0  0  0  0  0  0  0  0  0  0  # atno 7974 bound_to 7965
  155.7779  140.0861  157.2074 H   0  0  0  0  0  0  0  0  0  0  0  0  # atno 8008 bound_to 7997
  154.3992  140.1513  156.3075 H   0  0  0  0  0  0  0  0  0  0  0  0  # atno 8009 bound_to 7997
  155.8683  140.3427  155.5806 H   0  0  0  0  0  0  0  0  0  0  0  0  # atno 8010 bound_to 7997
  139.9331  143.6249  152.2524 H   0  0  0  0  0  0  0  0  0  0  0  0  # atno 10167 bound_to 10162
  156.8812  130.5654  149.5653 H   0  0  0  0  0  0  0  0  0  0  0  0  # atno 10718 bound_to 10713
  154.8701  135.4111  154.2883 H   0  0  0  0  0  0  0  0  0  0  0  0  # atno 10763 bound_to 10752
  153.3764  135.7009  153.6604 H   0  0  0  0  0  0  0  0  0  0  0  0  # atno 10764 bound_to 10752
  153.5445  135.3641  155.2704 H   0  0  0  0  0  0  0  0  0  0  0  0  # atno 10765 bound_to 10752
  141.1617  133.6865  156.7150 H   0  0  0  0  0  0  0  0  0  0  0  0  # atno 11005 bound_to 11000
  146.1517  140.6916  142.9319 LP  0  0  0  0  0  0  0  0  0  0  0  0  # atno 17320 bound_to 7965
  144.7277  140.4575  143.6961 LP  0  0  0  0  0  0  0  0  0  0  0  0  # atno 17321 bound_to 7965
  139.6766  144.7658  151.1685 LP  0  0  0  0  0  0  0  0  0  0  0  0  # atno 17342 bound_to 10162
  140.7632  143.5786  150.8919 LP  0  0  0  0  0  0  0  0  0  0  0  0  # atno 17343 bound_to 10162
  156.0676  130.5716  150.9320 LP  0  0  0  0  0  0  0  0  0  0  0  0  # atno 17370 bound_to 10713
  157.6139  131.0934  150.8746 LP  0  0  0  0  0  0  0  0  0  0  0  0  # atno 17371 bound_to 10713
  140.2859  134.8280  157.3974 LP  0  0  0  0  0  0  0  0  0  0  0  0  # atno 17394 bound_to 11000
  140.1391  134.4995  155.8045 LP  0  0  0  0  0  0  0  0  0  0  0  0  # atno 17395 bound_to 11000

$$$$
