AV-unprocessed.smi:1|AV-procd|sdf|15|dock10
  -GOLD-   2262015113D 1   1.00000     0.00000
 Structure written by MMmdl.
 57 62  0  0  0  0  0  0  0  0  1 V2000
  149.7169  141.9414  155.5157 O   0  0  0  0  0  0  0  0  0  0  0  0
  150.1348  141.2053  156.4137 C   0  0  0  0  0  0  0  0  0  0  0  0
  149.8747  139.8582  156.6275 N   0  0  0  0  0  0  0  0  0  0  0  0
  150.5133  138.9548  155.9478 C   0  0  0  0  0  0  0  0  0  0  0  0
  151.5034  139.0365  154.9600 N   0  0  0  0  0  0  0  0  0  0  0  0
  152.1158  137.9495  154.3172 C   0  0  0  0  0  0  0  0  0  0  0  0
  151.8430  136.6936  154.5507 N   0  0  0  0  0  0  0  0  0  0  0  0
  150.8615  136.5562  155.5231 C   0  0  0  0  0  0  0  0  0  0  0  0
  150.1909  137.5378  156.2207 C   0  0  0  0  0  0  0  0  0  0  0  0
  149.2795  136.9788  157.1108 N   0  0  0  0  0  0  0  0  0  0  0  0
  149.4426  135.6733  156.9128 C   0  0  0  0  0  0  0  0  0  0  0  0
  150.3611  135.3416  155.9871 N   0  0  0  0  0  0  0  0  0  0  0  0
  150.7486  133.9600  155.5795 C   0  0  2  0  0  0  0  0  0  0  0  0
  149.9258  133.5547  154.5333 O   0  0  0  0  0  0  0  0  0  0  0  0
  149.6802  132.1518  154.6125 C   0  0  2  0  0  0  0  0  0  0  0  0
  148.1635  131.9353  154.5419 C   0  0  0  0  0  0  0  0  0  0  0  0
  147.6435  132.6059  153.4058 O   0  0  0  0  0  0  0  0  0  0  0  0
  146.7516  131.9880  152.6075 C   0  0  0  0  0  0  0  0  0  0  0  0
  146.6226  130.7633  152.5487 O   0  0  0  0  0  0  0  0  0  0  0  0
  145.9327  132.9423  151.8053 C   0  0  0  0  0  0  0  0  0  0  0  0
  144.8748  132.4472  151.0074 C   0  0  0  0  0  0  0  0  0  0  0  0
  144.0819  133.3245  150.2424 C   0  0  0  0  0  0  0  0  0  0  0  0
  144.3380  134.7078  150.2646 C   0  0  0  0  0  0  0  0  0  0  0  0
  145.3887  135.2127  151.0527 C   0  0  0  0  0  0  0  0  0  0  0  0
  146.1823  134.3369  151.8190 C   0  0  0  0  0  0  0  0  0  0  0  0
  150.2995  131.6744  155.9340 C   0  0  1  0  0  0  0  0  0  0  0  0
  151.5524  131.0573  155.6904 O   0  0  0  0  0  0  0  0  0  0  0  0
  152.6361  131.5825  156.8483 S   0  0  0  0  0  0  0  0  0  0  0  0
  152.7695  130.5303  157.8674 O   0  0  0  0  0  0  0  0  0  0  0  0
  153.7952  132.1716  156.1607 O   0  0  0  0  0  0  0  0  0  0  0  0
  151.7214  132.8230  157.4950 O   0  0  0  0  0  0  0  0  0  0  0  0
  150.5444  132.9646  156.7196 C   0  0  1  0  0  0  0  0  0  0  0  0
  151.0643  141.7928  157.4248 C   0  0  0  0  0  0  0  0  0  0  0  0
  151.6568  140.9676  158.4038 C   0  0  0  0  0  0  0  0  0  0  0  0
  152.5246  141.5230  159.3645 C   0  0  0  0  0  0  0  0  0  0  0  0
  152.8007  142.9039  159.3500 C   0  0  0  0  0  0  0  0  0  0  0  0
  152.2091  143.7302  158.3747 C   0  0  0  0  0  0  0  0  0  0  0  0
  151.3408  143.1763  157.4137 C   0  0  0  0  0  0  0  0  0  0  0  0
  152.8663  138.2359  153.5789 H   0  0  0  0  0  0  0  0  0  0  0  0
  148.8758  134.9340  157.4597 H   0  0  0  0  0  0  0  0  0  0  0  0
  151.7816  134.0268  155.2347 H   0  0  0  0  0  0  0  0  0  0  0  0
  150.1598  131.6652  153.7619 H   0  0  0  0  0  0  0  0  0  0  0  0
  147.9300  130.8704  154.4992 H   0  0  0  0  0  0  0  0  0  0  0  0
  147.6914  132.3388  155.4388 H   0  0  0  0  0  0  0  0  0  0  0  0
  144.6585  131.3891  150.9753 H   0  0  0  0  0  0  0  0  0  0  0  0
  143.2756  132.9350  149.6384 H   0  0  0  0  0  0  0  0  0  0  0  0
  143.7297  135.3800  149.6777 H   0  0  0  0  0  0  0  0  0  0  0  0
  145.5866  136.2743  151.0705 H   0  0  0  0  0  0  0  0  0  0  0  0
  146.9811  134.7576  152.4123 H   0  0  0  0  0  0  0  0  0  0  0  0
  149.6650  130.9742  156.4789 H   0  0  0  0  0  0  0  0  0  0  0  0
  149.6765  133.2320  157.3230 H   0  0  0  0  0  0  0  0  0  0  0  0
  151.4485  139.9074  158.4223 H   0  0  0  0  0  0  0  0  0  0  0  0
  152.9768  140.8901  160.1135 H   0  0  0  0  0  0  0  0  0  0  0  0
  153.4652  143.3295  160.0874 H   0  0  0  0  0  0  0  0  0  0  0  0
  152.4205  144.7892  158.3643 H   0  0  0  0  0  0  0  0  0  0  0  0
  150.8880  143.8169  156.6707 H   0  0  0  0  0  0  0  0  0  0  0  0
  151.8054  139.9618  154.6897 H   0  0  0  0  0  0  0  0  0  0  0  0
  1  2  2  0  0  0  0
  2  3  1  0  0  0  0
  2 33  1  0  0  0  0
  3  4  2  0  0  0  0
  4  9  1  0  0  0  0
  4  5  1  0  0  0  0
  5  6  1  0  0  0  0
  5 57  1  0  0  0  0
  6  7  2  0  0  0  0
  6 39  1  0  0  0  0
  7  8  1  0  0  0  0
  8 12  1  0  0  0  0
  8  9  2  0  0  0  0
  9 10  1  0  0  0  0
 10 11  2  0  0  0  0
 11 12  1  0  0  0  0
 11 40  1  0  0  0  0
 12 13  1  0  0  0  0
 13 32  1  0  0  0  0
 13 14  1  0  0  0  0
 13 41  1  0  0  0  0
 14 15  1  0  0  0  0
 15 16  1  0  0  0  0
 15 26  1  0  0  0  0
 15 42  1  0  0  0  0
 16 17  1  0  0  0  0
 16 43  1  0  0  0  0
 16 44  1  0  0  0  0
 17 18  1  0  0  0  0
 18 19  2  0  0  0  0
 18 20  1  0  0  0  0
 20 25  1  0  0  0  0
 20 21  2  0  0  0  0
 21 22  1  0  0  0  0
 21 45  1  0  0  0  0
 22 23  2  0  0  0  0
 22 46  1  0  0  0  0
 23 24  1  0  0  0  0
 23 47  1  0  0  0  0
 24 25  2  0  0  0  0
 24 48  1  0  0  0  0
 25 49  1  0  0  0  0
 26 32  1  0  0  0  0
 26 27  1  0  0  0  0
 26 50  1  0  0  0  0
 27 28  1  0  0  0  0
 28 29  2  0  0  0  0
 28 30  2  0  0  0  0
 28 31  1  0  0  0  0
 31 32  1  0  0  0  0
 32 51  1  0  0  0  0
 33 38  1  0  0  0  0
 33 34  2  0  0  0  0
 34 35  1  0  0  0  0
 34 52  1  0  0  0  0
 35 36  2  0  0  0  0
 35 53  1  0  0  0  0
 36 37  1  0  0  0  0
 36 54  1  0  0  0  0
 37 38  2  0  0  0  0
 37 55  1  0  0  0  0
 38 56  1  0  0  0  0
M  END
> <s_m_source_file>
AV-unprocessed.smi

> <i_m_source_file_index>
1

> <i_lp_mmshare_version>
43012

> <i_f3d_flags>
0

> <s_epik_input>
W2NIXTFbY0hdW2NIXVtjSF1bY0hdYzFDKD1PKVtOSF1jKG5bY0hdbjIpYyhjMjMpbltjSF1uM1tDQEBIXShbQ0BIXShbQ0BIXTQ1KU9TKE81KSg9Tyk9TylPW0NASF00W0NIMl1PQyg9TyljNltjSF1bY0hdW2NIXVtjSF1bY0hdNg==

> <s_epik_cmdline>
J2VwaWtfcHl0aG9uJywgJy1waCcsICc3LjAnLCAnLXRuJywgJzgnLCAnLW1hJywgJzIwMCcsICctbWV0YWxfYmluZGluZycsICctaW1hZScsICc8aW5maWxlLm1hZT4nLCAnLW9tYWUnLCAnPG91dGZpbGUubWFlPic=

> <r_epik_Ionization_Penalty>
0.122545

> <r_epik_Ionization_Penalty_Charging>
0.122545

> <r_epik_Ionization_Penalty_Neutral>
7.8935e-16

> <r_epik_State_Penalty>
2.69178

> <r_epik_Charging_Adjusted_Penalty>
2.81433

> <i_epik_Tot_Q>
0

> <i_epik_Tot_abs_Q>
0

> <r_epik_Metal_State_Penalty>
3.02665

> <b_epik_Metal_Only>
0

> <s_epik_Chemistry_Notes>
This compound has an ester and may undergo hydrolysis at high or low pH. This compound contains an acetal/aminal-like group ( X-CH(R)-Y where X, Y are N, S, or O) that may be acid/base labile, releasing an aldehyde.

> <s_lp_Force_Field>
OPLS_2005

> <r_lp_Energy>
60.8199

> <b_lp_Chiralities_Consistent>
1

> <s_lp_Variant>
AV-unprocessed.smi:1-15

> <Gold.Version>
5.8.1

> <Gold.Id.Protein>
6NUR|6NUR_protein|mol2

> <Gold.PLP.Fitness>
51.1360

> <Gold.PLP.PLP>
-52.3261

> <Gold.PLP.part.hbond>
-1.9419

> <Gold.PLP.part.metal>
0.0000

> <Gold.PLP.part.buried>
-6.7187

> <Gold.PLP.part.nonpolar>
-46.9969

> <Gold.PLP.part.repulsive>
2.3135

> <Gold.PLP.ligand.clash>
0.0000

> <Gold.PLP.ligand.torsion>
2.1718

> <Gold.PLP.Chemscore.Hbond>
1.0000

> <Gold.PLP.Chemscore.CHOScore>
0.0000

> <Gold.PLP.Chemscore.Metal>
0.0000

> <Gold.Chemscore.Hbonds>
donor molecule, donor type, donor heavy atom, donor atom, acceptor molecule, acceptor atom, score
      P1  H 10752 10765       L1     7  1.00

> <Gold.PLP.Chemscore.Internal.Correction>
0.1536

> <Gold.Rescore>
     Score         DG    S(hbond)    S(metal)    S(lipo)     H(rot)  DE(clash)    DE(int)     intcor
     12.20     -16.79       0.90        0.00     117.82       2.13       2.39       2.20       ----

> <Gold.Chemscore.Fitness>
12.2033

> <Gold.Chemscore.DG>
-16.7945

> <Gold.Chemscore.ZeroCoef>
-5.4800

> <Gold.Chemscore.Hbond>
0.8956

> <Gold.Chemscore.Metal>
0.0000

> <Gold.Chemscore.Lipo>
117.8180

> <Gold.Chemscore.Internal_Hbond>
0.0000

> <Gold.Chemscore.DEClash>
2.3924

> <Gold.Chemscore.DEInternal>
2.1988

> <Gold.Chemscore.Rot>
2.1333

> <Gold.Chemscore.Internal.Correction>
   9.000000E+99

> <Gold.Chemscore.Hbonds>
donor molecule, donor type, donor heavy atom, donor atom, acceptor molecule, acceptor atom, score
      P1  H 10752 10765       L1     7  0.86

> <Gold.Chemscore.Hbond.Weighted>
-2.9912

> <Gold.Chemscore.Metal.Weighted>
-0.0000

> <Gold.Chemscore.Lipo.Weighted>
-13.7847

> <Gold.Chemscore.Internal_Hbond.Weighted>
0.0000

> <Gold.Chemscore.DEClash.Weighted>
2.3924

> <Gold.Chemscore.DEInternal.Weighted>
2.1988

> <Gold.Chemscore.Rot.Weighted>
5.4614

> <Gold.Chemscore.Internal.Correction.Weighted>
   9.000000E+99

> <Gold.Protein.RotatedTorsions>
[ 6907 6896 6895 6894 ] final  -21.12 input  -60.11 | X-H torsion
[ 7974 7965 7964 7962 ] final   41.14 input  175.53 | X-H torsion
[ 8008 7997 7996 7995 ] final  170.11 input   59.86 | X-H torsion
[ 10167 10162 10161 10158 ] final -172.04 input  -65.29 | X-H torsion
[ 10718 10713 10712 10709 ] final -148.70 input   66.30 | X-H torsion
[ 10763 10752 10751 10750 ] final  155.30 input  -60.55 | X-H torsion
[ 11005 11000 10999 10996 ] final -140.16 input  -57.11 | X-H torsion

> <Gold.Protein.ActiveResidues>
 VAL166  LYS551  ARG553  GLY616  TRP617  ASP618  TYR619  PRO620  LYS621  CYS622 
 ASP623  PHE694  ASN695  SER759  ASP760  ASP761  ALA762  ILE779  LEU786  VAL792 
 PHE793  MET794  SER795  GLU796  ALA797  LYS798  CYS799  TRP800  GLU811  SER814 

> <Gold.Protein.RotatedAtoms>
  151.2380  135.0578  159.9013 H   0  0  0  0  0  0  0  0  0  0  0  0  # atno 6907 bound_to 6896
  152.5397  134.0465  159.8101 H   0  0  0  0  0  0  0  0  0  0  0  0  # atno 6908 bound_to 6896
  151.0655  133.5460  159.2662 H   0  0  0  0  0  0  0  0  0  0  0  0  # atno 6909 bound_to 6896
  146.0848  139.5451  142.9514 H   0  0  0  0  0  0  0  0  0  0  0  0  # atno 7974 bound_to 7965
  156.1396  140.1546  156.8941 H   0  0  0  0  0  0  0  0  0  0  0  0  # atno 8008 bound_to 7997
  154.4976  140.0834  156.7768 H   0  0  0  0  0  0  0  0  0  0  0  0  # atno 8009 bound_to 7997
  155.4104  140.3418  155.4265 H   0  0  0  0  0  0  0  0  0  0  0  0  # atno 8010 bound_to 7997
  139.5768  144.1515  152.1461 H   0  0  0  0  0  0  0  0  0  0  0  0  # atno 10167 bound_to 10162
  156.4236  130.8041  151.2265 H   0  0  0  0  0  0  0  0  0  0  0  0  # atno 10718 bound_to 10713
  154.1662  135.2807  155.3094 H   0  0  0  0  0  0  0  0  0  0  0  0  # atno 10763 bound_to 10752
  154.6109  135.5499  153.7476 H   0  0  0  0  0  0  0  0  0  0  0  0  # atno 10764 bound_to 10752
  153.0178  135.6415  154.1803 H   0  0  0  0  0  0  0  0  0  0  0  0  # atno 10765 bound_to 10752
  140.8449  134.2356  157.4791 H   0  0  0  0  0  0  0  0  0  0  0  0  # atno 11005 bound_to 11000
  145.6150  141.0333  143.1945 LP  0  0  0  0  0  0  0  0  0  0  0  0  # atno 17320 bound_to 7965
  144.7318  139.7703  143.7344 LP  0  0  0  0  0  0  0  0  0  0  0  0  # atno 17321 bound_to 7965
  140.1059  144.5499  150.6957 LP  0  0  0  0  0  0  0  0  0  0  0  0  # atno 17342 bound_to 10162
  140.7049  143.2461  151.4754 LP  0  0  0  0  0  0  0  0  0  0  0  0  # atno 17343 bound_to 10162
  157.7508  131.0220  150.3775 LP  0  0  0  0  0  0  0  0  0  0  0  0  # atno 17370 bound_to 10713
  156.4097  130.3932  149.6900 LP  0  0  0  0  0  0  0  0  0  0  0  0  # atno 17371 bound_to 10713
  139.8703  134.9654  156.4528 LP  0  0  0  0  0  0  0  0  0  0  0  0  # atno 17394 bound_to 11000
  140.8854  133.7887  155.9512 LP  0  0  0  0  0  0  0  0  0  0  0  0  # atno 17395 bound_to 11000

$$$$
