AV-unprocessed.smi:51|AV-procd|sdf|502|dock7
  -GOLD-   2262016373D 1   1.00000     0.00000
 Structure written by MMmdl.
 25 26  0  0  0  0  0  0  0  0  2 V2000
  151.2911  139.5041  154.8185 O   0  0  0  0  0  0  0  0  0  0  0  0
  151.6681  140.0881  155.8576 C   0  0  0  0  0  0  0  0  0  0  0  0
  152.5199  139.6533  156.6650 O   0  5  0  0  0  0  0  0  0  0  0  0
  151.0362  141.4550  156.1505 C   0  0  1  0  0  0  0  0  0  0  0  0
  149.8198  141.7616  155.2548 C   0  0  0  0  0  0  0  0  0  0  0  0
  148.6208  141.5013  156.1645 C   0  0  2  0  0  0  0  0  0  0  0  0
  147.4820  142.2456  155.7859 O   0  0  0  0  0  0  0  0  0  0  0  0
  149.1550  141.9086  157.5358 C   0  0  0  0  0  0  0  0  0  0  0  0
  150.5469  141.4835  157.5300 N   0  0  0  0  0  0  0  0  0  0  0  0
  151.3700  142.1102  158.4761 C   0  0  0  0  0  0  0  0  0  0  0  0
  151.9679  141.3431  159.4976 C   0  0  0  0  0  0  0  0  0  0  0  0
  152.7765  142.0408  160.4168 C   0  0  0  0  0  0  0  0  0  0  0  0
  152.9638  143.3755  160.3301 N   0  0  0  0  0  0  0  0  0  0  0  0
  152.3470  144.0032  159.3259 C   0  0  0  0  0  0  0  0  0  0  0  0
  151.5607  143.4494  158.3999 N   0  0  0  0  0  0  0  0  0  0  0  0
  151.7985  142.2177  155.9848 H   0  0  0  0  0  0  0  0  0  0  0  0
  149.8508  142.8129  154.9647 H   0  0  0  0  0  0  0  0  0  0  0  0
  149.7837  141.1727  154.3368 H   0  0  0  0  0  0  0  0  0  0  0  0
  148.3792  140.4372  156.1614 H   0  0  0  0  0  0  0  0  0  0  0  0
  147.7515  143.1344  155.6128 H   0  0  0  0  0  0  0  0  0  0  0  0
  149.0868  142.9897  157.6731 H   0  0  0  0  0  0  0  0  0  0  0  0
  148.6000  141.4293  158.3429 H   0  0  0  0  0  0  0  0  0  0  0  0
  151.8207  140.2752  159.5675 H   0  0  0  0  0  0  0  0  0  0  0  0
  153.2737  141.5259  161.2252 H   0  0  0  0  0  0  0  0  0  0  0  0
  152.4963  145.0706  159.2576 H   0  0  0  0  0  0  0  0  0  0  0  0
  1  2  2  0  0  0  0
  2  3  1  0  0  0  0
  2  4  1  0  0  0  0
  4  9  1  0  0  0  0
  4  5  1  0  0  0  0
  4 16  1  0  0  0  0
  5  6  1  0  0  0  0
  5 17  1  0  0  0  0
  5 18  1  0  0  0  0
  6  7  1  0  0  0  0
  6  8  1  0  0  0  0
  6 19  1  0  0  0  0
  7 20  1  0  0  0  0
  8  9  1  0  0  0  0
  8 21  1  0  0  0  0
  8 22  1  0  0  0  0
  9 10  1  0  0  0  0
 10 15  1  0  0  0  0
 10 11  2  0  0  0  0
 11 12  1  0  0  0  0
 11 23  1  0  0  0  0
 12 13  2  0  0  0  0
 12 24  1  0  0  0  0
 13 14  1  0  0  0  0
 14 15  2  0  0  0  0
 14 25  1  0  0  0  0
M  CHG  1   3  -1
M  END
> <s_m_source_file>
AV-unprocessed.smi

> <i_m_source_file_index>
51

> <i_lp_mmshare_version>
43012

> <i_f3d_flags>
0

> <s_epik_input>
Tz1DKFtPSF0pW0NAQEhdMVtDSDJdW0NAQEhdKFtPSF0pW0NIMl1OMWMyW2NIXVtjSF1uW2NIXW4y

> <s_epik_cmdline>
J2VwaWtfcHl0aG9uJywgJy1waCcsICc3LjAnLCAnLXRuJywgJzgnLCAnLW1hJywgJzIwMCcsICctbWV0YWxfYmluZGluZycsICctaW1hZScsICc8aW5maWxlLm1hZT4nLCAnLW9tYWUnLCAnPG91dGZpbGUubWFlPic=

> <r_lp_tautomer_probability>
1

> <r_epik_Ionization_Penalty>
0.225251

> <r_epik_Ionization_Penalty_Charging>
0.000248217

> <r_epik_Ionization_Penalty_Neutral>
0.225002

> <r_epik_State_Penalty>
0.21284

> <r_epik_Charging_Adjusted_Penalty>
0.213088

> <i_epik_Tot_Q>
-1

> <i_epik_Tot_abs_Q>
1

> <r_epik_Metal_State_Penalty>
0.154111

> <b_epik_Metal_Only>
0

> <s_lp_Force_Field>
OPLS_2005

> <r_lp_Energy>
17.6831

> <b_lp_Chiralities_Consistent>
1

> <s_lp_Variant>
AV-unprocessed.smi:51-4

> <Gold.Version>
5.8.1

> <Gold.Id.Protein>
6NUR|6NUR_protein|mol2

> <Gold.PLP.Fitness>
39.2246

> <Gold.PLP.PLP>
-27.6836

> <Gold.PLP.part.hbond>
-3.0000

> <Gold.PLP.part.metal>
0.0000

> <Gold.PLP.part.buried>
-5.1766

> <Gold.PLP.part.nonpolar>
-20.8894

> <Gold.PLP.part.repulsive>
0.1731

> <Gold.PLP.ligand.clash>
0.0000

> <Gold.PLP.ligand.torsion>
0.2705

> <Gold.PLP.Chemscore.Hbond>
3.9913

> <Gold.PLP.Chemscore.CHOScore>
0.0000

> <Gold.PLP.Chemscore.Metal>
0.0000

> <Gold.Chemscore.Hbonds>
donor molecule, donor type, donor heavy atom, donor atom, acceptor molecule, acceptor atom, score
      L1  H     7    20       P1  8028  1.00
      P1  H  7989  7998       L1     1  1.00
      P1  H  7997  8008       L1     3  2.00

> <Gold.PLP.Chemscore.Internal.Correction>
0.1082

> <Gold.Rescore>
     Score         DG    S(hbond)    S(metal)    S(lipo)     H(rot)  DE(clash)    DE(int)     intcor
     12.63     -13.14       2.54        0.00      41.63       2.23       0.17       0.35       ----

> <Gold.Chemscore.Fitness>
12.6302

> <Gold.Chemscore.DG>
-13.1433

> <Gold.Chemscore.ZeroCoef>
-5.4800

> <Gold.Chemscore.Hbond>
2.5443

> <Gold.Chemscore.Metal>
0.0000

> <Gold.Chemscore.Lipo>
41.6261

> <Gold.Chemscore.Internal_Hbond>
0.0000

> <Gold.Chemscore.DEClash>
0.1678

> <Gold.Chemscore.DEInternal>
0.3453

> <Gold.Chemscore.Rot>
2.2285

> <Gold.Chemscore.Internal.Correction>
   9.000000E+99

> <Gold.Chemscore.Hbonds>
donor molecule, donor type, donor heavy atom, donor atom, acceptor molecule, acceptor atom, score
      L1  H     7    20       P1  8028  0.39
      P1  H  7989  7998       L1     1  0.30
      P1  H  7997  8008       L1     3  0.99

> <Gold.Chemscore.Hbond.Weighted>
-8.4980

> <Gold.Chemscore.Metal.Weighted>
-0.0000

> <Gold.Chemscore.Lipo.Weighted>
-4.8703

> <Gold.Chemscore.Internal_Hbond.Weighted>
0.0000

> <Gold.Chemscore.DEClash.Weighted>
0.1678

> <Gold.Chemscore.DEInternal.Weighted>
0.3453

> <Gold.Chemscore.Rot.Weighted>
5.7050

> <Gold.Chemscore.Internal.Correction.Weighted>
   9.000000E+99

> <Gold.Protein.RotatedTorsions>
[ 6907 6896 6895 6894 ] final  -49.15 input  -60.11 | X-H torsion
[ 7974 7965 7964 7962 ] final  165.59 input  175.53 | X-H torsion
[ 8008 7997 7996 7995 ] final  -62.82 input   59.86 | X-H torsion
[ 10167 10162 10161 10158 ] final -101.95 input  -65.29 | X-H torsion
[ 10718 10713 10712 10709 ] final  163.42 input   66.30 | X-H torsion
[ 10763 10752 10751 10750 ] final    1.89 input  -60.55 | X-H torsion
[ 11005 11000 10999 10996 ] final  111.40 input  -57.11 | X-H torsion

> <Gold.Protein.ActiveResidues>
 VAL166  LYS551  ARG553  GLY616  TRP617  ASP618  TYR619  PRO620  LYS621  CYS622 
 ASP623  PHE694  ASN695  SER759  ASP760  ASP761  ALA762  ILE779  LEU786  VAL792 
 PHE793  MET794  SER795  GLU796  ALA797  LYS798  CYS799  TRP800  GLU811  SER814 

> <Gold.Protein.RotatedAtoms>
  150.8834  134.8228  159.7241 H   0  0  0  0  0  0  0  0  0  0  0  0  # atno 6907 bound_to 6896
  152.4792  134.4760  159.9660 H   0  0  0  0  0  0  0  0  0  0  0  0  # atno 6908 bound_to 6896
  151.4832  133.3503  159.2877 H   0  0  0  0  0  0  0  0  0  0  0  0  # atno 6909 bound_to 6896
  144.7496  139.8492  143.6370 H   0  0  0  0  0  0  0  0  0  0  0  0  # atno 7974 bound_to 7965
  154.4520  140.0988  156.6647 H   0  0  0  0  0  0  0  0  0  0  0  0  # atno 8008 bound_to 7997
  155.5254  140.3480  155.4397 H   0  0  0  0  0  0  0  0  0  0  0  0  # atno 8009 bound_to 7997
  156.0701  140.1347  156.9827 H   0  0  0  0  0  0  0  0  0  0  0  0  # atno 8010 bound_to 7997
  140.2359  143.3573  152.0845 H   0  0  0  0  0  0  0  0  0  0  0  0  # atno 10167 bound_to 10162
  157.1087  131.0462  151.2467 H   0  0  0  0  0  0  0  0  0  0  0  0  # atno 10718 bound_to 10713
  153.3024  135.6957  153.7191 H   0  0  0  0  0  0  0  0  0  0  0  0  # atno 10763 bound_to 10752
  153.6100  135.3446  155.2976 H   0  0  0  0  0  0  0  0  0  0  0  0  # atno 10764 bound_to 10752
  154.8554  135.4361  154.2138 H   0  0  0  0  0  0  0  0  0  0  0  0  # atno 10765 bound_to 10752
  139.8903  134.9507  156.6427 H   0  0  0  0  0  0  0  0  0  0  0  0  # atno 11005 bound_to 11000
  146.1428  139.4489  143.0098 LP  0  0  0  0  0  0  0  0  0  0  0  0  # atno 17320 bound_to 7965
  145.6991  141.0141  143.1514 LP  0  0  0  0  0  0  0  0  0  0  0  0  # atno 17321 bound_to 7965
  139.5094  144.6866  151.5870 LP  0  0  0  0  0  0  0  0  0  0  0  0  # atno 17342 bound_to 10162
  140.6150  143.9365  150.6482 LP  0  0  0  0  0  0  0  0  0  0  0  0  # atno 17343 bound_to 10162
  157.4578  130.7636  149.7209 LP  0  0  0  0  0  0  0  0  0  0  0  0  # atno 17370 bound_to 10713
  155.9856  130.3982  150.3255 LP  0  0  0  0  0  0  0  0  0  0  0  0  # atno 17371 bound_to 10713
  140.7581  133.8840  155.8397 LP  0  0  0  0  0  0  0  0  0  0  0  0  # atno 17394 bound_to 11000
  140.9945  134.1234  157.4377 LP  0  0  0  0  0  0  0  0  0  0  0  0  # atno 17395 bound_to 11000

$$$$
