AV-unprocessed.smi:2511|AV-procd|sdf|9886|dock8
  -GOLD-   2272013523D 1   1.00000     0.00000
 Structure written by MMmdl.
 40 41  0  0  0  0  0  0  0  0  1 V2000
  149.7430  134.1484  154.9623 N   0  0  0  0  0  0  0  0  0  0  0  0
  149.4430  134.2483  156.2617 C   0  0  0  0  0  0  0  0  0  0  0  0
  148.7267  133.4276  156.8332 O   0  0  0  0  0  0  0  0  0  0  0  0
  149.9951  135.4487  156.9839 C   0  0  0  0  0  0  0  0  0  0  0  0
  150.8288  136.3621  156.2993 C   0  0  0  0  0  0  0  0  0  0  0  0
  151.3305  137.4826  156.9886 C   0  0  0  0  0  0  0  0  0  0  0  0
  150.9872  137.6593  158.3495 C   0  0  0  0  0  0  0  0  0  0  0  0
  151.4149  138.7514  159.1519 N   0  0  0  0  0  0  0  0  0  0  0  0
  152.3597  139.6754  158.8881 C   0  0  0  0  0  0  0  0  0  0  0  0
  153.0251  139.7222  157.8561 O   0  0  0  0  0  0  0  0  0  0  0  0
  152.5508  140.5684  159.8764 N   0  0  0  0  0  0  0  0  0  0  0  0
  153.4874  141.6963  159.9274 C   0  0  2  0  0  0  0  0  0  0  0  0
  153.9411  141.9390  161.3797 C   0  0  0  0  0  0  0  0  0  0  0  0
  152.8134  142.5177  162.2510 C   0  0  0  0  0  0  0  0  0  0  0  0
  152.2286  143.7977  161.6337 C   0  0  0  0  0  0  0  0  0  0  0  0
  151.7303  143.5599  160.1926 C   0  0  1  0  0  0  0  0  0  0  0  0
  151.1265  144.8361  159.5705 C   0  0  0  0  0  0  0  0  0  0  0  0
  151.9035  145.8934  159.8079 F   0  0  0  0  0  0  0  0  0  0  0  0
  150.9970  144.6837  158.2525 F   0  0  0  0  0  0  0  0  0  0  0  0
  149.9176  145.0665  160.0831 F   0  0  0  0  0  0  0  0  0  0  0  0
  152.8714  142.9800  159.3263 C   0  0  0  0  0  0  0  0  0  0  0  0
  150.1328  136.7050  158.9373 C   0  0  0  0  0  0  0  0  0  0  0  0
  149.6504  135.6283  158.2823 N   0  0  0  0  0  0  0  0  0  0  0  0
  149.4047  133.3638  154.4249 H   0  0  0  0  0  0  0  0  0  0  0  0
  150.3117  134.8612  154.5284 H   0  0  0  0  0  0  0  0  0  0  0  0
  151.0852  136.2150  155.2601 H   0  0  0  0  0  0  0  0  0  0  0  0
  151.9536  138.1838  156.4561 H   0  0  0  0  0  0  0  0  0  0  0  0
  151.0004  138.7988  160.0714 H   0  0  0  0  0  0  0  0  0  0  0  0
  151.9791  140.4452  160.6998 H   0  0  0  0  0  0  0  0  0  0  0  0
  154.3765  141.4314  159.3524 H   0  0  0  0  0  0  0  0  0  0  0  0
  154.3158  141.0135  161.8188 H   0  0  0  0  0  0  0  0  0  0  0  0
  154.7813  142.6347  161.3793 H   0  0  0  0  0  0  0  0  0  0  0  0
  152.0225  141.7770  162.3740 H   0  0  0  0  0  0  0  0  0  0  0  0
  153.1921  142.7293  163.2513 H   0  0  0  0  0  0  0  0  0  0  0  0
  151.4108  144.1573  162.2588 H   0  0  0  0  0  0  0  0  0  0  0  0
  152.9868  144.5819  161.6389 H   0  0  0  0  0  0  0  0  0  0  0  0
  150.9323  142.8170  160.2369 H   0  0  0  0  0  0  0  0  0  0  0  0
  153.6571  143.7295  159.2235 H   0  0  0  0  0  0  0  0  0  0  0  0
  152.5128  142.7877  158.3149 H   0  0  0  0  0  0  0  0  0  0  0  0
  149.8293  136.8035  159.9694 H   0  0  0  0  0  0  0  0  0  0  0  0
  1  2  1  0  0  0  0
  1 24  1  0  0  0  0
  1 25  1  0  0  0  0
  2  3  2  0  0  0  0
  2  4  1  0  0  0  0
  4 23  1  0  0  0  0
  4  5  2  0  0  0  0
  5  6  1  0  0  0  0
  5 26  1  0  0  0  0
  6  7  2  0  0  0  0
  6 27  1  0  0  0  0
  7  8  1  0  0  0  0
  7 22  1  0  0  0  0
  8  9  1  0  0  0  0
  8 28  1  0  0  0  0
  9 10  2  0  0  0  0
  9 11  1  0  0  0  0
 11 12  1  0  0  0  0
 11 29  1  0  0  0  0
 12 21  1  0  0  0  0
 12 13  1  0  0  0  0
 12 30  1  0  0  0  0
 13 14  1  0  0  0  0
 13 31  1  0  0  0  0
 13 32  1  0  0  0  0
 14 15  1  0  0  0  0
 14 33  1  0  0  0  0
 14 34  1  0  0  0  0
 15 16  1  0  0  0  0
 15 35  1  0  0  0  0
 15 36  1  0  0  0  0
 16 17  1  0  0  0  0
 16 21  1  0  0  0  0
 16 37  1  0  0  0  0
 17 18  1  0  0  0  0
 17 19  1  0  0  0  0
 17 20  1  0  0  0  0
 21 38  1  0  0  0  0
 21 39  1  0  0  0  0
 22 23  2  0  0  0  0
 22 40  1  0  0  0  0
M  END
> <s_m_source_file>
AV-unprocessed.smi

> <i_m_source_file_index>
2511

> <i_lp_mmshare_version>
43012

> <i_f3d_flags>
0

> <s_epik_input>
W05IMl1DKD1PKWMxW2NIXVtjSF1jKFtjSF1uMSlbTkhdQyg9TylbTkhdW0NAQEhdMltDSDJdW0NIMl1bQ0gyXVtDQEBIXShDKEYpKEYpRilbQ0gyXTI=

> <s_epik_cmdline>
J2VwaWtfcHl0aG9uJywgJy1waCcsICc3LjAnLCAnLXRuJywgJzgnLCAnLW1hJywgJzIwMCcsICctbWV0YWxfYmluZGluZycsICctaW1hZScsICc8aW5maWxlLm1hZT4nLCAnLW9tYWUnLCAnPG91dGZpbGUubWFlPic=

> <r_lp_tautomer_probability>
1

> <r_epik_Ionization_Penalty>
4.28758e-05

> <r_epik_Ionization_Penalty_Charging>
0

> <r_epik_Ionization_Penalty_Neutral>
4.28758e-05

> <r_epik_State_Penalty>
-0

> <r_epik_Charging_Adjusted_Penalty>
0

> <i_epik_Tot_Q>
0

> <i_epik_Tot_abs_Q>
0

> <r_epik_Metal_State_Penalty>
-0

> <b_epik_Metal_Only>
0

> <s_lp_Force_Field>
OPLS_2005

> <r_lp_Energy>
27.7433

> <b_lp_Chiralities_Consistent>
1

> <s_lp_Variant>
AV-unprocessed.smi:2511-1

> <Gold.Version>
5.8.1

> <Gold.Id.Protein>
6NUR|6NUR_protein|mol2

> <Gold.PLP.Fitness>
46.5956

> <Gold.PLP.PLP>
-43.2296

> <Gold.PLP.part.hbond>
-2.0000

> <Gold.PLP.part.metal>
0.0000

> <Gold.PLP.part.buried>
-3.3986

> <Gold.PLP.part.nonpolar>
-38.4853

> <Gold.PLP.part.repulsive>
0.3301

> <Gold.PLP.ligand.clash>
0.0000

> <Gold.PLP.ligand.torsion>
0.8181

> <Gold.PLP.Chemscore.Hbond>
1.6600

> <Gold.PLP.Chemscore.CHOScore>
0.0000

> <Gold.PLP.Chemscore.Metal>
0.0000

> <Gold.Chemscore.Hbonds>
donor molecule, donor type, donor heavy atom, donor atom, acceptor molecule, acceptor atom, score
      P1  H  6896  6909       L1    23  0.60
      P1  H  7997  8009       L1    10  1.00

> <Gold.PLP.Chemscore.Internal.Correction>
0.0222

> <Gold.Rescore>
     Score         DG    S(hbond)    S(metal)    S(lipo)     H(rot)  DE(clash)    DE(int)     intcor
     16.14     -17.85       1.04        0.00      97.85       1.00       0.03       1.68       ----

> <Gold.Chemscore.Fitness>
16.1429

> <Gold.Chemscore.DG>
-17.8516

> <Gold.Chemscore.ZeroCoef>
-5.4800

> <Gold.Chemscore.Hbond>
1.0430

> <Gold.Chemscore.Metal>
0.0000

> <Gold.Chemscore.Lipo>
97.8466

> <Gold.Chemscore.Internal_Hbond>
0.0000

> <Gold.Chemscore.DEClash>
0.0311

> <Gold.Chemscore.DEInternal>
1.6776

> <Gold.Chemscore.Rot>
1.0000

> <Gold.Chemscore.Internal.Correction>
   9.000000E+99

> <Gold.Chemscore.Hbonds>
donor molecule, donor type, donor heavy atom, donor atom, acceptor molecule, acceptor atom, score
      P1  H  6896  6909       L1    23  0.04
      P1  H  7997  8009       L1    10  0.99

> <Gold.Chemscore.Hbond.Weighted>
-3.4836

> <Gold.Chemscore.Metal.Weighted>
-0.0000

> <Gold.Chemscore.Lipo.Weighted>
-11.4481

> <Gold.Chemscore.Internal_Hbond.Weighted>
0.0000

> <Gold.Chemscore.DEClash.Weighted>
0.0311

> <Gold.Chemscore.DEInternal.Weighted>
1.6776

> <Gold.Chemscore.Rot.Weighted>
2.5600

> <Gold.Chemscore.Internal.Correction.Weighted>
   9.000000E+99

> <Gold.Protein.RotatedTorsions>
[ 6907 6896 6895 6894 ] final   29.83 input  -60.11 | X-H torsion
[ 7974 7965 7964 7962 ] final  125.59 input  175.53 | X-H torsion
[ 8008 7997 7996 7995 ] final  151.27 input   59.86 | X-H torsion
[ 10167 10162 10161 10158 ] final   59.69 input  -65.29 | X-H torsion
[ 10718 10713 10712 10709 ] final  -97.99 input   66.30 | X-H torsion
[ 10763 10752 10751 10750 ] final  141.14 input  -60.55 | X-H torsion
[ 11005 11000 10999 10996 ] final -156.68 input  -57.11 | X-H torsion

> <Gold.Protein.ActiveResidues>
 VAL166  LYS551  ARG553  GLY616  TRP617  ASP618  TYR619  PRO620  LYS621  CYS622 
 ASP623  PHE694  ASN695  SER759  ASP760  ASP761  ALA762  ILE779  LEU786  VAL792 
 PHE793  MET794  SER795  GLU796  ALA797  LYS798  CYS799  TRP800  GLU811  SER814 

> <Gold.Protein.RotatedAtoms>
  152.0372  134.9733  160.0573 H   0  0  0  0  0  0  0  0  0  0  0  0  # atno 6907 bound_to 6896
  152.1186  133.4336  159.4673 H   0  0  0  0  0  0  0  0  0  0  0  0  # atno 6908 bound_to 6896
  150.6847  134.2481  159.4543 H   0  0  0  0  0  0  0  0  0  0  0  0  # atno 6909 bound_to 6896
  145.0712  139.3728  143.4956 H   0  0  0  0  0  0  0  0  0  0  0  0  # atno 7974 bound_to 7965
  156.2681  140.2052  156.6148 H   0  0  0  0  0  0  0  0  0  0  0  0  # atno 8008 bound_to 7997
  154.6803  140.0540  157.0282 H   0  0  0  0  0  0  0  0  0  0  0  0  # atno 8009 bound_to 7997
  155.1010  140.3206  155.4550 H   0  0  0  0  0  0  0  0  0  0  0  0  # atno 8010 bound_to 7997
  140.1737  144.4251  150.6649 H   0  0  0  0  0  0  0  0  0  0  0  0  # atno 10167 bound_to 10162
  156.0096  130.5218  150.6456 H   0  0  0  0  0  0  0  0  0  0  0  0  # atno 10718 bound_to 10713
  153.9343  135.2987  155.3445 H   0  0  0  0  0  0  0  0  0  0  0  0  # atno 10763 bound_to 10752
  154.7510  135.4980  153.9293 H   0  0  0  0  0  0  0  0  0  0  0  0  # atno 10764 bound_to 10752
  153.1075  135.6750  153.9665 H   0  0  0  0  0  0  0  0  0  0  0  0  # atno 10765 bound_to 10752
  140.6729  134.4228  157.5231 H   0  0  0  0  0  0  0  0  0  0  0  0  # atno 11005 bound_to 11000
  146.3528  140.0458  142.8639 LP  0  0  0  0  0  0  0  0  0  0  0  0  # atno 17320 bound_to 7965
  145.1290  140.9507  143.4556 LP  0  0  0  0  0  0  0  0  0  0  0  0  # atno 17321 bound_to 7965
  140.6565  143.2239  151.5956 LP  0  0  0  0  0  0  0  0  0  0  0  0  # atno 17342 bound_to 10162
  139.5327  144.2871  152.1183 LP  0  0  0  0  0  0  0  0  0  0  0  0  # atno 17343 bound_to 10162
  157.4227  131.0839  151.1115 LP  0  0  0  0  0  0  0  0  0  0  0  0  # atno 17370 bound_to 10713
  157.1712  130.6268  149.5641 LP  0  0  0  0  0  0  0  0  0  0  0  0  # atno 17371 bound_to 10713
  139.8976  134.8633  156.2038 LP  0  0  0  0  0  0  0  0  0  0  0  0  # atno 17394 bound_to 11000
  141.0378  133.6954  156.1544 LP  0  0  0  0  0  0  0  0  0  0  0  0  # atno 17395 bound_to 11000

$$$$
