AV-unprocessed.smi:24|AV-procd|sdf|175|dock7
  -GOLD-   2262015433D 1   1.00000     0.00000
 Structure written by MMmdl.
 61 65  0  0  0  0  0  0  0  0  1 V2000
  151.0733  140.3537  155.6814 C   0  0  0  0  0  0  0  0  0  0  0  0
  150.1292  139.5015  156.3131 O   0  0  0  0  0  0  0  0  0  0  0  0
  150.1182  138.1699  155.9570 C   0  0  0  0  0  0  0  0  0  0  0  0
  149.2268  137.3274  156.6519 C   0  0  0  0  0  0  0  0  0  0  0  0
  149.1517  135.9539  156.3536 C   0  0  0  0  0  0  0  0  0  0  0  0
  149.9762  135.3964  155.3521 C   0  0  0  0  0  0  0  0  0  0  0  0
  149.9093  133.9094  155.0081 C   0  0  2  0  0  0  0  0  0  0  0  0
  149.3735  133.6712  153.5939 C   0  0  0  0  0  0  0  0  0  0  0  0
  148.1882  132.8057  153.8625 C   0  0  0  0  0  0  0  0  0  0  0  0
  147.3109  132.3277  152.7705 C   0  0  0  0  0  0  0  0  0  0  0  0
  146.7671  131.0246  152.8369 C   0  0  0  0  0  0  0  0  0  0  0  0
  145.9267  130.5707  151.8015 C   0  0  0  0  0  0  0  0  0  0  0  0
  145.6328  131.4106  150.7090 C   0  0  0  0  0  0  0  0  0  0  0  0
  146.1787  132.7082  150.6465 C   0  0  0  0  0  0  0  0  0  0  0  0
  147.0205  133.1735  151.6759 C   0  0  0  0  0  0  0  0  0  0  0  0
  148.0156  132.5347  155.1035 N   0  0  0  0  0  0  0  0  0  0  0  0
  148.9859  133.1290  155.8426 N   0  0  0  0  0  0  0  0  0  0  0  0
  149.1262  132.9412  157.1739 C   0  0  0  0  0  0  0  0  0  0  0  0
  150.0893  133.3928  157.7966 O   0  0  0  0  0  0  0  0  0  0  0  0
  148.0461  132.1274  157.9178 C   0  0  0  0  0  0  0  0  0  0  0  0
  148.2945  132.0129  159.3722 N   0  0  0  0  0  0  0  0  0  0  0  0
  147.7625  133.0090  160.2286 C   0  0  0  0  0  0  0  0  0  0  0  0
  147.0967  133.9450  159.7829 O   0  0  0  0  0  0  0  0  0  0  0  0
  148.0651  132.8483  161.6461 C   0  0  0  0  0  0  0  0  0  0  0  0
  147.5987  133.7447  162.5322 F   0  0  0  0  0  0  0  0  0  0  0  0
  148.8088  131.8122  162.0853 C   0  0  0  0  0  0  0  0  0  0  0  0
  149.3252  130.8487  161.2372 N   0  0  0  0  0  0  0  0  0  0  0  0
  150.1653  129.6968  161.7465 C   0  0  2  0  0  0  0  0  0  0  0  0
  150.3158  129.7721  163.2772 C   0  0  0  0  0  0  0  0  0  0  0  0
  151.8121  129.6290  163.4717 C   0  0  0  0  0  0  0  0  0  0  0  0
  152.3546  130.2477  162.1923 C   0  0  0  0  0  0  0  0  0  0  0  0
  151.4530  129.7695  161.2024 O   0  0  0  0  0  0  0  0  0  0  0  0
  149.0805  130.9372  159.8494 C   0  0  0  0  0  0  0  0  0  0  0  0
  149.5451  130.0969  159.0757 O   0  0  0  0  0  0  0  0  0  0  0  0
  150.8634  136.2347  154.6473 C   0  0  0  0  0  0  0  0  0  0  0  0
  150.9381  137.6089  154.9461 C   0  0  0  0  0  0  0  0  0  0  0  0
  150.9598  141.3664  156.0681 H   0  0  0  0  0  0  0  0  0  0  0  0
  150.9159  140.3933  154.6028 H   0  0  0  0  0  0  0  0  0  0  0  0
  152.0964  140.0354  155.8860 H   0  0  0  0  0  0  0  0  0  0  0  0
  148.5925  137.7385  157.4236 H   0  0  0  0  0  0  0  0  0  0  0  0
  148.4568  135.3318  156.8986 H   0  0  0  0  0  0  0  0  0  0  0  0
  150.9061  133.4732  155.0993 H   0  0  0  0  0  0  0  0  0  0  0  0
  149.0768  134.5983  153.1011 H   0  0  0  0  0  0  0  0  0  0  0  0
  150.1060  133.1600  152.9683 H   0  0  0  0  0  0  0  0  0  0  0  0
  146.9801  130.3658  153.6665 H   0  0  0  0  0  0  0  0  0  0  0  0
  145.5062  129.5767  151.8461 H   0  0  0  0  0  0  0  0  0  0  0  0
  144.9877  131.0591  149.9171 H   0  0  0  0  0  0  0  0  0  0  0  0
  145.9509  133.3483  149.8069 H   0  0  0  0  0  0  0  0  0  0  0  0
  147.4258  134.1719  151.6045 H   0  0  0  0  0  0  0  0  0  0  0  0
  147.0695  132.5826  157.7435 H   0  0  0  0  0  0  0  0  0  0  0  0
  147.9705  131.1454  157.4487 H   0  0  0  0  0  0  0  0  0  0  0  0
  148.9991  131.7538  163.1457 H   0  0  0  0  0  0  0  0  0  0  0  0
  149.6760  128.7889  161.3889 H   0  0  0  0  0  0  0  0  0  0  0  0
  149.9766  130.7429  163.6428 H   0  0  0  0  0  0  0  0  0  0  0  0
  149.7395  128.9869  163.7675 H   0  0  0  0  0  0  0  0  0  0  0  0
  152.1761  130.1228  164.3729 H   0  0  0  0  0  0  0  0  0  0  0  0
  152.0858  128.5743  163.5221 H   0  0  0  0  0  0  0  0  0  0  0  0
  152.3170  131.3367  162.2420 H   0  0  0  0  0  0  0  0  0  0  0  0
  153.3807  129.9475  161.9791 H   0  0  0  0  0  0  0  0  0  0  0  0
  151.4956  135.8250  153.8732 H   0  0  0  0  0  0  0  0  0  0  0  0
  151.6342  138.2122  154.3837 H   0  0  0  0  0  0  0  0  0  0  0  0
  1  2  1  0  0  0  0
  1 37  1  0  0  0  0
  1 38  1  0  0  0  0
  1 39  1  0  0  0  0
  2  3  1  0  0  0  0
  3 36  1  0  0  0  0
  3  4  2  0  0  0  0
  4  5  1  0  0  0  0
  4 40  1  0  0  0  0
  5  6  2  0  0  0  0
  5 41  1  0  0  0  0
  6  7  1  0  0  0  0
  6 35  1  0  0  0  0
  7 17  1  0  0  0  0
  7  8  1  0  0  0  0
  7 42  1  0  0  0  0
  8  9  1  0  0  0  0
  8 43  1  0  0  0  0
  8 44  1  0  0  0  0
  9 10  1  0  0  0  0
  9 16  2  0  0  0  0
 10 15  1  0  0  0  0
 10 11  2  0  0  0  0
 11 12  1  0  0  0  0
 11 45  1  0  0  0  0
 12 13  2  0  0  0  0
 12 46  1  0  0  0  0
 13 14  1  0  0  0  0
 13 47  1  0  0  0  0
 14 15  2  0  0  0  0
 14 48  1  0  0  0  0
 15 49  1  0  0  0  0
 16 17  1  0  0  0  0
 17 18  1  0  0  0  0
 18 19  2  0  0  0  0
 18 20  1  0  0  0  0
 20 21  1  0  0  0  0
 20 50  1  0  0  0  0
 20 51  1  0  0  0  0
 21 33  1  0  0  0  0
 21 22  1  0  0  0  0
 22 23  2  0  0  0  0
 22 24  1  0  0  0  0
 24 25  1  0  0  0  0
 24 26  2  0  0  0  0
 26 27  1  0  0  0  0
 26 52  1  0  0  0  0
 27 28  1  0  0  0  0
 27 33  1  0  0  0  0
 28 32  1  0  0  0  0
 28 29  1  0  0  0  0
 28 53  1  0  0  0  0
 29 30  1  0  0  0  0
 29 54  1  0  0  0  0
 29 55  1  0  0  0  0
 30 31  1  0  0  0  0
 30 56  1  0  0  0  0
 30 57  1  0  0  0  0
 31 32  1  0  0  0  0
 31 58  1  0  0  0  0
 31 59  1  0  0  0  0
 33 34  2  0  0  0  0
 35 36  2  0  0  0  0
 35 60  1  0  0  0  0
 36 61  1  0  0  0  0
M  END
> <s_m_source_file>
AV-unprocessed.smi

> <i_m_source_file_index>
24

> <i_lp_mmshare_version>
43012

> <i_f3d_flags>
0

> <s_epik_input>
W0NIM11PYzFbY0hdW2NIXWMoW2NIXVtjSF0xKVtDQEBIXTJbQ0gyXUMoYzNbY0hdW2NIXVtjSF1bY0hdW2NIXTMpPU5OMkMoPU8pW0NIMl1uNGMoPU8pYyhGKVtjSF1uKGM0PU8pW0NAQEhdNVtDSDJdW0NIMl1bQ0gyXU81

> <s_epik_cmdline>
J2VwaWtfcHl0aG9uJywgJy1waCcsICc3LjAnLCAnLXRuJywgJzgnLCAnLW1hJywgJzIwMCcsICctbWV0YWxfYmluZGluZycsICctaW1hZScsICc8aW5maWxlLm1hZT4nLCAnLW9tYWUnLCAnPG91dGZpbGUubWFlPic=

> <r_lp_tautomer_probability>
1

> <r_epik_Ionization_Penalty>
1.46326e-08

> <r_epik_Ionization_Penalty_Charging>
4.53232e-09

> <r_epik_Ionization_Penalty_Neutral>
1.01002e-08

> <r_epik_State_Penalty>
-0

> <r_epik_Charging_Adjusted_Penalty>
4.53232e-09

> <i_epik_Tot_Q>
0

> <i_epik_Tot_abs_Q>
0

> <r_epik_Metal_State_Penalty>
-0

> <b_epik_Metal_Only>
0

> <s_epik_Chemistry_Notes>
This compound has an imine and may undergo hydrolysis. This compound contains an acetal/aminal-like group ( X-CH(R)-Y where X, Y are N, S, or O) that may be acid/base labile, releasing an aldehyde.

> <s_lp_Force_Field>
OPLS_2005

> <r_lp_Energy>
50.6154

> <b_lp_Chiralities_Consistent>
1

> <s_lp_Variant>
AV-unprocessed.smi:24-1

> <Gold.Version>
5.8.1

> <Gold.Id.Protein>
6NUR|6NUR_protein|mol2

> <Gold.PLP.Fitness>
50.8103

> <Gold.PLP.PLP>
-49.7469

> <Gold.PLP.part.hbond>
-1.0000

> <Gold.PLP.part.metal>
0.0000

> <Gold.PLP.part.buried>
-3.9147

> <Gold.PLP.part.nonpolar>
-45.4623

> <Gold.PLP.part.repulsive>
0.0000

> <Gold.PLP.ligand.clash>
0.0000

> <Gold.PLP.ligand.torsion>
1.0014

> <Gold.PLP.Chemscore.Hbond>
1.0000

> <Gold.PLP.Chemscore.CHOScore>
0.0000

> <Gold.PLP.Chemscore.Metal>
0.0000

> <Gold.Chemscore.Hbonds>
donor molecule, donor type, donor heavy atom, donor atom, acceptor molecule, acceptor atom, score
      P1  H  6896  6907       L1    19  1.00

> <Gold.PLP.Chemscore.Internal.Correction>
0.0661

> <Gold.Rescore>
     Score         DG    S(hbond)    S(metal)    S(lipo)     H(rot)  DE(clash)    DE(int)     intcor
     16.10     -18.55       0.99        0.00     126.61       1.98       0.22       2.23       ----

> <Gold.Chemscore.Fitness>
16.0993

> <Gold.Chemscore.DG>
-18.5469

> <Gold.Chemscore.ZeroCoef>
-5.4800

> <Gold.Chemscore.Hbond>
0.9908

> <Gold.Chemscore.Metal>
0.0000

> <Gold.Chemscore.Lipo>
126.6119

> <Gold.Chemscore.Internal_Hbond>
0.0000

> <Gold.Chemscore.DEClash>
0.2209

> <Gold.Chemscore.DEInternal>
2.2268

> <Gold.Chemscore.Rot>
1.9750

> <Gold.Chemscore.Internal.Correction>
   9.000000E+99

> <Gold.Chemscore.Hbonds>
donor molecule, donor type, donor heavy atom, donor atom, acceptor molecule, acceptor atom, score
      P1  H  6896  6907       L1    19  0.99

> <Gold.Chemscore.Hbond.Weighted>
-3.3094

> <Gold.Chemscore.Metal.Weighted>
-0.0000

> <Gold.Chemscore.Lipo.Weighted>
-14.8136

> <Gold.Chemscore.Internal_Hbond.Weighted>
0.0000

> <Gold.Chemscore.DEClash.Weighted>
0.2209

> <Gold.Chemscore.DEInternal.Weighted>
2.2268

> <Gold.Chemscore.Rot.Weighted>
5.0561

> <Gold.Chemscore.Internal.Correction.Weighted>
   9.000000E+99

> <Gold.Protein.RotatedTorsions>
[ 6907 6896 6895 6894 ] final -135.24 input  -60.11 | X-H torsion
[ 7974 7965 7964 7962 ] final -147.69 input  175.53 | X-H torsion
[ 8008 7997 7996 7995 ] final   18.32 input   59.86 | X-H torsion
[ 10167 10162 10161 10158 ] final  -55.80 input  -65.29 | X-H torsion
[ 10718 10713 10712 10709 ] final  144.10 input   66.30 | X-H torsion
[ 10763 10752 10751 10750 ] final   17.60 input  -60.55 | X-H torsion
[ 11005 11000 10999 10996 ] final -142.38 input  -57.11 | X-H torsion

> <Gold.Protein.ActiveResidues>
 VAL166  LYS551  ARG553  GLY616  TRP617  ASP618  TYR619  PRO620  LYS621  CYS622 
 ASP623  PHE694  ASN695  SER759  ASP760  ASP761  ALA762  ILE779  LEU786  VAL792 
 PHE793  MET794  SER795  GLU796  ALA797  LYS798  CYS799  TRP800  GLU811  SER814 

> <Gold.Protein.RotatedAtoms>
  150.9955  133.6107  159.2701 H   0  0  0  0  0  0  0  0  0  0  0  0  # atno 6907 bound_to 6896
  151.3312  135.0841  159.9349 H   0  0  0  0  0  0  0  0  0  0  0  0  # atno 6908 bound_to 6896
  152.5259  133.9584  159.7760 H   0  0  0  0  0  0  0  0  0  0  0  0  # atno 6909 bound_to 6896
  144.8077  140.5294  143.5664 H   0  0  0  0  0  0  0  0  0  0  0  0  # atno 7974 bound_to 7965
  154.9043  140.3005  155.5300 H   0  0  0  0  0  0  0  0  0  0  0  0  # atno 8008 bound_to 7997
  156.3017  140.2401  156.4010 H   0  0  0  0  0  0  0  0  0  0  0  0  # atno 8009 bound_to 7997
  154.8490  140.0410  157.1580 H   0  0  0  0  0  0  0  0  0  0  0  0  # atno 8010 bound_to 7997
  140.6354  143.2479  151.5132 H   0  0  0  0  0  0  0  0  0  0  0  0  # atno 10167 bound_to 10162
  157.3611  131.0965  151.0914 H   0  0  0  0  0  0  0  0  0  0  0  0  # atno 10718 bound_to 10713
  153.1324  135.6743  153.9157 H   0  0  0  0  0  0  0  0  0  0  0  0  # atno 10763 bound_to 10752
  153.8639  135.3078  155.3440 H   0  0  0  0  0  0  0  0  0  0  0  0  # atno 10764 bound_to 10752
  154.7719  135.4935  153.9747 H   0  0  0  0  0  0  0  0  0  0  0  0  # atno 10765 bound_to 10752
  140.8231  134.2607  157.4891 H   0  0  0  0  0  0  0  0  0  0  0  0  # atno 11005 bound_to 11000
  145.5399  139.1475  143.3453 LP  0  0  0  0  0  0  0  0  0  0  0  0  # atno 17320 bound_to 7965
  146.2371  140.5538  142.8950 LP  0  0  0  0  0  0  0  0  0  0  0  0  # atno 17321 bound_to 7965
  139.5564  144.2264  152.1620 LP  0  0  0  0  0  0  0  0  0  0  0  0  # atno 17342 bound_to 10162
  140.1519  144.5107  150.6682 LP  0  0  0  0  0  0  0  0  0  0  0  0  # atno 17343 bound_to 10162
  157.2053  130.6413  149.5754 LP  0  0  0  0  0  0  0  0  0  0  0  0  # atno 17370 bound_to 10713
  155.9738  130.4677  150.6335 LP  0  0  0  0  0  0  0  0  0  0  0  0  # atno 17371 bound_to 10713
  139.8707  134.9546  156.4181 LP  0  0  0  0  0  0  0  0  0  0  0  0  # atno 17394 bound_to 11000
  140.9078  133.7733  155.9755 LP  0  0  0  0  0  0  0  0  0  0  0  0  # atno 17395 bound_to 11000

$$$$
