AV-unprocessed.smi:332|AV-procd|sdf|2358|dock7
  -GOLD-   2262022273D 1   1.00000     0.00000
 Structure written by MMmdl.
 42 44  0  0  0  0  0  0  0  0  1 V2000
  153.0822  140.5111  159.0542 C   0  0  0  0  0  0  0  0  0  0  0  0
  151.7798  141.3068  158.8552 C   0  0  2  0  0  0  0  0  0  0  0  0
  151.5655  141.5088  157.4234 N   0  0  0  0  0  0  0  0  0  0  0  0
  150.5750  140.9693  156.6968 C   0  0  0  0  0  0  0  0  0  0  0  0
  149.7386  140.1936  157.1613 O   0  0  0  0  0  0  0  0  0  0  0  0
  150.5438  141.3563  155.2119 C   0  0  0  0  0  0  0  0  0  0  0  0
  149.4537  140.7014  154.4702 N   0  0  0  0  0  0  0  0  0  0  0  0
  149.4588  139.2927  154.4301 C   0  0  0  0  0  0  0  0  0  0  0  0
  148.5111  138.5974  153.7817 C   0  0  0  0  0  0  0  0  0  0  0  0
  147.4638  139.3318  153.1118 C   0  0  0  0  0  0  0  0  0  0  0  0
  147.4476  140.6794  153.1464 C   0  0  0  0  0  0  0  0  0  0  0  0
  148.4810  141.4434  153.8552 C   0  0  0  0  0  0  0  0  0  0  0  0
  148.4735  142.6744  153.8933 O   0  0  0  0  0  0  0  0  0  0  0  0
  151.7956  142.6798  159.5721 C   0  0  1  0  0  0  0  0  0  0  0  0
  153.0720  143.5141  159.2917 C   0  0  0  0  0  0  0  0  0  0  0  0
  152.5161  144.8625  158.8022 C   0  0  2  0  0  0  0  0  0  0  0  0
  151.8357  145.5965  159.9718 C   0  0  0  0  0  0  0  0  0  0  0  0
  150.5473  144.7786  160.1791 C   0  0  0  0  0  0  0  0  0  0  0  0
  150.6805  143.6604  159.1272 C   0  0  1  0  0  0  0  0  0  0  0  0
  151.3244  144.4142  157.9677 C   0  0  0  0  0  0  0  0  0  0  0  0
  153.2496  140.2609  160.1009 H   0  0  0  0  0  0  0  0  0  0  0  0
  153.9482  141.0733  158.7030 H   0  0  0  0  0  0  0  0  0  0  0  0
  153.0538  139.5697  158.5044 H   0  0  0  0  0  0  0  0  0  0  0  0
  150.9546  140.7189  159.2609 H   0  0  0  0  0  0  0  0  0  0  0  0
  152.2092  142.1289  156.9538 H   0  0  0  0  0  0  0  0  0  0  0  0
  150.4595  142.4407  155.1161 H   0  0  0  0  0  0  0  0  0  0  0  0
  151.5121  141.1054  154.7765 H   0  0  0  0  0  0  0  0  0  0  0  0
  150.2715  138.8192  154.9616 H   0  0  0  0  0  0  0  0  0  0  0  0
  148.5299  137.5173  153.7648 H   0  0  0  0  0  0  0  0  0  0  0  0
  146.6886  138.7979  152.5815 H   0  0  0  0  0  0  0  0  0  0  0  0
  146.6558  141.2119  152.6401 H   0  0  0  0  0  0  0  0  0  0  0  0
  151.7116  142.4977  160.6449 H   0  0  0  0  0  0  0  0  0  0  0  0
  153.7009  143.6197  160.1766 H   0  0  0  0  0  0  0  0  0  0  0  0
  153.6825  143.0647  158.5072 H   0  0  0  0  0  0  0  0  0  0  0  0
  153.2489  145.4700  158.2704 H   0  0  0  0  0  0  0  0  0  0  0  0
  152.4628  145.6200  160.8639 H   0  0  0  0  0  0  0  0  0  0  0  0
  151.5971  146.6259  159.7014 H   0  0  0  0  0  0  0  0  0  0  0  0
  150.4561  144.3914  161.1947 H   0  0  0  0  0  0  0  0  0  0  0  0
  149.6693  145.3939  159.9790 H   0  0  0  0  0  0  0  0  0  0  0  0
  149.7263  143.1919  158.8894 H   0  0  0  0  0  0  0  0  0  0  0  0
  150.7176  145.2438  157.6002 H   0  0  0  0  0  0  0  0  0  0  0  0
  151.5992  143.7743  157.1277 H   0  0  0  0  0  0  0  0  0  0  0  0
  1  2  1  0  0  0  0
  1 21  1  0  0  0  0
  1 22  1  0  0  0  0
  1 23  1  0  0  0  0
  2  3  1  0  0  0  0
  2 14  1  0  0  0  0
  2 24  1  0  0  0  0
  3  4  1  0  0  0  0
  3 25  1  0  0  0  0
  4  5  2  0  0  0  0
  4  6  1  0  0  0  0
  6  7  1  0  0  0  0
  6 26  1  0  0  0  0
  6 27  1  0  0  0  0
  7 12  1  0  0  0  0
  7  8  1  0  0  0  0
  8  9  2  0  0  0  0
  8 28  1  0  0  0  0
  9 10  1  0  0  0  0
  9 29  1  0  0  0  0
 10 11  2  0  0  0  0
 10 30  1  0  0  0  0
 11 12  1  0  0  0  0
 11 31  1  0  0  0  0
 12 13  2  0  0  0  0
 14 19  1  0  0  0  0
 14 15  1  0  0  0  0
 14 32  1  0  0  0  0
 15 16  1  0  0  0  0
 15 33  1  0  0  0  0
 15 34  1  0  0  0  0
 16 20  1  0  0  0  0
 16 17  1  0  0  0  0
 16 35  1  0  0  0  0
 17 18  1  0  0  0  0
 17 36  1  0  0  0  0
 17 37  1  0  0  0  0
 18 19  1  0  0  0  0
 18 38  1  0  0  0  0
 18 39  1  0  0  0  0
 19 20  1  0  0  0  0
 19 40  1  0  0  0  0
 20 41  1  0  0  0  0
 20 42  1  0  0  0  0
M  END
> <s_m_source_file>
AV-unprocessed.smi

> <i_m_source_file_index>
332

> <i_lp_mmshare_version>
43012

> <i_f3d_flags>
0

> <s_epik_input>
W0NIMl0xW0NIMl1bQ0BIXShbQ0gyXTIpW0NAQEhdKFtDSDJdW0NAQEhdMTIpW0NASF0oW0NIM10pW05IXUMoPU8pW0NIMl1uM1tjSF1bY0hdW2NIXVtjSF1jMz1P

> <s_epik_cmdline>
J2VwaWtfcHl0aG9uJywgJy1waCcsICc3LjAnLCAnLXRuJywgJzgnLCAnLW1hJywgJzIwMCcsICctbWV0YWxfYmluZGluZycsICctaW1hZScsICc8aW5maWxlLm1hZT4nLCAnLW9tYWUnLCAnPG91dGZpbGUubWFlPic=

> <r_lp_tautomer_probability>
1

> <r_epik_Ionization_Penalty>
4.05802e-07

> <r_epik_Ionization_Penalty_Charging>
3.84175e-07

> <r_epik_Ionization_Penalty_Neutral>
2.16269e-08

> <r_epik_State_Penalty>
-0

> <r_epik_Charging_Adjusted_Penalty>
3.84175e-07

> <i_epik_Tot_Q>
0

> <i_epik_Tot_abs_Q>
0

> <r_epik_Metal_State_Penalty>
-0

> <b_epik_Metal_Only>
0

> <s_lp_Force_Field>
OPLS_2005

> <r_lp_Energy>
59.8508

> <b_lp_Chiralities_Consistent>
1

> <s_lp_Variant>
AV-unprocessed.smi:332-7

> <Gold.Version>
5.8.1

> <Gold.Id.Protein>
6NUR|6NUR_protein|mol2

> <Gold.PLP.Fitness>
44.6925

> <Gold.PLP.PLP>
-43.3071

> <Gold.PLP.part.hbond>
-2.0000

> <Gold.PLP.part.metal>
0.0000

> <Gold.PLP.part.buried>
-3.1071

> <Gold.PLP.part.nonpolar>
-41.4171

> <Gold.PLP.part.repulsive>
4.1290

> <Gold.PLP.ligand.clash>
1.1358

> <Gold.PLP.ligand.torsion>
0.2131

> <Gold.PLP.Chemscore.Hbond>
0.9760

> <Gold.PLP.Chemscore.CHOScore>
0.0000

> <Gold.PLP.Chemscore.Metal>
0.0000

> <Gold.Chemscore.Hbonds>
donor molecule, donor type, donor heavy atom, donor atom, acceptor molecule, acceptor atom, score
      P1  H  8011  8017       L1    13  0.01
      P1  H  8022  8030       L1    13  0.78

> <Gold.PLP.Chemscore.Internal.Correction>
0.0193

> <Gold.Rescore>
     Score         DG    S(hbond)    S(metal)    S(lipo)     H(rot)  DE(clash)    DE(int)     intcor
     15.15     -19.75       0.92        0.00     129.45       1.54       1.93       2.67       ----

> <Gold.Chemscore.Fitness>
15.1523

> <Gold.Chemscore.DG>
-19.7534

> <Gold.Chemscore.ZeroCoef>
-5.4800

> <Gold.Chemscore.Hbond>
0.9192

> <Gold.Chemscore.Metal>
0.0000

> <Gold.Chemscore.Lipo>
129.4463

> <Gold.Chemscore.Internal_Hbond>
0.0000

> <Gold.Chemscore.DEClash>
1.9279

> <Gold.Chemscore.DEInternal>
2.6731

> <Gold.Chemscore.Rot>
1.5398

> <Gold.Chemscore.Internal.Correction>
   9.000000E+99

> <Gold.Chemscore.Hbonds>
donor molecule, donor type, donor heavy atom, donor atom, acceptor molecule, acceptor atom, score
      P1  H  8022  8030       L1    13  0.74

> <Gold.Chemscore.Hbond.Weighted>
-3.0700

> <Gold.Chemscore.Metal.Weighted>
-0.0000

> <Gold.Chemscore.Lipo.Weighted>
-15.1452

> <Gold.Chemscore.Internal_Hbond.Weighted>
0.0000

> <Gold.Chemscore.DEClash.Weighted>
1.9279

> <Gold.Chemscore.DEInternal.Weighted>
2.6731

> <Gold.Chemscore.Rot.Weighted>
3.9419

> <Gold.Chemscore.Internal.Correction.Weighted>
   9.000000E+99

> <Gold.Protein.RotatedTorsions>
[ 6907 6896 6895 6894 ] final   83.51 input  -60.11 | X-H torsion
[ 7974 7965 7964 7962 ] final -127.48 input  175.53 | X-H torsion
[ 8008 7997 7996 7995 ] final  -37.39 input   59.86 | X-H torsion
[ 10167 10162 10161 10158 ] final   16.30 input  -65.29 | X-H torsion
[ 10718 10713 10712 10709 ] final  -88.67 input   66.30 | X-H torsion
[ 10763 10752 10751 10750 ] final   95.81 input  -60.55 | X-H torsion
[ 11005 11000 10999 10996 ] final   27.95 input  -57.11 | X-H torsion

> <Gold.Protein.ActiveResidues>
 VAL166  LYS551  ARG553  GLY616  TRP617  ASP618  TYR619  PRO620  LYS621  CYS622 
 ASP623  PHE694  ASN695  SER759  ASP760  ASP761  ALA762  ILE779  LEU786  VAL792 
 PHE793  MET794  SER795  GLU796  ALA797  LYS798  CYS799  TRP800  GLU811  SER814 

> <Gold.Protein.RotatedAtoms>
  152.5329  134.2884  159.9033 H   0  0  0  0  0  0  0  0  0  0  0  0  # atno 6907 bound_to 6896
  151.2836  133.4191  159.2636 H   0  0  0  0  0  0  0  0  0  0  0  0  # atno 6908 bound_to 6896
  151.0262  134.9521  159.8143 H   0  0  0  0  0  0  0  0  0  0  0  0  # atno 6909 bound_to 6896
  144.9766  140.7599  143.4637 H   0  0  0  0  0  0  0  0  0  0  0  0  # atno 7974 bound_to 7965
  154.4054  140.1605  156.2529 H   0  0  0  0  0  0  0  0  0  0  0  0  # atno 8008 bound_to 7997
  155.9103  140.3427  155.6071 H   0  0  0  0  0  0  0  0  0  0  0  0  # atno 8009 bound_to 7997
  155.7344  140.0784  157.2265 H   0  0  0  0  0  0  0  0  0  0  0  0  # atno 8010 bound_to 7997
  140.5807  143.8986  150.6787 H   0  0  0  0  0  0  0  0  0  0  0  0  # atno 10167 bound_to 10162
  155.9983  130.4844  150.5054 H   0  0  0  0  0  0  0  0  0  0  0  0  # atno 10718 bound_to 10713
  153.2575  135.4241  155.0860 H   0  0  0  0  0  0  0  0  0  0  0  0  # atno 10763 bound_to 10752
  154.8407  135.3441  154.6425 H   0  0  0  0  0  0  0  0  0  0  0  0  # atno 10764 bound_to 10752
  153.6845  135.7037  153.5165 H   0  0  0  0  0  0  0  0  0  0  0  0  # atno 10765 bound_to 10752
  140.3207  134.2546  155.7717 H   0  0  0  0  0  0  0  0  0  0  0  0  # atno 11005 bound_to 11000
  145.2481  139.2043  143.4957 LP  0  0  0  0  0  0  0  0  0  0  0  0  # atno 17320 bound_to 7965
  146.3397  140.2389  142.8595 LP  0  0  0  0  0  0  0  0  0  0  0  0  # atno 17321 bound_to 7965
  140.2484  143.3611  152.1426 LP  0  0  0  0  0  0  0  0  0  0  0  0  # atno 17342 bound_to 10162
  139.5168  144.6983  151.5567 LP  0  0  0  0  0  0  0  0  0  0  0  0  # atno 17343 bound_to 10162
  157.3034  131.0649  151.2052 LP  0  0  0  0  0  0  0  0  0  0  0  0  # atno 17370 bound_to 10713
  157.3024  130.6849  149.6171 LP  0  0  0  0  0  0  0  0  0  0  0  0  # atno 17371 bound_to 10713
  141.2087  133.7770  157.0043 LP  0  0  0  0  0  0  0  0  0  0  0  0  # atno 17394 bound_to 11000
  140.0944  134.9573  157.1826 LP  0  0  0  0  0  0  0  0  0  0  0  0  # atno 17395 bound_to 11000

$$$$
