AV-unprocessed.smi:1900|AV-procd|sdf|7714|dock8
  -GOLD-   22720 9453D 1   1.00000     0.00000
 Structure written by MMmdl.
 43 44  0  0  0  0  0  0  0  0  1 V2000
  150.9693  142.2144  156.4419 C   0  0  0  0  0  0  0  0  0  0  0  0
  150.5605  140.7558  156.2108 C   0  0  1  0  0  0  0  0  0  0  0  0
  149.1512  140.6361  155.6008 C   0  0  0  0  0  0  0  0  0  0  0  0
  148.7925  139.2518  155.3131 N   0  0  0  0  0  0  0  0  0  0  0  0
  147.4499  139.1716  154.7394 C   0  0  0  0  0  0  0  0  0  0  0  0
  147.3962  139.1302  153.2025 C   0  0  0  0  0  0  0  0  0  0  0  0
  146.1432  138.4022  152.6906 C   0  0  0  0  0  0  0  0  0  0  0  0
  146.4815  137.1390  152.0446 N   0  0  0  0  0  0  0  0  0  0  0  0
  145.5990  136.1873  151.7083 C   0  0  0  0  0  0  0  0  0  0  0  0
  144.3899  136.2745  151.9218 O   0  0  0  0  0  0  0  0  0  0  0  0
  146.2059  135.1455  151.1167 N   0  0  0  0  0  0  0  0  0  0  0  0
  145.5932  133.9753  150.6027 C   0  0  0  0  0  0  0  0  0  0  0  0
  146.1699  132.7001  150.3293 C   0  0  0  0  0  0  0  0  0  0  0  0
  145.2643  131.8561  149.8555 N   0  0  0  0  0  0  0  0  0  0  0  0
  144.1204  132.5761  149.8247 N   0  0  0  0  0  0  0  0  0  0  0  0
  144.2757  133.8702  150.2702 C   0  0  0  0  0  0  0  0  0  0  0  0
  149.8114  138.6718  154.4409 C   0  0  0  0  0  0  0  0  0  0  0  0
  151.2254  138.7922  155.0424 C   0  0  1  0  0  0  0  0  0  0  0  0
  152.3062  138.2679  154.0911 C   0  0  0  0  0  0  0  0  0  0  0  0
  151.5016  140.1621  155.3209 O   0  0  0  0  0  0  0  0  0  0  0  0
  143.2519  132.1743  149.5009 H   0  0  0  0  0  0  0  0  0  0  0  0
  150.2826  142.7096  157.1289 H   0  0  0  0  0  0  0  0  0  0  0  0
  150.9725  142.7762  155.5071 H   0  0  0  0  0  0  0  0  0  0  0  0
  151.9697  142.2753  156.8707 H   0  0  0  0  0  0  0  0  0  0  0  0
  150.5926  140.2270  157.1651 H   0  0  0  0  0  0  0  0  0  0  0  0
  148.4244  141.0689  156.2895 H   0  0  0  0  0  0  0  0  0  0  0  0
  149.1013  141.2271  154.6847 H   0  0  0  0  0  0  0  0  0  0  0  0
  146.9681  138.2648  155.1079 H   0  0  0  0  0  0  0  0  0  0  0  0
  146.8429  140.0015  155.1046 H   0  0  0  0  0  0  0  0  0  0  0  0
  147.4067  140.1407  152.7946 H   0  0  0  0  0  0  0  0  0  0  0  0
  148.2902  138.6318  152.8251 H   0  0  0  0  0  0  0  0  0  0  0  0
  145.4393  138.2308  153.5067 H   0  0  0  0  0  0  0  0  0  0  0  0
  145.6250  139.0257  151.9616 H   0  0  0  0  0  0  0  0  0  0  0  0
  147.4559  136.9823  151.8329 H   0  0  0  0  0  0  0  0  0  0  0  0
  147.2081  135.2012  151.0113 H   0  0  0  0  0  0  0  0  0  0  0  0
  147.1864  132.3573  150.4529 H   0  0  0  0  0  0  0  0  0  0  0  0
  143.4604  134.5775  150.3103 H   0  0  0  0  0  0  0  0  0  0  0  0
  149.5995  137.6182  154.2623 H   0  0  0  0  0  0  0  0  0  0  0  0
  149.7874  139.1657  153.4680 H   0  0  0  0  0  0  0  0  0  0  0  0
  151.2745  138.2259  155.9741 H   0  0  0  0  0  0  0  0  0  0  0  0
  152.1442  137.2161  153.8542 H   0  0  0  0  0  0  0  0  0  0  0  0
  153.2961  138.3587  154.5387 H   0  0  0  0  0  0  0  0  0  0  0  0
  152.3121  138.8257  153.1541 H   0  0  0  0  0  0  0  0  0  0  0  0
  1  2  1  0  0  0  0
  1 22  1  0  0  0  0
  1 23  1  0  0  0  0
  1 24  1  0  0  0  0
  2 20  1  0  0  0  0
  2  3  1  0  0  0  0
  2 25  1  0  0  0  0
  3  4  1  0  0  0  0
  3 26  1  0  0  0  0
  3 27  1  0  0  0  0
  4  5  1  0  0  0  0
  4 17  1  0  0  0  0
  5  6  1  0  0  0  0
  5 28  1  0  0  0  0
  5 29  1  0  0  0  0
  6  7  1  0  0  0  0
  6 30  1  0  0  0  0
  6 31  1  0  0  0  0
  7  8  1  0  0  0  0
  7 32  1  0  0  0  0
  7 33  1  0  0  0  0
  8  9  1  0  0  0  0
  8 34  1  0  0  0  0
  9 10  2  0  0  0  0
  9 11  1  0  0  0  0
 11 12  1  0  0  0  0
 11 35  1  0  0  0  0
 12 16  2  0  0  0  0
 12 13  1  0  0  0  0
 13 14  2  0  0  0  0
 13 36  1  0  0  0  0
 14 15  1  0  0  0  0
 15 21  1  0  0  0  0
 15 16  1  0  0  0  0
 16 37  1  0  0  0  0
 17 18  1  0  0  0  0
 17 38  1  0  0  0  0
 17 39  1  0  0  0  0
 18 19  1  0  0  0  0
 18 20  1  0  0  0  0
 18 40  1  0  0  0  0
 19 41  1  0  0  0  0
 19 42  1  0  0  0  0
 19 43  1  0  0  0  0
M  END
> <s_m_source_file>
AV-unprocessed.smi

> <i_m_source_file_index>
1900

> <i_lp_mmshare_version>
43012

> <i_f3d_flags>
0

> <s_epik_input>
W0NIM11bQ0BASF0xW0NIMl1OKFtDSDJdW0NASF0oTzEpW0NIM10pW0NIMl1bQ0gyXVtDSDJdW05IXUMoPU8pW05IXWMyW2NIXW5bbkhdW2NIXTI=

> <s_epik_cmdline>
J2VwaWtfcHl0aG9uJywgJy1waCcsICc3LjAnLCAnLXRuJywgJzgnLCAnLW1hJywgJzIwMCcsICctbWV0YWxfYmluZGluZycsICctaW1hZScsICc8aW5maWxlLm1hZT4nLCAnLW9tYWUnLCAnPG91dGZpbGUubWFlPic=

> <r_lp_tautomer_probability>
0.5

> <r_epik_Ionization_Penalty>
0.594715

> <r_epik_Ionization_Penalty_Charging>
0

> <r_epik_Ionization_Penalty_Neutral>
0.594715

> <r_epik_State_Penalty>
0.608529

> <r_epik_Charging_Adjusted_Penalty>
0.608529

> <i_epik_Tot_Q>
0

> <i_epik_Tot_abs_Q>
0

> <r_epik_Metal_State_Penalty>
0.608528

> <b_epik_Metal_Only>
0

> <s_lp_Force_Field>
OPLS_2005

> <r_lp_Energy>
22.5064

> <b_lp_Chiralities_Consistent>
1

> <s_lp_Variant>
AV-unprocessed.smi:1900-6

> <Gold.Version>
5.8.1

> <Gold.Id.Protein>
6NUR|6NUR_protein|mol2

> <Gold.PLP.Fitness>
43.0869

> <Gold.PLP.PLP>
-31.6905

> <Gold.PLP.part.hbond>
-3.0000

> <Gold.PLP.part.metal>
0.0000

> <Gold.PLP.part.buried>
-5.6890

> <Gold.PLP.part.nonpolar>
-24.2119

> <Gold.PLP.part.repulsive>
0.9504

> <Gold.PLP.ligand.clash>
0.0000

> <Gold.PLP.ligand.torsion>
1.1332

> <Gold.PLP.Chemscore.Hbond>
2.6238

> <Gold.PLP.Chemscore.CHOScore>
1.9167

> <Gold.PLP.Chemscore.Metal>
0.0000

> <Gold.Chemscore.Hbonds>
donor molecule, donor type, donor heavy atom, donor atom, acceptor molecule, acceptor atom, score
      L1  H     8    34       P1  7948  1.00
      L1  H    11    35       P1  7948  0.62
      P1  H  7989  7998       L1    20  0.99
      L1  C    13    36       P1 10747  1.00
      L1  C    16    37       P1 10186  0.92

> <Gold.PLP.Chemscore.Internal.Correction>
0.0413

> <Gold.Rescore>
     Score         DG    S(hbond)    S(metal)    S(lipo)     H(rot)  DE(clash)    DE(int)     intcor
     13.61     -16.16       1.70        0.00      83.91       1.88       0.15       2.39       ----

> <Gold.Chemscore.Fitness>
13.6133

> <Gold.Chemscore.DG>
-16.1597

> <Gold.Chemscore.ZeroCoef>
-5.4800

> <Gold.Chemscore.Hbond>
1.6989

> <Gold.Chemscore.Metal>
0.0000

> <Gold.Chemscore.Lipo>
83.9128

> <Gold.Chemscore.Internal_Hbond>
0.0000

> <Gold.Chemscore.DEClash>
0.1545

> <Gold.Chemscore.DEInternal>
2.3919

> <Gold.Chemscore.Rot>
1.8799

> <Gold.Chemscore.Internal.Correction>
   9.000000E+99

> <Gold.Chemscore.Hbonds>
donor molecule, donor type, donor heavy atom, donor atom, acceptor molecule, acceptor atom, score
      L1  H     8    34       P1  7948  0.99
      L1  H    11    35       P1  7948  0.33
      P1  H  7989  7998       L1    20  0.27

> <Gold.Chemscore.Hbond.Weighted>
-5.6745

> <Gold.Chemscore.Metal.Weighted>
-0.0000

> <Gold.Chemscore.Lipo.Weighted>
-9.8178

> <Gold.Chemscore.Internal_Hbond.Weighted>
0.0000

> <Gold.Chemscore.DEClash.Weighted>
0.1545

> <Gold.Chemscore.DEInternal.Weighted>
2.3919

> <Gold.Chemscore.Rot.Weighted>
4.8126

> <Gold.Chemscore.Internal.Correction.Weighted>
   9.000000E+99

> <Gold.Protein.RotatedTorsions>
[ 6907 6896 6895 6894 ] final  -55.97 input  -60.11 | X-H torsion
[ 7974 7965 7964 7962 ] final    5.12 input  175.53 | X-H torsion
[ 8008 7997 7996 7995 ] final -161.84 input   59.86 | X-H torsion
[ 10167 10162 10161 10158 ] final  -69.24 input  -65.29 | X-H torsion
[ 10718 10713 10712 10709 ] final  114.15 input   66.30 | X-H torsion
[ 10763 10752 10751 10750 ] final   30.60 input  -60.55 | X-H torsion
[ 11005 11000 10999 10996 ] final -121.47 input  -57.11 | X-H torsion

> <Gold.Protein.ActiveResidues>
 VAL166  LYS551  ARG553  GLY616  TRP617  ASP618  TYR619  PRO620  LYS621  CYS622 
 ASP623  PHE694  ASN695  SER759  ASP760  ASP761  ALA762  ILE779  LEU786  VAL792 
 PHE793  MET794  SER795  GLU796  ALA797  LYS798  CYS799  TRP800  GLU811  SER814 

> <Gold.Protein.RotatedAtoms>
  150.8206  134.7412  159.6768 H   0  0  0  0  0  0  0  0  0  0  0  0  # atno 6907 bound_to 6896
  152.4322  134.5752  159.9942 H   0  0  0  0  0  0  0  0  0  0  0  0  # atno 6908 bound_to 6896
  151.5937  133.3326  159.3069 H   0  0  0  0  0  0  0  0  0  0  0  0  # atno 6909 bound_to 6896
  146.2442  140.0431  142.8380 H   0  0  0  0  0  0  0  0  0  0  0  0  # atno 7974 bound_to 7965
  155.7981  140.0888  157.1972 H   0  0  0  0  0  0  0  0  0  0  0  0  # atno 8008 bound_to 7997
  154.3983  140.1477  156.3301 H   0  0  0  0  0  0  0  0  0  0  0  0  # atno 8009 bound_to 7997
  155.8490  140.3435  155.5683 H   0  0  0  0  0  0  0  0  0  0  0  0  # atno 8010 bound_to 7997
  140.5446  143.2313  151.7025 H   0  0  0  0  0  0  0  0  0  0  0  0  # atno 10167 bound_to 10162
  157.6298  131.0994  150.7144 H   0  0  0  0  0  0  0  0  0  0  0  0  # atno 10718 bound_to 10713
  153.0362  135.6460  154.1070 H   0  0  0  0  0  0  0  0  0  0  0  0  # atno 10763 bound_to 10752
  154.0784  135.2875  155.3296 H   0  0  0  0  0  0  0  0  0  0  0  0  # atno 10764 bound_to 10752
  154.6547  135.5413  153.8008 H   0  0  0  0  0  0  0  0  0  0  0  0  # atno 10765 bound_to 10752
  141.0067  134.0324  157.3467 H   0  0  0  0  0  0  0  0  0  0  0  0  # atno 11005 bound_to 11000
  145.1051  140.9370  143.4689 LP  0  0  0  0  0  0  0  0  0  0  0  0  # atno 17320 bound_to 7965
  145.0633  139.3088  143.5869 LP  0  0  0  0  0  0  0  0  0  0  0  0  # atno 17321 bound_to 7965
  139.5002  144.3915  152.0275 LP  0  0  0  0  0  0  0  0  0  0  0  0  # atno 17342 bound_to 10162
  140.3026  144.3629  150.6056 LP  0  0  0  0  0  0  0  0  0  0  0  0  # atno 17343 bound_to 10162
  156.7486  130.4761  149.5461 LP  0  0  0  0  0  0  0  0  0  0  0  0  # atno 17370 bound_to 10713
  156.1493  130.6299  151.0574 LP  0  0  0  0  0  0  0  0  0  0  0  0  # atno 17371 bound_to 10713
  139.9067  135.0181  156.7518 LP  0  0  0  0  0  0  0  0  0  0  0  0  # atno 17394 bound_to 11000
  140.6800  133.9483  155.7905 LP  0  0  0  0  0  0  0  0  0  0  0  0  # atno 17395 bound_to 11000

$$$$
