AV-unprocessed.smi:2790|AV-procd|sdf|10770|dock6
  -GOLD-   2272015203D 1   1.00000     0.00000
 Structure written by MMmdl.
 46 47  0  0  0  0  0  0  0  0  4 V2000
  149.0947  136.6003  149.4953 C   0  0  0  0  0  0  0  0  0  0  0  0
  150.5492  136.7449  149.7274 N   0  3  0  0  0  0  0  0  0  0  0  0
  151.3163  136.7822  148.4637 C   0  0  0  0  0  0  0  0  0  0  0  0
  151.0833  135.7614  150.7036 C   0  0  0  0  0  0  0  0  0  0  0  0
  150.1370  135.6675  151.9039 C   0  0  0  0  0  0  0  0  0  0  0  0
  149.6176  134.5768  152.1577 O   0  0  0  0  0  0  0  0  0  0  0  0
  150.0207  136.8703  152.5290 N   0  5  0  0  0  0  0  0  0  0  0  0
  149.6649  137.0333  153.9405 C   0  0  0  0  0  0  0  0  0  0  0  0
  149.7782  138.5388  154.3999 C   0  0  0  0  0  0  0  0  0  0  0  0
  148.5611  139.3290  153.8349 C   0  0  0  0  0  0  0  0  0  0  0  0
  148.3088  139.3971  152.4363 C   0  0  0  0  0  0  0  0  0  0  0  0
  147.2071  140.1256  151.9461 C   0  0  0  0  0  0  0  0  0  0  0  0
  146.3877  140.7650  152.8047 N   0  3  0  0  0  0  0  0  0  0  0  0
  146.5767  140.7438  154.1392 C   0  0  0  0  0  0  0  0  0  0  0  0
  147.6623  140.0308  154.6853 C   0  0  0  0  0  0  0  0  0  0  0  0
  149.7542  138.6503  155.9685 C   0  0  0  0  0  0  0  0  0  0  0  0
  151.0381  138.2144  156.7101 C   0  0  0  0  0  0  0  0  0  0  0  0
  152.2723  138.9495  156.1831 C   0  0  0  0  0  0  0  0  0  0  0  0
  152.4049  138.7493  154.6720 C   0  0  0  0  0  0  0  0  0  0  0  0
  151.1276  139.2020  153.9323 C   0  0  0  0  0  0  0  0  0  0  0  0
  148.8670  135.6441  149.0228 H   0  0  0  0  0  0  0  0  0  0  0  0
  148.7275  137.3979  148.8490 H   0  0  0  0  0  0  0  0  0  0  0  0
  148.5448  136.6580  150.4352 H   0  0  0  0  0  0  0  0  0  0  0  0
  151.2410  135.8323  147.9329 H   0  0  0  0  0  0  0  0  0  0  0  0
  152.3696  136.9850  148.6604 H   0  0  0  0  0  0  0  0  0  0  0  0
  150.9435  137.5712  147.8098 H   0  0  0  0  0  0  0  0  0  0  0  0
  151.2175  134.7775  150.2494 H   0  0  0  0  0  0  0  0  0  0  0  0
  152.0702  136.0629  151.0593 H   0  0  0  0  0  0  0  0  0  0  0  0
  148.6516  136.6872  154.1501 H   0  0  0  0  0  0  0  0  0  0  0  0
  150.3085  136.4172  154.5676 H   0  0  0  0  0  0  0  0  0  0  0  0
  148.9586  138.9121  151.7247 H   0  0  0  0  0  0  0  0  0  0  0  0
  146.9635  140.2198  150.8980 H   0  0  0  0  0  0  0  0  0  0  0  0
  145.8610  141.2987  154.7283 H   0  0  0  0  0  0  0  0  0  0  0  0
  147.7930  140.0494  155.7556 H   0  0  0  0  0  0  0  0  0  0  0  0
  149.5857  139.6964  156.2300 H   0  0  0  0  0  0  0  0  0  0  0  0
  148.9152  138.1094  156.4097 H   0  0  0  0  0  0  0  0  0  0  0  0
  150.9268  138.4122  157.7765 H   0  0  0  0  0  0  0  0  0  0  0  0
  151.1846  137.1375  156.6209 H   0  0  0  0  0  0  0  0  0  0  0  0
  152.1926  140.0136  156.4088 H   0  0  0  0  0  0  0  0  0  0  0  0
  153.1680  138.5887  156.6894 H   0  0  0  0  0  0  0  0  0  0  0  0
  153.2591  139.3180  154.3040 H   0  0  0  0  0  0  0  0  0  0  0  0
  152.6250  137.7041  154.4532 H   0  0  0  0  0  0  0  0  0  0  0  0
  151.2974  139.0839  152.8605 H   0  0  0  0  0  0  0  0  0  0  0  0
  151.0499  140.2788  154.0912 H   0  0  0  0  0  0  0  0  0  0  0  0
  150.6764  137.6473  150.1638 H   0  0  0  0  0  0  0  0  0  0  0  0
  145.5976  141.2901  152.4294 H   0  0  0  0  0  0  0  0  0  0  0  0
  1  2  1  0  0  0  0
  1 21  1  0  0  0  0
  1 22  1  0  0  0  0
  1 23  1  0  0  0  0
  2  3  1  0  0  0  0
  2  4  1  0  0  0  0
  2 45  1  0  0  0  0
  3 24  1  0  0  0  0
  3 25  1  0  0  0  0
  3 26  1  0  0  0  0
  4  5  1  0  0  0  0
  4 27  1  0  0  0  0
  4 28  1  0  0  0  0
  5  6  2  0  0  0  0
  5  7  1  0  0  0  0
  7  8  1  0  0  0  0
  8  9  1  0  0  0  0
  8 29  1  0  0  0  0
  8 30  1  0  0  0  0
  9 20  1  0  0  0  0
  9 10  1  0  0  0  0
  9 16  1  0  0  0  0
 10 15  1  0  0  0  0
 10 11  2  0  0  0  0
 11 12  1  0  0  0  0
 11 31  1  0  0  0  0
 12 13  2  0  0  0  0
 12 32  1  0  0  0  0
 13 14  1  0  0  0  0
 13 46  1  0  0  0  0
 14 15  2  0  0  0  0
 14 33  1  0  0  0  0
 15 34  1  0  0  0  0
 16 17  1  0  0  0  0
 16 35  1  0  0  0  0
 16 36  1  0  0  0  0
 17 18  1  0  0  0  0
 17 37  1  0  0  0  0
 17 38  1  0  0  0  0
 18 19  1  0  0  0  0
 18 39  1  0  0  0  0
 18 40  1  0  0  0  0
 19 20  1  0  0  0  0
 19 41  1  0  0  0  0
 19 42  1  0  0  0  0
 20 43  1  0  0  0  0
 20 44  1  0  0  0  0
M  CHG  1   2   1
M  CHG  1   7  -1
M  CHG  1  13   1
M  END
> <s_m_source_file>
AV-unprocessed.smi

> <i_m_source_file_index>
2790

> <i_lp_mmshare_version>
43012

> <i_f3d_flags>
0

> <s_epik_input>
W0NIM11OKFtDSDNdKVtDSDJdQyg9TylbTkhdW0NIMl1DMShbQ0gyXVtDSDJdW0NIMl1bQ0gyXVtDSDJdMSljMltjSF1bY0hdbltjSF1bY0hdMg==

> <s_epik_cmdline>
J2VwaWtfcHl0aG9uJywgJy1waCcsICc3LjAnLCAnLXRuJywgJzgnLCAnLW1hJywgJzIwMCcsICctbWV0YWxfYmluZGluZycsICctaW1hZScsICc8aW5maWxlLm1hZT4nLCAnLW9tYWUnLCAnPG91dGZpbGUubWFlPic=

> <r_epik_Ionization_Penalty>
6.72126

> <r_epik_Ionization_Penalty_Charging>
6.72126

> <r_epik_Ionization_Penalty_Neutral>
0

> <r_epik_State_Penalty>
7.43246

> <r_epik_Charging_Adjusted_Penalty>
14.1537

> <i_epik_Tot_Q>
1

> <i_epik_Tot_abs_Q>
3

> <r_epik_Metal_State_Penalty>
3.42758

> <b_epik_Metal_Only>
1

> <s_lp_Force_Field>
OPLS_2005

> <r_lp_Energy>
31.5627

> <b_lp_Chiralities_Consistent>
1

> <s_lp_Variant>
AV-unprocessed.smi:2790-5

> <Gold.Version>
5.8.1

> <Gold.Id.Protein>
6NUR|6NUR_protein|mol2

> <Gold.PLP.Fitness>
40.8744

> <Gold.PLP.PLP>
-30.4418

> <Gold.PLP.part.hbond>
-2.0000

> <Gold.PLP.part.metal>
0.0000

> <Gold.PLP.part.buried>
1.5284

> <Gold.PLP.part.nonpolar>
-30.2278

> <Gold.PLP.part.repulsive>
0.1313

> <Gold.PLP.ligand.clash>
0.0000

> <Gold.PLP.ligand.torsion>
0.4159

> <Gold.PLP.Chemscore.Hbond>
3.7280

> <Gold.PLP.Chemscore.CHOScore>
0.0000

> <Gold.PLP.Chemscore.Metal>
0.0000

> <Gold.Chemscore.Hbonds>
donor molecule, donor type, donor heavy atom, donor atom, acceptor molecule, acceptor atom, score
      L1  H    13    46       P1 10175  0.24

> <Gold.PLP.Chemscore.Internal.Correction>
0.0804

> <Gold.Rescore>
     Score         DG    S(hbond)    S(metal)    S(lipo)     H(rot)  DE(clash)    DE(int)     intcor
     14.83     -17.06       1.82        0.00      83.67       1.67       0.96       1.26       ----

> <Gold.Chemscore.Fitness>
14.8350

> <Gold.Chemscore.DG>
-17.0568

> <Gold.Chemscore.ZeroCoef>
-5.4800

> <Gold.Chemscore.Hbond>
1.8183

> <Gold.Chemscore.Metal>
0.0000

> <Gold.Chemscore.Lipo>
83.6712

> <Gold.Chemscore.Internal_Hbond>
0.0000

> <Gold.Chemscore.DEClash>
0.9574

> <Gold.Chemscore.DEInternal>
1.2644

> <Gold.Chemscore.Rot>
1.6741

> <Gold.Chemscore.Internal.Correction>
   9.000000E+99

> <Gold.Chemscore.Hbond.Weighted>
-6.0730

> <Gold.Chemscore.Metal.Weighted>
-0.0000

> <Gold.Chemscore.Lipo.Weighted>
-9.7895

> <Gold.Chemscore.Internal_Hbond.Weighted>
0.0000

> <Gold.Chemscore.DEClash.Weighted>
0.9574

> <Gold.Chemscore.DEInternal.Weighted>
1.2644

> <Gold.Chemscore.Rot.Weighted>
4.2858

> <Gold.Chemscore.Internal.Correction.Weighted>
   9.000000E+99

> <Gold.Protein.RotatedTorsions>
[ 6907 6896 6895 6894 ] final   -4.06 input  -60.11 | X-H torsion
[ 7974 7965 7964 7962 ] final  -22.05 input  175.53 | X-H torsion
[ 8008 7997 7996 7995 ] final    7.01 input   59.86 | X-H torsion
[ 10167 10162 10161 10158 ] final  107.48 input  -65.29 | X-H torsion
[ 10718 10713 10712 10709 ] final  -82.47 input   66.30 | X-H torsion
[ 10763 10752 10751 10750 ] final   63.77 input  -60.55 | X-H torsion
[ 11005 11000 10999 10996 ] final  -79.46 input  -57.11 | X-H torsion

> <Gold.Protein.ActiveResidues>
 VAL166  LYS551  ARG553  GLY616  TRP617  ASP618  TYR619  PRO620  LYS621  CYS622 
 ASP623  PHE694  ASN695  SER759  ASP760  ASP761  ALA762  ILE779  LEU786  VAL792 
 PHE793  MET794  SER795  GLU796  ALA797  LYS798  CYS799  TRP800  GLU811  SER814 

> <Gold.Protein.RotatedAtoms>
  151.5037  135.1062  159.9835 H   0  0  0  0  0  0  0  0  0  0  0  0  # atno 6907 bound_to 6896
  152.4691  133.7985  159.6950 H   0  0  0  0  0  0  0  0  0  0  0  0  # atno 6908 bound_to 6896
  150.8690  133.7469  159.2993 H   0  0  0  0  0  0  0  0  0  0  0  0  # atno 6909 bound_to 6896
  146.1698  140.4425  142.8537 H   0  0  0  0  0  0  0  0  0  0  0  0  # atno 7974 bound_to 7965
  154.7483  140.2762  155.6314 H   0  0  0  0  0  0  0  0  0  0  0  0  # atno 8008 bound_to 7997
  156.2890  140.2683  156.2156 H   0  0  0  0  0  0  0  0  0  0  0  0  # atno 8009 bound_to 7997
  155.0169  140.0372  157.2411 H   0  0  0  0  0  0  0  0  0  0  0  0  # atno 8010 bound_to 7997
  139.6923  144.7106  151.1326 H   0  0  0  0  0  0  0  0  0  0  0  0  # atno 10167 bound_to 10162
  156.0032  130.4635  150.4110 H   0  0  0  0  0  0  0  0  0  0  0  0  # atno 10718 bound_to 10713
  153.0030  135.5417  154.6404 H   0  0  0  0  0  0  0  0  0  0  0  0  # atno 10763 bound_to 10752
  154.5661  135.2838  155.0875 H   0  0  0  0  0  0  0  0  0  0  0  0  # atno 10764 bound_to 10752
  154.2059  135.6476  153.5153 H   0  0  0  0  0  0  0  0  0  0  0  0  # atno 10765 bound_to 10752
  141.1667  133.7107  156.8126 H   0  0  0  0  0  0  0  0  0  0  0  0  # atno 11005 bound_to 11000
  144.8146  140.6446  143.6393 LP  0  0  0  0  0  0  0  0  0  0  0  0  # atno 17320 bound_to 7965
  145.4370  139.1541  143.3991 LP  0  0  0  0  0  0  0  0  0  0  0  0  # atno 17321 bound_to 7965
  140.7686  143.5541  150.9172 LP  0  0  0  0  0  0  0  0  0  0  0  0  # atno 17342 bound_to 10162
  139.9219  143.6596  152.3095 LP  0  0  0  0  0  0  0  0  0  0  0  0  # atno 17343 bound_to 10162
  157.2173  131.0474  151.2566 LP  0  0  0  0  0  0  0  0  0  0  0  0  # atno 17370 bound_to 10713
  157.3833  130.7243  149.6645 LP  0  0  0  0  0  0  0  0  0  0  0  0  # atno 17371 bound_to 10713
  140.2177  134.8781  157.3343 LP  0  0  0  0  0  0  0  0  0  0  0  0  # atno 17394 bound_to 11000
  140.2021  134.4242  155.7657 LP  0  0  0  0  0  0  0  0  0  0  0  0  # atno 17395 bound_to 11000

$$$$
