AV-unprocessed.smi:2802|AV-procd|sdf|10804|dock2
  -GOLD-   2272015233D 1   1.00000     0.00000
 Structure written by MMmdl.
 47 48  0  0  0  0  0  0  0  0  1 V2000
  147.9399  138.1295  158.1671 C   0  0  0  0  0  0  0  0  0  0  0  0
  147.9030  139.0152  156.9127 C   0  0  1  0  0  0  0  0  0  0  0  0
  146.4992  139.6036  156.6939 C   0  0  0  0  0  0  0  0  0  0  0  0
  146.3934  140.4834  155.4288 C   0  0  0  0  0  0  0  0  0  0  0  0
  146.3728  139.6147  154.1512 C   0  0  0  0  0  0  0  0  0  0  0  0
  145.0454  141.2339  155.4716 C   0  0  0  0  0  0  0  0  0  0  0  0
  147.5345  141.5410  155.4055 C   0  0  0  0  0  0  0  0  0  0  0  0
  148.9837  141.0754  155.7616 C   0  0  1  0  0  0  0  0  0  0  0  0
  149.6981  140.3822  154.5647 C   0  0  0  0  0  0  0  0  0  0  0  0
  149.4727  141.0573  153.3414 O   0  0  0  0  0  0  0  0  0  0  0  0
  149.7615  142.2557  156.1759 N   0  0  0  0  0  0  0  0  0  0  0  0
  150.9305  142.3017  156.8400 C   0  0  0  0  0  0  0  0  0  0  0  0
  151.5554  141.3010  157.1943 O   0  0  0  0  0  0  0  0  0  0  0  0
  151.4584  143.7100  157.1393 C   0  0  0  0  0  0  0  0  0  0  0  0
  151.5820  143.9774  158.6307 C   0  0  0  0  0  0  0  0  0  0  0  0
  152.2817  143.0867  159.4713 C   0  0  0  0  0  0  0  0  0  0  0  0
  152.3672  143.3775  160.8463 C   0  0  0  0  0  0  0  0  0  0  0  0
  151.7470  144.5497  161.3237 C   0  0  0  0  0  0  0  0  0  0  0  0
  151.0744  145.4097  160.5287 N   0  0  0  0  0  0  0  0  0  0  0  0
  150.9971  145.1233  159.2111 C   0  0  0  0  0  0  0  0  0  0  0  0
  148.9395  140.1487  157.0044 C   0  0  0  0  0  0  0  0  0  0  0  0
  147.6978  138.7003  159.0641 H   0  0  0  0  0  0  0  0  0  0  0  0
  148.9274  137.6897  158.3088 H   0  0  0  0  0  0  0  0  0  0  0  0
  147.2242  137.3104  158.0909 H   0  0  0  0  0  0  0  0  0  0  0  0
  148.1565  138.3736  156.0698 H   0  0  0  0  0  0  0  0  0  0  0  0
  145.7631  138.7999  156.6470 H   0  0  0  0  0  0  0  0  0  0  0  0
  146.2346  140.1975  157.5702 H   0  0  0  0  0  0  0  0  0  0  0  0
  146.3883  140.2313  153.2521 H   0  0  0  0  0  0  0  0  0  0  0  0
  145.4690  139.0060  154.1086 H   0  0  0  0  0  0  0  0  0  0  0  0
  147.2044  138.9198  154.0876 H   0  0  0  0  0  0  0  0  0  0  0  0
  144.9188  141.8724  154.5965 H   0  0  0  0  0  0  0  0  0  0  0  0
  144.9642  141.8702  156.3536 H   0  0  0  0  0  0  0  0  0  0  0  0
  144.2034  140.5410  155.4961 H   0  0  0  0  0  0  0  0  0  0  0  0
  147.5279  142.0517  154.4420 H   0  0  0  0  0  0  0  0  0  0  0  0
  147.2631  142.3105  156.1309 H   0  0  0  0  0  0  0  0  0  0  0  0
  150.7741  140.3447  154.7026 H   0  0  0  0  0  0  0  0  0  0  0  0
  149.3668  139.3498  154.4535 H   0  0  0  0  0  0  0  0  0  0  0  0
  149.4219  140.4155  152.6497 H   0  0  0  0  0  0  0  0  0  0  0  0
  149.3456  143.1456  155.9432 H   0  0  0  0  0  0  0  0  0  0  0  0
  152.4305  143.8362  156.6611 H   0  0  0  0  0  0  0  0  0  0  0  0
  150.7894  144.4495  156.6970 H   0  0  0  0  0  0  0  0  0  0  0  0
  152.7428  142.1953  159.0717 H   0  0  0  0  0  0  0  0  0  0  0  0
  152.8941  142.7176  161.5194 H   0  0  0  0  0  0  0  0  0  0  0  0
  151.7929  144.8030  162.3726 H   0  0  0  0  0  0  0  0  0  0  0  0
  150.4504  145.8287  158.6025 H   0  0  0  0  0  0  0  0  0  0  0  0
  148.7019  140.7460  157.8870 H   0  0  0  0  0  0  0  0  0  0  0  0
  149.9277  139.7293  157.1975 H   0  0  0  0  0  0  0  0  0  0  0  0
  1  2  1  0  0  0  0
  1 22  1  0  0  0  0
  1 23  1  0  0  0  0
  1 24  1  0  0  0  0
  2 21  1  0  0  0  0
  2  3  1  0  0  0  0
  2 25  1  0  0  0  0
  3  4  1  0  0  0  0
  3 26  1  0  0  0  0
  3 27  1  0  0  0  0
  4  5  1  0  0  0  0
  4  6  1  0  0  0  0
  4  7  1  0  0  0  0
  5 28  1  0  0  0  0
  5 29  1  0  0  0  0
  5 30  1  0  0  0  0
  6 31  1  0  0  0  0
  6 32  1  0  0  0  0
  6 33  1  0  0  0  0
  7  8  1  0  0  0  0
  7 34  1  0  0  0  0
  7 35  1  0  0  0  0
  8  9  1  0  0  0  0
  8 11  1  0  0  0  0
  8 21  1  0  0  0  0
  9 10  1  0  0  0  0
  9 36  1  0  0  0  0
  9 37  1  0  0  0  0
 10 38  1  0  0  0  0
 11 12  1  0  0  0  0
 11 39  1  0  0  0  0
 12 13  2  0  0  0  0
 12 14  1  0  0  0  0
 14 15  1  0  0  0  0
 14 40  1  0  0  0  0
 14 41  1  0  0  0  0
 15 20  1  0  0  0  0
 15 16  2  0  0  0  0
 16 17  1  0  0  0  0
 16 42  1  0  0  0  0
 17 18  2  0  0  0  0
 17 43  1  0  0  0  0
 18 19  1  0  0  0  0
 18 44  1  0  0  0  0
 19 20  2  0  0  0  0
 20 45  1  0  0  0  0
 21 46  1  0  0  0  0
 21 47  1  0  0  0  0
M  END
> <s_m_source_file>
AV-unprocessed.smi

> <i_m_source_file_index>
2802

> <i_lp_mmshare_version>
43012

> <i_f3d_flags>
0

> <s_epik_input>
W0NIM11DMShbQ0gzXSlbQ0gyXVtDQEBIXShbQ0gzXSlbQ0gyXVtDQF0oW0NIMl0xKShbQ0gyXVtPSF0pW05IXUMoPU8pW0NIMl1jMltjSF1bY0hdW2NIXW5bY0hdMg==

> <s_epik_cmdline>
J2VwaWtfcHl0aG9uJywgJy1waCcsICc3LjAnLCAnLXRuJywgJzgnLCAnLW1hJywgJzIwMCcsICctbWV0YWxfYmluZGluZycsICctaW1hZScsICc8aW5maWxlLm1hZT4nLCAnLW9tYWUnLCAnPG91dGZpbGUubWFlPic=

> <r_epik_Ionization_Penalty>
0.004793

> <r_epik_Ionization_Penalty_Charging>
0

> <r_epik_Ionization_Penalty_Neutral>
0.004793

> <r_epik_State_Penalty>
0.00347421

> <r_epik_Charging_Adjusted_Penalty>
0.00347421

> <i_epik_Tot_Q>
0

> <i_epik_Tot_abs_Q>
0

> <r_epik_Metal_State_Penalty>
-0

> <b_epik_Metal_Only>
0

> <s_lp_Force_Field>
OPLS_2005

> <r_lp_Energy>
22.6817

> <b_lp_Chiralities_Consistent>
1

> <s_lp_Variant>
AV-unprocessed.smi:2802-2

> <Gold.Version>
5.8.1

> <Gold.Id.Protein>
6NUR|6NUR_protein|mol2

> <Gold.PLP.Fitness>
44.2129

> <Gold.PLP.PLP>
-37.0643

> <Gold.PLP.part.hbond>
-3.6966

> <Gold.PLP.part.metal>
0.0000

> <Gold.PLP.part.buried>
-5.4788

> <Gold.PLP.part.nonpolar>
-28.1396

> <Gold.PLP.part.repulsive>
0.3051

> <Gold.PLP.ligand.clash>
0.0000

> <Gold.PLP.ligand.torsion>
0.5351

> <Gold.PLP.Chemscore.Hbond>
2.7300

> <Gold.PLP.Chemscore.CHOScore>
0.0000

> <Gold.PLP.Chemscore.Metal>
0.0000

> <Gold.Chemscore.Hbonds>
donor molecule, donor type, donor heavy atom, donor atom, acceptor molecule, acceptor atom, score
      L1  H    10    38       P1  7957  0.98
      L1  H    11    39       P1  8028  1.00
      P1  H  8011  8017       L1    10  0.80
      L1  C    20    45       P1  8029  0.18

> <Gold.PLP.Chemscore.Internal.Correction>
0.0289

> <Gold.Rescore>
     Score         DG    S(hbond)    S(metal)    S(lipo)     H(rot)  DE(clash)    DE(int)     intcor
     16.36     -19.50       2.18        0.00     101.41       2.00       1.18       1.96       ----

> <Gold.Chemscore.Fitness>
16.3563

> <Gold.Chemscore.DG>
-19.4996

> <Gold.Chemscore.ZeroCoef>
-5.4800

> <Gold.Chemscore.Hbond>
2.1801

> <Gold.Chemscore.Metal>
0.0000

> <Gold.Chemscore.Lipo>
101.4094

> <Gold.Chemscore.Internal_Hbond>
0.0000

> <Gold.Chemscore.DEClash>
1.1845

> <Gold.Chemscore.DEInternal>
1.9589

> <Gold.Chemscore.Rot>
2.0026

> <Gold.Chemscore.Internal.Correction>
   9.000000E+99

> <Gold.Chemscore.Hbonds>
donor molecule, donor type, donor heavy atom, donor atom, acceptor molecule, acceptor atom, score
      L1  H    10    38       P1  7957  0.88
      L1  H    11    39       P1  8028  1.00
      P1  H  8011  8017       L1    10  0.12

> <Gold.Chemscore.Hbond.Weighted>
-7.2814

> <Gold.Chemscore.Metal.Weighted>
-0.0000

> <Gold.Chemscore.Lipo.Weighted>
-11.8649

> <Gold.Chemscore.Internal_Hbond.Weighted>
0.0000

> <Gold.Chemscore.DEClash.Weighted>
1.1845

> <Gold.Chemscore.DEInternal.Weighted>
1.9589

> <Gold.Chemscore.Rot.Weighted>
5.1267

> <Gold.Chemscore.Internal.Correction.Weighted>
   9.000000E+99

> <Gold.Protein.RotatedTorsions>
[ 6907 6896 6895 6894 ] final -163.98 input  -60.11 | X-H torsion
[ 7974 7965 7964 7962 ] final   65.88 input  175.53 | X-H torsion
[ 8008 7997 7996 7995 ] final  114.00 input   59.86 | X-H torsion
[ 10167 10162 10161 10158 ] final   68.62 input  -65.29 | X-H torsion
[ 10718 10713 10712 10709 ] final  -15.45 input   66.30 | X-H torsion
[ 10763 10752 10751 10750 ] final  -88.15 input  -60.55 | X-H torsion
[ 11005 11000 10999 10996 ] final  152.83 input  -57.11 | X-H torsion

> <Gold.Protein.ActiveResidues>
 VAL166  LYS551  ARG553  GLY616  TRP617  ASP618  TYR619  PRO620  LYS621  CYS622 
 ASP623  PHE694  ASN695  SER759  ASP760  ASP761  ALA762  ILE779  LEU786  VAL792 
 PHE793  MET794  SER795  GLU796  ALA797  LYS798  CYS799  TRP800  GLU811  SER814 

> <Gold.Protein.RotatedAtoms>
  151.4046  133.3746  159.2736 H   0  0  0  0  0  0  0  0  0  0  0  0  # atno 6907 bound_to 6896
  150.9408  134.8818  159.7621 H   0  0  0  0  0  0  0  0  0  0  0  0  # atno 6908 bound_to 6896
  152.5070  134.3996  159.9464 H   0  0  0  0  0  0  0  0  0  0  0  0  # atno 6909 bound_to 6896
  145.8332  139.3151  143.0975 H   0  0  0  0  0  0  0  0  0  0  0  0  # atno 7974 bound_to 7965
  156.2294  140.2968  156.0148 H   0  0  0  0  0  0  0  0  0  0  0  0  # atno 8008 bound_to 7997
  155.2268  140.0417  157.2973 H   0  0  0  0  0  0  0  0  0  0  0  0  # atno 8009 bound_to 7997
  154.5969  140.2416  155.7852 H   0  0  0  0  0  0  0  0  0  0  0  0  # atno 8010 bound_to 7997
  140.0767  144.5106  150.7190 H   0  0  0  0  0  0  0  0  0  0  0  0  # atno 10167 bound_to 10162
  156.6016  130.4825  149.6237 H   0  0  0  0  0  0  0  0  0  0  0  0  # atno 10718 bound_to 10713
  154.6414  135.5387  153.7793 H   0  0  0  0  0  0  0  0  0  0  0  0  # atno 10763 bound_to 10752
  153.0336  135.6460  154.1154 H   0  0  0  0  0  0  0  0  0  0  0  0  # atno 10764 bound_to 10752
  154.1078  135.2929  155.3217 H   0  0  0  0  0  0  0  0  0  0  0  0  # atno 10765 bound_to 10752
  140.1343  134.8781  157.2245 H   0  0  0  0  0  0  0  0  0  0  0  0  # atno 11005 bound_to 11000
  145.9548  140.8881  143.0241 LP  0  0  0  0  0  0  0  0  0  0  0  0  # atno 17320 bound_to 7965
  144.6738  140.1730  143.7412 LP  0  0  0  0  0  0  0  0  0  0  0  0  # atno 17321 bound_to 7965
  140.7098  143.2496  151.4615 LP  0  0  0  0  0  0  0  0  0  0  0  0  # atno 17342 bound_to 10162
  139.5804  144.1724  152.1960 LP  0  0  0  0  0  0  0  0  0  0  0  0  # atno 17343 bound_to 10162
  156.2464  130.6882  151.1604 LP  0  0  0  0  0  0  0  0  0  0  0  0  # atno 17370 bound_to 10713
  157.7278  131.0636  150.5849 LP  0  0  0  0  0  0  0  0  0  0  0  0  # atno 17371 bound_to 10713
  140.2803  134.3358  155.7345 LP  0  0  0  0  0  0  0  0  0  0  0  0  # atno 17394 bound_to 11000
  141.2175  133.7474  156.9354 LP  0  0  0  0  0  0  0  0  0  0  0  0  # atno 17395 bound_to 11000

$$$$
