AV-unprocessed.smi:2179|AV-procd|sdf|8856|dock10
  -GOLD-   2272012 53D 1   1.00000     0.00000
 Structure written by MMmdl.
 47 48  0  0  0  0  0  0  0  0  1 V2000
  145.0550  135.2054  151.1485 C   0  0  0  0  0  0  0  0  0  0  0  0
  145.0374  136.3479  152.1586 C   0  0  0  0  0  0  0  0  0  0  0  0
  143.9652  136.7701  152.5900 O   0  0  0  0  0  0  0  0  0  0  0  0
  146.2306  136.8349  152.5315 N   0  0  0  0  0  0  0  0  0  0  0  0
  146.4297  137.9188  153.4859 C   0  0  0  0  0  0  0  0  0  0  0  0
  147.3070  139.0372  152.8952 C   0  0  0  0  0  0  0  0  0  0  0  0
  148.1082  139.6865  153.9252 N   0  0  0  0  0  0  0  0  0  0  0  0
  149.3643  139.3426  154.2534 C   0  0  0  0  0  0  0  0  0  0  0  0
  149.9922  138.4449  153.6918 O   0  0  0  0  0  0  0  0  0  0  0  0
  150.0046  140.1731  155.3275 C   0  0  0  0  0  0  0  0  0  0  0  0
  149.3128  141.2259  155.9648 C   0  0  0  0  0  0  0  0  0  0  0  0
  149.9580  141.9528  156.9837 C   0  0  0  0  0  0  0  0  0  0  0  0
  151.2811  141.6080  157.3478 C   0  0  0  0  0  0  0  0  0  0  0  0
  151.9485  142.3232  158.3662 N   0  0  0  0  0  0  0  0  0  0  0  0
  152.4340  141.5256  159.4892 C   0  0  0  0  0  0  0  0  0  0  0  0
  153.4070  142.3497  160.3536 C   0  0  2  0  0  0  0  0  0  0  0  0
  153.8442  141.5903  161.6104 C   0  0  0  0  0  0  0  0  0  0  0  0
  152.7670  143.5560  160.7606 O   0  0  0  0  0  0  0  0  0  0  0  0
  152.4003  144.3769  159.6552 C   0  0  2  0  0  0  0  0  0  0  0  0
  151.8113  145.6824  160.1996 C   0  0  0  0  0  0  0  0  0  0  0  0
  151.3959  143.6140  158.7720 C   0  0  0  0  0  0  0  0  0  0  0  0
  151.9367  140.5855  156.7455 N   0  0  0  0  0  0  0  0  0  0  0  0
  151.3143  139.8905  155.7702 C   0  0  0  0  0  0  0  0  0  0  0  0
  145.1022  134.2472  151.6664 H   0  0  0  0  0  0  0  0  0  0  0  0
  145.9149  135.2813  150.4820 H   0  0  0  0  0  0  0  0  0  0  0  0
  144.1511  135.2206  150.5386 H   0  0  0  0  0  0  0  0  0  0  0  0
  147.0592  136.4265  152.1235 H   0  0  0  0  0  0  0  0  0  0  0  0
  145.4492  138.3160  153.7500 H   0  0  0  0  0  0  0  0  0  0  0  0
  146.8653  137.5294  154.4080 H   0  0  0  0  0  0  0  0  0  0  0  0
  147.9549  138.6483  152.1074 H   0  0  0  0  0  0  0  0  0  0  0  0
  146.6779  139.7977  152.4315 H   0  0  0  0  0  0  0  0  0  0  0  0
  147.6797  140.4540  154.4218 H   0  0  0  0  0  0  0  0  0  0  0  0
  148.2986  141.4772  155.6907 H   0  0  0  0  0  0  0  0  0  0  0  0
  149.4262  142.7491  157.4825 H   0  0  0  0  0  0  0  0  0  0  0  0
  151.5785  141.2071  160.0865 H   0  0  0  0  0  0  0  0  0  0  0  0
  152.9385  140.6210  159.1526 H   0  0  0  0  0  0  0  0  0  0  0  0
  154.2968  142.5957  159.7709 H   0  0  0  0  0  0  0  0  0  0  0  0
  154.3526  140.6612  161.3511 H   0  0  0  0  0  0  0  0  0  0  0  0
  152.9887  141.3405  162.2386 H   0  0  0  0  0  0  0  0  0  0  0  0
  154.5317  142.1898  162.2077 H   0  0  0  0  0  0  0  0  0  0  0  0
  153.2931  144.6154  159.0744 H   0  0  0  0  0  0  0  0  0  0  0  0
  151.5233  146.3512  159.3882 H   0  0  0  0  0  0  0  0  0  0  0  0
  152.5368  146.2076  160.8213 H   0  0  0  0  0  0  0  0  0  0  0  0
  150.9263  145.4927  160.8078 H   0  0  0  0  0  0  0  0  0  0  0  0
  151.1600  144.2152  157.8929 H   0  0  0  0  0  0  0  0  0  0  0  0
  150.4644  143.4499  159.3159 H   0  0  0  0  0  0  0  0  0  0  0  0
  151.8879  139.0876  155.3303 H   0  0  0  0  0  0  0  0  0  0  0  0
  1  2  1  0  0  0  0
  1 24  1  0  0  0  0
  1 25  1  0  0  0  0
  1 26  1  0  0  0  0
  2  3  2  0  0  0  0
  2  4  1  0  0  0  0
  4  5  1  0  0  0  0
  4 27  1  0  0  0  0
  5  6  1  0  0  0  0
  5 28  1  0  0  0  0
  5 29  1  0  0  0  0
  6  7  1  0  0  0  0
  6 30  1  0  0  0  0
  6 31  1  0  0  0  0
  7  8  1  0  0  0  0
  7 32  1  0  0  0  0
  8  9  2  0  0  0  0
  8 10  1  0  0  0  0
 10 23  1  0  0  0  0
 10 11  2  0  0  0  0
 11 12  1  0  0  0  0
 11 33  1  0  0  0  0
 12 13  2  0  0  0  0
 12 34  1  0  0  0  0
 13 14  1  0  0  0  0
 13 22  1  0  0  0  0
 14 21  1  0  0  0  0
 14 15  1  0  0  0  0
 15 16  1  0  0  0  0
 15 35  1  0  0  0  0
 15 36  1  0  0  0  0
 16 17  1  0  0  0  0
 16 18  1  0  0  0  0
 16 37  1  0  0  0  0
 17 38  1  0  0  0  0
 17 39  1  0  0  0  0
 17 40  1  0  0  0  0
 18 19  1  0  0  0  0
 19 20  1  0  0  0  0
 19 21  1  0  0  0  0
 19 41  1  0  0  0  0
 20 42  1  0  0  0  0
 20 43  1  0  0  0  0
 20 44  1  0  0  0  0
 21 45  1  0  0  0  0
 21 46  1  0  0  0  0
 22 23  2  0  0  0  0
 23 47  1  0  0  0  0
M  END
> <s_m_source_file>
AV-unprocessed.smi

> <i_m_source_file_index>
2179

> <i_lp_mmshare_version>
43012

> <i_f3d_flags>
0

> <s_epik_input>
W0NIM11DKD1PKVtOSF1bQ0gyXVtDSDJdW05IXUMoPU8pYzFbY0hdW2NIXWMobltjSF0xKU4yW0NIMl1bQ0BASF0oW0NIM10pT1tDQEBIXShbQ0gzXSlbQ0gyXTI=

> <s_epik_cmdline>
J2VwaWtfcHl0aG9uJywgJy1waCcsICc3LjAnLCAnLXRuJywgJzgnLCAnLW1hJywgJzIwMCcsICctbWV0YWxfYmluZGluZycsICctaW1hZScsICc8aW5maWxlLm1hZT4nLCAnLW9tYWUnLCAnPG91dGZpbGUubWFlPic=

> <r_lp_tautomer_probability>
1

> <r_epik_Ionization_Penalty>
2.00433e-05

> <r_epik_Ionization_Penalty_Charging>
0

> <r_epik_Ionization_Penalty_Neutral>
2.00433e-05

> <r_epik_State_Penalty>
-0

> <r_epik_Charging_Adjusted_Penalty>
0

> <i_epik_Tot_Q>
0

> <i_epik_Tot_abs_Q>
0

> <r_epik_Metal_State_Penalty>
-0

> <b_epik_Metal_Only>
0

> <s_lp_Force_Field>
OPLS_2005

> <r_lp_Energy>
13.6511

> <b_lp_Chiralities_Consistent>
1

> <s_lp_Variant>
AV-unprocessed.smi:2179-1

> <Gold.Version>
5.8.1

> <Gold.Id.Protein>
6NUR|6NUR_protein|mol2

> <Gold.PLP.Fitness>
45.4955

> <Gold.PLP.PLP>
-42.9822

> <Gold.PLP.part.hbond>
-2.2334

> <Gold.PLP.part.metal>
0.0000

> <Gold.PLP.part.buried>
-1.3243

> <Gold.PLP.part.nonpolar>
-40.3765

> <Gold.PLP.part.repulsive>
1.9588

> <Gold.PLP.ligand.clash>
0.0000

> <Gold.PLP.ligand.torsion>
0.6223

> <Gold.PLP.Chemscore.Hbond>
1.1357

> <Gold.PLP.Chemscore.CHOScore>
0.0000

> <Gold.PLP.Chemscore.Metal>
0.0000

> <Gold.Chemscore.Hbonds>
donor molecule, donor type, donor heavy atom, donor atom, acceptor molecule, acceptor atom, score
      L1  H     4    27       P1  7948  1.00

> <Gold.PLP.Chemscore.Internal.Correction>
0.3508

> <Gold.Rescore>
     Score         DG    S(hbond)    S(metal)    S(lipo)     H(rot)  DE(clash)    DE(int)     intcor
     15.89     -17.02       1.07        0.00     108.92       1.86       0.58       0.55       ----

> <Gold.Chemscore.Fitness>
15.8932

> <Gold.Chemscore.DG>
-17.0244

> <Gold.Chemscore.ZeroCoef>
-5.4800

> <Gold.Chemscore.Hbond>
1.0654

> <Gold.Chemscore.Metal>
0.0000

> <Gold.Chemscore.Lipo>
108.9223

> <Gold.Chemscore.Internal_Hbond>
0.0000

> <Gold.Chemscore.DEClash>
0.5823

> <Gold.Chemscore.DEInternal>
0.5489

> <Gold.Chemscore.Rot>
1.8586

> <Gold.Chemscore.Internal.Correction>
   9.000000E+99

> <Gold.Chemscore.Hbonds>
donor molecule, donor type, donor heavy atom, donor atom, acceptor molecule, acceptor atom, score
      L1  H     4    27       P1  7948  0.98
      P1  H  7997  8010       L1    22  0.02

> <Gold.Chemscore.Hbond.Weighted>
-3.5584

> <Gold.Chemscore.Metal.Weighted>
-0.0000

> <Gold.Chemscore.Lipo.Weighted>
-12.7439

> <Gold.Chemscore.Internal_Hbond.Weighted>
0.0000

> <Gold.Chemscore.DEClash.Weighted>
0.5823

> <Gold.Chemscore.DEInternal.Weighted>
0.5489

> <Gold.Chemscore.Rot.Weighted>
4.7579

> <Gold.Chemscore.Internal.Correction.Weighted>
   9.000000E+99

> <Gold.Protein.RotatedTorsions>
[ 6907 6896 6895 6894 ] final   87.20 input  -60.11 | X-H torsion
[ 7974 7965 7964 7962 ] final  113.84 input  175.53 | X-H torsion
[ 8008 7997 7996 7995 ] final   70.44 input   59.86 | X-H torsion
[ 10167 10162 10161 10158 ] final  -13.83 input  -65.29 | X-H torsion
[ 10718 10713 10712 10709 ] final  -49.60 input   66.30 | X-H torsion
[ 10763 10752 10751 10750 ] final  101.88 input  -60.55 | X-H torsion
[ 11005 11000 10999 10996 ] final  135.60 input  -57.11 | X-H torsion

> <Gold.Protein.ActiveResidues>
 VAL166  LYS551  ARG553  GLY616  TRP617  ASP618  TYR619  PRO620  LYS621  CYS622 
 ASP623  PHE694  ASN695  SER759  ASP760  ASP761  ALA762  ILE779  LEU786  VAL792 
 PHE793  MET794  SER795  GLU796  ALA797  LYS798  CYS799  TRP800  GLU811  SER814 

> <Gold.Protein.RotatedAtoms>
  152.5407  134.2313  159.8825 H   0  0  0  0  0  0  0  0  0  0  0  0  # atno 6907 bound_to 6896
  151.2284  133.4457  159.2610 H   0  0  0  0  0  0  0  0  0  0  0  0  # atno 6908 bound_to 6896
  151.0738  134.9829  159.8378 H   0  0  0  0  0  0  0  0  0  0  0  0  # atno 6909 bound_to 6896
  145.2119  139.2902  143.4264 H   0  0  0  0  0  0  0  0  0  0  0  0  # atno 7974 bound_to 7965
  155.7389  140.3490  155.5094 H   0  0  0  0  0  0  0  0  0  0  0  0  # atno 8008 bound_to 7997
  155.9113  140.1051  157.1298 H   0  0  0  0  0  0  0  0  0  0  0  0  # atno 8009 bound_to 7997
  154.4056  140.1267  156.4548 H   0  0  0  0  0  0  0  0  0  0  0  0  # atno 8010 bound_to 7997
  140.7190  143.5384  150.9437 H   0  0  0  0  0  0  0  0  0  0  0  0  # atno 10167 bound_to 10162
  156.1878  130.4152  149.9415 H   0  0  0  0  0  0  0  0  0  0  0  0  # atno 10718 bound_to 10713
  153.3323  135.4029  155.1505 H   0  0  0  0  0  0  0  0  0  0  0  0  # atno 10763 bound_to 10752
  154.8626  135.3613  154.5454 H   0  0  0  0  0  0  0  0  0  0  0  0  # atno 10764 bound_to 10752
  153.5893  135.7074  153.5489 H   0  0  0  0  0  0  0  0  0  0  0  0  # atno 10765 bound_to 10752
  139.9990  134.9486  157.0030 H   0  0  0  0  0  0  0  0  0  0  0  0  # atno 11005 bound_to 11000
  146.3395  140.2397  142.8595 LP  0  0  0  0  0  0  0  0  0  0  0  0  # atno 17320 bound_to 7965
  144.9848  140.8493  143.5375 LP  0  0  0  0  0  0  0  0  0  0  0  0  # atno 17321 bound_to 7965
  139.9106  143.6724  152.3115 LP  0  0  0  0  0  0  0  0  0  0  0  0  # atno 17342 bound_to 10162
  139.7106  144.7621  151.1118 LP  0  0  0  0  0  0  0  0  0  0  0  0  # atno 17343 bound_to 10162
  156.7165  130.8990  151.3614 LP  0  0  0  0  0  0  0  0  0  0  0  0  # atno 17370 bound_to 10713
  157.6910  130.9233  150.0513 LP  0  0  0  0  0  0  0  0  0  0  0  0  # atno 17371 bound_to 10713
  140.4763  134.1335  155.7210 LP  0  0  0  0  0  0  0  0  0  0  0  0  # atno 17394 bound_to 11000
  141.1627  133.8762  157.1802 LP  0  0  0  0  0  0  0  0  0  0  0  0  # atno 17395 bound_to 11000

$$$$
