#       Name:                AV-unprocessed.smi:2807
#       Creating user name   scv26
#       Creation time:       Fri Mar 27 15:25:55 2020


#       File generated by GOLD software.
#

@<TRIPOS>MOLECULE
AV-unprocessed.smi:2807
    37    38     1
SMALL
NO_CHARGES


@<TRIPOS>ATOM
      1 ****        -0.7325   2.8646   0.2470 O.2            1 S1                 0.0000
      2 ****        -0.0938   1.9849  -0.3424 C.2            1 S1                 0.0000
      3 ****        -0.5382   0.8643  -0.9800 N.pl3          1 S1                -1.0000
      4 ****        -1.9410   0.4366  -1.0243 C.3            1 S1                 0.0000
      5 ****        -2.1971  -0.3326  -2.3291 C.3            1 S1                 0.0000
      6 ****        -1.8543  -1.8081  -2.0497 C.3            1 S1                 0.0000
      7 ****        -1.7338  -1.9532  -0.5249 C.3            1 S1                 0.0000
      8 ****        -2.2498  -0.6277   0.0483 C.3            1 S1                 0.0000
      9 ****        -1.7234  -0.3510   1.3326 O.3            1 S1                 0.0000
     10 ****         1.4455   2.0879  -0.3751 C.3            1 S1                 0.0000
     11 ****         1.8793   1.9130  -1.6280 F              1 S1                 0.0000
     12 ****         1.8058   3.3160   0.0059 F              1 S1                 0.0000
     13 ****         2.0767   1.0757   0.5807 C.ar           1 S1                 0.0000
     14 ****         2.0262   1.2809   1.9783 C.ar           1 S1                 0.0000
     15 ****         2.5996   0.3136   2.8252 C.ar           1 S1                 0.0000
     16 ****         3.2042  -0.8196   2.2494 C.ar           1 S1                 0.0000
     17 ****         3.2073  -0.9346   0.8455 C.ar           1 S1                 0.0000
     18 ****         2.6621  -0.0125   0.0247 N.ar           1 S1                 0.0000
     19 ****        -2.6320   1.2769  -0.9401 H              1 S1                 0.0000
     20 ****        -3.2561  -0.2591  -2.5793 H              1 S1                 0.0000
     21 ****        -1.6449   0.0690  -3.1801 H              1 S1                 0.0000
     22 ****        -2.6287  -2.4637  -2.4497 H              1 S1                 0.0000
     23 ****        -0.9153  -2.0886  -2.5296 H              1 S1                 0.0000
     24 ****        -2.2945  -2.8074  -0.1443 H              1 S1                 0.0000
     25 ****        -0.6863  -2.1094  -0.2558 H              1 S1                 0.0000
     26 ****        -3.3340  -0.6959   0.1481 H              1 S1                 0.0000
     27 ****        -1.8848   0.5604   1.5231 H              1 S1                 0.0000
     28 ****         1.5470   2.1565   2.3904 H              1 S1                 0.0000
     29 ****         2.5738   0.4381   3.8975 H              1 S1                 0.0000
     30 ****         3.6525  -1.5830   2.8675 H              1 S1                 0.0000
     31 ****         3.6619  -1.7905   0.3686 H              1 S1                 0.0000
     32 ****        -1.7294   2.8069   0.3018 LP             1 S1                 0.0000
     33 ****        -0.2522   3.6336   0.6688 LP             1 S1                 0.0000
     34 ****         0.1376   0.2957  -1.4490 LP             1 S1                 0.0000
     35 ****        -0.7398  -0.5311   1.3425 LP             1 S1                 0.0000
     36 ****        -2.1744  -0.9258   2.0155 LP             1 S1                 0.0000
     37 ****         2.6894  -0.1293  -0.9681 LP             1 S1                 0.0000
@<TRIPOS>BOND
    1    1    2 2     
    2    2    3 1     
    3    2   10 1     
    4    3    4 1     
    5    4    8 1     
    6    4    5 1     
    7    4   19 1     
    8    5    6 1     
    9    5   20 1     
   10    5   21 1     
   11    6    7 1     
   12    6   22 1     
   13    6   23 1     
   14    7    8 1     
   15    7   24 1     
   16    7   25 1     
   17    8    9 1     
   18    8   26 1     
   19    9   27 1     
   20   10   11 1     
   21   10   12 1     
   22   10   13 1     
   23   13   18 ar    
   24   13   14 ar    
   25   14   15 ar    
   26   14   28 1     
   27   15   16 ar    
   28   15   29 1     
   29   16   17 ar    
   30   16   30 1     
   31   17   18 ar    
   32   17   31 1     
   33    1   32 1     
   34    1   33 1     
   35    3   34 1     
   36    9   35 1     
   37    9   36 1     
   38   18   37 1     
@<TRIPOS>SUBSTRUCTURE
      1 S1             1
@<TRIPOS>SET
LONE_PAIRS      STATIC     ATOMS    <user>   **** ""
6 32 33 34 35 36 37
DONOR_HYDROGENS      STATIC     ATOMS    <user>   **** ""
1 27
ATOM$BLUE        STATIC     ATOMS    COLORGROUP SYSTEM
6 32 33 34 35 36 37
ATOM$RED        STATIC     ATOMS    COLORGROUP SYSTEM
1 27
