AV-unprocessed.smi:1762|AV-procd|sdf|7116|dock9
  -GOLD-   22720 8343D 1   1.00000     0.00000
 Structure written by MMmdl.
 53 54  0  0  0  0  0  0  0  0  2 V2000
  146.5861  138.0699  151.8325 C   0  0  0  0  0  0  0  0  0  0  0  0
  146.2895  138.4607  153.2918 C   0  0  1  0  0  0  0  0  0  0  0  0
  146.7891  137.4240  154.3183 C   0  0  0  0  0  0  0  0  0  0  0  0
  148.2714  137.4618  154.4623 N   0  3  2  0  0  0  0  0  0  0  0  0
  148.8526  136.4391  155.3991 C   0  0  2  0  0  0  0  0  0  0  0  0
  148.3012  135.0304  155.0896 C   0  0  0  0  0  0  0  0  0  0  0  0
  148.0310  134.2556  156.0082 O   0  0  0  0  0  0  0  0  0  0  0  0
  148.1377  134.7156  153.7962 N   0  0  0  0  0  0  0  0  0  0  0  0
  147.6258  133.4378  153.3207 C   0  0  0  0  0  0  0  0  0  0  0  0
  147.4974  133.4401  151.7913 C   0  0  0  0  0  0  0  0  0  0  0  0
  146.1213  132.9975  151.3303 C   0  0  0  0  0  0  0  0  0  0  0  0
  145.6956  131.6639  151.5091 C   0  0  0  0  0  0  0  0  0  0  0  0
  144.4057  131.3072  151.0708 C   0  0  0  0  0  0  0  0  0  0  0  0
  143.5954  132.2921  150.4738 C   0  0  0  0  0  0  0  0  0  0  0  0
  144.1131  133.5960  150.3416 C   0  0  0  0  0  0  0  0  0  0  0  0
  145.3485  133.9488  150.7588 N   0  0  0  0  0  0  0  0  0  0  0  0
  148.6723  136.7794  156.9178 C   0  0  0  0  0  0  0  0  0  0  0  0
  149.4958  135.8662  157.8476 C   0  0  0  0  0  0  0  0  0  0  0  0
  147.2012  136.8195  157.3827 C   0  0  0  0  0  0  0  0  0  0  0  0
  148.6845  138.8557  154.7916 C   0  0  0  0  0  0  0  0  0  0  0  0
  148.1964  139.8446  153.7199 C   0  0  2  0  0  0  0  0  0  0  0  0
  148.5540  141.2930  154.0711 C   0  0  0  0  0  0  0  0  0  0  0  0
  146.7804  139.7593  153.6135 O   0  0  0  0  0  0  0  0  0  0  0  0
  146.0777  137.1417  151.5707 H   0  0  0  0  0  0  0  0  0  0  0  0
  147.6497  137.9162  151.6518 H   0  0  0  0  0  0  0  0  0  0  0  0
  146.2369  138.8406  151.1449 H   0  0  0  0  0  0  0  0  0  0  0  0
  145.2046  138.5206  153.3844 H   0  0  0  0  0  0  0  0  0  0  0  0
  146.3331  137.6162  155.2909 H   0  0  0  0  0  0  0  0  0  0  0  0
  146.4355  136.4489  153.9901 H   0  0  0  0  0  0  0  0  0  0  0  0
  149.9267  136.4241  155.2032 H   0  0  0  0  0  0  0  0  0  0  0  0
  148.3828  135.4020  153.0971 H   0  0  0  0  0  0  0  0  0  0  0  0
  148.2989  132.6409  153.6406 H   0  0  0  0  0  0  0  0  0  0  0  0
  146.6531  133.2417  153.7750 H   0  0  0  0  0  0  0  0  0  0  0  0
  147.6951  134.4396  151.4008 H   0  0  0  0  0  0  0  0  0  0  0  0
  148.2505  132.7845  151.3518 H   0  0  0  0  0  0  0  0  0  0  0  0
  146.3393  130.9306  151.9728 H   0  0  0  0  0  0  0  0  0  0  0  0
  144.0439  130.2967  151.1910 H   0  0  0  0  0  0  0  0  0  0  0  0
  142.6007  132.0545  150.1267 H   0  0  0  0  0  0  0  0  0  0  0  0
  143.5187  134.3763  149.8895 H   0  0  0  0  0  0  0  0  0  0  0  0
  149.0950  137.7685  157.0892 H   0  0  0  0  0  0  0  0  0  0  0  0
  149.1167  134.8440  157.8624 H   0  0  0  0  0  0  0  0  0  0  0  0
  149.4698  136.2332  158.8742 H   0  0  0  0  0  0  0  0  0  0  0  0
  150.5417  135.8316  157.5415 H   0  0  0  0  0  0  0  0  0  0  0  0
  146.7440  135.8302  157.3601 H   0  0  0  0  0  0  0  0  0  0  0  0
  146.5919  137.4767  156.7627 H   0  0  0  0  0  0  0  0  0  0  0  0
  147.1288  137.1844  158.4077 H   0  0  0  0  0  0  0  0  0  0  0  0
  148.2833  139.1306  155.7686 H   0  0  0  0  0  0  0  0  0  0  0  0
  149.7681  138.9454  154.8636 H   0  0  0  0  0  0  0  0  0  0  0  0
  148.6580  139.6063  152.7615 H   0  0  0  0  0  0  0  0  0  0  0  0
  149.6333  141.4217  154.1577 H   0  0  0  0  0  0  0  0  0  0  0  0
  148.1040  141.5931  155.0179 H   0  0  0  0  0  0  0  0  0  0  0  0
  148.1993  141.9794  153.3017 H   0  0  0  0  0  0  0  0  0  0  0  0
  148.6534  137.2513  153.5508 H   0  0  0  0  0  0  0  0  0  0  0  0
  1  2  1  0  0  0  0
  1 24  1  0  0  0  0
  1 25  1  0  0  0  0
  1 26  1  0  0  0  0
  2 23  1  0  0  0  0
  2  3  1  0  0  0  0
  2 27  1  0  0  0  0
  3  4  1  0  0  0  0
  3 28  1  0  0  0  0
  3 29  1  0  0  0  0
  4  5  1  0  0  0  0
  4 20  1  0  0  0  0
  4 53  1  0  0  0  0
  5  6  1  0  0  0  0
  5 17  1  0  0  0  0
  5 30  1  0  0  0  0
  6  7  2  0  0  0  0
  6  8  1  0  0  0  0
  8  9  1  0  0  0  0
  8 31  1  0  0  0  0
  9 10  1  0  0  0  0
  9 32  1  0  0  0  0
  9 33  1  0  0  0  0
 10 11  1  0  0  0  0
 10 34  1  0  0  0  0
 10 35  1  0  0  0  0
 11 16  1  0  0  0  0
 11 12  2  0  0  0  0
 12 13  1  0  0  0  0
 12 36  1  0  0  0  0
 13 14  2  0  0  0  0
 13 37  1  0  0  0  0
 14 15  1  0  0  0  0
 14 38  1  0  0  0  0
 15 16  2  0  0  0  0
 15 39  1  0  0  0  0
 17 18  1  0  0  0  0
 17 19  1  0  0  0  0
 17 40  1  0  0  0  0
 18 41  1  0  0  0  0
 18 42  1  0  0  0  0
 18 43  1  0  0  0  0
 19 44  1  0  0  0  0
 19 45  1  0  0  0  0
 19 46  1  0  0  0  0
 20 21  1  0  0  0  0
 20 47  1  0  0  0  0
 20 48  1  0  0  0  0
 21 22  1  0  0  0  0
 21 23  1  0  0  0  0
 21 49  1  0  0  0  0
 22 50  1  0  0  0  0
 22 51  1  0  0  0  0
 22 52  1  0  0  0  0
M  CHG  1   4   1
M  END
> <s_m_source_file>
AV-unprocessed.smi

> <i_m_source_file_index>
1762

> <i_lp_mmshare_version>
43012

> <i_f3d_flags>
0

> <s_epik_input>
W0NIM11bQ0BASF0xW0NIMl1OKFtDSDJdW0NASF0oTzEpW0NIM10pW0NAQEhdKFtDSF0oW0NIM10pW0NIM10pQyg9TylbTkhdW0NIMl1bQ0gyXWMyW2NIXVtjSF1bY0hdW2NIXW4y

> <s_epik_cmdline>
J2VwaWtfcHl0aG9uJywgJy1waCcsICc3LjAnLCAnLXRuJywgJzgnLCAnLW1hJywgJzIwMCcsICctbWV0YWxfYmluZGluZycsICctaW1hZScsICc8aW5maWxlLm1hZT4nLCAnLW9tYWUnLCAnPG91dGZpbGUubWFlPic=

> <r_epik_Ionization_Penalty>
2.27005

> <r_epik_Ionization_Penalty_Charging>
2.24983

> <r_epik_Ionization_Penalty_Neutral>
0.0202209

> <r_epik_State_Penalty>
2.40228

> <r_epik_Charging_Adjusted_Penalty>
4.65211

> <i_epik_Tot_Q>
1

> <i_epik_Tot_abs_Q>
1

> <r_epik_Metal_State_Penalty>
2.40762

> <b_epik_Metal_Only>
0

> <s_lp_Force_Field>
OPLS_2005

> <r_lp_Energy>
24.3613

> <b_lp_Chiralities_Consistent>
1

> <s_lp_Variant>
AV-unprocessed.smi:1762-18

> <Gold.Version>
5.8.1

> <Gold.Id.Protein>
6NUR|6NUR_protein|mol2

> <Gold.PLP.Fitness>
39.5580

> <Gold.PLP.PLP>
-29.3918

> <Gold.PLP.part.hbond>
-2.0000

> <Gold.PLP.part.metal>
0.0000

> <Gold.PLP.part.buried>
-0.9815

> <Gold.PLP.part.nonpolar>
-27.7610

> <Gold.PLP.part.repulsive>
0.3471

> <Gold.PLP.ligand.clash>
0.0000

> <Gold.PLP.ligand.torsion>
1.0508

> <Gold.PLP.Chemscore.Hbond>
3.0000

> <Gold.PLP.Chemscore.CHOScore>
1.0000

> <Gold.PLP.Chemscore.Metal>
0.0000

> <Gold.Chemscore.Hbonds>
donor molecule, donor type, donor heavy atom, donor atom, acceptor molecule, acceptor atom, score
      L1  H     4    53       P1  7948  2.00
      L1  H     8    31       P1  7948  1.00
      L1  C    15    39       P1 10186  0.97

> <Gold.PLP.Chemscore.Internal.Correction>
0.2678

> <Gold.Rescore>
     Score         DG    S(hbond)    S(metal)    S(lipo)     H(rot)  DE(clash)    DE(int)     intcor
     15.10     -18.73       1.91        0.00      95.14       1.66       0.33       3.30       ----

> <Gold.Chemscore.Fitness>
15.1050

> <Gold.Chemscore.DG>
-18.7263

> <Gold.Chemscore.ZeroCoef>
-5.4800

> <Gold.Chemscore.Hbond>
1.9082

> <Gold.Chemscore.Metal>
0.0000

> <Gold.Chemscore.Lipo>
95.1411

> <Gold.Chemscore.Internal_Hbond>
0.0000

> <Gold.Chemscore.DEClash>
0.3253

> <Gold.Chemscore.DEInternal>
3.2960

> <Gold.Chemscore.Rot>
1.6635

> <Gold.Chemscore.Internal.Correction>
   9.000000E+99

> <Gold.Chemscore.Hbonds>
donor molecule, donor type, donor heavy atom, donor atom, acceptor molecule, acceptor atom, score
      L1  H     4    53       P1  7948  0.97
      L1  H     8    31       P1  7948  0.96

> <Gold.Chemscore.Hbond.Weighted>
-6.3734

> <Gold.Chemscore.Metal.Weighted>
-0.0000

> <Gold.Chemscore.Lipo.Weighted>
-11.1315

> <Gold.Chemscore.Internal_Hbond.Weighted>
0.0000

> <Gold.Chemscore.DEClash.Weighted>
0.3253

> <Gold.Chemscore.DEInternal.Weighted>
3.2960

> <Gold.Chemscore.Rot.Weighted>
4.2586

> <Gold.Chemscore.Internal.Correction.Weighted>
   9.000000E+99

> <Gold.Protein.RotatedTorsions>
[ 6907 6896 6895 6894 ] final   83.12 input  -60.11 | X-H torsion
[ 7974 7965 7964 7962 ] final -139.08 input  175.53 | X-H torsion
[ 8008 7997 7996 7995 ] final  -98.64 input   59.86 | X-H torsion
[ 10167 10162 10161 10158 ] final  112.77 input  -65.29 | X-H torsion
[ 10718 10713 10712 10709 ] final   97.51 input   66.30 | X-H torsion
[ 10763 10752 10751 10750 ] final -131.85 input  -60.55 | X-H torsion
[ 11005 11000 10999 10996 ] final   29.97 input  -57.11 | X-H torsion

> <Gold.Protein.ActiveResidues>
 VAL166  LYS551  ARG553  GLY616  TRP617  ASP618  TYR619  PRO620  LYS621  CYS622 
 ASP623  PHE694  ASN695  SER759  ASP760  ASP761  ALA762  ILE779  LEU786  VAL792 
 PHE793  MET794  SER795  GLU796  ALA797  LYS798  CYS799  TRP800  GLU811  SER814 

> <Gold.Protein.RotatedAtoms>
  152.5318  134.2944  159.9054 H   0  0  0  0  0  0  0  0  0  0  0  0  # atno 6907 bound_to 6896
  151.2896  133.4165  159.2640 H   0  0  0  0  0  0  0  0  0  0  0  0  # atno 6908 bound_to 6896
  151.0212  134.9486  159.8117 H   0  0  0  0  0  0  0  0  0  0  0  0  # atno 6909 bound_to 6896
  144.8706  140.6360  143.5270 H   0  0  0  0  0  0  0  0  0  0  0  0  # atno 7974 bound_to 7965
  154.8040  140.0453  157.1294 H   0  0  0  0  0  0  0  0  0  0  0  0  # atno 8008 bound_to 7997
  154.9445  140.3057  155.5084 H   0  0  0  0  0  0  0  0  0  0  0  0  # atno 8009 bound_to 7997
  156.2965  140.2299  156.4517 H   0  0  0  0  0  0  0  0  0  0  0  0  # atno 8010 bound_to 7997
  139.6510  144.7128  151.2047 H   0  0  0  0  0  0  0  0  0  0  0  0  # atno 10167 bound_to 10162
  157.6911  131.0612  150.4655 H   0  0  0  0  0  0  0  0  0  0  0  0  # atno 10718 bound_to 10713
  154.8748  135.3817  154.4313 H   0  0  0  0  0  0  0  0  0  0  0  0  # atno 10763 bound_to 10752
  153.5007  135.7030  153.5839 H   0  0  0  0  0  0  0  0  0  0  0  0  # atno 10764 bound_to 10752
  153.4172  135.3910  155.2054 H   0  0  0  0  0  0  0  0  0  0  0  0  # atno 10765 bound_to 10752
  140.2993  134.2775  155.7757 H   0  0  0  0  0  0  0  0  0  0  0  0  # atno 11005 bound_to 11000
  145.4139  139.1575  143.4111 LP  0  0  0  0  0  0  0  0  0  0  0  0  # atno 17320 bound_to 7965
  146.2927  140.4244  142.8733 LP  0  0  0  0  0  0  0  0  0  0  0  0  # atno 17321 bound_to 7965
  140.7538  143.6149  150.8569 LP  0  0  0  0  0  0  0  0  0  0  0  0  # atno 17342 bound_to 10162
  139.9797  143.5964  152.2947 LP  0  0  0  0  0  0  0  0  0  0  0  0  # atno 17343 bound_to 10162
  156.4996  130.4114  149.6360 LP  0  0  0  0  0  0  0  0  0  0  0  0  # atno 17370 bound_to 10713
  156.3340  130.7347  151.2281 LP  0  0  0  0  0  0  0  0  0  0  0  0  # atno 17371 bound_to 10713
  141.2131  133.7636  156.9743 LP  0  0  0  0  0  0  0  0  0  0  0  0  # atno 17394 bound_to 11000
  140.1124  134.9468  157.2084 LP  0  0  0  0  0  0  0  0  0  0  0  0  # atno 17395 bound_to 11000

$$$$
