#       Name:                AV-unprocessed.smi:1643
#       Creating user name   scv26
#       Creation time:       Fri Mar 27 07:26:49 2020


#       File generated by GOLD software.
#

@<TRIPOS>MOLECULE
AV-unprocessed.smi:1643
    59    61     1
SMALL
NO_CHARGES


@<TRIPOS>ATOM
      1 ****        -5.8311   1.9242  -2.3280 C.3            1 S1                 0.0000
      2 ****        -4.5997   1.7583  -3.2236 C.2            1 S1                 0.0000
      3 ****        -4.7757   1.3973  -4.3873 O.2            1 S1                 0.0000
      4 ****        -3.3708   2.0169  -2.7117 N.am           1 S1                 0.0000
      5 ****        -2.1661   1.9195  -3.5506 C.3            1 S1                 0.0000
      6 ****        -1.4358   0.5828  -3.3296 C.3            1 S1                 0.0000
      7 ****        -1.5067   0.0458  -1.8844 C.3            1 S1                 0.0000
      8 ****        -1.0011   0.9952  -0.8541 N.4            1 S1                 1.0000
      9 ****         0.4837   1.1180  -0.8644 C.3            1 S1                 0.0000
     10 ****         1.0730   1.4779   0.5200 C.3            1 S1                 0.0000
     11 ****         0.8904   2.8537   0.7820 O.3            1 S1                 0.0000
     12 ****         2.5889   1.2077   0.6451 C.3            1 S1                 0.0000
     13 ****         2.9600  -0.1987   0.4387 N.pl3          1 S1                 0.0000
     14 ****         3.5652  -0.7991  -0.6229 C.2            1 S1                 0.0000
     15 ****         3.7010  -2.1207  -0.3243 N.pl3          1 S1                 1.0000
     16 ****         3.1895  -2.3653   0.9520 C.ar           1 S1                 0.0000
     17 ****         3.1075  -3.5397   1.6905 C.ar           1 S1                 0.0000
     18 ****         2.5326  -3.4525   2.9785 C.ar           1 S1                 0.0000
     19 ****         2.4281  -4.7181   3.8126 C.3            1 S1                 0.0000
     20 ****         2.0643  -2.2132   3.4871 C.ar           1 S1                 0.0000
     21 ****         1.4528  -2.1311   4.8757 C.3            1 S1                 0.0000
     22 ****         2.1560  -1.0297   2.7197 C.ar           1 S1                 0.0000
     23 ****         2.7206  -1.1345   1.4509 C.ar           1 S1                 0.0000
     24 ****        -1.7052   2.3134  -0.7685 C.3            1 S1                 0.0000
     25 ****        -3.1684   2.3560  -1.2865 C.3            1 S1                 0.0000
     26 ****        -5.8468   2.9076  -1.8575 H              1 S1                 0.0000
     27 ****        -5.8503   1.1596  -1.5513 H              1 S1                 0.0000
     28 ****        -6.7456   1.8247  -2.9135 H              1 S1                 0.0000
     29 ****        -2.3943   2.0319  -4.6117 H              1 S1                 0.0000
     30 ****        -1.5014   2.7580  -3.3495 H              1 S1                 0.0000
     31 ****        -1.8786  -0.1670  -3.9862 H              1 S1                 0.0000
     32 ****        -0.3977   0.6800  -3.6488 H              1 S1                 0.0000
     33 ****        -2.5296  -0.2381  -1.6348 H              1 S1                 0.0000
     34 ****        -0.9495  -0.8895  -1.8205 H              1 S1                 0.0000
     35 ****         0.8903   0.1515  -1.1601 H              1 S1                 0.0000
     36 ****         0.8115   1.8203  -1.6325 H              1 S1                 0.0000
     37 ****         0.5453   0.9164   1.2913 H              1 S1                 0.0000
     38 ****         1.4008   3.3530   0.1623 H              1 S1                 0.0000
     39 ****         3.1394   1.7988  -0.0884 H              1 S1                 0.0000
     40 ****         2.9592   1.5105   1.6260 H              1 S1                 0.0000
     41 ****         3.8803  -0.3167  -1.5373 H              1 S1                 0.0000
     42 ****         3.4699  -4.4792   1.2989 H              1 S1                 0.0000
     43 ****         1.3851  -4.9475   4.0317 H              1 S1                 0.0000
     44 ****         2.9632  -4.6012   4.7552 H              1 S1                 0.0000
     45 ****         2.8560  -5.5755   3.2924 H              1 S1                 0.0000
     46 ****         1.1252  -1.1177   5.1093 H              1 S1                 0.0000
     47 ****         2.1798  -2.4286   5.6318 H              1 S1                 0.0000
     48 ****         0.5855  -2.7868   4.9521 H              1 S1                 0.0000
     49 ****         1.8041  -0.0856   3.1089 H              1 S1                 0.0000
     50 ****        -1.7162   2.6013   0.2828 H              1 S1                 0.0000
     51 ****        -1.1188   3.0892  -1.2608 H              1 S1                 0.0000
     52 ****        -3.5653   3.3578  -1.1174 H              1 S1                 0.0000
     53 ****        -3.7567   1.6836  -0.6608 H              1 S1                 0.0000
     54 ****        -1.2179   0.5302   0.0161 H              1 S1                 0.0000
     55 ****         4.1211  -2.8024  -0.9436 H              1 S1                 0.0000
     56 ****        -5.7016   1.2218  -4.7218 LP             1 S1                 0.0000
     57 ****        -3.9928   1.2794  -4.9981 LP             1 S1                 0.0000
     58 ****         1.1937   3.0617   1.7119 LP             1 S1                 0.0000
     59 ****        -0.0770   3.0882   0.6867 LP             1 S1                 0.0000
@<TRIPOS>BOND
    1    1    2 1     
    2    1   26 1     
    3    1   27 1     
    4    1   28 1     
    5    2    3 2     
    6    2    4 am    
    7    4   25 1     
    8    4    5 1     
    9    5    6 1     
   10    5   29 1     
   11    5   30 1     
   12    6    7 1     
   13    6   31 1     
   14    6   32 1     
   15    7    8 1     
   16    7   33 1     
   17    7   34 1     
   18    8    9 1     
   19    8   24 1     
   20    8   54 1     
   21    9   10 1     
   22    9   35 1     
   23    9   36 1     
   24   10   11 1     
   25   10   12 1     
   26   10   37 1     
   27   11   38 1     
   28   12   13 1     
   29   12   39 1     
   30   12   40 1     
   31   13   23 1     
   32   13   14 1     
   33   14   15 2     
   34   14   41 1     
   35   15   16 1     
   36   15   55 1     
   37   16   23 ar    
   38   16   17 ar    
   39   17   18 ar    
   40   17   42 1     
   41   18   19 1     
   42   18   20 ar    
   43   19   43 1     
   44   19   44 1     
   45   19   45 1     
   46   20   21 1     
   47   20   22 ar    
   48   21   46 1     
   49   21   47 1     
   50   21   48 1     
   51   22   23 ar    
   52   22   49 1     
   53   24   25 1     
   54   24   50 1     
   55   24   51 1     
   56   25   52 1     
   57   25   53 1     
   58    3   56 1     
   59    3   57 1     
   60   11   58 1     
   61   11   59 1     
@<TRIPOS>SUBSTRUCTURE
      1 S1             1
@<TRIPOS>SET
LONE_PAIRS      STATIC     ATOMS    <user>   **** ""
4 56 57 58 59
DONOR_HYDROGENS      STATIC     ATOMS    <user>   **** ""
3 54 38 55
ATOM$BLUE        STATIC     ATOMS    COLORGROUP SYSTEM
4 56 57 58 59
ATOM$RED        STATIC     ATOMS    COLORGROUP SYSTEM
3 54 38 55
