AV-unprocessed.smi:2785|AV-procd|sdf|10746|dock8
  -GOLD-   2272015183D 1   1.00000     0.00000
 Structure written by MMmdl.
 37 38  0  0  0  0  0  0  0  0  1 V2000
  147.8040  136.8662  154.9308 C   0  0  0  0  0  0  0  0  0  0  0  0
  148.9404  137.6995  155.5439 C   0  0  0  0  0  0  0  0  0  0  0  0
  149.1190  137.4059  157.0445 C   0  0  0  0  0  0  0  0  0  0  0  0
  148.7312  139.1273  155.2651 N   0  0  0  0  0  0  0  0  0  0  0  0
  147.5415  139.8414  155.6996 C   0  0  0  0  0  0  0  0  0  0  0  0
  147.6158  141.1993  154.9945 C   0  0  0  0  0  0  0  0  0  0  0  0
  149.0534  141.3494  154.4706 C   0  0  1  0  0  0  0  0  0  0  0  0
  149.8048  142.2607  155.3311 N   0  0  0  0  0  0  0  0  0  0  0  0
  150.1930  141.9945  156.5871 C   0  0  0  0  0  0  0  0  0  0  0  0
  149.9731  140.9233  157.1530 O   0  0  0  0  0  0  0  0  0  0  0  0
  150.8408  143.0417  157.1275 N   0  0  0  0  0  0  0  0  0  0  0  0
  151.3857  143.1578  158.4341 C   0  0  0  0  0  0  0  0  0  0  0  0
  151.2582  144.4358  159.0242 C   0  0  0  0  0  0  0  0  0  0  0  0
  151.7651  144.6549  160.3200 C   0  0  0  0  0  0  0  0  0  0  0  0
  152.3868  143.5875  160.9917 C   0  0  0  0  0  0  0  0  0  0  0  0
  152.8889  143.7500  162.2387 F   0  0  0  0  0  0  0  0  0  0  0  0
  152.4734  142.3464  160.3343 C   0  0  0  0  0  0  0  0  0  0  0  0
  151.9882  142.1354  159.0922 N   0  0  0  0  0  0  0  0  0  0  0  0
  149.5908  139.9269  154.6186 C   0  0  0  0  0  0  0  0  0  0  0  0
  150.6825  139.5857  154.1641 O   0  0  0  0  0  0  0  0  0  0  0  0
  147.9711  135.8006  155.0888 H   0  0  0  0  0  0  0  0  0  0  0  0
  147.7279  137.0297  153.8552 H   0  0  0  0  0  0  0  0  0  0  0  0
  146.8413  137.1217  155.3753 H   0  0  0  0  0  0  0  0  0  0  0  0
  149.8697  137.3972  155.0579 H   0  0  0  0  0  0  0  0  0  0  0  0
  149.3622  136.3555  157.2060 H   0  0  0  0  0  0  0  0  0  0  0  0
  148.2130  137.6200  157.6120 H   0  0  0  0  0  0  0  0  0  0  0  0
  149.9317  137.9963  157.4685 H   0  0  0  0  0  0  0  0  0  0  0  0
  146.6301  139.3024  155.4375 H   0  0  0  0  0  0  0  0  0  0  0  0
  147.5674  139.9714  156.7823 H   0  0  0  0  0  0  0  0  0  0  0  0
  146.9272  141.2007  154.1483 H   0  0  0  0  0  0  0  0  0  0  0  0
  147.3088  142.0157  155.6500 H   0  0  0  0  0  0  0  0  0  0  0  0
  149.0649  141.6713  153.4278 H   0  0  0  0  0  0  0  0  0  0  0  0
  150.0270  143.1668  154.9462 H   0  0  0  0  0  0  0  0  0  0  0  0
  150.9499  143.8538  156.5385 H   0  0  0  0  0  0  0  0  0  0  0  0
  150.7766  145.2441  158.4930 H   0  0  0  0  0  0  0  0  0  0  0  0
  151.6779  145.6241  160.7887 H   0  0  0  0  0  0  0  0  0  0  0  0
  152.9434  141.5019  160.8161 H   0  0  0  0  0  0  0  0  0  0  0  0
  1  2  1  0  0  0  0
  1 21  1  0  0  0  0
  1 22  1  0  0  0  0
  1 23  1  0  0  0  0
  2  3  1  0  0  0  0
  2  4  1  0  0  0  0
  2 24  1  0  0  0  0
  3 25  1  0  0  0  0
  3 26  1  0  0  0  0
  3 27  1  0  0  0  0
  4 19  1  0  0  0  0
  4  5  1  0  0  0  0
  5  6  1  0  0  0  0
  5 28  1  0  0  0  0
  5 29  1  0  0  0  0
  6  7  1  0  0  0  0
  6 30  1  0  0  0  0
  6 31  1  0  0  0  0
  7  8  1  0  0  0  0
  7 19  1  0  0  0  0
  7 32  1  0  0  0  0
  8  9  1  0  0  0  0
  8 33  1  0  0  0  0
  9 10  2  0  0  0  0
  9 11  1  0  0  0  0
 11 12  1  0  0  0  0
 11 34  1  0  0  0  0
 12 18  1  0  0  0  0
 12 13  2  0  0  0  0
 13 14  1  0  0  0  0
 13 35  1  0  0  0  0
 14 15  2  0  0  0  0
 14 36  1  0  0  0  0
 15 16  1  0  0  0  0
 15 17  1  0  0  0  0
 17 18  2  0  0  0  0
 17 37  1  0  0  0  0
 19 20  2  0  0  0  0
M  END
> <s_m_source_file>
AV-unprocessed.smi

> <i_m_source_file_index>
2785

> <i_lp_mmshare_version>
43012

> <i_f3d_flags>
0

> <s_epik_input>
W0NIM11bQ0hdKFtDSDNdKU4xW0NIMl1bQ0gyXVtDQEhdKEMxPU8pW05IXUMoPU8pW05IXWMyW2NIXVtjSF1jKEYpW2NIXW4y

> <s_epik_cmdline>
J2VwaWtfcHl0aG9uJywgJy1waCcsICc3LjAnLCAnLXRuJywgJzgnLCAnLW1hJywgJzIwMCcsICctbWV0YWxfYmluZGluZycsICctaW1hZScsICc8aW5maWxlLm1hZT4nLCAnLW9tYWUnLCAnPG91dGZpbGUubWFlPic=

> <r_lp_tautomer_probability>
1

> <r_epik_Ionization_Penalty>
3.20266e-05

> <r_epik_Ionization_Penalty_Charging>
0

> <r_epik_Ionization_Penalty_Neutral>
3.20266e-05

> <r_epik_State_Penalty>
-0

> <r_epik_Charging_Adjusted_Penalty>
0

> <i_epik_Tot_Q>
0

> <i_epik_Tot_abs_Q>
0

> <r_epik_Metal_State_Penalty>
-0

> <b_epik_Metal_Only>
0

> <s_lp_Force_Field>
OPLS_2005

> <r_lp_Energy>
23.6271

> <b_lp_Chiralities_Consistent>
1

> <s_lp_Variant>
AV-unprocessed.smi:2785-1

> <Gold.Version>
5.8.1

> <Gold.Id.Protein>
6NUR|6NUR_protein|mol2

> <Gold.PLP.Fitness>
38.1370

> <Gold.PLP.PLP>
-34.9476

> <Gold.PLP.part.hbond>
-3.0000

> <Gold.PLP.part.metal>
0.0000

> <Gold.PLP.part.buried>
-4.5377

> <Gold.PLP.part.nonpolar>
-27.3426

> <Gold.PLP.part.repulsive>
0.4259

> <Gold.PLP.ligand.clash>
0.0018

> <Gold.PLP.ligand.torsion>
0.4980

> <Gold.PLP.Chemscore.Hbond>
1.3715

> <Gold.PLP.Chemscore.CHOScore>
0.0000

> <Gold.PLP.Chemscore.Metal>
0.0000

> <Gold.Chemscore.Hbonds>
donor molecule, donor type, donor heavy atom, donor atom, acceptor molecule, acceptor atom, score
      L1  H     8    33       P1  8028  0.31
      L1  H    11    34       P1  8028  0.03
      P1  H  7989  7998       L1    20  1.00

> <Gold.PLP.Chemscore.Internal.Correction>
0.0726

> <Gold.Rescore>
     Score         DG    S(hbond)    S(metal)    S(lipo)     H(rot)  DE(clash)    DE(int)     intcor
     14.64     -18.80       2.89        0.00      59.44       1.29       0.07       4.09       ----

> <Gold.Chemscore.Fitness>
14.6413

> <Gold.Chemscore.DG>
-18.8029

> <Gold.Chemscore.ZeroCoef>
-5.4800

> <Gold.Chemscore.Hbond>
2.8935

> <Gold.Chemscore.Metal>
0.0000

> <Gold.Chemscore.Lipo>
59.4384

> <Gold.Chemscore.Internal_Hbond>
0.0000

> <Gold.Chemscore.DEClash>
0.0697

> <Gold.Chemscore.DEInternal>
4.0918

> <Gold.Chemscore.Rot>
1.2875

> <Gold.Chemscore.Internal.Correction>
   9.000000E+99

> <Gold.Chemscore.Hbonds>
donor molecule, donor type, donor heavy atom, donor atom, acceptor molecule, acceptor atom, score
      L1  H     8    33       P1  8028  0.29
      L1  H    11    34       P1  8028  0.04
      P1  H  7989  7998       L1    20  0.91

> <Gold.Chemscore.Hbond.Weighted>
-9.6645

> <Gold.Chemscore.Metal.Weighted>
-0.0000

> <Gold.Chemscore.Lipo.Weighted>
-6.9543

> <Gold.Chemscore.Internal_Hbond.Weighted>
0.0000

> <Gold.Chemscore.DEClash.Weighted>
0.0697

> <Gold.Chemscore.DEInternal.Weighted>
4.0918

> <Gold.Chemscore.Rot.Weighted>
3.2959

> <Gold.Chemscore.Internal.Correction.Weighted>
   9.000000E+99

> <Gold.Protein.RotatedTorsions>
[ 6907 6896 6895 6894 ] final  -86.87 input  -60.11 | X-H torsion
[ 7974 7965 7964 7962 ] final   96.72 input  175.53 | X-H torsion
[ 8008 7997 7996 7995 ] final -109.79 input   59.86 | X-H torsion
[ 10167 10162 10161 10158 ] final   25.66 input  -65.29 | X-H torsion
[ 10718 10713 10712 10709 ] final -166.22 input   66.30 | X-H torsion
[ 10763 10752 10751 10750 ] final   42.76 input  -60.55 | X-H torsion
[ 11005 11000 10999 10996 ] final -144.74 input  -57.11 | X-H torsion

> <Gold.Protein.ActiveResidues>
 VAL166  LYS551  ARG553  GLY616  TRP617  ASP618  TYR619  PRO620  LYS621  CYS622 
 ASP623  PHE694  ASN695  SER759  ASP760  ASP761  ALA762  ILE779  LEU786  VAL792 
 PHE793  MET794  SER795  GLU796  ALA797  LYS798  CYS799  TRP800  GLU811  SER814 

> <Gold.Protein.RotatedAtoms>
  150.6866  134.2984  159.4695 H   0  0  0  0  0  0  0  0  0  0  0  0  # atno 6907 bound_to 6896
  152.0882  134.9422  160.0581 H   0  0  0  0  0  0  0  0  0  0  0  0  # atno 6908 bound_to 6896
  152.0748  133.4089  159.4512 H   0  0  0  0  0  0  0  0  0  0  0  0  # atno 6909 bound_to 6896
  145.4351  139.2306  143.3123 H   0  0  0  0  0  0  0  0  0  0  0  0  # atno 7974 bound_to 7965
  154.9646  140.0398  157.2206 H   0  0  0  0  0  0  0  0  0  0  0  0  # atno 8008 bound_to 7997
  154.7857  140.2826  155.6007 H   0  0  0  0  0  0  0  0  0  0  0  0  # atno 8009 bound_to 7997
  156.2942  140.2583  156.2693 H   0  0  0  0  0  0  0  0  0  0  0  0  # atno 8010 bound_to 7997
  140.5088  144.0195  150.6363 H   0  0  0  0  0  0  0  0  0  0  0  0  # atno 10167 bound_to 10162
  156.6647  130.9060  151.3034 H   0  0  0  0  0  0  0  0  0  0  0  0  # atno 10718 bound_to 10713
  152.9875  135.6122  154.3002 H   0  0  0  0  0  0  0  0  0  0  0  0  # atno 10763 bound_to 10752
  154.2723  135.2779  155.2735 H   0  0  0  0  0  0  0  0  0  0  0  0  # atno 10764 bound_to 10752
  154.5111  135.5840  153.6663 H   0  0  0  0  0  0  0  0  0  0  0  0  # atno 10765 bound_to 10752
  140.7993  134.2875  157.4984 H   0  0  0  0  0  0  0  0  0  0  0  0  # atno 11005 bound_to 11000
  146.2586  140.5092  142.8863 LP  0  0  0  0  0  0  0  0  0  0  0  0  # atno 17320 bound_to 7965
  144.8158  140.6465  143.6385 LP  0  0  0  0  0  0  0  0  0  0  0  0  # atno 17321 bound_to 7965
  140.3512  143.2962  152.0485 LP  0  0  0  0  0  0  0  0  0  0  0  0  # atno 17342 bound_to 10162
  139.4890  144.6372  151.6950 LP  0  0  0  0  0  0  0  0  0  0  0  0  # atno 17343 bound_to 10162
  157.7098  130.9426  150.1050 LP  0  0  0  0  0  0  0  0  0  0  0  0  # atno 17370 bound_to 10713
  156.1984  130.3659  149.8819 LP  0  0  0  0  0  0  0  0  0  0  0  0  # atno 17371 bound_to 10713
  139.8723  134.9420  156.3813 LP  0  0  0  0  0  0  0  0  0  0  0  0  # atno 17394 bound_to 11000
  140.9310  133.7579  156.0025 LP  0  0  0  0  0  0  0  0  0  0  0  0  # atno 17395 bound_to 11000

$$$$
