AV-unprocessed.smi:1943|AV-procd|sdf|7852|dock7
  -GOLD-   2272010 03D 1   1.00000     0.00000
 Structure written by MMmdl.
 47 48  0  0  0  0  0  0  0  0  3 V2000
  144.3658  141.5272  156.0833 C   0  0  0  0  0  0  0  0  0  0  0  0
  145.1729  140.9411  154.9726 N   0  3  0  0  0  0  0  0  0  0  0  0
  145.4970  139.5259  155.2930 C   0  0  0  0  0  0  0  0  0  0  0  0
  146.3161  141.7890  154.4502 C   0  0  0  0  0  0  0  0  0  0  0  0
  146.8756  141.1877  153.1275 C   0  0  0  0  0  0  0  0  0  0  0  0
  145.8403  143.2420  154.1253 C   0  0  0  0  0  0  0  0  0  0  0  0
  147.4122  141.8563  155.5755 C   0  0  0  0  0  0  0  0  0  0  0  0
  148.2945  140.6924  155.5511 N   0  5  0  0  0  0  0  0  0  0  0  0
  149.4437  140.6271  154.8229 C   0  0  0  0  0  0  0  0  0  0  0  0
  149.6456  140.8965  153.6336 O   0  0  0  0  0  0  0  0  0  0  0  0
  150.6224  140.2285  155.6651 C   0  0  0  0  0  0  0  0  0  0  0  0
  150.8919  141.0188  156.7300 N   0  0  0  0  0  0  0  0  0  0  0  0
  151.9274  140.7030  157.5166 C   0  0  0  0  0  0  0  0  0  0  0  0
  152.1779  141.5299  158.6198 N   0  0  0  0  0  0  0  0  0  0  0  0
  151.4366  142.7750  158.8376 C   0  0  0  0  0  0  0  0  0  0  0  0
  152.3100  143.8135  159.5613 C   0  0  0  0  0  0  0  0  0  0  0  0
  152.8128  143.2617  160.7720 O   0  0  0  0  0  0  0  0  0  0  0  0
  153.6351  142.1276  160.5262 C   0  0  0  0  0  0  0  0  0  0  0  0
  152.8120  141.0245  159.8399 C   0  0  0  0  0  0  0  0  0  0  0  0
  152.7406  139.6562  157.3265 N   0  0  0  0  0  0  0  0  0  0  0  0
  152.5025  138.8626  156.2616 C   0  0  0  0  0  0  0  0  0  0  0  0
  151.4390  139.1047  155.3719 C   0  0  0  0  0  0  0  0  0  0  0  0
  151.2137  138.0770  153.9969 Cl  0  0  0  0  0  0  0  0  0  0  0  0
  144.9181  141.5161  157.0238 H   0  0  0  0  0  0  0  0  0  0  0  0
  143.4554  140.9460  156.2330 H   0  0  0  0  0  0  0  0  0  0  0  0
  144.0510  142.5517  155.8873 H   0  0  0  0  0  0  0  0  0  0  0  0
  146.2795  139.4639  156.0503 H   0  0  0  0  0  0  0  0  0  0  0  0
  145.8115  138.9679  154.4112 H   0  0  0  0  0  0  0  0  0  0  0  0
  144.6196  139.0069  155.6803 H   0  0  0  0  0  0  0  0  0  0  0  0
  147.6177  141.8393  152.6621 H   0  0  0  0  0  0  0  0  0  0  0  0
  146.0804  141.0596  152.3927 H   0  0  0  0  0  0  0  0  0  0  0  0
  147.3521  140.2143  153.2594 H   0  0  0  0  0  0  0  0  0  0  0  0
  146.6500  143.8850  153.7737 H   0  0  0  0  0  0  0  0  0  0  0  0
  145.3864  143.7414  154.9842 H   0  0  0  0  0  0  0  0  0  0  0  0
  145.1083  143.2564  153.3175 H   0  0  0  0  0  0  0  0  0  0  0  0
  147.9732  142.7843  155.4553 H   0  0  0  0  0  0  0  0  0  0  0  0
  146.9232  141.9431  156.5459 H   0  0  0  0  0  0  0  0  0  0  0  0
  151.0879  143.2161  157.9043 H   0  0  0  0  0  0  0  0  0  0  0  0
  150.5494  142.5527  159.4315 H   0  0  0  0  0  0  0  0  0  0  0  0
  153.1348  144.1384  158.9249 H   0  0  0  0  0  0  0  0  0  0  0  0
  151.7205  144.7005  159.7940 H   0  0  0  0  0  0  0  0  0  0  0  0
  154.4925  142.4111  159.9134 H   0  0  0  0  0  0  0  0  0  0  0  0
  154.0300  141.7646  161.4751 H   0  0  0  0  0  0  0  0  0  0  0  0
  152.0333  140.6642  160.5130 H   0  0  0  0  0  0  0  0  0  0  0  0
  153.4725  140.1811  159.6407 H   0  0  0  0  0  0  0  0  0  0  0  0
  153.1755  138.0308  156.1137 H   0  0  0  0  0  0  0  0  0  0  0  0
  144.5386  140.8820  154.1884 H   0  0  0  0  0  0  0  0  0  0  0  0
  1  2  1  0  0  0  0
  1 24  1  0  0  0  0
  1 25  1  0  0  0  0
  1 26  1  0  0  0  0
  2  3  1  0  0  0  0
  2  4  1  0  0  0  0
  2 47  1  0  0  0  0
  3 27  1  0  0  0  0
  3 28  1  0  0  0  0
  3 29  1  0  0  0  0
  4  5  1  0  0  0  0
  4  6  1  0  0  0  0
  4  7  1  0  0  0  0
  5 30  1  0  0  0  0
  5 31  1  0  0  0  0
  5 32  1  0  0  0  0
  6 33  1  0  0  0  0
  6 34  1  0  0  0  0
  6 35  1  0  0  0  0
  7  8  1  0  0  0  0
  7 36  1  0  0  0  0
  7 37  1  0  0  0  0
  8  9  1  0  0  0  0
  9 10  2  0  0  0  0
  9 11  1  0  0  0  0
 11 22  1  0  0  0  0
 11 12  2  0  0  0  0
 12 13  1  0  0  0  0
 13 14  1  0  0  0  0
 13 20  2  0  0  0  0
 14 19  1  0  0  0  0
 14 15  1  0  0  0  0
 15 16  1  0  0  0  0
 15 38  1  0  0  0  0
 15 39  1  0  0  0  0
 16 17  1  0  0  0  0
 16 40  1  0  0  0  0
 16 41  1  0  0  0  0
 17 18  1  0  0  0  0
 18 19  1  0  0  0  0
 18 42  1  0  0  0  0
 18 43  1  0  0  0  0
 19 44  1  0  0  0  0
 19 45  1  0  0  0  0
 20 21  1  0  0  0  0
 21 22  2  0  0  0  0
 21 46  1  0  0  0  0
 22 23  1  0  0  0  0
M  CHG  1   2   1
M  CHG  1   8  -1
M  END
> <s_m_source_file>
AV-unprocessed.smi

> <i_m_source_file_index>
1943

> <i_lp_mmshare_version>
43012

> <i_f3d_flags>
0

> <s_epik_input>
W0NIM11OKFtDSDNdKUMoW0NIM10pKFtDSDNdKVtDSDJdW05IXUMoPU8pYzFuYyhuW2NIXWMxQ2wpTjJbQ0gyXVtDSDJdT1tDSDJdW0NIMl0y

> <s_epik_cmdline>
J2VwaWtfcHl0aG9uJywgJy1waCcsICc3LjAnLCAnLXRuJywgJzgnLCAnLW1hJywgJzIwMCcsICctbWV0YWxfYmluZGluZycsICctaW1hZScsICc8aW5maWxlLm1hZT4nLCAnLW9tYWUnLCAnPG91dGZpbGUubWFlPic=

> <r_lp_tautomer_probability>
1

> <r_epik_Ionization_Penalty>
4.9942

> <r_epik_Ionization_Penalty_Charging>
4.9942

> <r_epik_Ionization_Penalty_Neutral>
6.27513e-06

> <r_epik_State_Penalty>
4.99795

> <r_epik_Charging_Adjusted_Penalty>
9.99215

> <i_epik_Tot_Q>
0

> <i_epik_Tot_abs_Q>
2

> <r_epik_Metal_State_Penalty>
1.11486

> <b_epik_Metal_Only>
1

> <s_lp_Force_Field>
OPLS_2005

> <r_lp_Energy>
33.8194

> <b_lp_Chiralities_Consistent>
1

> <s_lp_Variant>
AV-unprocessed.smi:1943-2

> <Gold.Version>
5.8.1

> <Gold.Id.Protein>
6NUR|6NUR_protein|mol2

> <Gold.PLP.Fitness>
49.0053

> <Gold.PLP.PLP>
-40.5019

> <Gold.PLP.part.hbond>
-3.8004

> <Gold.PLP.part.metal>
0.0000

> <Gold.PLP.part.buried>
-4.2275

> <Gold.PLP.part.nonpolar>
-35.2019

> <Gold.PLP.part.repulsive>
4.1362

> <Gold.PLP.ligand.clash>
0.0000

> <Gold.PLP.ligand.torsion>
2.3598

> <Gold.PLP.Chemscore.Hbond>
4.3177

> <Gold.PLP.Chemscore.CHOScore>
0.0000

> <Gold.PLP.Chemscore.Metal>
0.0000

> <Gold.Chemscore.Hbonds>
donor molecule, donor type, donor heavy atom, donor atom, acceptor molecule, acceptor atom, score
      L1  H     2    47       P1 10175  2.00
      P1  H  7989  7998       L1    10  0.35
      P1  H  7997  8010       L1    20  0.91
      P1  H  8011  8017       L1    10  1.00

> <Gold.PLP.Chemscore.Internal.Correction>
0.2700

> <Gold.Rescore>
     Score         DG    S(hbond)    S(metal)    S(lipo)     H(rot)  DE(clash)    DE(int)     intcor
     15.81     -21.43       2.37        0.00      99.38       1.41       1.88       3.75       ----

> <Gold.Chemscore.Fitness>
15.8068

> <Gold.Chemscore.DG>
-21.4335

> <Gold.Chemscore.ZeroCoef>
-5.4800

> <Gold.Chemscore.Hbond>
2.3730

> <Gold.Chemscore.Metal>
0.0000

> <Gold.Chemscore.Lipo>
99.3771

> <Gold.Chemscore.Internal_Hbond>
0.0000

> <Gold.Chemscore.DEClash>
1.8816

> <Gold.Chemscore.DEInternal>
3.7451

> <Gold.Chemscore.Rot>
1.4060

> <Gold.Chemscore.Internal.Correction>
   9.000000E+99

> <Gold.Chemscore.Hbonds>
donor molecule, donor type, donor heavy atom, donor atom, acceptor molecule, acceptor atom, score
      L1  H     2    47       P1 10175  0.95
      P1  H  7989  7998       L1    10  0.18
      P1  H  7997  8010       L1    20  0.19
      P1  H  8011  8017       L1    10  0.92

> <Gold.Chemscore.Hbond.Weighted>
-7.9258

> <Gold.Chemscore.Metal.Weighted>
-0.0000

> <Gold.Chemscore.Lipo.Weighted>
-11.6271

> <Gold.Chemscore.Internal_Hbond.Weighted>
0.0000

> <Gold.Chemscore.DEClash.Weighted>
1.8816

> <Gold.Chemscore.DEInternal.Weighted>
3.7451

> <Gold.Chemscore.Rot.Weighted>
3.5994

> <Gold.Chemscore.Internal.Correction.Weighted>
   9.000000E+99

> <Gold.Protein.RotatedTorsions>
[ 6907 6896 6895 6894 ] final -120.97 input  -60.11 | X-H torsion
[ 7974 7965 7964 7962 ] final  -52.80 input  175.53 | X-H torsion
[ 8008 7997 7996 7995 ] final   34.44 input   59.86 | X-H torsion
[ 10167 10162 10161 10158 ] final   63.93 input  -65.29 | X-H torsion
[ 10718 10713 10712 10709 ] final  -93.39 input   66.30 | X-H torsion
[ 10763 10752 10751 10750 ] final   58.06 input  -60.55 | X-H torsion
[ 11005 11000 10999 10996 ] final   91.97 input  -57.11 | X-H torsion

> <Gold.Protein.ActiveResidues>
 VAL166  LYS551  ARG553  GLY616  TRP617  ASP618  TYR619  PRO620  LYS621  CYS622 
 ASP623  PHE694  ASN695  SER759  ASP760  ASP761  ALA762  ILE779  LEU786  VAL792 
 PHE793  MET794  SER795  GLU796  ALA797  LYS798  CYS799  TRP800  GLU811  SER814 

> <Gold.Protein.RotatedAtoms>
  150.8441  133.7890  159.3049 H   0  0  0  0  0  0  0  0  0  0  0  0  # atno 6907 bound_to 6896
  151.5582  135.1064  159.9976 H   0  0  0  0  0  0  0  0  0  0  0  0  # atno 6908 bound_to 6896
  152.4498  133.7565  159.6779 H   0  0  0  0  0  0  0  0  0  0  0  0  # atno 6909 bound_to 6896
  145.9039  140.7971  142.9729 H   0  0  0  0  0  0  0  0  0  0  0  0  # atno 7974 bound_to 7965
  155.1549  140.3278  155.4423 H   0  0  0  0  0  0  0  0  0  0  0  0  # atno 8008 bound_to 7997
  156.2562  140.1970  156.6609 H   0  0  0  0  0  0  0  0  0  0  0  0  # atno 8009 bound_to 7997
  154.6447  140.0566  156.9872 H   0  0  0  0  0  0  0  0  0  0  0  0  # atno 8010 bound_to 7997
  140.1276  144.4673  150.6883 H   0  0  0  0  0  0  0  0  0  0  0  0  # atno 10167 bound_to 10162
  156.0013  130.5025  150.5769 H   0  0  0  0  0  0  0  0  0  0  0  0  # atno 10718 bound_to 10713
  152.9862  135.5620  154.5491 H   0  0  0  0  0  0  0  0  0  0  0  0  # atno 10763 bound_to 10752
  154.4931  135.2793  155.1483 H   0  0  0  0  0  0  0  0  0  0  0  0  # atno 10764 bound_to 10752
  154.2944  135.6320  153.5451 H   0  0  0  0  0  0  0  0  0  0  0  0  # atno 10765 bound_to 10752
  139.8830  134.8705  156.3505 H   0  0  0  0  0  0  0  0  0  0  0  0  # atno 11005 bound_to 11000
  144.6738  140.1720  143.7413 LP  0  0  0  0  0  0  0  0  0  0  0  0  # atno 17320 bound_to 7965
  145.8757  139.2295  143.1635 LP  0  0  0  0  0  0  0  0  0  0  0  0  # atno 17321 bound_to 7965
  140.6835  143.2338  151.5321 LP  0  0  0  0  0  0  0  0  0  0  0  0  # atno 17342 bound_to 10162
  139.5536  144.2333  152.1573 LP  0  0  0  0  0  0  0  0  0  0  0  0  # atno 17343 bound_to 10162
  157.3655  131.0757  151.1601 LP  0  0  0  0  0  0  0  0  0  0  0  0  # atno 17370 bound_to 10713
  157.2371  130.6552  149.5874 LP  0  0  0  0  0  0  0  0  0  0  0  0  # atno 17371 bound_to 10713
  140.9597  133.7396  156.0385 LP  0  0  0  0  0  0  0  0  0  0  0  0  # atno 17394 bound_to 11000
  140.8004  134.3515  157.5441 LP  0  0  0  0  0  0  0  0  0  0  0  0  # atno 17395 bound_to 11000

$$$$
