AV-unprocessed.smi:1140|AV-procd|sdf|4871|dock10
  -GOLD-   22720 3443D 1   1.00000     0.00000
 Structure written by MMmdl.
 48 50  0  0  0  0  0  0  0  0  1 V2000
  146.6573  133.2994  150.6505 C   0  0  0  0  0  0  0  0  0  0  0  0
  145.9677  133.3332  152.0165 C   0  0  0  0  0  0  0  0  0  0  0  0
  146.5860  134.3370  152.8161 O   0  0  0  0  0  0  0  0  0  0  0  0
  146.3352  134.3509  154.1753 C   0  0  0  0  0  0  0  0  0  0  0  0
  145.4890  133.4208  154.6852 N   0  0  0  0  0  0  0  0  0  0  0  0
  145.2465  133.4305  156.0120 C   0  0  0  0  0  0  0  0  0  0  0  0
  145.8332  134.3545  156.8954 C   0  0  0  0  0  0  0  0  0  0  0  0
  146.7113  135.3198  156.3695 C   0  0  0  0  0  0  0  0  0  0  0  0
  146.9648  135.3320  154.9763 C   0  0  0  0  0  0  0  0  0  0  0  0
  147.8526  136.2481  154.3478 N   0  0  0  0  0  0  0  0  0  0  0  0
  148.6062  137.2046  154.9159 C   0  0  0  0  0  0  0  0  0  0  0  0
  148.5990  137.4991  156.1111 O   0  0  0  0  0  0  0  0  0  0  0  0
  149.3685  137.8264  154.0052 N   0  0  0  0  0  0  0  0  0  0  0  0
  150.2970  138.9174  154.2867 C   0  0  0  0  0  0  0  0  0  0  0  0
  151.6037  138.3453  154.8766 C   0  0  0  0  0  0  0  0  0  0  0  0
  152.5383  139.4689  155.3602 C   0  0  0  0  0  0  0  0  0  0  0  0
  151.8202  140.2997  156.3346 N   0  0  0  0  0  0  0  0  0  0  0  0
  152.0927  140.2621  157.6631 C   0  0  0  0  0  0  0  0  0  0  0  0
  152.9742  139.5412  158.1334 O   0  0  0  0  0  0  0  0  0  0  0  0
  151.2871  141.1603  158.5500 C   0  0  0  0  0  0  0  0  0  0  0  0
  151.2489  142.6430  158.2262 C   0  0  0  0  0  0  0  0  0  0  0  0
  152.0536  142.1514  159.4006 C   0  0  0  0  0  0  0  0  0  0  0  0
  150.6886  140.9975  155.7072 C   0  0  0  0  0  0  0  0  0  0  0  0
  149.6582  139.9533  155.2414 C   0  0  0  0  0  0  0  0  0  0  0  0
  146.2064  132.5454  150.0051 H   0  0  0  0  0  0  0  0  0  0  0  0
  147.7167  133.0632  150.7515 H   0  0  0  0  0  0  0  0  0  0  0  0
  146.5745  134.2628  150.1469 H   0  0  0  0  0  0  0  0  0  0  0  0
  144.9067  133.5511  151.8837 H   0  0  0  0  0  0  0  0  0  0  0  0
  146.0552  132.3569  152.4959 H   0  0  0  0  0  0  0  0  0  0  0  0
  144.5696  132.6748  156.3822 H   0  0  0  0  0  0  0  0  0  0  0  0
  145.6196  134.3203  157.9535 H   0  0  0  0  0  0  0  0  0  0  0  0
  147.1832  136.0169  157.0444 H   0  0  0  0  0  0  0  0  0  0  0  0
  147.8846  136.1946  153.3401 H   0  0  0  0  0  0  0  0  0  0  0  0
  149.3022  137.5239  153.0444 H   0  0  0  0  0  0  0  0  0  0  0  0
  150.5478  139.4186  153.3497 H   0  0  0  0  0  0  0  0  0  0  0  0
  151.3752  137.6863  155.7160 H   0  0  0  0  0  0  0  0  0  0  0  0
  152.1137  137.7326  154.1326 H   0  0  0  0  0  0  0  0  0  0  0  0
  153.4566  139.0410  155.7644 H   0  0  0  0  0  0  0  0  0  0  0  0
  152.8493  140.0875  154.5169 H   0  0  0  0  0  0  0  0  0  0  0  0
  150.3655  140.7437  158.9527 H   0  0  0  0  0  0  0  0  0  0  0  0
  151.8050  143.0142  157.3672 H   0  0  0  0  0  0  0  0  0  0  0  0
  150.3182  143.1683  158.4305 H   0  0  0  0  0  0  0  0  0  0  0  0
  151.6714  142.3409  160.4014 H   0  0  0  0  0  0  0  0  0  0  0  0
  153.1383  142.1735  159.3092 H   0  0  0  0  0  0  0  0  0  0  0  0
  150.1992  141.7234  156.3542 H   0  0  0  0  0  0  0  0  0  0  0  0
  151.0499  141.5705  154.8519 H   0  0  0  0  0  0  0  0  0  0  0  0
  148.8227  140.4547  154.7516 H   0  0  0  0  0  0  0  0  0  0  0  0
  149.2442  139.4461  156.1144 H   0  0  0  0  0  0  0  0  0  0  0  0
  1  2  1  0  0  0  0
  1 25  1  0  0  0  0
  1 26  1  0  0  0  0
  1 27  1  0  0  0  0
  2  3  1  0  0  0  0
  2 28  1  0  0  0  0
  2 29  1  0  0  0  0
  3  4  1  0  0  0  0
  4  9  1  0  0  0  0
  4  5  2  0  0  0  0
  5  6  1  0  0  0  0
  6  7  2  0  0  0  0
  6 30  1  0  0  0  0
  7  8  1  0  0  0  0
  7 31  1  0  0  0  0
  8  9  2  0  0  0  0
  8 32  1  0  0  0  0
  9 10  1  0  0  0  0
 10 11  1  0  0  0  0
 10 33  1  0  0  0  0
 11 12  2  0  0  0  0
 11 13  1  0  0  0  0
 13 14  1  0  0  0  0
 13 34  1  0  0  0  0
 14 24  1  0  0  0  0
 14 15  1  0  0  0  0
 14 35  1  0  0  0  0
 15 16  1  0  0  0  0
 15 36  1  0  0  0  0
 15 37  1  0  0  0  0
 16 17  1  0  0  0  0
 16 38  1  0  0  0  0
 16 39  1  0  0  0  0
 17 18  1  0  0  0  0
 17 23  1  0  0  0  0
 18 19  2  0  0  0  0
 18 20  1  0  0  0  0
 20 22  1  0  0  0  0
 20 21  1  0  0  0  0
 20 40  1  0  0  0  0
 21 22  1  0  0  0  0
 21 41  1  0  0  0  0
 21 42  1  0  0  0  0
 22 43  1  0  0  0  0
 22 44  1  0  0  0  0
 23 24  1  0  0  0  0
 23 45  1  0  0  0  0
 23 46  1  0  0  0  0
 24 47  1  0  0  0  0
 24 48  1  0  0  0  0
M  END
> <s_m_source_file>
AV-unprocessed.smi

> <i_m_source_file_index>
1140

> <i_lp_mmshare_version>
43012

> <i_f3d_flags>
0

> <s_epik_input>
W0NIM11bQ0gyXU9jMW5bY0hdW2NIXVtjSF1jMVtOSF1DKD1PKVtOSF1bQ0hdMltDSDJdW0NIMl1OKFtDSDJdW0NIMl0yKUMoPU8pW0NIXTNbQ0gyXVtDSDJdMw==

> <s_epik_cmdline>
J2VwaWtfcHl0aG9uJywgJy1waCcsICc3LjAnLCAnLXRuJywgJzgnLCAnLW1hJywgJzIwMCcsICctbWV0YWxfYmluZGluZycsICctaW1hZScsICc8aW5maWxlLm1hZT4nLCAnLW9tYWUnLCAnPG91dGZpbGUubWFlPic=

> <r_lp_tautomer_probability>
1

> <r_epik_Ionization_Penalty>
0.00011541

> <r_epik_Ionization_Penalty_Charging>
0

> <r_epik_Ionization_Penalty_Neutral>
0.00011541

> <r_epik_State_Penalty>
-0

> <r_epik_Charging_Adjusted_Penalty>
0

> <i_epik_Tot_Q>
0

> <i_epik_Tot_abs_Q>
0

> <r_epik_Metal_State_Penalty>
-0

> <b_epik_Metal_Only>
0

> <s_lp_Force_Field>
OPLS_2005

> <r_lp_Energy>
31.5236

> <b_lp_Chiralities_Consistent>
1

> <s_lp_Variant>
AV-unprocessed.smi:1140-1

> <Gold.Version>
5.8.1

> <Gold.Id.Protein>
6NUR|6NUR_protein|mol2

> <Gold.PLP.Fitness>
41.2816

> <Gold.PLP.PLP>
-32.0298

> <Gold.PLP.part.hbond>
-3.0000

> <Gold.PLP.part.metal>
0.0000

> <Gold.PLP.part.buried>
-2.4429

> <Gold.PLP.part.nonpolar>
-26.9739

> <Gold.PLP.part.repulsive>
0.2609

> <Gold.PLP.ligand.clash>
0.0000

> <Gold.PLP.ligand.torsion>
0.3420

> <Gold.PLP.Chemscore.Hbond>
2.8960

> <Gold.PLP.Chemscore.CHOScore>
0.3789

> <Gold.PLP.Chemscore.Metal>
0.0000

> <Gold.Chemscore.Hbonds>
donor molecule, donor type, donor heavy atom, donor atom, acceptor molecule, acceptor atom, score
      L1  H    10    33       P1  7948  0.91
      L1  H    13    34       P1  7948  1.00
      P1  H  7997  8010       L1    19  1.00
      L1  C     6    30       P1 10957  0.64

> <Gold.PLP.Chemscore.Internal.Correction>
0.1109

> <Gold.Rescore>
     Score         DG    S(hbond)    S(metal)    S(lipo)     H(rot)  DE(clash)    DE(int)     intcor
     16.48     -19.74       2.75        0.00      77.51       1.56       0.40       2.85       ----

> <Gold.Chemscore.Fitness>
16.4793

> <Gold.Chemscore.DG>
-19.7372

> <Gold.Chemscore.ZeroCoef>
-5.4800

> <Gold.Chemscore.Hbond>
2.7523

> <Gold.Chemscore.Metal>
0.0000

> <Gold.Chemscore.Lipo>
77.5063

> <Gold.Chemscore.Internal_Hbond>
0.0000

> <Gold.Chemscore.DEClash>
0.4038

> <Gold.Chemscore.DEInternal>
2.8542

> <Gold.Chemscore.Rot>
1.5640

> <Gold.Chemscore.Internal.Correction>
   9.000000E+99

> <Gold.Chemscore.Hbonds>
donor molecule, donor type, donor heavy atom, donor atom, acceptor molecule, acceptor atom, score
      L1  H    10    33       P1  7948  0.90
      L1  H    13    34       P1  7948  0.91
      P1  H  7997  8010       L1    19  0.24

> <Gold.Chemscore.Hbond.Weighted>
-9.1928

> <Gold.Chemscore.Metal.Weighted>
-0.0000

> <Gold.Chemscore.Lipo.Weighted>
-9.0682

> <Gold.Chemscore.Internal_Hbond.Weighted>
0.0000

> <Gold.Chemscore.DEClash.Weighted>
0.4038

> <Gold.Chemscore.DEInternal.Weighted>
2.8542

> <Gold.Chemscore.Rot.Weighted>
4.0038

> <Gold.Chemscore.Internal.Correction.Weighted>
   9.000000E+99

> <Gold.Protein.RotatedTorsions>
[ 6907 6896 6895 6894 ] final  142.13 input  -60.11 | X-H torsion
[ 7974 7965 7964 7962 ] final   66.62 input  175.53 | X-H torsion
[ 8008 7997 7996 7995 ] final   40.42 input   59.86 | X-H torsion
[ 10167 10162 10161 10158 ] final  -51.66 input  -65.29 | X-H torsion
[ 10718 10713 10712 10709 ] final  -35.22 input   66.30 | X-H torsion
[ 10763 10752 10751 10750 ] final  -98.65 input  -60.55 | X-H torsion
[ 11005 11000 10999 10996 ] final  133.44 input  -57.11 | X-H torsion

> <Gold.Protein.ActiveResidues>
 VAL166  LYS551  ARG553  GLY616  TRP617  ASP618  TYR619  PRO620  LYS621  CYS622 
 ASP623  PHE694  ASN695  SER759  ASP760  ASP761  ALA762  ILE779  LEU786  VAL792 
 PHE793  MET794  SER795  GLU796  ALA797  LYS798  CYS799  TRP800  GLU811  SER814 

> <Gold.Protein.RotatedAtoms>
  152.2225  133.4994  159.5170 H   0  0  0  0  0  0  0  0  0  0  0  0  # atno 6907 bound_to 6896
  150.7016  134.1324  159.4083 H   0  0  0  0  0  0  0  0  0  0  0  0  # atno 6908 bound_to 6896
  151.9244  135.0284  160.0575 H   0  0  0  0  0  0  0  0  0  0  0  0  # atno 6909 bound_to 6896
  145.8244  139.3103  143.1024 H   0  0  0  0  0  0  0  0  0  0  0  0  # atno 7974 bound_to 7965
  155.2528  140.3353  155.4280 H   0  0  0  0  0  0  0  0  0  0  0  0  # atno 8008 bound_to 7997
  156.2208  140.1808  156.7524 H   0  0  0  0  0  0  0  0  0  0  0  0  # atno 8009 bound_to 7997
  154.5823  140.0651  156.9106 H   0  0  0  0  0  0  0  0  0  0  0  0  # atno 8010 bound_to 7997
  140.6577  143.2612  151.4535 H   0  0  0  0  0  0  0  0  0  0  0  0  # atno 10167 bound_to 10162
  156.3412  130.4294  149.7785 H   0  0  0  0  0  0  0  0  0  0  0  0  # atno 10718 bound_to 10713
  154.7432  135.5001  153.9158 H   0  0  0  0  0  0  0  0  0  0  0  0  # atno 10763 bound_to 10752
  153.1064  135.6698  153.9586 H   0  0  0  0  0  0  0  0  0  0  0  0  # atno 10764 bound_to 10752
  153.9357  135.3073  155.3423 H   0  0  0  0  0  0  0  0  0  0  0  0  # atno 10765 bound_to 10752
  139.9852  134.9534  156.9725 H   0  0  0  0  0  0  0  0  0  0  0  0  # atno 11005 bound_to 11000
  145.9640  140.8813  143.0196 LP  0  0  0  0  0  0  0  0  0  0  0  0  # atno 17320 bound_to 7965
  144.6745  140.1852  143.7402 LP  0  0  0  0  0  0  0  0  0  0  0  0  # atno 17321 bound_to 7965
  139.5803  144.1724  152.1959 LP  0  0  0  0  0  0  0  0  0  0  0  0  # atno 17342 bound_to 10162
  140.1047  144.5509  150.6965 LP  0  0  0  0  0  0  0  0  0  0  0  0  # atno 17343 bound_to 10162
  156.5021  130.8133  151.3136 LP  0  0  0  0  0  0  0  0  0  0  0  0  # atno 17370 bound_to 10713
  157.7447  130.9941  150.2697 LP  0  0  0  0  0  0  0  0  0  0  0  0  # atno 17371 bound_to 10713
  140.5017  134.1091  155.7252 LP  0  0  0  0  0  0  0  0  0  0  0  0  # atno 17394 bound_to 11000
  141.1518  133.8955  157.2078 LP  0  0  0  0  0  0  0  0  0  0  0  0  # atno 17395 bound_to 11000

$$$$
