AV-unprocessed.smi:2185|AV-procd|sdf|8875|dock4
  -GOLD-   2272012 73D 1   1.00000     0.00000
 Structure written by MMmdl.
 38 39  0  0  0  0  0  0  0  0  1 V2000
  149.4786  134.6932  154.7981 C   0  0  0  0  0  0  0  0  0  0  0  0
  150.0035  136.0291  155.9479 S   0  0  0  0  0  0  0  0  0  0  0  0
  148.9241  136.2430  156.9240 O   0  0  0  0  0  0  0  0  0  0  0  0
  151.3625  135.7215  156.4195 O   0  0  0  0  0  0  0  0  0  0  0  0
  150.0964  137.4445  154.9396 N   0  0  0  0  0  0  0  0  0  0  0  0
  149.0110  138.4453  154.9688 C   0  0  0  0  0  0  0  0  0  0  0  0
  149.3940  139.6750  155.8103 C   0  0  0  0  0  0  0  0  0  0  0  0
  150.7216  140.2851  155.3380 C   0  0  0  0  0  0  0  0  0  0  0  0
  151.0794  141.4133  156.1928 N   0  0  0  0  0  0  0  0  0  0  0  0
  151.2245  141.3595  157.5245 C   0  0  0  0  0  0  0  0  0  0  0  0
  151.0614  140.3330  158.1833 O   0  0  0  0  0  0  0  0  0  0  0  0
  151.5808  142.5569  158.0205 N   0  0  0  0  0  0  0  0  0  0  0  0
  151.8396  142.9223  159.3699 C   0  0  0  0  0  0  0  0  0  0  0  0
  152.2637  142.0228  160.3785 C   0  0  0  0  0  0  0  0  0  0  0  0
  152.4689  142.5121  161.6831 C   0  0  0  0  0  0  0  0  0  0  0  0
  152.2375  143.8785  161.9341 C   0  0  0  0  0  0  0  0  0  0  0  0
  151.8223  144.7446  160.9862 N   0  0  0  0  0  0  0  0  0  0  0  0
  151.6274  144.2682  159.7381 C   0  0  0  0  0  0  0  0  0  0  0  0
  151.8156  139.2047  155.3680 C   0  0  0  0  0  0  0  0  0  0  0  0
  151.4137  137.9751  154.5337 C   0  0  0  0  0  0  0  0  0  0  0  0
  149.3971  133.7591  155.3532 H   0  0  0  0  0  0  0  0  0  0  0  0
  150.2172  134.5713  154.0080 H   0  0  0  0  0  0  0  0  0  0  0  0
  148.5076  134.9343  154.3688 H   0  0  0  0  0  0  0  0  0  0  0  0
  148.8026  138.7558  153.9442 H   0  0  0  0  0  0  0  0  0  0  0  0
  148.0915  137.9990  155.3462 H   0  0  0  0  0  0  0  0  0  0  0  0
  148.5998  140.4196  155.7457 H   0  0  0  0  0  0  0  0  0  0  0  0
  149.4652  139.3972  156.8616 H   0  0  0  0  0  0  0  0  0  0  0  0
  150.5926  140.6371  154.3125 H   0  0  0  0  0  0  0  0  0  0  0  0
  151.2351  142.2989  155.7339 H   0  0  0  0  0  0  0  0  0  0  0  0
  151.7391  143.2863  157.3409 H   0  0  0  0  0  0  0  0  0  0  0  0
  152.4216  140.9732  160.1871 H   0  0  0  0  0  0  0  0  0  0  0  0
  152.7925  141.8528  162.4750 H   0  0  0  0  0  0  0  0  0  0  0  0
  152.3839  144.2852  162.9237 H   0  0  0  0  0  0  0  0  0  0  0  0
  151.2927  144.9895  159.0066 H   0  0  0  0  0  0  0  0  0  0  0  0
  152.7524  139.6091  154.9833 H   0  0  0  0  0  0  0  0  0  0  0  0
  152.0142  138.9073  156.3973 H   0  0  0  0  0  0  0  0  0  0  0  0
  152.1752  137.1998  154.6104 H   0  0  0  0  0  0  0  0  0  0  0  0
  151.3624  138.2523  153.4803 H   0  0  0  0  0  0  0  0  0  0  0  0
  1  2  1  0  0  0  0
  1 21  1  0  0  0  0
  1 22  1  0  0  0  0
  1 23  1  0  0  0  0
  2  3  2  0  0  0  0
  2  4  2  0  0  0  0
  2  5  1  0  0  0  0
  5 20  1  0  0  0  0
  5  6  1  0  0  0  0
  6  7  1  0  0  0  0
  6 24  1  0  0  0  0
  6 25  1  0  0  0  0
  7  8  1  0  0  0  0
  7 26  1  0  0  0  0
  7 27  1  0  0  0  0
  8  9  1  0  0  0  0
  8 19  1  0  0  0  0
  8 28  1  0  0  0  0
  9 10  1  0  0  0  0
  9 29  1  0  0  0  0
 10 11  2  0  0  0  0
 10 12  1  0  0  0  0
 12 13  1  0  0  0  0
 12 30  1  0  0  0  0
 13 18  1  0  0  0  0
 13 14  2  0  0  0  0
 14 15  1  0  0  0  0
 14 31  1  0  0  0  0
 15 16  2  0  0  0  0
 15 32  1  0  0  0  0
 16 17  1  0  0  0  0
 16 33  1  0  0  0  0
 17 18  2  0  0  0  0
 18 34  1  0  0  0  0
 19 20  1  0  0  0  0
 19 35  1  0  0  0  0
 19 36  1  0  0  0  0
 20 37  1  0  0  0  0
 20 38  1  0  0  0  0
M  END
> <s_m_source_file>
AV-unprocessed.smi

> <i_m_source_file_index>
2185

> <i_lp_mmshare_version>
43012

> <i_f3d_flags>
0

> <s_epik_input>
W0NIM11TKD1PKSg9TylOMVtDSDJdW0NIMl1bQ0hdKFtDSDJdW0NIMl0xKVtOSF1DKD1PKVtOSF1jMltjSF1bY0hdW2NIXW5bY0hdMg==

> <s_epik_cmdline>
J2VwaWtfcHl0aG9uJywgJy1waCcsICc3LjAnLCAnLXRuJywgJzgnLCAnLW1hJywgJzIwMCcsICctbWV0YWxfYmluZGluZycsICctaW1hZScsICc8aW5maWxlLm1hZT4nLCAnLW9tYWUnLCAnPG91dGZpbGUubWFlPic=

> <r_epik_Ionization_Penalty>
0.00480481

> <r_epik_Ionization_Penalty_Charging>
0

> <r_epik_Ionization_Penalty_Neutral>
0.00480481

> <r_epik_State_Penalty>
0.00345682

> <r_epik_Charging_Adjusted_Penalty>
0.00345682

> <i_epik_Tot_Q>
0

> <i_epik_Tot_abs_Q>
0

> <r_epik_Metal_State_Penalty>
-0

> <b_epik_Metal_Only>
0

> <s_lp_Force_Field>
OPLS_2005

> <r_lp_Energy>
2.72974

> <b_lp_Chiralities_Consistent>
1

> <s_lp_Variant>
AV-unprocessed.smi:2185-1

> <Gold.Version>
5.8.1

> <Gold.Id.Protein>
6NUR|6NUR_protein|mol2

> <Gold.PLP.Fitness>
41.9567

> <Gold.PLP.PLP>
-39.2777

> <Gold.PLP.part.hbond>
-1.0000

> <Gold.PLP.part.metal>
0.0000

> <Gold.PLP.part.buried>
-5.1578

> <Gold.PLP.part.nonpolar>
-33.4647

> <Gold.PLP.part.repulsive>
0.3761

> <Gold.PLP.ligand.clash>
0.0000

> <Gold.PLP.ligand.torsion>
1.1864

> <Gold.PLP.Chemscore.Hbond>
1.0000

> <Gold.PLP.Chemscore.CHOScore>
0.0000

> <Gold.PLP.Chemscore.Metal>
0.0000

> <Gold.Chemscore.Hbonds>
donor molecule, donor type, donor heavy atom, donor atom, acceptor molecule, acceptor atom, score
      P1  H 10752 10764       L1     4  0.31

> <Gold.PLP.Chemscore.Internal.Correction>
2.0518

> <Gold.Rescore>
     Score         DG    S(hbond)    S(metal)    S(lipo)     H(rot)  DE(clash)    DE(int)     intcor
     13.15     -17.28       0.99        0.00      94.54       1.00       0.95       3.19       ----

> <Gold.Chemscore.Fitness>
13.1455

> <Gold.Chemscore.DG>
-17.2818

> <Gold.Chemscore.ZeroCoef>
-5.4800

> <Gold.Chemscore.Hbond>
0.9882

> <Gold.Chemscore.Metal>
0.0000

> <Gold.Chemscore.Lipo>
94.5390

> <Gold.Chemscore.Internal_Hbond>
0.0000

> <Gold.Chemscore.DEClash>
0.9502

> <Gold.Chemscore.DEInternal>
3.1861

> <Gold.Chemscore.Rot>
1.0000

> <Gold.Chemscore.Internal.Correction>
   9.000000E+99

> <Gold.Chemscore.Hbonds>
donor molecule, donor type, donor heavy atom, donor atom, acceptor molecule, acceptor atom, score
      P1  H 10752 10764       L1     4  0.30

> <Gold.Chemscore.Hbond.Weighted>
-3.3007

> <Gold.Chemscore.Metal.Weighted>
-0.0000

> <Gold.Chemscore.Lipo.Weighted>
-11.0611

> <Gold.Chemscore.Internal_Hbond.Weighted>
0.0000

> <Gold.Chemscore.DEClash.Weighted>
0.9502

> <Gold.Chemscore.DEInternal.Weighted>
3.1861

> <Gold.Chemscore.Rot.Weighted>
2.5600

> <Gold.Chemscore.Internal.Correction.Weighted>
   9.000000E+99

> <Gold.Protein.RotatedTorsions>
[ 6907 6896 6895 6894 ] final   43.55 input  -60.11 | X-H torsion
[ 7974 7965 7964 7962 ] final  178.09 input  175.53 | X-H torsion
[ 8008 7997 7996 7995 ] final    1.67 input   59.86 | X-H torsion
[ 10167 10162 10161 10158 ] final -163.14 input  -65.29 | X-H torsion
[ 10718 10713 10712 10709 ] final -177.86 input   66.30 | X-H torsion
[ 10763 10752 10751 10750 ] final  -15.82 input  -60.55 | X-H torsion
[ 11005 11000 10999 10996 ] final -100.16 input  -57.11 | X-H torsion

> <Gold.Protein.ActiveResidues>
 VAL166  LYS551  ARG553  GLY616  TRP617  ASP618  TYR619  PRO620  LYS621  CYS622 
 ASP623  PHE694  ASN695  SER759  ASP760  ASP761  ALA762  ILE779  LEU786  VAL792 
 PHE793  MET794  SER795  GLU796  ALA797  LYS798  CYS799  TRP800  GLU811  SER814 

> <Gold.Protein.RotatedAtoms>
  152.2216  134.8407  160.0484 H   0  0  0  0  0  0  0  0  0  0  0  0  # atno 6907 bound_to 6896
  151.9189  133.3575  159.3898 H   0  0  0  0  0  0  0  0  0  0  0  0  # atno 6908 bound_to 6896
  150.7001  134.4581  159.5411 H   0  0  0  0  0  0  0  0  0  0  0  0  # atno 6909 bound_to 6896
  144.7160  140.0345  143.6438 H   0  0  0  0  0  0  0  0  0  0  0  0  # atno 7974 bound_to 7965
  154.6824  140.2635  155.6894 H   0  0  0  0  0  0  0  0  0  0  0  0  # atno 8008 bound_to 7997
  156.2702  140.2807  156.1296 H   0  0  0  0  0  0  0  0  0  0  0  0  # atno 8009 bound_to 7997
  155.1012  140.0374  157.2687 H   0  0  0  0  0  0  0  0  0  0  0  0  # atno 8010 bound_to 7997
  139.6342  144.0382  152.2041 H   0  0  0  0  0  0  0  0  0  0  0  0  # atno 10167 bound_to 10162
  156.8357  130.9669  151.3103 H   0  0  0  0  0  0  0  0  0  0  0  0  # atno 10718 bound_to 10713
  153.5492  135.7012  153.5599 H   0  0  0  0  0  0  0  0  0  0  0  0  # atno 10763 bound_to 10752
  153.3531  135.3990  155.1661 H   0  0  0  0  0  0  0  0  0  0  0  0  # atno 10764 bound_to 10752
  154.8663  135.3770  154.5002 H   0  0  0  0  0  0  0  0  0  0  0  0  # atno 10765 bound_to 10752
  141.1281  133.8377  157.1066 H   0  0  0  0  0  0  0  0  0  0  0  0  # atno 11005 bound_to 11000
  146.0075  139.3142  143.0890 LP  0  0  0  0  0  0  0  0  0  0  0  0  # atno 17320 bound_to 7965
  145.8721  140.9414  143.0645 LP  0  0  0  0  0  0  0  0  0  0  0  0  # atno 17321 bound_to 7965
  140.0055  144.6262  150.7693 LP  0  0  0  0  0  0  0  0  0  0  0  0  # atno 17342 bound_to 10162
  140.7456  143.2878  151.3415 LP  0  0  0  0  0  0  0  0  0  0  0  0  # atno 17343 bound_to 10162
  157.6383  130.8784  149.9400 LP  0  0  0  0  0  0  0  0  0  0  0  0  # atno 17370 bound_to 10713
  156.0909  130.3663  150.0397 LP  0  0  0  0  0  0  0  0  0  0  0  0  # atno 17371 bound_to 10713
  140.0301  134.9905  157.0763 LP  0  0  0  0  0  0  0  0  0  0  0  0  # atno 17394 bound_to 11000
  140.4299  134.1791  155.7167 LP  0  0  0  0  0  0  0  0  0  0  0  0  # atno 17395 bound_to 11000

$$$$
