AV-unprocessed.smi:2091|AV-procd|sdf|8539|dock2
  -GOLD-   2272011263D 1   1.00000     0.00000
 Structure written by MMmdl.
 36 37  0  0  0  0  0  0  0  0  1 V2000
  147.9546  131.8414  153.5032 O   0  0  0  0  0  0  0  0  0  0  0  0
  148.3805  132.9689  153.2489 C   0  0  0  0  0  0  0  0  0  0  0  0
  149.7504  133.4243  153.7702 C   0  0  0  0  0  0  0  0  0  0  0  0
  149.6752  134.0429  155.1016 N   0  0  0  0  0  0  0  0  0  0  0  0
  149.0006  133.4065  156.1337 C   0  0  0  0  0  0  0  0  0  0  0  0
  148.9037  133.9142  157.3852 C   0  0  0  0  0  0  0  0  0  0  0  0
  149.5243  135.1930  157.7139 C   0  0  0  0  0  0  0  0  0  0  0  0
  149.4903  135.7351  158.8162 O   0  0  0  0  0  0  0  0  0  0  0  0
  150.1956  135.8008  156.6498 N   0  0  0  0  0  0  0  0  0  0  0  0
  150.3008  135.2825  155.3583 C   0  0  0  0  0  0  0  0  0  0  0  0
  150.9205  135.8996  154.4928 O   0  0  0  0  0  0  0  0  0  0  0  0
  147.6913  133.8697  152.5303 N   0  0  0  0  0  0  0  0  0  0  0  0
  146.3823  133.6427  151.9138 C   0  0  1  0  0  0  0  0  0  0  0  0
  146.5232  132.4478  150.9432 C   0  0  0  0  0  0  0  0  0  0  0  0
  145.4444  132.4084  149.8464 C   0  0  0  0  0  0  0  0  0  0  0  0
  144.0104  132.1881  150.3520 C   0  0  0  0  0  0  0  0  0  0  0  0
  143.4998  133.3100  151.2723 C   0  0  0  0  0  0  0  0  0  0  0  0
  144.0365  133.1974  152.6222 N   0  0  0  0  0  0  0  0  0  0  0  0
  145.3228  133.3027  152.9888 C   0  0  0  0  0  0  0  0  0  0  0  0
  145.6508  133.1254  154.1619 O   0  0  0  0  0  0  0  0  0  0  0  0
  150.6443  136.6869  156.8304 H   0  0  0  0  0  0  0  0  0  0  0  0
  150.4429  132.5799  153.7894 H   0  0  0  0  0  0  0  0  0  0  0  0
  150.1710  134.1251  153.0479 H   0  0  0  0  0  0  0  0  0  0  0  0
  148.5292  132.4540  155.9374 H   0  0  0  0  0  0  0  0  0  0  0  0
  148.3651  133.3706  158.1478 H   0  0  0  0  0  0  0  0  0  0  0  0
  148.1182  134.7700  152.3683 H   0  0  0  0  0  0  0  0  0  0  0  0
  146.0868  134.5393  151.3657 H   0  0  0  0  0  0  0  0  0  0  0  0
  147.4881  132.5129  150.4376 H   0  0  0  0  0  0  0  0  0  0  0  0
  146.5439  131.5016  151.4873 H   0  0  0  0  0  0  0  0  0  0  0  0
  145.4857  133.3309  149.2661 H   0  0  0  0  0  0  0  0  0  0  0  0
  145.6904  131.6085  149.1474 H   0  0  0  0  0  0  0  0  0  0  0  0
  143.3522  132.1273  149.4849 H   0  0  0  0  0  0  0  0  0  0  0  0
  143.9309  131.2229  150.8546 H   0  0  0  0  0  0  0  0  0  0  0  0
  143.7151  134.2944  150.8544 H   0  0  0  0  0  0  0  0  0  0  0  0
  142.4146  133.2421  151.3523 H   0  0  0  0  0  0  0  0  0  0  0  0
  143.3694  132.9851  153.3499 H   0  0  0  0  0  0  0  0  0  0  0  0
  1  2  2  0  0  0  0
  2  3  1  0  0  0  0
  2 12  1  0  0  0  0
  3  4  1  0  0  0  0
  3 22  1  0  0  0  0
  3 23  1  0  0  0  0
  4 10  1  0  0  0  0
  4  5  1  0  0  0  0
  5  6  2  0  0  0  0
  5 24  1  0  0  0  0
  6  7  1  0  0  0  0
  6 25  1  0  0  0  0
  7  8  2  0  0  0  0
  7  9  1  0  0  0  0
  9 21  1  0  0  0  0
  9 10  1  0  0  0  0
 10 11  2  0  0  0  0
 12 13  1  0  0  0  0
 12 26  1  0  0  0  0
 13 19  1  0  0  0  0
 13 14  1  0  0  0  0
 13 27  1  0  0  0  0
 14 15  1  0  0  0  0
 14 28  1  0  0  0  0
 14 29  1  0  0  0  0
 15 16  1  0  0  0  0
 15 30  1  0  0  0  0
 15 31  1  0  0  0  0
 16 17  1  0  0  0  0
 16 32  1  0  0  0  0
 16 33  1  0  0  0  0
 17 18  1  0  0  0  0
 17 34  1  0  0  0  0
 17 35  1  0  0  0  0
 18 19  1  0  0  0  0
 18 36  1  0  0  0  0
 19 20  2  0  0  0  0
M  END
> <s_m_source_file>
AV-unprocessed.smi

> <i_m_source_file_index>
2091

> <i_lp_mmshare_version>
43012

> <i_f3d_flags>
0

> <s_epik_input>
Tz1jMVtuSF1jKD1PKVtjSF1bY0hdbjFbQ0gyXUMoPU8pW05IXVtDQEBIXTJbQ0gyXVtDSDJdW0NIMl1bQ0gyXVtOSF1DMj1P

> <s_epik_cmdline>
J2VwaWtfcHl0aG9uJywgJy1waCcsICc3LjAnLCAnLXRuJywgJzgnLCAnLW1hJywgJzIwMCcsICctbWV0YWxfYmluZGluZycsICctaW1hZScsICc8aW5maWxlLm1hZT4nLCAnLW9tYWUnLCAnPG91dGZpbGUubWFlPic=

> <r_lp_tautomer_probability>
0.999537

> <r_epik_Ionization_Penalty>
0.00356328

> <r_epik_Ionization_Penalty_Charging>
0.00356323

> <r_epik_Ionization_Penalty_Neutral>
5.33217e-08

> <r_epik_State_Penalty>
0.00253125

> <r_epik_Charging_Adjusted_Penalty>
0.00609448

> <i_epik_Tot_Q>
0

> <i_epik_Tot_abs_Q>
0

> <r_epik_Metal_State_Penalty>
0.368636

> <b_epik_Metal_Only>
0

> <s_lp_Force_Field>
OPLS_2005

> <r_lp_Energy>
10.1396

> <b_lp_Chiralities_Consistent>
1

> <s_lp_Variant>
AV-unprocessed.smi:2091-2

> <Gold.Version>
5.8.1

> <Gold.Id.Protein>
6NUR|6NUR_protein|mol2

> <Gold.PLP.Fitness>
37.6598

> <Gold.PLP.PLP>
-26.8184

> <Gold.PLP.part.hbond>
-4.0000

> <Gold.PLP.part.metal>
0.0000

> <Gold.PLP.part.buried>
-2.0091

> <Gold.PLP.part.nonpolar>
-21.4207

> <Gold.PLP.part.repulsive>
1.2687

> <Gold.PLP.ligand.clash>
0.0000

> <Gold.PLP.ligand.torsion>
0.4801

> <Gold.PLP.Chemscore.Hbond>
3.9333

> <Gold.PLP.Chemscore.CHOScore>
0.0000

> <Gold.PLP.Chemscore.Metal>
0.0000

> <Gold.Chemscore.Hbonds>
donor molecule, donor type, donor heavy atom, donor atom, acceptor molecule, acceptor atom, score
      L1  H    12    26       P1  7948  1.00
      L1  H    18    36       P1 10957  1.00
      P1  H  6896  6909       L1     8  1.00
      P1  H 10752 10763       L1    11  1.00

> <Gold.PLP.Chemscore.Internal.Correction>
0.0018

> <Gold.Rescore>
     Score         DG    S(hbond)    S(metal)    S(lipo)     H(rot)  DE(clash)    DE(int)     intcor
     11.42     -17.00       3.04        0.00      52.85       1.88       1.32       4.26       ----

> <Gold.Chemscore.Fitness>
11.4155

> <Gold.Chemscore.DG>
-16.9990

> <Gold.Chemscore.ZeroCoef>
-5.4800

> <Gold.Chemscore.Hbond>
3.0417

> <Gold.Chemscore.Metal>
0.0000

> <Gold.Chemscore.Lipo>
52.8532

> <Gold.Chemscore.Internal_Hbond>
0.0000

> <Gold.Chemscore.DEClash>
1.3200

> <Gold.Chemscore.DEInternal>
4.2635

> <Gold.Chemscore.Rot>
1.8844

> <Gold.Chemscore.Internal.Correction>
   9.000000E+99

> <Gold.Chemscore.Hbonds>
donor molecule, donor type, donor heavy atom, donor atom, acceptor molecule, acceptor atom, score
      L1  H    12    26       P1  7948  0.45
      L1  H    18    36       P1 10957  0.71
      P1  H  6896  6909       L1     8  0.26
      P1  H 10752 10763       L1    11  0.79

> <Gold.Chemscore.Hbond.Weighted>
-10.1593

> <Gold.Chemscore.Metal.Weighted>
-0.0000

> <Gold.Chemscore.Lipo.Weighted>
-6.1838

> <Gold.Chemscore.Internal_Hbond.Weighted>
0.0000

> <Gold.Chemscore.DEClash.Weighted>
1.3200

> <Gold.Chemscore.DEInternal.Weighted>
4.2635

> <Gold.Chemscore.Rot.Weighted>
4.8242

> <Gold.Chemscore.Internal.Correction.Weighted>
   9.000000E+99

> <Gold.Protein.RotatedTorsions>
[ 6907 6896 6895 6894 ] final   66.53 input  -60.11 | X-H torsion
[ 7974 7965 7964 7962 ] final  136.24 input  175.53 | X-H torsion
[ 8008 7997 7996 7995 ] final  -85.90 input   59.86 | X-H torsion
[ 10167 10162 10161 10158 ] final  150.89 input  -65.29 | X-H torsion
[ 10718 10713 10712 10709 ] final    0.62 input   66.30 | X-H torsion
[ 10763 10752 10751 10750 ] final   58.22 input  -60.55 | X-H torsion
[ 11005 11000 10999 10996 ] final  -23.72 input  -57.11 | X-H torsion

> <Gold.Protein.ActiveResidues>
 VAL166  LYS551  ARG553  GLY616  TRP617  ASP618  TYR619  PRO620  LYS621  CYS622 
 ASP623  PHE694  ASN695  SER759  ASP760  ASP761  ALA762  ILE779  LEU786  VAL792 
 PHE793  MET794  SER795  GLU796  ALA797  LYS798  CYS799  TRP800  GLU811  SER814 

> <Gold.Protein.RotatedAtoms>
  152.4488  134.5439  159.9846 H   0  0  0  0  0  0  0  0  0  0  0  0  # atno 6907 bound_to 6896
  151.5517  133.3411  159.2962 H   0  0  0  0  0  0  0  0  0  0  0  0  # atno 6908 bound_to 6896
  150.8411  134.7735  159.6996 H   0  0  0  0  0  0  0  0  0  0  0  0  # atno 6909 bound_to 6896
  144.9584  139.4738  143.5491 H   0  0  0  0  0  0  0  0  0  0  0  0  # atno 7974 bound_to 7965
  154.6458  140.0585  156.9899 H   0  0  0  0  0  0  0  0  0  0  0  0  # atno 8008 bound_to 7997
  155.1446  140.3268  155.4426 H   0  0  0  0  0  0  0  0  0  0  0  0  # atno 8009 bound_to 7997
  156.2553  140.1958  156.6561 H   0  0  0  0  0  0  0  0  0  0  0  0  # atno 8010 bound_to 7997
  139.4845  144.5486  151.7441 H   0  0  0  0  0  0  0  0  0  0  0  0  # atno 10167 bound_to 10162
  156.8361  130.5505  149.5682 H   0  0  0  0  0  0  0  0  0  0  0  0  # atno 10718 bound_to 10713
  152.9866  135.5614  154.5517 H   0  0  0  0  0  0  0  0  0  0  0  0  # atno 10763 bound_to 10752
  154.4953  135.2794  155.1466 H   0  0  0  0  0  0  0  0  0  0  0  0  # atno 10764 bound_to 10752
  154.2919  135.6324  153.5442 H   0  0  0  0  0  0  0  0  0  0  0  0  # atno 10765 bound_to 10752
  140.8778  133.7675  156.0265 H   0  0  0  0  0  0  0  0  0  0  0  0  # atno 11005 bound_to 11000
  146.3345  139.8718  142.8839 LP  0  0  0  0  0  0  0  0  0  0  0  0  # atno 17320 bound_to 7965
  145.2737  141.0117  143.3757 LP  0  0  0  0  0  0  0  0  0  0  0  0  # atno 17321 bound_to 7965
  140.5036  144.1132  150.5977 LP  0  0  0  0  0  0  0  0  0  0  0  0  # atno 17342 bound_to 10162
  140.4033  143.2693  151.9921 LP  0  0  0  0  0  0  0  0  0  0  0  0  # atno 17343 bound_to 10162
  156.0907  130.5893  150.9727 LP  0  0  0  0  0  0  0  0  0  0  0  0  # atno 17370 bound_to 10713
  157.6381  131.0913  150.8308 LP  0  0  0  0  0  0  0  0  0  0  0  0  # atno 17371 bound_to 10713
  140.8497  134.2969  157.5280 LP  0  0  0  0  0  0  0  0  0  0  0  0  # atno 17394 bound_to 11000
  139.8717  134.9461  156.3928 LP  0  0  0  0  0  0  0  0  0  0  0  0  # atno 17395 bound_to 11000

$$$$
