AV-unprocessed.smi:1080|AV-procd|sdf|4709|dock5
  -GOLD-   22720 3233D 1   1.00000     0.00000
 Structure written by MMmdl.
 49 51  0  0  0  0  0  0  0  0  2 V2000
  146.2091  131.6025  153.8062 O   0  0  0  0  0  0  0  0  0  0  0  0
  147.0102  131.3770  152.8994 C   0  0  0  0  0  0  0  0  0  0  0  0
  146.7713  131.5722  151.5907 N   0  0  0  0  0  0  0  0  0  0  0  0
  145.5763  132.0295  150.9715 C   0  0  0  0  0  0  0  0  0  0  0  0
  144.4841  132.3498  151.8085 C   0  0  0  0  0  0  0  0  0  0  0  0
  143.2854  132.8228  151.2367 C   0  0  0  0  0  0  0  0  0  0  0  0
  143.1933  132.9771  149.8985 N   0  3  0  0  0  0  0  0  0  0  0  0
  144.2144  132.6995  149.0596 C   0  0  0  0  0  0  0  0  0  0  0  0
  145.4377  132.2225  149.5734 C   0  0  0  0  0  0  0  0  0  0  0  0
  148.2553  130.9216  153.1005 N   0  0  0  0  0  0  0  0  0  0  0  0
  148.8628  130.6261  154.3958 C   0  0  2  0  0  0  0  0  0  0  0  0
  150.0478  131.5768  154.6411 C   0  0  0  0  0  0  0  0  0  0  0  0
  150.8151  131.2255  155.9328 C   0  0  0  0  0  0  0  0  0  0  0  0
  151.2314  129.7358  156.0466 C   0  0  2  0  0  0  0  0  0  0  0  0
  152.4604  129.3598  155.1808 C   0  0  0  0  0  0  0  0  0  0  0  0
  152.3619  128.4211  154.3898 O   0  0  0  0  0  0  0  0  0  0  0  0
  153.6062  130.0819  155.2815 N   0  0  0  0  0  0  0  0  0  0  0  0
  153.7940  131.1126  156.3110 C   0  0  0  0  0  0  0  0  0  0  0  0
  154.6471  130.5304  157.4507 C   0  0  0  0  0  0  0  0  0  0  0  0
  156.3039  130.0640  156.8567 S   0  0  0  0  0  0  0  0  0  0  0  0
  155.8418  129.0895  155.3903 C   0  0  0  0  0  0  0  0  0  0  0  0
  154.8390  129.8592  154.5150 C   0  0  0  0  0  0  0  0  0  0  0  0
  150.0190  128.8214  155.7567 C   0  0  0  0  0  0  0  0  0  0  0  0
  149.3197  129.1576  154.4288 C   0  0  0  0  0  0  0  0  0  0  0  0
  147.5565  131.4330  150.9714 H   0  0  0  0  0  0  0  0  0  0  0  0
  144.5579  132.2281  152.8798 H   0  0  0  0  0  0  0  0  0  0  0  0
  142.4047  133.0819  151.8061 H   0  0  0  0  0  0  0  0  0  0  0  0
  144.0262  132.8721  148.0100 H   0  0  0  0  0  0  0  0  0  0  0  0
  146.2484  132.0261  148.8885 H   0  0  0  0  0  0  0  0  0  0  0  0
  148.8394  130.7727  152.2906 H   0  0  0  0  0  0  0  0  0  0  0  0
  148.1380  130.7705  155.1991 H   0  0  0  0  0  0  0  0  0  0  0  0
  150.7213  131.5541  153.7850 H   0  0  0  0  0  0  0  0  0  0  0  0
  149.6875  132.6041  154.7052 H   0  0  0  0  0  0  0  0  0  0  0  0
  151.6904  131.8702  156.0240 H   0  0  0  0  0  0  0  0  0  0  0  0
  150.1817  131.4720  156.7858 H   0  0  0  0  0  0  0  0  0  0  0  0
  151.5172  129.6103  157.0899 H   0  0  0  0  0  0  0  0  0  0  0  0
  154.2837  131.9891  155.8845 H   0  0  0  0  0  0  0  0  0  0  0  0
  152.8475  131.4802  156.7094 H   0  0  0  0  0  0  0  0  0  0  0  0
  154.7556  131.2575  158.2556 H   0  0  0  0  0  0  0  0  0  0  0  0
  154.1616  129.6518  157.8773 H   0  0  0  0  0  0  0  0  0  0  0  0
  156.7447  128.8609  154.8240 H   0  0  0  0  0  0  0  0  0  0  0  0
  155.4165  128.1388  155.7134 H   0  0  0  0  0  0  0  0  0  0  0  0
  154.6697  129.3336  153.5770 H   0  0  0  0  0  0  0  0  0  0  0  0
  155.2687  130.8168  154.2173 H   0  0  0  0  0  0  0  0  0  0  0  0
  150.3217  127.7737  155.7480 H   0  0  0  0  0  0  0  0  0  0  0  0
  149.3006  128.9150  156.5720 H   0  0  0  0  0  0  0  0  0  0  0  0
  148.4600  128.4995  154.2955 H   0  0  0  0  0  0  0  0  0  0  0  0
  149.9931  128.9549  153.5948 H   0  0  0  0  0  0  0  0  0  0  0  0
  142.3172  133.3222  149.5050 H   0  0  0  0  0  0  0  0  0  0  0  0
  1  2  2  0  0  0  0
  2  3  1  0  0  0  0
  2 10  1  0  0  0  0
  3  4  1  0  0  0  0
  3 25  1  0  0  0  0
  4  9  1  0  0  0  0
  4  5  2  0  0  0  0
  5  6  1  0  0  0  0
  5 26  1  0  0  0  0
  6  7  2  0  0  0  0
  6 27  1  0  0  0  0
  7  8  1  0  0  0  0
  7 49  1  0  0  0  0
  8  9  2  0  0  0  0
  8 28  1  0  0  0  0
  9 29  1  0  0  0  0
 10 11  1  0  0  0  0
 10 30  1  0  0  0  0
 11 24  1  0  0  0  0
 11 12  1  0  0  0  0
 11 31  1  0  0  0  0
 12 13  1  0  0  0  0
 12 32  1  0  0  0  0
 12 33  1  0  0  0  0
 13 14  1  0  0  0  0
 13 34  1  0  0  0  0
 13 35  1  0  0  0  0
 14 15  1  0  0  0  0
 14 23  1  0  0  0  0
 14 36  1  0  0  0  0
 15 16  2  0  0  0  0
 15 17  1  0  0  0  0
 17 22  1  0  0  0  0
 17 18  1  0  0  0  0
 18 19  1  0  0  0  0
 18 37  1  0  0  0  0
 18 38  1  0  0  0  0
 19 20  1  0  0  0  0
 19 39  1  0  0  0  0
 19 40  1  0  0  0  0
 20 21  1  0  0  0  0
 21 22  1  0  0  0  0
 21 41  1  0  0  0  0
 21 42  1  0  0  0  0
 22 43  1  0  0  0  0
 22 44  1  0  0  0  0
 23 24  1  0  0  0  0
 23 45  1  0  0  0  0
 23 46  1  0  0  0  0
 24 47  1  0  0  0  0
 24 48  1  0  0  0  0
M  CHG  1   7   1
M  END
> <s_m_source_file>
AV-unprocessed.smi

> <i_m_source_file_index>
1080

> <i_lp_mmshare_version>
43012

> <i_f3d_flags>
0

> <s_epik_input>
W2NIXTFbY0hdbltjSF1bY0hdYzFbTkhdQyg9TylbTkhdW0NAQEhdMltDSDJdW0NIMl1bQ0BIXShbQ0gyXVtDSDJdMilDKD1PKU4zW0NIMl1bQ0gyXVNbQ0gyXVtDSDJdMw==

> <s_epik_cmdline>
J2VwaWtfcHl0aG9uJywgJy1waCcsICc3LjAnLCAnLXRuJywgJzgnLCAnLW1hJywgJzIwMCcsICctbWV0YWxfYmluZGluZycsICctaW1hZScsICc8aW5maWxlLm1hZT4nLCAnLW9tYWUnLCAnPG91dGZpbGUubWFlPic=

> <r_epik_Ionization_Penalty>
1.01281

> <r_epik_Ionization_Penalty_Charging>
1.01278

> <r_epik_Ionization_Penalty_Neutral>
2.07681e-05

> <r_epik_State_Penalty>
1.06237

> <r_epik_Charging_Adjusted_Penalty>
2.07515

> <i_epik_Tot_Q>
1

> <i_epik_Tot_abs_Q>
1

> <r_epik_Metal_State_Penalty>
1.16243

> <b_epik_Metal_Only>
0

> <s_lp_Force_Field>
OPLS_2005

> <r_lp_Energy>
37.4575

> <b_lp_Chiralities_Consistent>
1

> <s_lp_Variant>
AV-unprocessed.smi:1080-4

> <Gold.Version>
5.8.1

> <Gold.Id.Protein>
6NUR|6NUR_protein|mol2

> <Gold.PLP.Fitness>
48.9108

> <Gold.PLP.PLP>
-37.4056

> <Gold.PLP.part.hbond>
-3.0000

> <Gold.PLP.part.metal>
0.0000

> <Gold.PLP.part.buried>
-5.5926

> <Gold.PLP.part.nonpolar>
-30.8133

> <Gold.PLP.part.repulsive>
2.2245

> <Gold.PLP.ligand.clash>
0.2506

> <Gold.PLP.ligand.torsion>
0.0703

> <Gold.PLP.Chemscore.Hbond>
3.9440

> <Gold.PLP.Chemscore.CHOScore>
0.0000

> <Gold.PLP.Chemscore.Metal>
0.0000

> <Gold.Chemscore.Hbonds>
donor molecule, donor type, donor heavy atom, donor atom, acceptor molecule, acceptor atom, score
      L1  H     3    25       P1 10747  1.00
      L1  H     7    49       P1 10186  2.00
      L1  H    10    30       P1 10747  0.96

> <Gold.PLP.Chemscore.Internal.Correction>
0.0644

> <Gold.Rescore>
     Score         DG    S(hbond)    S(metal)    S(lipo)     H(rot)  DE(clash)    DE(int)     intcor
     18.15     -21.17       2.38        0.00      93.63       1.25       0.38       2.64       ----

> <Gold.Chemscore.Fitness>
18.1517

> <Gold.Chemscore.DG>
-21.1741

> <Gold.Chemscore.ZeroCoef>
-5.4800

> <Gold.Chemscore.Hbond>
2.3761

> <Gold.Chemscore.Metal>
0.0000

> <Gold.Chemscore.Lipo>
93.6260

> <Gold.Chemscore.Internal_Hbond>
0.0000

> <Gold.Chemscore.DEClash>
0.3808

> <Gold.Chemscore.DEInternal>
2.6416

> <Gold.Chemscore.Rot>
1.2486

> <Gold.Chemscore.Internal.Correction>
   9.000000E+99

> <Gold.Chemscore.Hbonds>
donor molecule, donor type, donor heavy atom, donor atom, acceptor molecule, acceptor atom, score
      L1  H     3    25       P1 10747  1.00
      L1  H     7    49       P1 10186  0.95
      L1  H    10    30       P1 10747  0.49

> <Gold.Chemscore.Hbond.Weighted>
-7.9362

> <Gold.Chemscore.Metal.Weighted>
-0.0000

> <Gold.Chemscore.Lipo.Weighted>
-10.9542

> <Gold.Chemscore.Internal_Hbond.Weighted>
0.0000

> <Gold.Chemscore.DEClash.Weighted>
0.3808

> <Gold.Chemscore.DEInternal.Weighted>
2.6416

> <Gold.Chemscore.Rot.Weighted>
3.1963

> <Gold.Chemscore.Internal.Correction.Weighted>
   9.000000E+99

> <Gold.Protein.RotatedTorsions>
[ 6907 6896 6895 6894 ] final  137.31 input  -60.11 | X-H torsion
[ 7974 7965 7964 7962 ] final   23.26 input  175.53 | X-H torsion
[ 8008 7997 7996 7995 ] final  140.52 input   59.86 | X-H torsion
[ 10167 10162 10161 10158 ] final  105.37 input  -65.29 | X-H torsion
[ 10718 10713 10712 10709 ] final  172.08 input   66.30 | X-H torsion
[ 10763 10752 10751 10750 ] final  135.07 input  -60.55 | X-H torsion
[ 11005 11000 10999 10996 ] final   66.19 input  -57.11 | X-H torsion

> <Gold.Protein.ActiveResidues>
 VAL166  LYS551  ARG553  GLY616  TRP617  ASP618  TYR619  PRO620  LYS621  CYS622 
 ASP623  PHE694  ASN695  SER759  ASP760  ASP761  ALA762  ILE779  LEU786  VAL792 
 PHE793  MET794  SER795  GLU796  ALA797  LYS798  CYS799  TRP800  GLU811  SER814 

> <Gold.Protein.RotatedAtoms>
  152.2796  133.5457  159.5488 H   0  0  0  0  0  0  0  0  0  0  0  0  # atno 6907 bound_to 6896
  150.7190  134.0583  159.3831 H   0  0  0  0  0  0  0  0  0  0  0  0  # atno 6908 bound_to 6896
  151.8495  135.0563  160.0508 H   0  0  0  0  0  0  0  0  0  0  0  0  # atno 6909 bound_to 6896
  146.1992  139.7770  142.8774 H   0  0  0  0  0  0  0  0  0  0  0  0  # atno 7974 bound_to 7965
  156.2978  140.2339  156.4415 H   0  0  0  0  0  0  0  0  0  0  0  0  # atno 8008 bound_to 7997
  154.8181  140.0439  157.1412 H   0  0  0  0  0  0  0  0  0  0  0  0  # atno 8009 bound_to 7997
  154.9346  140.3021  155.5154 H   0  0  0  0  0  0  0  0  0  0  0  0  # atno 8010 bound_to 7997
  139.7098  144.7079  151.1046 H   0  0  0  0  0  0  0  0  0  0  0  0  # atno 10167 bound_to 10162
  156.9842  131.0128  151.2873 H   0  0  0  0  0  0  0  0  0  0  0  0  # atno 10718 bound_to 10713
  153.8339  135.3100  155.3421 H   0  0  0  0  0  0  0  0  0  0  0  0  # atno 10763 bound_to 10752
  154.7961  135.4754  154.0168 H   0  0  0  0  0  0  0  0  0  0  0  0  # atno 10764 bound_to 10752
  153.1617  135.6862  153.8824 H   0  0  0  0  0  0  0  0  0  0  0  0  # atno 10765 bound_to 10752
  139.9847  134.6687  156.0198 H   0  0  0  0  0  0  0  0  0  0  0  0  # atno 11005 bound_to 11000
  145.3540  141.0313  143.3322 LP  0  0  0  0  0  0  0  0  0  0  0  0  # atno 17320 bound_to 7965
  144.8647  139.5126  143.6796 LP  0  0  0  0  0  0  0  0  0  0  0  0  # atno 17321 bound_to 7965
  140.7730  143.5308  150.9425 LP  0  0  0  0  0  0  0  0  0  0  0  0  # atno 17342 bound_to 10162
  139.8993  143.6856  152.3134 LP  0  0  0  0  0  0  0  0  0  0  0  0  # atno 17343 bound_to 10162
  157.5504  130.8179  149.8138 LP  0  0  0  0  0  0  0  0  0  0  0  0  # atno 17370 bound_to 10713
  156.0232  130.3788  150.1899 LP  0  0  0  0  0  0  0  0  0  0  0  0  # atno 17371 bound_to 10713
  141.1514  133.6548  156.4025 LP  0  0  0  0  0  0  0  0  0  0  0  0  # atno 17394 bound_to 11000
  140.5026  134.6471  157.5254 LP  0  0  0  0  0  0  0  0  0  0  0  0  # atno 17395 bound_to 11000

$$$$
