AV-unprocessed.smi:3275|AV-procd|sdf|12530|dock4
  -GOLD-   2272018443D 1   1.00000     0.00000
 Structure written by MMmdl.
 35 36  0  0  0  0  0  0  0  0  2 V2000
  150.4575  145.6734  160.3923 O   0  0  0  0  0  0  0  0  0  0  0  0
  151.6288  145.3700  159.6656 C   0  0  0  0  0  0  0  0  0  0  0  0
  151.3266  144.2891  158.6230 C   0  0  0  0  0  0  0  0  0  0  0  0
  150.8787  143.1233  159.3039 O   0  0  0  0  0  0  0  0  0  0  0  0
  150.6909  141.9395  158.5290 C   0  0  2  0  0  0  0  0  0  0  0  0
  152.0056  141.3702  157.9569 C   0  0  0  0  0  0  0  0  0  0  0  0
  151.7234  140.0558  157.2107 C   0  0  0  0  0  0  0  0  0  0  0  0
  150.6370  140.2517  156.1380 C   0  0  0  0  0  0  0  0  0  0  0  0
  149.4299  140.8326  156.7204 N   0  0  0  0  0  0  0  0  0  0  0  0
  148.3349  140.8313  155.8436 C   0  0  0  0  0  0  0  0  0  0  0  0
  148.3595  141.5749  154.6388 C   0  0  0  0  0  0  0  0  0  0  0  0
  147.2384  141.5487  153.7849 C   0  0  0  0  0  0  0  0  0  0  0  0
  146.1552  140.8155  154.1197 N   0  3  0  0  0  0  0  0  0  0  0  0
  146.0880  140.0883  155.2557 C   0  0  0  0  0  0  0  0  0  0  0  0
  147.1776  140.0750  156.1507 C   0  0  0  0  0  0  0  0  0  0  0  0
  147.0726  139.1411  157.6017 Cl  0  0  0  0  0  0  0  0  0  0  0  0
  149.6311  142.0999  157.4184 C   0  0  0  0  0  0  0  0  0  0  0  0
  150.0394  144.8630  160.6406 H   0  0  0  0  0  0  0  0  0  0  0  0
  151.9967  146.2762  159.1838 H   0  0  0  0  0  0  0  0  0  0  0  0
  152.3995  145.0298  160.3578 H   0  0  0  0  0  0  0  0  0  0  0  0
  150.5626  144.6543  157.9370 H   0  0  0  0  0  0  0  0  0  0  0  0
  152.2261  144.0830  158.0436 H   0  0  0  0  0  0  0  0  0  0  0  0
  150.3049  141.2061  159.2387 H   0  0  0  0  0  0  0  0  0  0  0  0
  152.4639  142.0743  157.2629 H   0  0  0  0  0  0  0  0  0  0  0  0
  152.7255  141.2010  158.7582 H   0  0  0  0  0  0  0  0  0  0  0  0
  152.6386  139.6817  156.7515 H   0  0  0  0  0  0  0  0  0  0  0  0
  151.4002  139.2947  157.9221 H   0  0  0  0  0  0  0  0  0  0  0  0
  151.0100  140.9053  155.3481 H   0  0  0  0  0  0  0  0  0  0  0  0
  150.4000  139.2931  155.6742 H   0  0  0  0  0  0  0  0  0  0  0  0
  149.2271  142.1585  154.3670 H   0  0  0  0  0  0  0  0  0  0  0  0
  147.1768  142.0875  152.8506 H   0  0  0  0  0  0  0  0  0  0  0  0
  145.1696  139.5424  155.4149 H   0  0  0  0  0  0  0  0  0  0  0  0
  148.6872  142.4354  157.8502 H   0  0  0  0  0  0  0  0  0  0  0  0
  149.9444  142.8534  156.6961 H   0  0  0  0  0  0  0  0  0  0  0  0
  145.3539  140.8102  153.4879 H   0  0  0  0  0  0  0  0  0  0  0  0
  1  2  1  0  0  0  0
  1 18  1  0  0  0  0
  2  3  1  0  0  0  0
  2 19  1  0  0  0  0
  2 20  1  0  0  0  0
  3  4  1  0  0  0  0
  3 21  1  0  0  0  0
  3 22  1  0  0  0  0
  4  5  1  0  0  0  0
  5 17  1  0  0  0  0
  5  6  1  0  0  0  0
  5 23  1  0  0  0  0
  6  7  1  0  0  0  0
  6 24  1  0  0  0  0
  6 25  1  0  0  0  0
  7  8  1  0  0  0  0
  7 26  1  0  0  0  0
  7 27  1  0  0  0  0
  8  9  1  0  0  0  0
  8 28  1  0  0  0  0
  8 29  1  0  0  0  0
  9 10  1  0  0  0  0
  9 17  1  0  0  0  0
 10 15  1  0  0  0  0
 10 11  2  0  0  0  0
 11 12  1  0  0  0  0
 11 30  1  0  0  0  0
 12 13  2  0  0  0  0
 12 31  1  0  0  0  0
 13 14  1  0  0  0  0
 13 35  1  0  0  0  0
 14 15  2  0  0  0  0
 14 32  1  0  0  0  0
 15 16  1  0  0  0  0
 17 33  1  0  0  0  0
 17 34  1  0  0  0  0
M  CHG  1  13   1
M  END
> <s_m_source_file>
AV-unprocessed.smi

> <i_m_source_file_index>
3275

> <i_lp_mmshare_version>
43012

> <i_f3d_flags>
0

> <s_epik_input>
W09IXVtDSDJdW0NIMl1PW0NAQEhdMVtDSDJdW0NIMl1bQ0gyXU4oW0NIMl0xKWMyW2NIXVtjSF1uW2NIXWMyQ2w=

> <s_epik_cmdline>
J2VwaWtfcHl0aG9uJywgJy1waCcsICc3LjAnLCAnLXRuJywgJzgnLCAnLW1hJywgJzIwMCcsICctbWV0YWxfYmluZGluZycsICctaW1hZScsICc8aW5maWxlLm1hZT4nLCAnLW9tYWUnLCAnPG91dGZpbGUubWFlPic=

> <r_lp_tautomer_probability>
1

> <r_epik_Ionization_Penalty>
0.0778579

> <r_epik_Ionization_Penalty_Charging>
0.0778578

> <r_epik_Ionization_Penalty_Neutral>
8.80348e-08

> <r_epik_State_Penalty>
0.0687871

> <r_epik_Charging_Adjusted_Penalty>
0.146645

> <i_epik_Tot_Q>
1

> <i_epik_Tot_abs_Q>
1

> <r_epik_Metal_State_Penalty>
2.85646

> <b_epik_Metal_Only>
0

> <s_lp_Force_Field>
OPLS_2005

> <r_lp_Energy>
28.015

> <b_lp_Chiralities_Consistent>
1

> <s_lp_Variant>
AV-unprocessed.smi:3275-1

> <Gold.Version>
5.8.1

> <Gold.Id.Protein>
6NUR|6NUR_protein|mol2

> <Gold.PLP.Fitness>
34.8065

> <Gold.PLP.PLP>
-28.8604

> <Gold.PLP.part.hbond>
-3.0000

> <Gold.PLP.part.metal>
0.0000

> <Gold.PLP.part.buried>
-4.8749

> <Gold.PLP.part.nonpolar>
-21.4753

> <Gold.PLP.part.repulsive>
0.0925

> <Gold.PLP.ligand.clash>
0.0000

> <Gold.PLP.ligand.torsion>
0.1369

> <Gold.PLP.Chemscore.Hbond>
2.0000

> <Gold.PLP.Chemscore.CHOScore>
0.0000

> <Gold.PLP.Chemscore.Metal>
0.0000

> <Gold.Chemscore.Hbonds>
donor molecule, donor type, donor heavy atom, donor atom, acceptor molecule, acceptor atom, score
      L1  H    13    35       P1 10175  2.00

> <Gold.PLP.Chemscore.Internal.Correction>
0.2199

> <Gold.Rescore>
     Score         DG    S(hbond)    S(metal)    S(lipo)     H(rot)  DE(clash)    DE(int)     intcor
     11.80     -12.06       0.97        0.00      75.45       2.14       0.11       0.15       ----

> <Gold.Chemscore.Fitness>
11.7977

> <Gold.Chemscore.DG>
-12.0596

> <Gold.Chemscore.ZeroCoef>
-5.4800

> <Gold.Chemscore.Hbond>
0.9670

> <Gold.Chemscore.Metal>
0.0000

> <Gold.Chemscore.Lipo>
75.4543

> <Gold.Chemscore.Internal_Hbond>
0.0000

> <Gold.Chemscore.DEClash>
0.1107

> <Gold.Chemscore.DEInternal>
0.1513

> <Gold.Chemscore.Rot>
2.1400

> <Gold.Chemscore.Internal.Correction>
   9.000000E+99

> <Gold.Chemscore.Hbonds>
donor molecule, donor type, donor heavy atom, donor atom, acceptor molecule, acceptor atom, score
      L1  H    13    35       P1 10175  0.80

> <Gold.Chemscore.Hbond.Weighted>
-3.2298

> <Gold.Chemscore.Metal.Weighted>
-0.0000

> <Gold.Chemscore.Lipo.Weighted>
-8.8282

> <Gold.Chemscore.Internal_Hbond.Weighted>
0.0000

> <Gold.Chemscore.DEClash.Weighted>
0.1107

> <Gold.Chemscore.DEInternal.Weighted>
0.1513

> <Gold.Chemscore.Rot.Weighted>
5.4783

> <Gold.Chemscore.Internal.Correction.Weighted>
   9.000000E+99

> <Gold.Protein.RotatedTorsions>
[ 6907 6896 6895 6894 ] final  165.64 input  -60.11 | X-H torsion
[ 7974 7965 7964 7962 ] final   90.83 input  175.53 | X-H torsion
[ 8008 7997 7996 7995 ] final  -96.60 input   59.86 | X-H torsion
[ 10167 10162 10161 10158 ] final  -57.17 input  -65.29 | X-H torsion
[ 10718 10713 10712 10709 ] final  -34.19 input   66.30 | X-H torsion
[ 10763 10752 10751 10750 ] final  -47.14 input  -60.55 | X-H torsion
[ 11005 11000 10999 10996 ] final   52.16 input  -57.11 | X-H torsion

> <Gold.Protein.ActiveResidues>
 VAL166  LYS551  ARG553  GLY616  TRP617  ASP618  TYR619  PRO620  LYS621  CYS622 
 ASP623  PHE694  ASN695  SER759  ASP760  ASP761  ALA762  ILE779  LEU786  VAL792 
 PHE793  MET794  SER795  GLU796  ALA797  LYS798  CYS799  TRP800  GLU811  SER814 

> <Gold.Protein.RotatedAtoms>
  151.8912  133.3516  159.3798 H   0  0  0  0  0  0  0  0  0  0  0  0  # atno 6907 bound_to 6896
  150.7103  134.4921  159.5530 H   0  0  0  0  0  0  0  0  0  0  0  0  # atno 6908 bound_to 6896
  152.2492  134.8150  160.0499 H   0  0  0  0  0  0  0  0  0  0  0  0  # atno 6909 bound_to 6896
  145.5137  139.2277  143.2710 H   0  0  0  0  0  0  0  0  0  0  0  0  # atno 7974 bound_to 7965
  154.7767  140.0470  157.1094 H   0  0  0  0  0  0  0  0  0  0  0  0  # atno 8008 bound_to 7997
  154.9755  140.3095  155.4950 H   0  0  0  0  0  0  0  0  0  0  0  0  # atno 8009 bound_to 7997
  156.2930  140.2245  156.4850 H   0  0  0  0  0  0  0  0  0  0  0  0  # atno 8010 bound_to 7997
  140.6274  143.2444  151.5328 H   0  0  0  0  0  0  0  0  0  0  0  0  # atno 10167 bound_to 10162
  156.3536  130.4312  149.7683 H   0  0  0  0  0  0  0  0  0  0  0  0  # atno 10718 bound_to 10713
  154.0566  135.6624  153.4806 H   0  0  0  0  0  0  0  0  0  0  0  0  # atno 10763 bound_to 10752
  153.0443  135.5125  154.7700 H   0  0  0  0  0  0  0  0  0  0  0  0  # atno 10764 bound_to 10752
  154.6723  135.3031  154.9692 H   0  0  0  0  0  0  0  0  0  0  0  0  # atno 10765 bound_to 10752
  140.0873  134.5257  155.8887 H   0  0  0  0  0  0  0  0  0  0  0  0  # atno 11005 bound_to 11000
  146.2150  140.5946  142.9042 LP  0  0  0  0  0  0  0  0  0  0  0  0  # atno 17320 bound_to 7965
  144.7713  140.5644  143.6668 LP  0  0  0  0  0  0  0  0  0  0  0  0  # atno 17321 bound_to 7965
  139.5492  144.2439  152.1500 LP  0  0  0  0  0  0  0  0  0  0  0  0  # atno 17342 bound_to 10162
  140.1674  144.4968  150.6598 LP  0  0  0  0  0  0  0  0  0  0  0  0  # atno 17343 bound_to 10162
  156.4874  130.8069  151.3081 LP  0  0  0  0  0  0  0  0  0  0  0  0  # atno 17370 bound_to 10713
  157.7464  130.9986  150.2859 LP  0  0  0  0  0  0  0  0  0  0  0  0  # atno 17371 bound_to 10713
  141.2066  133.6657  156.6255 LP  0  0  0  0  0  0  0  0  0  0  0  0  # atno 17394 bound_to 11000
  140.3403  134.7855  157.4392 LP  0  0  0  0  0  0  0  0  0  0  0  0  # atno 17395 bound_to 11000

$$$$
