#       Name:                AV-unprocessed.smi:1717
#       Creating user name   scv26
#       Creation time:       Fri Mar 27 08:12:12 2020


#       File generated by GOLD software.
#

@<TRIPOS>MOLECULE
AV-unprocessed.smi:1717
    46    47     1
SMALL
NO_CHARGES


@<TRIPOS>ATOM
      1 ****        -4.3136   3.8240   2.1015 C.3            1 S1                 0.0000
      2 ****        -3.9450   2.4257   1.9458 N.am           1 S1                 0.0000
      3 ****        -4.3661   1.6403   0.9439 C.2            1 S1                 0.0000
      4 ****        -5.1201   2.0265   0.0511 O.2            1 S1                 0.0000
      5 ****        -3.8643   0.1918   0.9526 C.3            1 S1                 0.0000
      6 ****        -2.3924   0.0465   0.8699 N.3            1 S1                 0.0000
      7 ****        -1.8428   0.5914  -0.3807 C.3            1 S1                 0.0000
      8 ****        -0.3074   0.4862  -0.3881 C.3            1 S1                 0.0000
      9 ****         0.1543  -0.9686  -0.2021 C.3            1 S1                 0.0000
     10 ****         1.6068  -1.0437  -0.0744 N.am           1 S1                 0.0000
     11 ****         2.4727  -1.0465  -1.0979 C.2            1 S1                 0.0000
     12 ****         2.1315  -0.9796  -2.2792 O.2            1 S1                 0.0000
     13 ****         3.7409  -1.1302  -0.6638 N.am           1 S1                 0.0000
     14 ****         4.9192  -1.1700  -1.4514 C.2            1 S1                 0.0000
     15 ****         6.2371  -1.2811  -0.9314 C.2            1 S1                 0.0000
     16 ****         7.1404  -1.2965  -1.9011 N.2            1 S1                 0.0000
     17 ****         6.4115  -1.1953  -3.0353 N.pl3          1 S1                 0.0000
     18 ****         5.0549  -1.1154  -2.8102 C.2            1 S1                 0.0000
     19 ****        -0.5118  -1.5456   1.0546 C.3            1 S1                 0.0000
     20 ****        -2.0396  -1.3709   1.0019 C.3            1 S1                 0.0000
     21 ****         6.8492  -1.1834  -3.9457 H              1 S1                 0.0000
     22 ****        -3.8898   4.2196   3.0244 H              1 S1                 0.0000
     23 ****        -5.3974   3.9395   2.1472 H              1 S1                 0.0000
     24 ****        -3.9341   4.4183   1.2695 H              1 S1                 0.0000
     25 ****        -3.3233   2.0295   2.6362 H              1 S1                 0.0000
     26 ****        -4.2242  -0.2681   1.8743 H              1 S1                 0.0000
     27 ****        -4.3348  -0.3527   0.1317 H              1 S1                 0.0000
     28 ****        -2.2624   0.0622  -1.2380 H              1 S1                 0.0000
     29 ****        -2.1082   1.6419  -0.4992 H              1 S1                 0.0000
     30 ****         0.0813   0.8868  -1.3251 H              1 S1                 0.0000
     31 ****         0.1010   1.1116   0.4074 H              1 S1                 0.0000
     32 ****        -0.1645  -1.5594  -1.0631 H              1 S1                 0.0000
     33 ****         1.9779  -1.0996   0.8627 H              1 S1                 0.0000
     34 ****         3.8785  -1.1777   0.3352 H              1 S1                 0.0000
     35 ****         6.5616  -1.3515   0.0964 H              1 S1                 0.0000
     36 ****         4.3392  -1.0308  -3.6144 H              1 S1                 0.0000
     37 ****        -0.2658  -2.6033   1.1553 H              1 S1                 0.0000
     38 ****        -0.1221  -1.0507   1.9456 H              1 S1                 0.0000
     39 ****        -2.4704  -1.7754   1.9189 H              1 S1                 0.0000
     40 ****        -2.4584  -1.9466   0.1742 H              1 S1                 0.0000
     41 ****        -5.4506   2.9703   0.0492 LP             1 S1                 0.0000
     42 ****        -5.4023   1.3965  -0.6724 LP             1 S1                 0.0000
     43 ****        -1.9898   0.5748   1.6175 LP             1 S1                 0.0000
     44 ****         1.1621  -0.9190  -2.5170 LP             1 S1                 0.0000
     45 ****         2.8239  -0.9858  -3.0007 LP             1 S1                 0.0000
     46 ****         8.1341  -1.3669  -1.8138 LP             1 S1                 0.0000
@<TRIPOS>BOND
    1    1    2 1     
    2    1   22 1     
    3    1   23 1     
    4    1   24 1     
    5    2    3 am    
    6    2   25 1     
    7    3    4 2     
    8    3    5 1     
    9    5    6 1     
   10    5   26 1     
   11    5   27 1     
   12    6   20 1     
   13    6    7 1     
   14    7    8 1     
   15    7   28 1     
   16    7   29 1     
   17    8    9 1     
   18    8   30 1     
   19    8   31 1     
   20    9   10 1     
   21    9   19 1     
   22    9   32 1     
   23   10   11 am    
   24   10   33 1     
   25   11   12 2     
   26   11   13 am    
   27   13   14 1     
   28   13   34 1     
   29   14   18 2     
   30   14   15 1     
   31   15   16 2     
   32   15   35 1     
   33   16   17 1     
   34   17   21 1     
   35   17   18 1     
   36   18   36 1     
   37   19   20 1     
   38   19   37 1     
   39   19   38 1     
   40   20   39 1     
   41   20   40 1     
   42    4   41 1     
   43    4   42 1     
   44    6   43 1     
   45   12   44 1     
   46   12   45 1     
   47   16   46 1     
@<TRIPOS>SUBSTRUCTURE
      1 S1             1
@<TRIPOS>SET
LONE_PAIRS      STATIC     ATOMS    <user>   **** ""
6 41 42 43 44 45 46
DONOR_HYDROGENS      STATIC     ATOMS    <user>   **** ""
4 25 33 34 21
ATOM$BLUE        STATIC     ATOMS    COLORGROUP SYSTEM
6 41 42 43 44 45 46
ATOM$RED        STATIC     ATOMS    COLORGROUP SYSTEM
4 25 33 34 21
