AV-unprocessed.smi:506|AV-procd|sdf|2750|dock1
  -GOLD-   2262023213D 1   1.00000     0.00000
 Structure written by MMmdl.
 40 42  0  0  0  0  0  0  0  0  1 V2000
  146.3774  142.8824  153.6713 C   0  0  0  0  0  0  0  0  0  0  0  0
  146.7142  141.5281  153.4085 O   0  0  0  0  0  0  0  0  0  0  0  0
  147.8715  141.0278  153.9655 C   0  0  0  0  0  0  0  0  0  0  0  0
  148.1642  139.6709  153.7259 C   0  0  0  0  0  0  0  0  0  0  0  0
  149.3258  139.0799  154.2572 C   0  0  0  0  0  0  0  0  0  0  0  0
  150.2219  139.8309  155.0423 C   0  0  0  0  0  0  0  0  0  0  0  0
  151.3328  139.1741  155.5240 O   0  0  0  0  0  0  0  0  0  0  0  0
  152.1530  139.8390  156.4756 C   0  0  0  0  0  0  0  0  0  0  0  0
  151.3919  139.9595  157.8035 C   0  0  0  0  0  0  0  0  0  0  0  0
  152.0193  140.9112  158.7095 N   0  0  0  0  0  0  0  0  0  0  0  0
  153.0146  140.6873  159.6039 C   0  0  0  0  0  0  0  0  0  0  0  0
  153.6334  139.3358  159.7891 C   0  0  0  0  0  0  0  0  0  0  0  0
  154.2396  138.8483  158.6113 O   0  0  0  0  0  0  0  0  0  0  0  0
  153.4083  141.7468  160.3115 N   0  0  0  0  0  0  0  0  0  0  0  0
  152.5950  142.7536  159.8289 C   0  0  0  0  0  0  0  0  0  0  0  0
  152.5250  144.1223  160.1742 C   0  0  0  0  0  0  0  0  0  0  0  0
  151.6029  144.9744  159.5318 C   0  0  0  0  0  0  0  0  0  0  0  0
  150.7390  144.4715  158.5375 C   0  0  0  0  0  0  0  0  0  0  0  0
  150.7910  143.1106  158.1799 C   0  0  0  0  0  0  0  0  0  0  0  0
  151.7134  142.2639  158.8239 C   0  0  0  0  0  0  0  0  0  0  0  0
  149.9335  141.1961  155.2853 C   0  0  0  0  0  0  0  0  0  0  0  0
  148.7712  141.7878  154.7529 C   0  0  0  0  0  0  0  0  0  0  0  0
  145.4434  143.1254  153.1645 H   0  0  0  0  0  0  0  0  0  0  0  0
  147.1427  143.5634  153.2967 H   0  0  0  0  0  0  0  0  0  0  0  0
  146.2287  143.0568  154.7378 H   0  0  0  0  0  0  0  0  0  0  0  0
  147.4905  139.0753  153.1278 H   0  0  0  0  0  0  0  0  0  0  0  0
  149.5305  138.0373  154.0613 H   0  0  0  0  0  0  0  0  0  0  0  0
  153.0752  139.2785  156.6351 H   0  0  0  0  0  0  0  0  0  0  0  0
  152.4207  140.8327  156.1134 H   0  0  0  0  0  0  0  0  0  0  0  0
  150.3674  140.2828  157.6169 H   0  0  0  0  0  0  0  0  0  0  0  0
  151.3194  138.9875  158.2908 H   0  0  0  0  0  0  0  0  0  0  0  0
  154.3721  139.3722  160.5894 H   0  0  0  0  0  0  0  0  0  0  0  0
  152.8657  138.6282  160.1044 H   0  0  0  0  0  0  0  0  0  0  0  0
  154.0508  137.9256  158.5368 H   0  0  0  0  0  0  0  0  0  0  0  0
  153.1830  144.5176  160.9337 H   0  0  0  0  0  0  0  0  0  0  0  0
  151.5591  146.0190  159.8027 H   0  0  0  0  0  0  0  0  0  0  0  0
  150.0372  145.1311  158.0485 H   0  0  0  0  0  0  0  0  0  0  0  0
  150.1334  142.7230  157.4160 H   0  0  0  0  0  0  0  0  0  0  0  0
  150.5905  141.8144  155.8777 H   0  0  0  0  0  0  0  0  0  0  0  0
  148.5925  142.8310  154.9645 H   0  0  0  0  0  0  0  0  0  0  0  0
  1  2  1  0  0  0  0
  1 23  1  0  0  0  0
  1 24  1  0  0  0  0
  1 25  1  0  0  0  0
  2  3  1  0  0  0  0
  3 22  1  0  0  0  0
  3  4  2  0  0  0  0
  4  5  1  0  0  0  0
  4 26  1  0  0  0  0
  5  6  2  0  0  0  0
  5 27  1  0  0  0  0
  6  7  1  0  0  0  0
  6 21  1  0  0  0  0
  7  8  1  0  0  0  0
  8  9  1  0  0  0  0
  8 28  1  0  0  0  0
  8 29  1  0  0  0  0
  9 10  1  0  0  0  0
  9 30  1  0  0  0  0
  9 31  1  0  0  0  0
 10 20  1  0  0  0  0
 10 11  1  0  0  0  0
 11 12  1  0  0  0  0
 11 14  2  0  0  0  0
 12 13  1  0  0  0  0
 12 32  1  0  0  0  0
 12 33  1  0  0  0  0
 13 34  1  0  0  0  0
 14 15  1  0  0  0  0
 15 20  2  0  0  0  0
 15 16  1  0  0  0  0
 16 17  2  0  0  0  0
 16 35  1  0  0  0  0
 17 18  1  0  0  0  0
 17 36  1  0  0  0  0
 18 19  2  0  0  0  0
 18 37  1  0  0  0  0
 19 20  1  0  0  0  0
 19 38  1  0  0  0  0
 21 22  2  0  0  0  0
 21 39  1  0  0  0  0
 22 40  1  0  0  0  0
M  END
> <s_m_source_file>
AV-unprocessed.smi

> <i_m_source_file_index>
506

> <i_lp_mmshare_version>
43012

> <i_f3d_flags>
0

> <s_epik_input>
W0NIM11PYzFbY0hdW2NIXWMoW2NIXVtjSF0xKU9bQ0gyXVtDSDJdbihjKG4yKVtDSDJdW09IXSljKGMyMylbY0hdW2NIXVtjSF1bY0hdMw==

> <s_epik_cmdline>
J2VwaWtfcHl0aG9uJywgJy1waCcsICc3LjAnLCAnLXRuJywgJzgnLCAnLW1hJywgJzIwMCcsICctbWV0YWxfYmluZGluZycsICctaW1hZScsICc8aW5maWxlLm1hZT4nLCAnLW9tYWUnLCAnPG91dGZpbGUubWFlPic=

> <r_lp_tautomer_probability>
1

> <r_epik_Ionization_Penalty>
0.0483634

> <r_epik_Ionization_Penalty_Charging>
0

> <r_epik_Ionization_Penalty_Neutral>
0.0483634

> <r_epik_State_Penalty>
0.0411758

> <r_epik_Charging_Adjusted_Penalty>
0.0411758

> <i_epik_Tot_Q>
0

> <i_epik_Tot_abs_Q>
0

> <r_epik_Metal_State_Penalty>
4.26388e-05

> <b_epik_Metal_Only>
0

> <s_lp_Force_Field>
OPLS_2005

> <r_lp_Energy>
17.7354

> <b_lp_Chiralities_Consistent>
1

> <s_lp_Variant>
AV-unprocessed.smi:506-1

> <Gold.Version>
5.8.1

> <Gold.Id.Protein>
6NUR|6NUR_protein|mol2

> <Gold.PLP.Fitness>
48.5315

> <Gold.PLP.PLP>
-46.4743

> <Gold.PLP.part.hbond>
-1.0000

> <Gold.PLP.part.metal>
0.0000

> <Gold.PLP.part.buried>
-4.5791

> <Gold.PLP.part.nonpolar>
-40.7380

> <Gold.PLP.part.repulsive>
0.2081

> <Gold.PLP.ligand.clash>
0.0000

> <Gold.PLP.ligand.torsion>
0.5256

> <Gold.PLP.Chemscore.Hbond>
1.0000

> <Gold.PLP.Chemscore.CHOScore>
0.0000

> <Gold.PLP.Chemscore.Metal>
0.0000

> <Gold.Chemscore.Hbonds>
donor molecule, donor type, donor heavy atom, donor atom, acceptor molecule, acceptor atom, score
      P1  H  7997  8010       L1    13  1.00

> <Gold.PLP.Chemscore.Internal.Correction>
0.1083

> <Gold.Rescore>
     Score         DG    S(hbond)    S(metal)    S(lipo)     H(rot)  DE(clash)    DE(int)     intcor
     16.92     -17.73       0.99        0.00     130.16       2.46       0.38       0.43       ----

> <Gold.Chemscore.Fitness>
16.9198

> <Gold.Chemscore.DG>
-17.7340

> <Gold.Chemscore.ZeroCoef>
-5.4800

> <Gold.Chemscore.Hbond>
0.9920

> <Gold.Chemscore.Metal>
0.0000

> <Gold.Chemscore.Lipo>
130.1616

> <Gold.Chemscore.Internal_Hbond>
0.0000

> <Gold.Chemscore.DEClash>
0.3809

> <Gold.Chemscore.DEInternal>
0.4334

> <Gold.Chemscore.Rot>
2.4562

> <Gold.Chemscore.Internal.Correction>
   9.000000E+99

> <Gold.Chemscore.Hbonds>
donor molecule, donor type, donor heavy atom, donor atom, acceptor molecule, acceptor atom, score
      P1  H  7997  8010       L1    13  0.99

> <Gold.Chemscore.Hbond.Weighted>
-3.3131

> <Gold.Chemscore.Metal.Weighted>
-0.0000

> <Gold.Chemscore.Lipo.Weighted>
-15.2289

> <Gold.Chemscore.Internal_Hbond.Weighted>
0.0000

> <Gold.Chemscore.DEClash.Weighted>
0.3809

> <Gold.Chemscore.DEInternal.Weighted>
0.4334

> <Gold.Chemscore.Rot.Weighted>
6.2880

> <Gold.Chemscore.Internal.Correction.Weighted>
   9.000000E+99

> <Gold.Protein.RotatedTorsions>
[ 6907 6896 6895 6894 ] final  157.33 input  -60.11 | X-H torsion
[ 7974 7965 7964 7962 ] final   42.68 input  175.53 | X-H torsion
[ 8008 7997 7996 7995 ] final   19.14 input   59.86 | X-H torsion
[ 10167 10162 10161 10158 ] final  116.40 input  -65.29 | X-H torsion
[ 10718 10713 10712 10709 ] final   -1.09 input   66.30 | X-H torsion
[ 10763 10752 10751 10750 ] final  -86.65 input  -60.55 | X-H torsion
[ 11005 11000 10999 10996 ] final  116.88 input  -57.11 | X-H torsion

> <Gold.Protein.ActiveResidues>
 VAL166  LYS551  ARG553  GLY616  TRP617  ASP618  TYR619  PRO620  LYS621  CYS622 
 ASP623  PHE694  ASN695  SER759  ASP760  ASP761  ALA762  ILE779  LEU786  VAL792 
 PHE793  MET794  SER795  GLU796  ALA797  LYS798  CYS799  TRP800  GLU811  SER814 

> <Gold.Protein.RotatedAtoms>
  152.0167  133.3882  159.4241 H   0  0  0  0  0  0  0  0  0  0  0  0  # atno 6907 bound_to 6896
  150.6894  134.3671  159.4985 H   0  0  0  0  0  0  0  0  0  0  0  0  # atno 6908 bound_to 6896
  152.1439  134.9041  160.0603 H   0  0  0  0  0  0  0  0  0  0  0  0  # atno 6909 bound_to 6896
  146.0719  139.5272  142.9592 H   0  0  0  0  0  0  0  0  0  0  0  0  # atno 7974 bound_to 7965
  154.9163  140.3021  155.5239 H   0  0  0  0  0  0  0  0  0  0  0  0  # atno 8008 bound_to 7997
  156.3012  140.2379  156.4144 H   0  0  0  0  0  0  0  0  0  0  0  0  # atno 8009 bound_to 7997
  154.8375  140.0415  157.1507 H   0  0  0  0  0  0  0  0  0  0  0  0  # atno 8010 bound_to 7997
  139.6250  144.7107  151.2553 H   0  0  0  0  0  0  0  0  0  0  0  0  # atno 10167 bound_to 10162
  156.8108  130.5424  149.5709 H   0  0  0  0  0  0  0  0  0  0  0  0  # atno 10718 bound_to 10713
  154.6249  135.5441  153.7615 H   0  0  0  0  0  0  0  0  0  0  0  0  # atno 10763 bound_to 10752
  153.0256  135.6421  154.1387 H   0  0  0  0  0  0  0  0  0  0  0  0  # atno 10764 bound_to 10752
  154.1320  135.2913  155.3163 H   0  0  0  0  0  0  0  0  0  0  0  0  # atno 10765 bound_to 10752
  139.9056  134.9603  156.7266 H   0  0  0  0  0  0  0  0  0  0  0  0  # atno 11005 bound_to 11000
  145.6375  141.0291  143.1830 LP  0  0  0  0  0  0  0  0  0  0  0  0  # atno 17320 bound_to 7965
  144.7237  139.7945  143.7372 LP  0  0  0  0  0  0  0  0  0  0  0  0  # atno 17321 bound_to 7965
  140.7405  143.6585  150.8185 LP  0  0  0  0  0  0  0  0  0  0  0  0  # atno 17342 bound_to 10162
  140.0201  143.5551  152.2804 LP  0  0  0  0  0  0  0  0  0  0  0  0  # atno 17343 bound_to 10162
  156.1046  130.5994  150.9949 LP  0  0  0  0  0  0  0  0  0  0  0  0  # atno 17370 bound_to 10713
  157.6507  131.0897  150.8057 LP  0  0  0  0  0  0  0  0  0  0  0  0  # atno 17371 bound_to 10713
  140.6959  133.9349  155.7994 LP  0  0  0  0  0  0  0  0  0  0  0  0  # atno 17394 bound_to 11000
  141.0408  134.0624  157.3904 LP  0  0  0  0  0  0  0  0  0  0  0  0  # atno 17395 bound_to 11000

$$$$
