AV-unprocessed.smi:2607|AV-procd|sdf|10199|dock9
  -GOLD-   2272014213D 1   1.00000     0.00000
 Structure written by MMmdl.
 22 23  0  0  0  0  0  0  0  0  1 V2000
  145.7338  135.2035  153.8983 C   0  0  0  0  0  0  0  0  0  0  0  0
  145.4504  135.6437  152.4490 C   0  0  2  0  0  0  0  0  0  0  0  0
  145.1824  134.4434  151.5265 C   0  0  0  0  0  0  0  0  0  0  0  0
  146.1723  133.4696  151.2374 C   0  0  0  0  0  0  0  0  0  0  0  0
  145.9288  132.4156  150.4271 N   0  0  0  0  0  0  0  0  0  0  0  0
  144.6876  132.3287  149.9017 C   0  0  0  0  0  0  0  0  0  0  0  0
  143.6945  133.2881  150.1863 C   0  0  0  0  0  0  0  0  0  0  0  0
  143.9375  134.3411  150.9966 N   0  0  0  0  0  0  0  0  0  0  0  0
  146.5292  136.5022  151.9751 N   0  0  0  0  0  0  0  0  0  0  0  0
  146.1143  137.7257  151.6222 C   0  0  0  0  0  0  0  0  0  0  0  0
  146.8172  138.6229  151.1636 O   0  0  0  0  0  0  0  0  0  0  0  0
  144.8041  137.7999  151.8686 N   0  0  0  0  0  0  0  0  0  0  0  0
  144.3174  136.6684  152.3751 C   0  0  0  0  0  0  0  0  0  0  0  0
  143.1588  136.4727  152.7396 O   0  0  0  0  0  0  0  0  0  0  0  0
  144.9081  134.6214  154.3094 H   0  0  0  0  0  0  0  0  0  0  0  0
  145.8884  136.0599  154.5565 H   0  0  0  0  0  0  0  0  0  0  0  0
  146.6297  134.5839  153.9501 H   0  0  0  0  0  0  0  0  0  0  0  0
  147.1682  133.5226  151.6508 H   0  0  0  0  0  0  0  0  0  0  0  0
  144.4847  131.4898  149.2527 H   0  0  0  0  0  0  0  0  0  0  0  0
  142.7038  133.2109  149.7637 H   0  0  0  0  0  0  0  0  0  0  0  0
  147.4834  136.1827  151.8933 H   0  0  0  0  0  0  0  0  0  0  0  0
  144.2486  138.6276  151.7086 H   0  0  0  0  0  0  0  0  0  0  0  0
  1  2  1  0  0  0  0
  1 15  1  0  0  0  0
  1 16  1  0  0  0  0
  1 17  1  0  0  0  0
  2 13  1  0  0  0  0
  2  3  1  0  0  0  0
  2  9  1  0  0  0  0
  3  8  1  0  0  0  0
  3  4  2  0  0  0  0
  4  5  1  0  0  0  0
  4 18  1  0  0  0  0
  5  6  2  0  0  0  0
  6  7  1  0  0  0  0
  6 19  1  0  0  0  0
  7  8  2  0  0  0  0
  7 20  1  0  0  0  0
  9 10  1  0  0  0  0
  9 21  1  0  0  0  0
 10 11  2  0  0  0  0
 10 12  1  0  0  0  0
 12 13  1  0  0  0  0
 12 22  1  0  0  0  0
 13 14  2  0  0  0  0
M  END
> <s_m_source_file>
AV-unprocessed.smi

> <i_m_source_file_index>
2607

> <i_lp_mmshare_version>
43012

> <i_f3d_flags>
0

> <s_epik_input>
Tz1DMVtOSF1DKD1PKVtOSF1bQ0BAXTEoW0NIM10pYzJbY0hdbltjSF1bY0hdbjI=

> <s_epik_cmdline>
J2VwaWtfcHl0aG9uJywgJy1waCcsICc3LjAnLCAnLXRuJywgJzgnLCAnLW1hJywgJzIwMCcsICctbWV0YWxfYmluZGluZycsICctaW1hZScsICc8aW5maWxlLm1hZT4nLCAnLW9tYWUnLCAnPG91dGZpbGUubWFlPic=

> <r_lp_tautomer_probability>
1

> <r_epik_Ionization_Penalty>
0.0333762

> <r_epik_Ionization_Penalty_Charging>
0

> <r_epik_Ionization_Penalty_Neutral>
0.0333762

> <r_epik_State_Penalty>
0.027503

> <r_epik_Charging_Adjusted_Penalty>
0.027503

> <i_epik_Tot_Q>
0

> <i_epik_Tot_abs_Q>
0

> <r_epik_Metal_State_Penalty>
0.445281

> <b_epik_Metal_Only>
0

> <s_lp_Force_Field>
OPLS_2005

> <r_lp_Energy>
24.1998

> <b_lp_Chiralities_Consistent>
1

> <s_lp_Variant>
AV-unprocessed.smi:2607-2

> <Gold.Version>
5.8.1

> <Gold.Id.Protein>
6NUR|6NUR_protein|mol2

> <Gold.PLP.Fitness>
30.8115

> <Gold.PLP.PLP>
-19.6656

> <Gold.PLP.part.hbond>
-3.4084

> <Gold.PLP.part.metal>
0.0000

> <Gold.PLP.part.buried>
-2.6685

> <Gold.PLP.part.nonpolar>
-15.2645

> <Gold.PLP.part.repulsive>
1.0447

> <Gold.PLP.ligand.clash>
0.0000

> <Gold.PLP.ligand.torsion>
0.1420

> <Gold.PLP.Chemscore.Hbond>
2.7708

> <Gold.PLP.Chemscore.CHOScore>
1.0000

> <Gold.PLP.Chemscore.Metal>
0.0000

> <Gold.Chemscore.Hbonds>
donor molecule, donor type, donor heavy atom, donor atom, acceptor molecule, acceptor atom, score
      L1  H     9    21       P1  7948  0.80
      L1  H    12    22       P1 10175  0.94
      P1  H  7954  7966       L1    11  1.00
      L1  C     7    20       P1 10186  1.00

> <Gold.PLP.Chemscore.Internal.Correction>
0.1175

> <Gold.Rescore>
     Score         DG    S(hbond)    S(metal)    S(lipo)     H(rot)  DE(clash)    DE(int)     intcor
     13.35     -15.19       2.49        0.00      33.76       1.00       0.50       1.33       ----

> <Gold.Chemscore.Fitness>
13.3500

> <Gold.Chemscore.DG>
-15.1883

> <Gold.Chemscore.ZeroCoef>
-5.4800

> <Gold.Chemscore.Hbond>
2.4904

> <Gold.Chemscore.Metal>
0.0000

> <Gold.Chemscore.Lipo>
33.7622

> <Gold.Chemscore.Internal_Hbond>
0.0000

> <Gold.Chemscore.DEClash>
0.5038

> <Gold.Chemscore.DEInternal>
1.3344

> <Gold.Chemscore.Rot>
1.0000

> <Gold.Chemscore.Internal.Correction>
   9.000000E+99

> <Gold.Chemscore.Hbonds>
donor molecule, donor type, donor heavy atom, donor atom, acceptor molecule, acceptor atom, score
      L1  H     9    21       P1  7948  0.78
      L1  H    12    22       P1 10175  0.84
      P1  H  7954  7966       L1    11  0.73

> <Gold.Chemscore.Hbond.Weighted>
-8.3181

> <Gold.Chemscore.Metal.Weighted>
-0.0000

> <Gold.Chemscore.Lipo.Weighted>
-3.9502

> <Gold.Chemscore.Internal_Hbond.Weighted>
0.0000

> <Gold.Chemscore.DEClash.Weighted>
0.5038

> <Gold.Chemscore.DEInternal.Weighted>
1.3344

> <Gold.Chemscore.Rot.Weighted>
2.5600

> <Gold.Chemscore.Internal.Correction.Weighted>
   9.000000E+99

> <Gold.Protein.RotatedTorsions>
[ 6907 6896 6895 6894 ] final   29.37 input  -60.11 | X-H torsion
[ 7974 7965 7964 7962 ] final -167.34 input  175.53 | X-H torsion
[ 8008 7997 7996 7995 ] final    3.23 input   59.86 | X-H torsion
[ 10167 10162 10161 10158 ] final  -93.26 input  -65.29 | X-H torsion
[ 10718 10713 10712 10709 ] final   24.36 input   66.30 | X-H torsion
[ 10763 10752 10751 10750 ] final   11.00 input  -60.55 | X-H torsion
[ 11005 11000 10999 10996 ] final   89.98 input  -57.11 | X-H torsion

> <Gold.Protein.ActiveResidues>
 VAL166  LYS551  ARG553  GLY616  TRP617  ASP618  TYR619  PRO620  LYS621  CYS622 
 ASP623  PHE694  ASN695  SER759  ASP760  ASP761  ALA762  ILE779  LEU786  VAL792 
 PHE793  MET794  SER795  GLU796  ALA797  LYS798  CYS799  TRP800  GLU811  SER814 

> <Gold.Protein.RotatedAtoms>
  152.0306  134.9770  160.0572 H   0  0  0  0  0  0  0  0  0  0  0  0  # atno 6907 bound_to 6896
  152.1248  133.4369  159.4701 H   0  0  0  0  0  0  0  0  0  0  0  0  # atno 6908 bound_to 6896
  150.6851  134.2410  159.4515 H   0  0  0  0  0  0  0  0  0  0  0  0  # atno 6909 bound_to 6896
  144.7225  140.2533  143.6275 H   0  0  0  0  0  0  0  0  0  0  0  0  # atno 7974 bound_to 7965
  154.7012  140.2673  155.6718 H   0  0  0  0  0  0  0  0  0  0  0  0  # atno 8008 bound_to 7997
  156.2765  140.2772  156.1547 H   0  0  0  0  0  0  0  0  0  0  0  0  # atno 8009 bound_to 7997
  155.0762  140.0372  157.2614 H   0  0  0  0  0  0  0  0  0  0  0  0  # atno 8010 bound_to 7997
  140.3265  143.3019  151.9989 H   0  0  0  0  0  0  0  0  0  0  0  0  # atno 10167 bound_to 10162
  157.1787  130.6793  149.6105 H   0  0  0  0  0  0  0  0  0  0  0  0  # atno 10718 bound_to 10713
  153.1973  135.6851  153.8276 H   0  0  0  0  0  0  0  0  0  0  0  0  # atno 10763 bound_to 10752
  153.7555  135.3217  155.3329 H   0  0  0  0  0  0  0  0  0  0  0  0  # atno 10764 bound_to 10752
  154.8151  135.4691  154.0723 H   0  0  0  0  0  0  0  0  0  0  0  0  # atno 10765 bound_to 10752
  139.8864  134.8586  156.3220 H   0  0  0  0  0  0  0  0  0  0  0  0  # atno 11005 bound_to 11000
  145.8207  139.2042  143.1940 LP  0  0  0  0  0  0  0  0  0  0  0  0  # atno 17320 bound_to 7965
  146.0517  140.8063  142.9778 LP  0  0  0  0  0  0  0  0  0  0  0  0  # atno 17321 bound_to 7965
  139.4864  144.6270  151.7146 LP  0  0  0  0  0  0  0  0  0  0  0  0  # atno 17342 bound_to 10162
  140.5436  144.0539  150.6098 LP  0  0  0  0  0  0  0  0  0  0  0  0  # atno 17343 bound_to 10162
  155.9727  130.4654  150.6252 LP  0  0  0  0  0  0  0  0  0  0  0  0  # atno 17370 bound_to 10713
  157.3973  131.0804  151.1340 LP  0  0  0  0  0  0  0  0  0  0  0  0  # atno 17371 bound_to 10713
  140.9780  133.7285  156.0631 LP  0  0  0  0  0  0  0  0  0  0  0  0  # atno 17394 bound_to 11000
  140.7786  134.3752  157.5492 LP  0  0  0  0  0  0  0  0  0  0  0  0  # atno 17395 bound_to 11000

$$$$
