AV-unprocessed.smi:2171|AV-procd|sdf|8828|dock5
  -GOLD-   2272012 23D 1   1.00000     0.00000
 Structure written by MMmdl.
 39 41  0  0  0  0  0  0  0  0  2 V2000
  151.2828  136.6845  156.2746 O   0  0  0  0  0  0  0  0  0  0  0  0
  150.7845  136.8044  155.1560 C   0  0  0  0  0  0  0  0  0  0  0  0
  151.1948  137.9739  154.2575 C   0  0  0  0  0  0  0  0  0  0  0  0
  150.2108  139.0429  154.2812 N   0  0  0  0  0  0  0  0  0  0  0  0
  148.8984  139.0102  153.8571 C   0  0  0  0  0  0  0  0  0  0  0  0
  148.3701  140.2507  154.0728 C   0  0  0  0  0  0  0  0  0  0  0  0
  149.4489  140.9836  154.6420 C   0  0  0  0  0  0  0  0  0  0  0  0
  150.5489  140.2584  154.7653 N   0  0  0  0  0  0  0  0  0  0  0  0
  149.8675  135.9567  154.6629 N   0  0  0  0  0  0  0  0  0  0  0  0
  149.3591  134.7736  155.3500 C   0  0  2  0  0  0  0  0  0  0  0  0
  150.4311  134.0703  156.2012 C   0  0  0  0  0  0  0  0  0  0  0  0
  150.1546  132.5623  156.0425 C   0  0  0  0  0  0  0  0  0  0  0  0
  148.9281  132.4731  155.2274 N   0  3  2  0  0  0  0  0  0  0  0  0
  148.7168  131.2253  154.4617 C   0  0  0  0  0  0  0  0  0  0  0  0
  147.3503  131.2908  153.7504 C   0  0  0  0  0  0  0  0  0  0  0  0
  147.2100  132.5688  152.8984 C   0  0  0  0  0  0  0  0  0  0  0  0
  147.5338  133.8281  153.7253 C   0  0  0  0  0  0  0  0  0  0  0  0
  148.9176  133.6748  154.3793 C   0  0  1  0  0  0  0  0  0  0  0  0
  152.1563  138.3687  154.5878 H   0  0  0  0  0  0  0  0  0  0  0  0
  151.3240  137.6323  153.2292 H   0  0  0  0  0  0  0  0  0  0  0  0
  148.4552  138.1176  153.4408 H   0  0  0  0  0  0  0  0  0  0  0  0
  147.3656  140.5840  153.8584 H   0  0  0  0  0  0  0  0  0  0  0  0
  149.4655  142.0135  154.9666 H   0  0  0  0  0  0  0  0  0  0  0  0
  149.5122  136.1350  153.7346 H   0  0  0  0  0  0  0  0  0  0  0  0
  148.5246  135.0384  156.0030 H   0  0  0  0  0  0  0  0  0  0  0  0
  151.4371  134.2986  155.8455 H   0  0  0  0  0  0  0  0  0  0  0  0
  150.3742  134.3864  157.2435 H   0  0  0  0  0  0  0  0  0  0  0  0
  150.9863  132.0831  155.5235 H   0  0  0  0  0  0  0  0  0  0  0  0
  150.0192  132.0606  157.0009 H   0  0  0  0  0  0  0  0  0  0  0  0
  149.5203  131.0941  153.7355 H   0  0  0  0  0  0  0  0  0  0  0  0
  148.7488  130.3702  155.1377 H   0  0  0  0  0  0  0  0  0  0  0  0
  147.2110  130.4080  153.1258 H   0  0  0  0  0  0  0  0  0  0  0  0
  146.5545  131.2683  154.4961 H   0  0  0  0  0  0  0  0  0  0  0  0
  147.8876  132.5113  152.0454 H   0  0  0  0  0  0  0  0  0  0  0  0
  146.2022  132.6378  152.4879 H   0  0  0  0  0  0  0  0  0  0  0  0
  147.5113  134.7083  153.0825 H   0  0  0  0  0  0  0  0  0  0  0  0
  146.7704  133.9784  154.4899 H   0  0  0  0  0  0  0  0  0  0  0  0
  149.6762  133.5581  153.6014 H   0  0  0  0  0  0  0  0  0  0  0  0
  148.1517  132.5693  155.8665 H   0  0  0  0  0  0  0  0  0  0  0  0
  1  2  2  0  0  0  0
  2  3  1  0  0  0  0
  2  9  1  0  0  0  0
  3  4  1  0  0  0  0
  3 19  1  0  0  0  0
  3 20  1  0  0  0  0
  4  8  1  0  0  0  0
  4  5  1  0  0  0  0
  5  6  2  0  0  0  0
  5 21  1  0  0  0  0
  6  7  1  0  0  0  0
  6 22  1  0  0  0  0
  7  8  2  0  0  0  0
  7 23  1  0  0  0  0
  9 10  1  0  0  0  0
  9 24  1  0  0  0  0
 10 18  1  0  0  0  0
 10 11  1  0  0  0  0
 10 25  1  0  0  0  0
 11 12  1  0  0  0  0
 11 26  1  0  0  0  0
 11 27  1  0  0  0  0
 12 13  1  0  0  0  0
 12 28  1  0  0  0  0
 12 29  1  0  0  0  0
 13 18  1  0  0  0  0
 13 14  1  0  0  0  0
 13 39  1  0  0  0  0
 14 15  1  0  0  0  0
 14 30  1  0  0  0  0
 14 31  1  0  0  0  0
 15 16  1  0  0  0  0
 15 32  1  0  0  0  0
 15 33  1  0  0  0  0
 16 17  1  0  0  0  0
 16 34  1  0  0  0  0
 16 35  1  0  0  0  0
 17 18  1  0  0  0  0
 17 36  1  0  0  0  0
 17 37  1  0  0  0  0
 18 38  1  0  0  0  0
M  CHG  1  13   1
M  END
> <s_m_source_file>
AV-unprocessed.smi

> <i_m_source_file_index>
2171

> <i_lp_mmshare_version>
43012

> <i_f3d_flags>
0

> <s_epik_input>
bjFbY0hdW2NIXVtjSF1uMVtDSDJdQyg9TylbTkhdW0NASF0oW0NIMl1bQ0gyXTIpW0NAQEhdKE4yMylbQ0gyXVtDSDJdW0NIMl1bQ0gyXTM=

> <s_epik_cmdline>
J2VwaWtfcHl0aG9uJywgJy1waCcsICc3LjAnLCAnLXRuJywgJzgnLCAnLW1hJywgJzIwMCcsICctbWV0YWxfYmluZGluZycsICctaW1hZScsICc8aW5maWxlLm1hZT4nLCAnLW9tYWUnLCAnPG91dGZpbGUubWFlPic=

> <r_lp_tautomer_probability>
1

> <r_epik_Ionization_Penalty>
0.00204179

> <r_epik_Ionization_Penalty_Charging>
0.00203239

> <r_epik_Ionization_Penalty_Neutral>
9.40205e-06

> <r_epik_State_Penalty>
0.00138983

> <r_epik_Charging_Adjusted_Penalty>
0.00342221

> <i_epik_Tot_Q>
1

> <i_epik_Tot_abs_Q>
1

> <r_epik_Metal_State_Penalty>
-0

> <b_epik_Metal_Only>
0

> <s_lp_Force_Field>
OPLS_2005

> <r_lp_Energy>
34.6158

> <b_lp_Chiralities_Consistent>
1

> <s_lp_Variant>
AV-unprocessed.smi:2171-3

> <Gold.Version>
5.8.1

> <Gold.Id.Protein>
6NUR|6NUR_protein|mol2

> <Gold.PLP.Fitness>
43.1210

> <Gold.PLP.PLP>
-33.3365

> <Gold.PLP.part.hbond>
-3.2327

> <Gold.PLP.part.metal>
0.0000

> <Gold.PLP.part.buried>
-1.8051

> <Gold.PLP.part.nonpolar>
-28.0464

> <Gold.PLP.part.repulsive>
0.1673

> <Gold.PLP.ligand.clash>
0.0000

> <Gold.PLP.ligand.torsion>
0.6410

> <Gold.PLP.Chemscore.Hbond>
2.4095

> <Gold.PLP.Chemscore.CHOScore>
1.2762

> <Gold.PLP.Chemscore.Metal>
0.0000

> <Gold.Chemscore.Hbonds>
donor molecule, donor type, donor heavy atom, donor atom, acceptor molecule, acceptor atom, score
      L1  H     9    24       P1  7948  1.00
      P1  H  7989  7998       L1     8  1.00
      L1  C     5    21       P1  7948  1.00
      L1  C     7    23       P1  8028  0.21

> <Gold.PLP.Chemscore.Internal.Correction>
0.0095

> <Gold.Rescore>
     Score         DG    S(hbond)    S(metal)    S(lipo)     H(rot)  DE(clash)    DE(int)     intcor
     13.43     -15.80       1.89        0.00      65.84       1.44       0.23       2.14       ----

> <Gold.Chemscore.Fitness>
13.4314

> <Gold.Chemscore.DG>
-15.7995

> <Gold.Chemscore.ZeroCoef>
-5.4800

> <Gold.Chemscore.Hbond>
1.8878

> <Gold.Chemscore.Metal>
0.0000

> <Gold.Chemscore.Lipo>
65.8389

> <Gold.Chemscore.Internal_Hbond>
0.0000

> <Gold.Chemscore.DEClash>
0.2302

> <Gold.Chemscore.DEInternal>
2.1379

> <Gold.Chemscore.Rot>
1.4410

> <Gold.Chemscore.Internal.Correction>
   9.000000E+99

> <Gold.Chemscore.Hbonds>
donor molecule, donor type, donor heavy atom, donor atom, acceptor molecule, acceptor atom, score
      L1  H     9    24       P1  7948  0.60
      P1  H  7989  7998       L1     8  0.15

> <Gold.Chemscore.Hbond.Weighted>
-6.3053

> <Gold.Chemscore.Metal.Weighted>
-0.0000

> <Gold.Chemscore.Lipo.Weighted>
-7.7032

> <Gold.Chemscore.Internal_Hbond.Weighted>
0.0000

> <Gold.Chemscore.DEClash.Weighted>
0.2302

> <Gold.Chemscore.DEInternal.Weighted>
2.1379

> <Gold.Chemscore.Rot.Weighted>
3.6889

> <Gold.Chemscore.Internal.Correction.Weighted>
   9.000000E+99

> <Gold.Protein.RotatedTorsions>
[ 6907 6896 6895 6894 ] final  136.38 input  -60.11 | X-H torsion
[ 7974 7965 7964 7962 ] final  -41.36 input  175.53 | X-H torsion
[ 8008 7997 7996 7995 ] final  -91.29 input   59.86 | X-H torsion
[ 10167 10162 10161 10158 ] final -139.19 input  -65.29 | X-H torsion
[ 10718 10713 10712 10709 ] final  -39.74 input   66.30 | X-H torsion
[ 10763 10752 10751 10750 ] final -148.61 input  -60.55 | X-H torsion
[ 11005 11000 10999 10996 ] final  -97.33 input  -57.11 | X-H torsion

> <Gold.Protein.ActiveResidues>
 VAL166  LYS551  ARG553  GLY616  TRP617  ASP618  TYR619  PRO620  LYS621  CYS622 
 ASP623  PHE694  ASN695  SER759  ASP760  ASP761  ALA762  ILE779  LEU786  VAL792 
 PHE793  MET794  SER795  GLU796  ALA797  LYS798  CYS799  TRP800  GLU811  SER814 

> <Gold.Protein.RotatedAtoms>
  152.2900  133.5552  159.5551 H   0  0  0  0  0  0  0  0  0  0  0  0  # atno 6907 bound_to 6896
  150.7231  134.0442  159.3785 H   0  0  0  0  0  0  0  0  0  0  0  0  # atno 6908 bound_to 6896
  151.8348  135.0610  160.0492 H   0  0  0  0  0  0  0  0  0  0  0  0  # atno 6909 bound_to 6896
  146.0218  140.6840  142.9174 H   0  0  0  0  0  0  0  0  0  0  0  0  # atno 7974 bound_to 7965
  154.7089  140.0521  157.0531 H   0  0  0  0  0  0  0  0  0  0  0  0  # atno 8008 bound_to 7997
  155.0582  140.3186  155.4650 H   0  0  0  0  0  0  0  0  0  0  0  0  # atno 8009 bound_to 7997
  156.2783  140.2103  156.5709 H   0  0  0  0  0  0  0  0  0  0  0  0  # atno 8010 bound_to 7997
  139.8404  143.7330  152.2663 H   0  0  0  0  0  0  0  0  0  0  0  0  # atno 10167 bound_to 10162
  156.2890  130.4226  149.8258 H   0  0  0  0  0  0  0  0  0  0  0  0  # atno 10718 bound_to 10713
  154.8223  135.3330  154.7001 H   0  0  0  0  0  0  0  0  0  0  0  0  # atno 10763 bound_to 10752
  153.7632  135.6931  153.4926 H   0  0  0  0  0  0  0  0  0  0  0  0  # atno 10764 bound_to 10752
  153.2096  135.4487  155.0313 H   0  0  0  0  0  0  0  0  0  0  0  0  # atno 10765 bound_to 10752
  141.1382  133.8162  157.0691 H   0  0  0  0  0  0  0  0  0  0  0  0  # atno 11005 bound_to 11000
  144.6993  140.3580  143.7169 LP  0  0  0  0  0  0  0  0  0  0  0  0  # atno 17320 bound_to 7965
  145.7181  139.1702  143.2500 LP  0  0  0  0  0  0  0  0  0  0  0  0  # atno 17321 bound_to 7965
  139.7565  144.7519  151.0428 LP  0  0  0  0  0  0  0  0  0  0  0  0  # atno 17342 bound_to 10162
  140.7798  143.4800  151.0031 LP  0  0  0  0  0  0  0  0  0  0  0  0  # atno 17343 bound_to 10162
  156.5677  130.8411  151.3347 LP  0  0  0  0  0  0  0  0  0  0  0  0  # atno 17370 bound_to 10713
  157.7337  130.9734  150.1991 LP  0  0  0  0  0  0  0  0  0  0  0  0  # atno 17371 bound_to 10713
  140.0523  134.9799  157.1158 LP  0  0  0  0  0  0  0  0  0  0  0  0  # atno 17394 bound_to 11000
  140.3972  134.2121  155.7164 LP  0  0  0  0  0  0  0  0  0  0  0  0  # atno 17395 bound_to 11000

$$$$
