#       Name:                AV-unprocessed.smi:686
#       Creating user name   scv26
#       Creation time:       Fri Mar 27 00:32:04 2020


#       File generated by GOLD software.
#

@<TRIPOS>MOLECULE
AV-unprocessed.smi:686
    44    45     1
SMALL
NO_CHARGES


@<TRIPOS>ATOM
      1 ****         0.8442  -0.7264  -2.7336 C.3            1 S1                 0.0000
      2 ****         0.5928  -1.2723  -1.3140 C.3            1 S1                 0.0000
      3 ****        -0.8481  -1.7679  -1.0957 C.3            1 S1                 0.0000
      4 ****        -1.2454  -1.3818   0.2836 N.4            1 S1                 1.0000
      5 ****        -2.0095  -2.4137   1.0404 C.3            1 S1                 0.0000
      6 ****        -3.3215  -2.7718   0.3173 C.3            1 S1                 0.0000
      7 ****        -2.3234  -1.9525   2.4766 C.3            1 S1                 0.0000
      8 ****        -0.0319  -0.8639   0.9516 C.3            1 S1                 0.0000
      9 ****         0.8046  -0.2652  -0.1765 C.3            1 S1                 0.0000
     10 ****         2.2095  -0.1492   0.1921 N.pl3          1 S1                -1.0000
     11 ****         2.7651   1.1326   1.0283 S.o2           1 S1                 0.0000
     12 ****         1.7903   1.6870   1.9840 O.2            1 S1                 0.0000
     13 ****         4.1118   0.8542   1.5491 O.2            1 S1                 0.0000
     14 ****         3.0296   2.3977  -0.3071 C.3            1 S1                 0.0000
     15 ****         1.8266   3.2824  -0.5035 C.2            1 S1                 0.0000
     16 ****         1.3146   4.2932   0.3570 C.2            1 S1                 0.0000
     17 ****         0.2304   4.7719  -0.3195 C.2            1 S1                 0.0000
     18 ****         0.0869   4.1269  -1.5040 O.3            1 S1                 0.0000
     19 ****         1.1159   3.1855  -1.6172 N.2            1 S1                 0.0000
     20 ****         0.1958   0.1186  -2.9732 H              1 S1                 0.0000
     21 ****         0.6550  -1.5000  -3.4780 H              1 S1                 0.0000
     22 ****         1.8777  -0.4010  -2.8660 H              1 S1                 0.0000
     23 ****         1.2570  -2.1239  -1.1523 H              1 S1                 0.0000
     24 ****        -1.5491  -1.3150  -1.7991 H              1 S1                 0.0000
     25 ****        -0.8896  -2.8480  -1.2455 H              1 S1                 0.0000
     26 ****        -1.3939  -3.3125   1.1023 H              1 S1                 0.0000
     27 ****        -3.8885  -3.5128   0.8817 H              1 S1                 0.0000
     28 ****        -3.1449  -3.1950  -0.6713 H              1 S1                 0.0000
     29 ****        -3.9571  -1.8942   0.1948 H              1 S1                 0.0000
     30 ****        -2.9275  -2.6934   3.0012 H              1 S1                 0.0000
     31 ****        -2.8773  -1.0131   2.4797 H              1 S1                 0.0000
     32 ****        -1.4187  -1.8103   3.0676 H              1 S1                 0.0000
     33 ****        -0.2778  -0.1265   1.7163 H              1 S1                 0.0000
     34 ****         0.5022  -1.6880   1.4292 H              1 S1                 0.0000
     35 ****         0.3648   0.6887  -0.4685 H              1 S1                 0.0000
     36 ****         3.8783   3.0097  -0.0037 H              1 S1                 0.0000
     37 ****         3.3227   1.8859  -1.2241 H              1 S1                 0.0000
     38 ****         1.6814   4.6088   1.3222 H              1 S1                 0.0000
     39 ****        -0.5019   5.5352  -0.1022 H              1 S1                 0.0000
     40 ****        -1.8526  -0.5815   0.1792 H              1 S1                 0.0000
     41 ****         2.8464  -0.8726  -0.0743 LP             1 S1                 0.0000
     42 ****         0.1447   4.7835  -2.2560 LP             1 S1                 0.0000
     43 ****        -0.7993   3.6646  -1.5324 LP             1 S1                 0.0000
     44 ****         1.2814   2.5651  -2.3838 LP             1 S1                 0.0000
@<TRIPOS>BOND
    1    1    2 1     
    2    1   20 1     
    3    1   21 1     
    4    1   22 1     
    5    2    9 1     
    6    2    3 1     
    7    2   23 1     
    8    3    4 1     
    9    3   24 1     
   10    3   25 1     
   11    4    5 1     
   12    4    8 1     
   13    4   40 1     
   14    5    6 1     
   15    5    7 1     
   16    5   26 1     
   17    6   27 1     
   18    6   28 1     
   19    6   29 1     
   20    7   30 1     
   21    7   31 1     
   22    7   32 1     
   23    8    9 1     
   24    8   33 1     
   25    8   34 1     
   26    9   10 1     
   27    9   35 1     
   28   10   11 1     
   29   11   12 2     
   30   11   13 2     
   31   11   14 1     
   32   14   15 1     
   33   14   36 1     
   34   14   37 1     
   35   15   19 2     
   36   15   16 1     
   37   16   17 2     
   38   16   38 1     
   39   17   18 1     
   40   17   39 1     
   41   18   19 1     
   42   10   41 1     
   43   18   42 1     
   44   18   43 1     
   45   19   44 1     
@<TRIPOS>SUBSTRUCTURE
      1 S1             1
@<TRIPOS>SET
LONE_PAIRS      STATIC     ATOMS    <user>   **** ""
6 41 12 13 42 43 44
DONOR_HYDROGENS      STATIC     ATOMS    <user>   **** ""
1 40
ATOM$BLUE        STATIC     ATOMS    COLORGROUP SYSTEM
6 41 12 13 42 43 44
ATOM$RED        STATIC     ATOMS    COLORGROUP SYSTEM
1 40
