#       Name:                AV-unprocessed.smi:2360
#       Creating user name   scv26
#       Creation time:       Fri Mar 27 13:04:47 2020


#       File generated by GOLD software.
#

@<TRIPOS>MOLECULE
AV-unprocessed.smi:2360
    39    40     1
SMALL
NO_CHARGES


@<TRIPOS>ATOM
      1 ****        -5.0171   0.8938  -0.6885 C.3            1 S1                 0.0000
      2 ****        -3.5536   0.4892  -0.6878 C.2            1 S1                 0.0000
      3 ****        -2.6363   1.5418  -0.6233 N.2            1 S1                 0.0000
      4 ****        -1.3681   1.2915  -0.6166 C.2            1 S1                 0.0000
      5 ****        -0.8735  -0.0225  -0.6751 N.am           1 S1                 0.0000
      6 ****         0.5923  -0.1708  -0.6499 C.3            1 S1                 0.0000
      7 ****         1.1586  -0.1589   0.7884 C.3            1 S1                 0.0000
      8 ****         0.9387  -1.4231   1.3811 O.3            1 S1                 0.0000
      9 ****         2.6381   0.1948   0.7897 C.ar           1 S1                 0.0000
     10 ****         3.5961  -0.7193   0.2978 C.ar           1 S1                 0.0000
     11 ****         4.9636  -0.3824   0.2952 C.ar           1 S1                 0.0000
     12 ****         5.3818   0.8706   0.7829 C.ar           1 S1                 0.0000
     13 ****         6.6969   1.1935   0.7793 F              1 S1                 0.0000
     14 ****         4.4310   1.7870   1.2729 C.ar           1 S1                 0.0000
     15 ****         4.8301   2.9932   1.7418 F              1 S1                 0.0000
     16 ****         3.0631   1.4503   1.2749 C.ar           1 S1                 0.0000
     17 ****        -1.6993  -1.1066  -0.7411 C.2            1 S1                 0.0000
     18 ****        -1.2582  -2.2561  -0.7930 O.2            1 S1                 0.0000
     19 ****        -3.1404  -0.8063  -0.7450 C.2            1 S1                 0.0000
     20 ****        -4.0935  -1.9930  -0.8153 C.3            1 S1                 0.0000
     21 ****        -5.5320   0.4662   0.1720 H              1 S1                 0.0000
     22 ****        -5.5087   0.5469  -1.5976 H              1 S1                 0.0000
     23 ****        -5.1300   1.9774  -0.6402 H              1 S1                 0.0000
     24 ****        -0.6109   2.0756  -0.5610 H              1 S1                 0.0000
     25 ****         0.9255  -1.0596  -1.1892 H              1 S1                 0.0000
     26 ****         1.0295   0.6583  -1.2105 H              1 S1                 0.0000
     27 ****         0.6305   0.5819   1.3902 H              1 S1                 0.0000
     28 ****         1.2182  -1.3848   2.2829 H              1 S1                 0.0000
     29 ****         3.2840  -1.6815  -0.0812 H              1 S1                 0.0000
     30 ****         5.6916  -1.0853  -0.0823 H              1 S1                 0.0000
     31 ****         2.3419   2.1615   1.6501 H              1 S1                 0.0000
     32 ****        -3.9235  -2.5573  -1.7326 H              1 S1                 0.0000
     33 ****        -5.1428  -1.7036  -0.7973 H              1 S1                 0.0000
     34 ****        -3.9240  -2.6615   0.0294 H              1 S1                 0.0000
     35 ****        -2.9605   2.4869  -0.5824 LP             1 S1                 0.0000
     36 ****         1.4653  -2.1200   0.8942 LP             1 S1                 0.0000
     37 ****        -0.0342  -1.6506   1.3390 LP             1 S1                 0.0000
     38 ****        -0.2707  -2.4135  -0.7874 LP             1 S1                 0.0000
     39 ****        -1.8878  -3.0316  -0.8408 LP             1 S1                 0.0000
@<TRIPOS>BOND
    1    1    2 1     
    2    1   21 1     
    3    1   22 1     
    4    1   23 1     
    5    2   19 2     
    6    2    3 1     
    7    3    4 2     
    8    4    5 1     
    9    4   24 1     
   10    5    6 1     
   11    5   17 am    
   12    6    7 1     
   13    6   25 1     
   14    6   26 1     
   15    7    8 1     
   16    7    9 1     
   17    7   27 1     
   18    8   28 1     
   19    9   16 ar    
   20    9   10 ar    
   21   10   11 ar    
   22   10   29 1     
   23   11   12 ar    
   24   11   30 1     
   25   12   13 1     
   26   12   14 ar    
   27   14   15 1     
   28   14   16 ar    
   29   16   31 1     
   30   17   18 2     
   31   17   19 1     
   32   19   20 1     
   33   20   32 1     
   34   20   33 1     
   35   20   34 1     
   36    3   35 1     
   37    8   36 1     
   38    8   37 1     
   39   18   38 1     
   40   18   39 1     
@<TRIPOS>SUBSTRUCTURE
      1 S1             1
@<TRIPOS>SET
LONE_PAIRS      STATIC     ATOMS    <user>   **** ""
5 35 36 37 38 39
DONOR_HYDROGENS      STATIC     ATOMS    <user>   **** ""
1 28
ATOM$BLUE        STATIC     ATOMS    COLORGROUP SYSTEM
5 35 36 37 38 39
ATOM$RED        STATIC     ATOMS    COLORGROUP SYSTEM
1 28
