#       Name:                AV-unprocessed.smi:2005
#       Creating user name   scv26
#       Creation time:       Fri Mar 27 10:36:15 2020


#       File generated by GOLD software.
#

@<TRIPOS>MOLECULE
AV-unprocessed.smi:2005
    45    46     1
SMALL
NO_CHARGES


@<TRIPOS>ATOM
      1 ****        -6.6892  -1.3677   0.5943 C.3            1 S1                 0.0000
      2 ****        -5.9516  -0.6194  -0.5257 C.3            1 S1                 0.0000
      3 ****        -6.3413  -1.1010  -1.9310 C.3            1 S1                 0.0000
      4 ****        -4.4686  -0.6167  -0.3218 C.2            1 S1                 0.0000
      5 ****        -3.7263  -1.7321  -0.3432 N.2            1 S1                 0.0000
      6 ****        -2.3788  -1.4744  -0.1352 N.2            1 S1                 0.0000
      7 ****        -2.1416  -0.1674   0.0392 C.2            1 S1                 0.0000
      8 ****        -0.8508   0.3776   0.2680 N.am           1 S1                 0.0000
      9 ****         0.3304  -0.2634   0.3111 C.2            1 S1                 0.0000
     10 ****         0.4897  -1.4753   0.1616 O.2            1 S1                 0.0000
     11 ****         1.3369   0.5939   0.5350 N.am           1 S1                 0.0000
     12 ****         2.7499   0.2367   0.6189 C.3            1 S1                 0.0000
     13 ****         3.4890   1.2673   1.4920 C.3            1 S1                 0.0000
     14 ****         4.9981   0.9748   1.5620 C.3            1 S1                 0.0000
     15 ****         5.6380   0.8710   0.1650 C.3            1 S1                 0.0000
     16 ****         5.6706   2.1448  -0.4486 O.3            1 S1                 0.0000
     17 ****         4.8816  -0.1286  -0.7299 C.3            1 S1                 0.0000
     18 ****         3.3726   0.1668  -0.7903 C.3            1 S1                 0.0000
     19 ****        -3.5601   0.8633  -0.0329 S.3            1 S1                 0.0000
     20 ****        -6.4554  -0.9415   1.5704 H              1 S1                 0.0000
     21 ****        -6.4124  -2.4222   0.6158 H              1 S1                 0.0000
     22 ****        -7.7697  -1.3109   0.4597 H              1 S1                 0.0000
     23 ****        -6.2720   0.4212  -0.4604 H              1 S1                 0.0000
     24 ****        -5.8614  -0.4951  -2.7004 H              1 S1                 0.0000
     25 ****        -7.4189  -1.0356  -2.0835 H              1 S1                 0.0000
     26 ****        -6.0460  -2.1385  -2.0915 H              1 S1                 0.0000
     27 ****        -0.8219   1.3774   0.4026 H              1 S1                 0.0000
     28 ****         1.1116   1.5719   0.6445 H              1 S1                 0.0000
     29 ****         2.8443  -0.7409   1.0959 H              1 S1                 0.0000
     30 ****         3.3325   2.2706   1.0929 H              1 S1                 0.0000
     31 ****         3.0717   1.2697   2.4996 H              1 S1                 0.0000
     32 ****         5.5015   1.7412   2.1526 H              1 S1                 0.0000
     33 ****         5.1508   0.0344   2.0929 H              1 S1                 0.0000
     34 ****         6.6726   0.5433   0.2706 H              1 S1                 0.0000
     35 ****         6.1103   2.0660  -1.2814 H              1 S1                 0.0000
     36 ****         5.3033  -0.1318  -1.7356 H              1 S1                 0.0000
     37 ****         5.0269  -1.1359  -0.3377 H              1 S1                 0.0000
     38 ****         2.8769  -0.6031  -1.3825 H              1 S1                 0.0000
     39 ****         3.2076   1.1093  -1.3142 H              1 S1                 0.0000
     40 ****        -4.1012  -2.6471  -0.4922 LP             1 S1                 0.0000
     41 ****        -1.6699  -2.1795  -0.1176 LP             1 S1                 0.0000
     42 ****        -0.2991  -2.0661  -0.0078 LP             1 S1                 0.0000
     43 ****         1.4078  -1.8686   0.2096 LP             1 S1                 0.0000
     44 ****         6.1667   2.7876   0.1351 LP             1 S1                 0.0000
     45 ****         4.7373   2.4749  -0.5900 LP             1 S1                 0.0000
@<TRIPOS>BOND
    1    1    2 1     
    2    1   20 1     
    3    1   21 1     
    4    1   22 1     
    5    2    3 1     
    6    2    4 1     
    7    2   23 1     
    8    3   24 1     
    9    3   25 1     
   10    3   26 1     
   11    4   19 1     
   12    4    5 2     
   13    5    6 1     
   14    6    7 2     
   15    7    8 1     
   16    7   19 1     
   17    8    9 am    
   18    8   27 1     
   19    9   10 2     
   20    9   11 am    
   21   11   12 1     
   22   11   28 1     
   23   12   18 1     
   24   12   13 1     
   25   12   29 1     
   26   13   14 1     
   27   13   30 1     
   28   13   31 1     
   29   14   15 1     
   30   14   32 1     
   31   14   33 1     
   32   15   16 1     
   33   15   17 1     
   34   15   34 1     
   35   16   35 1     
   36   17   18 1     
   37   17   36 1     
   38   17   37 1     
   39   18   38 1     
   40   18   39 1     
   41    5   40 1     
   42    6   41 1     
   43   10   42 1     
   44   10   43 1     
   45   16   44 1     
   46   16   45 1     
@<TRIPOS>SUBSTRUCTURE
      1 S1             1
@<TRIPOS>SET
LONE_PAIRS      STATIC     ATOMS    <user>   **** ""
6 40 41 42 43 44 45
DONOR_HYDROGENS      STATIC     ATOMS    <user>   **** ""
3 27 28 35
ATOM$BLUE        STATIC     ATOMS    COLORGROUP SYSTEM
6 40 41 42 43 44 45
ATOM$RED        STATIC     ATOMS    COLORGROUP SYSTEM
3 27 28 35
