#       Name:                AV-unprocessed.smi:837
#       Creating user name   scv26
#       Creation time:       Fri Mar 27 01:35:06 2020


#       File generated by GOLD software.
#

@<TRIPOS>MOLECULE
AV-unprocessed.smi:837
    56    58     1
SMALL
NO_CHARGES


@<TRIPOS>ATOM
      1 ****        -5.0502   1.0627  -0.4498 C.3            1 S1                 0.0000
      2 ****        -4.1062   2.2715  -0.2795 C.3            1 S1                 0.0000
      3 ****        -4.3467   2.9654   1.0787 C.3            1 S1                 0.0000
      4 ****        -3.4860   4.2293   1.2314 C.3            1 S1                 0.0000
      5 ****        -1.9937   3.9195   1.0472 C.3            1 S1                 0.0000
      6 ****        -1.7316   3.2278  -0.3026 C.3            1 S1                 0.0000
      7 ****        -2.5942   1.9574  -0.5124 C.3            1 S1                 0.0000
      8 ****        -2.3665   1.4297  -1.8466 N.am           1 S1                 0.0000
      9 ****        -1.8047   0.2146  -1.8461 C.2            1 S1                 0.0000
     10 ****        -1.4992  -0.4259  -2.8508 O.2            1 S1                 0.0000
     11 ****        -1.6360  -0.1717  -0.5695 N.am           1 S1                 0.0000
     12 ****        -1.0150  -1.4395  -0.1628 C.3            1 S1                 0.0000
     13 ****         0.5074  -1.3436   0.0169 C.2            1 S1                 0.0000
     14 ****         1.1250  -0.3298  -0.3136 O.2            1 S1                 0.0000
     15 ****         1.1034  -2.4249   0.5411 N.am           1 S1                 0.0000
     16 ****         2.5342  -2.5512   0.7916 C.3            1 S1                 0.0000
     17 ****         3.3000  -2.9307  -0.4865 C.3            1 S1                 0.0000
     18 ****         4.7897  -3.0641  -0.2393 C.ar           1 S1                 0.0000
     19 ****         5.6503  -1.9590  -0.4021 C.ar           1 S1                 0.0000
     20 ****         7.0263  -2.1295  -0.1555 C.ar           1 S1                 0.0000
     21 ****         7.4836  -3.4011   0.2444 C.ar           1 S1                 0.0000
     22 ****         6.6684  -4.4661   0.4042 N.ar           1 S1                 0.0000
     23 ****         5.3503  -4.2943   0.1657 C.ar           1 S1                 0.0000
     24 ****        -2.0611   0.7668   0.2875 C.2            1 S1                 0.0000
     25 ****        -2.0330   0.7054   1.5169 O.2            1 S1                 0.0000
     26 ****        -4.8727   0.2997   0.3085 H              1 S1                 0.0000
     27 ****        -4.9350   0.5954  -1.4278 H              1 S1                 0.0000
     28 ****        -6.0924   1.3704  -0.3623 H              1 S1                 0.0000
     29 ****        -4.3965   2.9880  -1.0498 H              1 S1                 0.0000
     30 ****        -5.3986   3.2376   1.1730 H              1 S1                 0.0000
     31 ****        -4.1397   2.2779   1.8991 H              1 S1                 0.0000
     32 ****        -3.7970   4.9728   0.4964 H              1 S1                 0.0000
     33 ****        -3.6531   4.6763   2.2118 H              1 S1                 0.0000
     34 ****        -1.4166   4.8426   1.1055 H              1 S1                 0.0000
     35 ****        -1.6438   3.2934   1.8680 H              1 S1                 0.0000
     36 ****        -1.9352   3.9369  -1.1062 H              1 S1                 0.0000
     37 ****        -0.6703   2.9859  -0.3822 H              1 S1                 0.0000
     38 ****        -2.5967   1.9467  -2.6827 H              1 S1                 0.0000
     39 ****        -1.4604  -1.7875   0.7709 H              1 S1                 0.0000
     40 ****        -1.2302  -2.2146  -0.9002 H              1 S1                 0.0000
     41 ****         0.5250  -3.2160   0.7850 H              1 S1                 0.0000
     42 ****         2.9236  -1.6209   1.2094 H              1 S1                 0.0000
     43 ****         2.6783  -3.3178   1.5537 H              1 S1                 0.0000
     44 ****         2.9201  -3.8722  -0.8860 H              1 S1                 0.0000
     45 ****         3.1386  -2.1810  -1.2627 H              1 S1                 0.0000
     46 ****         5.2645  -0.9974  -0.7080 H              1 S1                 0.0000
     47 ****         7.7149  -1.3053  -0.2697 H              1 S1                 0.0000
     48 ****         8.5325  -3.5670   0.4418 H              1 S1                 0.0000
     49 ****         4.7246  -5.1637   0.3052 H              1 S1                 0.0000
     50 ****        -1.6680  -0.0424  -3.7588 LP             1 S1                 0.0000
     51 ****        -1.0819  -1.3301  -2.7596 LP             1 S1                 0.0000
     52 ****         0.6350   0.4485  -0.7062 LP             1 S1                 0.0000
     53 ****         2.1163  -0.2853  -0.1891 LP             1 S1                 0.0000
     54 ****         7.0295  -5.3537   0.6901 LP             1 S1                 0.0000
     55 ****        -2.3747   1.4698   2.0637 LP             1 S1                 0.0000
     56 ****        -1.6684  -0.1088   1.9687 LP             1 S1                 0.0000
@<TRIPOS>BOND
    1    1    2 1     
    2    1   26 1     
    3    1   27 1     
    4    1   28 1     
    5    2    7 1     
    6    2    3 1     
    7    2   29 1     
    8    3    4 1     
    9    3   30 1     
   10    3   31 1     
   11    4    5 1     
   12    4   32 1     
   13    4   33 1     
   14    5    6 1     
   15    5   34 1     
   16    5   35 1     
   17    6    7 1     
   18    6   36 1     
   19    6   37 1     
   20    7   24 1     
   21    7    8 1     
   22    8    9 am    
   23    8   38 1     
   24    9   10 2     
   25    9   11 am    
   26   11   12 1     
   27   11   24 am    
   28   12   13 1     
   29   12   39 1     
   30   12   40 1     
   31   13   14 2     
   32   13   15 am    
   33   15   16 1     
   34   15   41 1     
   35   16   17 1     
   36   16   42 1     
   37   16   43 1     
   38   17   18 1     
   39   17   44 1     
   40   17   45 1     
   41   18   23 ar    
   42   18   19 ar    
   43   19   20 ar    
   44   19   46 1     
   45   20   21 ar    
   46   20   47 1     
   47   21   22 ar    
   48   21   48 1     
   49   22   23 ar    
   50   23   49 1     
   51   24   25 2     
   52   10   50 1     
   53   10   51 1     
   54   14   52 1     
   55   14   53 1     
   56   22   54 1     
   57   25   55 1     
   58   25   56 1     
@<TRIPOS>SUBSTRUCTURE
      1 S1             1
@<TRIPOS>SET
LONE_PAIRS      STATIC     ATOMS    <user>   **** ""
7 50 51 52 53 54 55 56
DONOR_HYDROGENS      STATIC     ATOMS    <user>   **** ""
2 38 41
ATOM$BLUE        STATIC     ATOMS    COLORGROUP SYSTEM
7 50 51 52 53 54 55 56
ATOM$RED        STATIC     ATOMS    COLORGROUP SYSTEM
2 38 41
