#       Name:                AV-unprocessed.smi:639
#       Creating user name   scv26
#       Creation time:       Fri Mar 27 00:07:18 2020


#       File generated by GOLD software.
#

@<TRIPOS>MOLECULE
AV-unprocessed.smi:639
    29    30     1
SMALL
NO_CHARGES


@<TRIPOS>ATOM
      1 ****        -3.6113   1.1649   0.0641 C.3            1 S1                 0.0000
      2 ****        -2.3651   0.4295   0.0592 N.pl3          1 S1                 0.0000
      3 ****        -1.0772   0.9182   0.0563 C.2            1 S1                 0.0000
      4 ****        -0.2244  -0.1520   0.0476 C.2            1 S1                 0.0000
      5 ****         1.2932  -0.1520   0.0402 C.3            1 S1                 0.0000
      6 ****         1.8757   0.6778   1.2006 C.3            1 S1                 0.0000
      7 ****         1.8466  -1.4906   0.0570 N.am           1 S1                 0.0000
      8 ****         2.5270  -1.7504  -1.0585 C.2            1 S1                 0.0000
      9 ****         3.0677  -2.8377  -1.2466 O.2            1 S1                 0.0000
     10 ****         2.5107  -0.6776  -1.8736 N.pl3          1 S1                -1.0000
     11 ****         1.8119   0.3365  -1.3179 C.2            1 S1                 0.0000
     12 ****         1.5885   1.4705  -1.7412 O.2            1 S1                 0.0000
     13 ****        -1.1130  -1.2682   0.0457 C.2            1 S1                 0.0000
     14 ****        -2.3890  -0.9180   0.0558 N.2            1 S1                 0.0000
     15 ****        -3.4130   2.2371   0.0647 H              1 S1                 0.0000
     16 ****        -4.1869   0.9097   0.9542 H              1 S1                 0.0000
     17 ****        -4.1917   0.9124  -0.8238 H              1 S1                 0.0000
     18 ****        -0.8712   1.9785   0.0564 H              1 S1                 0.0000
     19 ****         1.5316   1.7121   1.1648 H              1 S1                 0.0000
     20 ****         2.9661   0.6954   1.1737 H              1 S1                 0.0000
     21 ****         1.5779   0.2649   2.1648 H              1 S1                 0.0000
     22 ****         1.7148  -2.1401   0.8181 H              1 S1                 0.0000
     23 ****        -0.8687  -2.3203   0.0383 H              1 S1                 0.0000
     24 ****         3.0032  -3.5549  -0.5527 LP             1 S1                 0.0000
     25 ****         3.5722  -3.0054  -2.0936 LP             1 S1                 0.0000
     26 ****         2.9554  -0.6375  -2.7684 LP             1 S1                 0.0000
     27 ****         1.0507   2.1116  -1.1937 LP             1 S1                 0.0000
     28 ****         1.9448   1.7506  -2.6326 LP             1 S1                 0.0000
     29 ****        -3.1895  -1.5173   0.0600 LP             1 S1                 0.0000
@<TRIPOS>BOND
    1    1    2 1     
    2    1   15 1     
    3    1   16 1     
    4    1   17 1     
    5    2   14 1     
    6    2    3 1     
    7    3    4 2     
    8    3   18 1     
    9    4    5 1     
   10    4   13 1     
   11    5   11 1     
   12    5    6 1     
   13    5    7 1     
   14    6   19 1     
   15    6   20 1     
   16    6   21 1     
   17    7    8 am    
   18    7   22 1     
   19    8    9 2     
   20    8   10 1     
   21   10   11 1     
   22   11   12 2     
   23   13   14 2     
   24   13   23 1     
   25    9   24 1     
   26    9   25 1     
   27   10   26 1     
   28   12   27 1     
   29   12   28 1     
   30   14   29 1     
@<TRIPOS>SUBSTRUCTURE
      1 S1             1
@<TRIPOS>SET
LONE_PAIRS      STATIC     ATOMS    <user>   **** ""
6 24 25 26 27 28 29
DONOR_HYDROGENS      STATIC     ATOMS    <user>   **** ""
1 22
ATOM$BLUE        STATIC     ATOMS    COLORGROUP SYSTEM
6 24 25 26 27 28 29
ATOM$RED        STATIC     ATOMS    COLORGROUP SYSTEM
1 22
