#       Name:                AV-unprocessed.smi:2729
#       Creating user name   scv26
#       Creation time:       Fri Mar 27 14:57:07 2020


#       File generated by GOLD software.
#

@<TRIPOS>MOLECULE
AV-unprocessed.smi:2729
    36    37     1
SMALL
NO_CHARGES


@<TRIPOS>ATOM
      1 ****        -2.5481   1.3696   0.9764 C.3            1 S1                 0.0000
      2 ****        -1.9504  -0.0486   0.8648 C.3            1 S1                 0.0000
      3 ****        -0.4859   0.0175   0.7587 N.am           1 S1                 0.0000
      4 ****         0.2560   0.5808  -0.2088 C.2            1 S1                 0.0000
      5 ****        -0.2143   1.1673  -1.1828 O.2            1 S1                 0.0000
      6 ****         1.5670   0.4294   0.0445 N.am           1 S1                 0.0000
      7 ****         2.6740   0.8569  -0.7370 C.ar           1 S1                 0.0000
      8 ****         2.6144   1.1169  -2.1278 C.ar           1 S1                 0.0000
      9 ****         3.7886   1.5148  -2.7954 C.ar           1 S1                 0.0000
     10 ****         4.9786   1.6314  -2.0515 C.ar           1 S1                 0.0000
     11 ****         5.0530   1.3739  -0.7288 N.ar           1 S1                 0.0000
     12 ****         3.9235   0.9920  -0.0956 C.ar           1 S1                 0.0000
     13 ****        -2.5616  -0.8358  -0.3252 C.3            1 S1                 0.0000
     14 ****        -2.2526  -2.3291  -0.1658 C.3            1 S1                 0.0000
     15 ****        -2.2236  -2.6358   1.6380 S.o2           1 S1                 0.0000
     16 ****        -3.4747  -3.2902   2.0498 O.2            1 S1                 0.0000
     17 ****        -0.9161  -3.2017   2.0037 O.2            1 S1                 0.0000
     18 ****        -2.2818  -0.8687   2.1281 C.3            1 S1                 0.0000
     19 ****        -3.6270   1.3323   1.1303 H              1 S1                 0.0000
     20 ****        -2.3770   1.9583   0.0753 H              1 S1                 0.0000
     21 ****        -2.1168   1.9149   1.8167 H              1 S1                 0.0000
     22 ****         0.0205  -0.4315   1.5078 H              1 S1                 0.0000
     23 ****         1.8022  -0.0002   0.9274 H              1 S1                 0.0000
     24 ****         1.7037   1.0057  -2.6953 H              1 S1                 0.0000
     25 ****         3.7781   1.7210  -3.8553 H              1 S1                 0.0000
     26 ****         5.8968   1.9337  -2.5330 H              1 S1                 0.0000
     27 ****         4.0218   0.7917   0.9615 H              1 S1                 0.0000
     28 ****        -3.6454  -0.7137  -0.3015 H              1 S1                 0.0000
     29 ****        -2.2413  -0.4652  -1.2986 H              1 S1                 0.0000
     30 ****        -2.9903  -2.9710  -0.6476 H              1 S1                 0.0000
     31 ****        -1.2669  -2.5665  -0.5666 H              1 S1                 0.0000
     32 ****        -1.6052  -0.6861   2.9639 H              1 S1                 0.0000
     33 ****        -3.2976  -0.6642   2.4687 H              1 S1                 0.0000
     34 ****        -1.2056   1.2459  -1.2884 LP             1 S1                 0.0000
     35 ****         0.3947   1.5654  -1.8688 LP             1 S1                 0.0000
     36 ****         5.9171   1.4631  -0.2335 LP             1 S1                 0.0000
@<TRIPOS>BOND
    1    1    2 1     
    2    1   19 1     
    3    1   20 1     
    4    1   21 1     
    5    2   18 1     
    6    2    3 1     
    7    2   13 1     
    8    3    4 am    
    9    3   22 1     
   10    4    5 2     
   11    4    6 am    
   12    6    7 1     
   13    6   23 1     
   14    7   12 ar    
   15    7    8 ar    
   16    8    9 ar    
   17    8   24 1     
   18    9   10 ar    
   19    9   25 1     
   20   10   11 ar    
   21   10   26 1     
   22   11   12 ar    
   23   12   27 1     
   24   13   14 1     
   25   13   28 1     
   26   13   29 1     
   27   14   15 1     
   28   14   30 1     
   29   14   31 1     
   30   15   16 2     
   31   15   17 2     
   32   15   18 1     
   33   18   32 1     
   34   18   33 1     
   35    5   34 1     
   36    5   35 1     
   37   11   36 1     
@<TRIPOS>SUBSTRUCTURE
      1 S1             1
@<TRIPOS>SET
LONE_PAIRS      STATIC     ATOMS    <user>   **** ""
5 34 35 36 16 17
DONOR_HYDROGENS      STATIC     ATOMS    <user>   **** ""
2 22 23
ATOM$BLUE        STATIC     ATOMS    COLORGROUP SYSTEM
5 34 35 36 16 17
ATOM$RED        STATIC     ATOMS    COLORGROUP SYSTEM
2 22 23
