AV-unprocessed.smi:234|AV-procd|sdf|1795|dock9
  -GOLD-   2262020363D 1   1.00000     0.00000
 Structure written by MMmdl.
 59 62  0  0  0  0  0  0  0  0  1 V2000
  151.3613  143.1023  157.5587 C   0  0  0  0  0  0  0  0  0  0  0  0
  151.5061  141.5773  157.6425 C   0  0  0  0  0  0  0  0  0  0  0  0
  150.2601  140.9049  157.5162 O   0  0  0  0  0  0  0  0  0  0  0  0
  149.6012  141.0908  156.2699 C   0  0  2  0  0  0  0  0  0  0  0  0
  148.1104  141.4291  156.3628 C   0  0  0  0  0  0  0  0  0  0  0  0
  147.9441  140.5269  155.1378 C   0  0  2  0  0  0  0  0  0  0  0  0
  146.6970  139.7584  155.1409 N   0  0  0  0  0  0  0  0  0  0  0  0
  145.5066  140.4543  155.6120 C   0  0  0  0  0  0  0  0  0  0  0  0
  146.4292  139.0729  154.0052 C   0  0  0  0  0  0  0  0  0  0  0  0
  147.1073  139.3507  152.8599 N   0  0  0  0  0  0  0  0  0  0  0  0
  146.8461  138.6619  151.7452 C   0  0  0  0  0  0  0  0  0  0  0  0
  145.9649  137.6763  151.5600 N   0  0  0  0  0  0  0  0  0  0  0  0
  145.2769  137.4040  152.7061 C   0  0  0  0  0  0  0  0  0  0  0  0
  145.4382  138.0574  153.9590 C   0  0  0  0  0  0  0  0  0  0  0  0
  144.5656  137.5196  154.8957 N   0  0  0  0  0  0  0  0  0  0  0  0
  143.9273  136.5927  154.2347 C   0  0  0  0  0  0  0  0  0  0  0  0
  144.3031  136.4437  152.9179 N   0  0  0  0  0  0  0  0  0  0  0  0
  143.7780  135.4765  151.9666 C   0  0  0  0  0  0  0  0  0  0  0  0
  144.3365  134.0468  152.1728 C   0  0  1  0  0  0  0  0  0  0  0  0
  144.1377  133.6836  153.5290 O   0  0  0  0  0  0  0  0  0  0  0  0
  143.6219  133.0153  151.2933 C   0  0  0  0  0  0  0  0  0  0  0  0
  144.6894  132.5699  150.3006 C   0  0  0  0  0  0  0  0  0  0  0  0
  145.8850  132.6711  151.0525 O   0  0  0  0  0  0  0  0  0  0  0  0
  145.8252  133.8999  151.7608 C   0  0  2  0  0  0  0  0  0  0  0  0
  146.8738  133.9284  152.8857 C   0  0  0  0  0  0  0  0  0  0  0  0
  149.2123  139.7493  155.5970 C   0  0  0  0  0  0  0  0  0  0  0  0
  150.1580  139.2782  154.4919 C   0  0  0  0  0  0  0  0  0  0  0  0
  149.0148  138.5604  156.5567 C   0  0  0  0  0  0  0  0  0  0  0  0
  152.3086  143.5905  157.7872 H   0  0  0  0  0  0  0  0  0  0  0  0
  150.6198  143.4649  158.2709 H   0  0  0  0  0  0  0  0  0  0  0  0
  151.0627  143.4270  156.5631 H   0  0  0  0  0  0  0  0  0  0  0  0
  152.2248  141.2100  156.9087 H   0  0  0  0  0  0  0  0  0  0  0  0
  151.9107  141.3209  158.6218 H   0  0  0  0  0  0  0  0  0  0  0  0
  150.1434  141.7459  155.5834 H   0  0  0  0  0  0  0  0  0  0  0  0
  147.6341  141.0468  157.2673 H   0  0  0  0  0  0  0  0  0  0  0  0
  147.8652  142.4762  156.1852 H   0  0  0  0  0  0  0  0  0  0  0  0
  148.1137  141.0857  154.2147 H   0  0  0  0  0  0  0  0  0  0  0  0
  145.2887  141.3151  154.9788 H   0  0  0  0  0  0  0  0  0  0  0  0
  145.6494  140.8100  156.6323 H   0  0  0  0  0  0  0  0  0  0  0  0
  144.6350  139.7983  155.6113 H   0  0  0  0  0  0  0  0  0  0  0  0
  147.4289  138.9374  150.8788 H   0  0  0  0  0  0  0  0  0  0  0  0
  143.1692  135.9773  154.6969 H   0  0  0  0  0  0  0  0  0  0  0  0
  142.6899  135.4753  152.0454 H   0  0  0  0  0  0  0  0  0  0  0  0
  144.0095  135.8270  150.9601 H   0  0  0  0  0  0  0  0  0  0  0  0
  143.5361  132.9552  153.5563 H   0  0  0  0  0  0  0  0  0  0  0  0
  143.3010  132.1519  151.8788 H   0  0  0  0  0  0  0  0  0  0  0  0
  142.7387  133.4107  150.7907 H   0  0  0  0  0  0  0  0  0  0  0  0
  144.5274  131.5565  149.9332 H   0  0  0  0  0  0  0  0  0  0  0  0
  144.7341  133.2458  149.4452 H   0  0  0  0  0  0  0  0  0  0  0  0
  146.0756  134.6754  151.0358 H   0  0  0  0  0  0  0  0  0  0  0  0
  146.8253  134.8604  153.4493 H   0  0  0  0  0  0  0  0  0  0  0  0
  147.8799  133.8453  152.4750 H   0  0  0  0  0  0  0  0  0  0  0  0
  146.7372  133.1032  153.5846 H   0  0  0  0  0  0  0  0  0  0  0  0
  149.7882  138.3786  153.9990 H   0  0  0  0  0  0  0  0  0  0  0  0
  151.1485  139.0515  154.8873 H   0  0  0  0  0  0  0  0  0  0  0  0
  150.2826  140.0393  153.7215 H   0  0  0  0  0  0  0  0  0  0  0  0
  148.6453  137.6764  156.0370 H   0  0  0  0  0  0  0  0  0  0  0  0
  148.3036  138.7852  157.3516 H   0  0  0  0  0  0  0  0  0  0  0  0
  149.9520  138.2778  157.0367 H   0  0  0  0  0  0  0  0  0  0  0  0
  1  2  1  0  0  0  0
  1 29  1  0  0  0  0
  1 30  1  0  0  0  0
  1 31  1  0  0  0  0
  2  3  1  0  0  0  0
  2 32  1  0  0  0  0
  2 33  1  0  0  0  0
  3  4  1  0  0  0  0
  4 26  1  0  0  0  0
  4  5  1  0  0  0  0
  4 34  1  0  0  0  0
  5  6  1  0  0  0  0
  5 35  1  0  0  0  0
  5 36  1  0  0  0  0
  6  7  1  0  0  0  0
  6 26  1  0  0  0  0
  6 37  1  0  0  0  0
  7  8  1  0  0  0  0
  7  9  1  0  0  0  0
  8 38  1  0  0  0  0
  8 39  1  0  0  0  0
  8 40  1  0  0  0  0
  9 14  1  0  0  0  0
  9 10  2  0  0  0  0
 10 11  1  0  0  0  0
 11 12  2  0  0  0  0
 11 41  1  0  0  0  0
 12 13  1  0  0  0  0
 13 17  1  0  0  0  0
 13 14  2  0  0  0  0
 14 15  1  0  0  0  0
 15 16  2  0  0  0  0
 16 17  1  0  0  0  0
 16 42  1  0  0  0  0
 17 18  1  0  0  0  0
 18 19  1  0  0  0  0
 18 43  1  0  0  0  0
 18 44  1  0  0  0  0
 19 24  1  0  0  0  0
 19 20  1  0  0  0  0
 19 21  1  0  0  0  0
 20 45  1  0  0  0  0
 21 22  1  0  0  0  0
 21 46  1  0  0  0  0
 21 47  1  0  0  0  0
 22 23  1  0  0  0  0
 22 48  1  0  0  0  0
 22 49  1  0  0  0  0
 23 24  1  0  0  0  0
 24 25  1  0  0  0  0
 24 50  1  0  0  0  0
 25 51  1  0  0  0  0
 25 52  1  0  0  0  0
 25 53  1  0  0  0  0
 26 27  1  0  0  0  0
 26 28  1  0  0  0  0
 27 54  1  0  0  0  0
 27 55  1  0  0  0  0
 27 56  1  0  0  0  0
 28 57  1  0  0  0  0
 28 58  1  0  0  0  0
 28 59  1  0  0  0  0
M  END
> <s_m_source_file>
AV-unprocessed.smi

> <i_m_source_file_index>
234

> <i_lp_mmshare_version>
43012

> <i_f3d_flags>
0

> <s_epik_input>
W0NIM11bQ0gyXU9bQ0BASF0oQzEoW0NIM10pW0NIM10pW0NIMl1bQ0BIXTFOKFtDSDNdKWMobltjSF1uMiljKGMyMyluW2NIXW4zW0NIMl1bQ0BAXTQoW09IXSlbQ0gyXVtDSDJdT1tDQEhdNFtDSDNd

> <s_epik_cmdline>
J2VwaWtfcHl0aG9uJywgJy1waCcsICc3LjAnLCAnLXRuJywgJzgnLCAnLW1hJywgJzIwMCcsICctbWV0YWxfYmluZGluZycsICctaW1hZScsICc8aW5maWxlLm1hZT4nLCAnLW9tYWUnLCAnPG91dGZpbGUubWFlPic=

> <r_lp_tautomer_probability>
1

> <r_epik_Ionization_Penalty>
0.00349132

> <r_epik_Ionization_Penalty_Charging>
0

> <r_epik_Ionization_Penalty_Neutral>
0.00349132

> <r_epik_State_Penalty>
0.00242418

> <r_epik_Charging_Adjusted_Penalty>
0.00242418

> <i_epik_Tot_Q>
0

> <i_epik_Tot_abs_Q>
0

> <r_epik_Metal_State_Penalty>
-0

> <b_epik_Metal_Only>
0

> <s_lp_Force_Field>
OPLS_2005

> <r_lp_Energy>
47.8509

> <b_lp_Chiralities_Consistent>
1

> <s_lp_Variant>
AV-unprocessed.smi:234-11

> <Gold.Version>
5.8.1

> <Gold.Id.Protein>
6NUR|6NUR_protein|mol2

> <Gold.PLP.Fitness>
35.7181

> <Gold.PLP.PLP>
-33.4136

> <Gold.PLP.part.hbond>
-1.0000

> <Gold.PLP.part.metal>
0.0000

> <Gold.PLP.part.buried>
-6.0964

> <Gold.PLP.part.nonpolar>
-29.1604

> <Gold.PLP.part.repulsive>
3.1417

> <Gold.PLP.ligand.clash>
0.0000

> <Gold.PLP.ligand.torsion>
1.7259

> <Gold.PLP.Chemscore.Hbond>
0.8800

> <Gold.PLP.Chemscore.CHOScore>
0.7950

> <Gold.PLP.Chemscore.Metal>
0.0000

> <Gold.Chemscore.Hbonds>
donor molecule, donor type, donor heavy atom, donor atom, acceptor molecule, acceptor atom, score
      L1  H    20    45       P1 10957  0.85
      L1  C    11    41       P1  7957  0.83

> <Gold.PLP.Chemscore.Internal.Correction>
0.7314

> <Gold.Rescore>
     Score         DG    S(hbond)    S(metal)    S(lipo)     H(rot)  DE(clash)    DE(int)     intcor
      8.88     -10.55       0.92        0.00      74.53       2.62       0.08       1.60       ----

> <Gold.Chemscore.Fitness>
8.8764

> <Gold.Chemscore.DG>
-10.5486

> <Gold.Chemscore.ZeroCoef>
-5.4800

> <Gold.Chemscore.Hbond>
0.9164

> <Gold.Chemscore.Metal>
0.0000

> <Gold.Chemscore.Lipo>
74.5303

> <Gold.Chemscore.Internal_Hbond>
0.0000

> <Gold.Chemscore.DEClash>
0.0754

> <Gold.Chemscore.DEInternal>
1.5968

> <Gold.Chemscore.Rot>
2.6219

> <Gold.Chemscore.Internal.Correction>
   9.000000E+99

> <Gold.Chemscore.Hbonds>
donor molecule, donor type, donor heavy atom, donor atom, acceptor molecule, acceptor atom, score
      L1  H    20    45       P1 10957  0.75

> <Gold.Chemscore.Hbond.Weighted>
-3.0606

> <Gold.Chemscore.Metal.Weighted>
-0.0000

> <Gold.Chemscore.Lipo.Weighted>
-8.7200

> <Gold.Chemscore.Internal_Hbond.Weighted>
0.0000

> <Gold.Chemscore.DEClash.Weighted>
0.0754

> <Gold.Chemscore.DEInternal.Weighted>
1.5968

> <Gold.Chemscore.Rot.Weighted>
6.7121

> <Gold.Chemscore.Internal.Correction.Weighted>
   9.000000E+99

> <Gold.Protein.RotatedTorsions>
[ 6907 6896 6895 6894 ] final  -95.14 input  -60.11 | X-H torsion
[ 7974 7965 7964 7962 ] final   74.08 input  175.53 | X-H torsion
[ 8008 7997 7996 7995 ] final   44.57 input   59.86 | X-H torsion
[ 10167 10162 10161 10158 ] final -152.22 input  -65.29 | X-H torsion
[ 10718 10713 10712 10709 ] final  167.41 input   66.30 | X-H torsion
[ 10763 10752 10751 10750 ] final  -54.49 input  -60.55 | X-H torsion
[ 11005 11000 10999 10996 ] final -178.87 input  -57.11 | X-H torsion

> <Gold.Protein.ActiveResidues>
 VAL166  LYS551  ARG553  GLY616  TRP617  ASP618  TYR619  PRO620  LYS621  CYS622 
 ASP623  PHE694  ASN695  SER759  ASP760  ASP761  ALA762  ILE779  LEU786  VAL792 
 PHE793  MET794  SER795  GLU796  ALA797  LYS798  CYS799  TRP800  GLU811  SER814 

> <Gold.Protein.RotatedAtoms>
  150.6957  134.1703  159.4209 H   0  0  0  0  0  0  0  0  0  0  0  0  # atno 6907 bound_to 6896
  151.9681  135.0088  160.0560 H   0  0  0  0  0  0  0  0  0  0  0  0  # atno 6908 bound_to 6896
  152.1866  133.4709  159.5023 H   0  0  0  0  0  0  0  0  0  0  0  0  # atno 6909 bound_to 6896
  145.7327  139.2690  143.1532 H   0  0  0  0  0  0  0  0  0  0  0  0  # atno 7974 bound_to 7965
  155.3216  140.3397  155.4241 H   0  0  0  0  0  0  0  0  0  0  0  0  # atno 8008 bound_to 7997
  156.1906  140.1696  156.8136 H   0  0  0  0  0  0  0  0  0  0  0  0  # atno 8009 bound_to 7997
  154.5438  140.0719  156.8538 H   0  0  0  0  0  0  0  0  0  0  0  0  # atno 8010 bound_to 7997
  139.7200  143.8972  152.2500 H   0  0  0  0  0  0  0  0  0  0  0  0  # atno 10167 bound_to 10162
  157.0519  131.0316  151.2677 H   0  0  0  0  0  0  0  0  0  0  0  0  # atno 10718 bound_to 10713
  154.1757  135.6451  153.5021 H   0  0  0  0  0  0  0  0  0  0  0  0  # atno 10763 bound_to 10752
  153.0072  135.5394  154.6566 H   0  0  0  0  0  0  0  0  0  0  0  0  # atno 10764 bound_to 10752
  154.5917  135.2935  155.0601 H   0  0  0  0  0  0  0  0  0  0  0  0  # atno 10765 bound_to 10752
  140.4250  134.6571  157.4683 H   0  0  0  0  0  0  0  0  0  0  0  0  # atno 11005 bound_to 11000
  146.0522  140.8057  142.9776 LP  0  0  0  0  0  0  0  0  0  0  0  0  # atno 17320 bound_to 7965
  144.6889  140.3070  143.7254 LP  0  0  0  0  0  0  0  0  0  0  0  0  # atno 17321 bound_to 7965
  139.8865  144.6989  150.8818 LP  0  0  0  0  0  0  0  0  0  0  0  0  # atno 17342 bound_to 10162
  140.7752  143.3620  151.1811 LP  0  0  0  0  0  0  0  0  0  0  0  0  # atno 17343 bound_to 10162
  157.5023  130.7887  149.7617 LP  0  0  0  0  0  0  0  0  0  0  0  0  # atno 17370 bound_to 10713
  156.0005  130.3883  150.2625 LP  0  0  0  0  0  0  0  0  0  0  0  0  # atno 17371 bound_to 10713
  140.0174  134.6599  155.9290 LP  0  0  0  0  0  0  0  0  0  0  0  0  # atno 17394 bound_to 11000
  141.1769  133.6541  156.4863 LP  0  0  0  0  0  0  0  0  0  0  0  0  # atno 17395 bound_to 11000

$$$$
