AV-unprocessed.smi:1257|AV-procd|sdf|5285|dock6
  -GOLD-   22720 4403D 1   1.00000     0.00000
 Structure written by MMmdl.
 47 48  0  0  0  0  0  0  0  0  1 V2000
  153.3655  131.6693  156.8069 C   0  0  0  0  0  0  0  0  0  0  0  0
  152.1361  131.1543  156.0466 C   0  0  0  0  0  0  0  0  0  0  0  0
  151.2452  132.2435  155.6641 N   0  0  0  0  0  0  0  0  0  0  0  0
  150.5282  132.9888  156.5184 C   0  0  0  0  0  0  0  0  0  0  0  0
  150.5394  132.8155  157.7382 O   0  0  0  0  0  0  0  0  0  0  0  0
  149.6505  134.0773  155.8883 C   0  0  0  0  0  0  0  0  0  0  0  0
  150.0171  135.4221  156.3246 N   0  0  0  0  0  0  0  0  0  0  0  0
  150.7704  136.2848  155.6221 C   0  0  0  0  0  0  0  0  0  0  0  0
  151.2346  136.0317  154.5100 O   0  0  0  0  0  0  0  0  0  0  0  0
  151.0867  137.5809  156.3108 C   0  0  0  0  0  0  0  0  0  0  0  0
  151.9659  138.5130  155.7183 C   0  0  0  0  0  0  0  0  0  0  0  0
  152.2269  139.7270  156.3823 C   0  0  0  0  0  0  0  0  0  0  0  0
  151.5959  139.9734  157.6188 C   0  0  0  0  0  0  0  0  0  0  0  0
  151.8559  141.1785  158.2857 N   0  0  0  0  0  0  0  0  0  0  0  0
  150.7195  142.0903  158.2888 C   0  0  0  0  0  0  0  0  0  0  0  0
  151.1090  143.4471  158.9089 C   0  0  2  0  0  0  0  0  0  0  0  0
  151.9769  144.3192  157.9841 C   0  0  0  0  0  0  0  0  0  0  0  0
  151.7178  143.2476  160.1881 O   0  0  0  0  0  0  0  0  0  0  0  0
  152.8460  142.3716  160.1869 C   0  0  1  0  0  0  0  0  0  0  0  0
  153.3603  142.2542  161.6253 C   0  0  0  0  0  0  0  0  0  0  0  0
  152.4305  141.0055  159.6126 C   0  0  0  0  0  0  0  0  0  0  0  0
  150.7400  139.0924  158.1888 N   0  0  0  0  0  0  0  0  0  0  0  0
  150.4921  137.9319  157.5449 C   0  0  0  0  0  0  0  0  0  0  0  0
  154.0037  130.8412  157.1153 H   0  0  0  0  0  0  0  0  0  0  0  0
  153.0740  132.2159  157.7042 H   0  0  0  0  0  0  0  0  0  0  0  0
  153.9660  132.3361  156.1874 H   0  0  0  0  0  0  0  0  0  0  0  0
  152.4438  130.5896  155.1649 H   0  0  0  0  0  0  0  0  0  0  0  0
  151.5771  130.4632  156.6777 H   0  0  0  0  0  0  0  0  0  0  0  0
  151.1731  132.4493  154.6781 H   0  0  0  0  0  0  0  0  0  0  0  0
  149.6913  134.0100  154.7994 H   0  0  0  0  0  0  0  0  0  0  0  0
  148.6147  133.8949  156.1750 H   0  0  0  0  0  0  0  0  0  0  0  0
  149.7052  135.7023  157.2429 H   0  0  0  0  0  0  0  0  0  0  0  0
  152.4419  138.3059  154.7707 H   0  0  0  0  0  0  0  0  0  0  0  0
  152.9005  140.4524  155.9498 H   0  0  0  0  0  0  0  0  0  0  0  0
  150.3459  142.2290  157.2735 H   0  0  0  0  0  0  0  0  0  0  0  0
  149.9080  141.6470  158.8682 H   0  0  0  0  0  0  0  0  0  0  0  0
  150.1895  144.0031  159.0925 H   0  0  0  0  0  0  0  0  0  0  0  0
  151.4401  144.5607  157.0664 H   0  0  0  0  0  0  0  0  0  0  0  0
  152.9029  143.8230  157.6952 H   0  0  0  0  0  0  0  0  0  0  0  0
  152.2376  145.2597  158.4703 H   0  0  0  0  0  0  0  0  0  0  0  0
  153.6423  142.7991  159.5770 H   0  0  0  0  0  0  0  0  0  0  0  0
  154.2327  141.6021  161.6782 H   0  0  0  0  0  0  0  0  0  0  0  0
  152.5955  141.8448  162.2859 H   0  0  0  0  0  0  0  0  0  0  0  0
  153.6511  143.2297  162.0157 H   0  0  0  0  0  0  0  0  0  0  0  0
  151.7010  140.5311  160.2706 H   0  0  0  0  0  0  0  0  0  0  0  0
  153.2948  140.3424  159.5559 H   0  0  0  0  0  0  0  0  0  0  0  0
  149.7945  137.2702  158.0376 H   0  0  0  0  0  0  0  0  0  0  0  0
  1  2  1  0  0  0  0
  1 24  1  0  0  0  0
  1 25  1  0  0  0  0
  1 26  1  0  0  0  0
  2  3  1  0  0  0  0
  2 27  1  0  0  0  0
  2 28  1  0  0  0  0
  3  4  1  0  0  0  0
  3 29  1  0  0  0  0
  4  5  2  0  0  0  0
  4  6  1  0  0  0  0
  6  7  1  0  0  0  0
  6 30  1  0  0  0  0
  6 31  1  0  0  0  0
  7  8  1  0  0  0  0
  7 32  1  0  0  0  0
  8  9  2  0  0  0  0
  8 10  1  0  0  0  0
 10 23  1  0  0  0  0
 10 11  2  0  0  0  0
 11 12  1  0  0  0  0
 11 33  1  0  0  0  0
 12 13  2  0  0  0  0
 12 34  1  0  0  0  0
 13 14  1  0  0  0  0
 13 22  1  0  0  0  0
 14 21  1  0  0  0  0
 14 15  1  0  0  0  0
 15 16  1  0  0  0  0
 15 35  1  0  0  0  0
 15 36  1  0  0  0  0
 16 17  1  0  0  0  0
 16 18  1  0  0  0  0
 16 37  1  0  0  0  0
 17 38  1  0  0  0  0
 17 39  1  0  0  0  0
 17 40  1  0  0  0  0
 18 19  1  0  0  0  0
 19 20  1  0  0  0  0
 19 21  1  0  0  0  0
 19 41  1  0  0  0  0
 20 42  1  0  0  0  0
 20 43  1  0  0  0  0
 20 44  1  0  0  0  0
 21 45  1  0  0  0  0
 21 46  1  0  0  0  0
 22 23  2  0  0  0  0
 23 47  1  0  0  0  0
M  END
> <s_m_source_file>
AV-unprocessed.smi

> <i_m_source_file_index>
1257

> <i_lp_mmshare_version>
43012

> <i_f3d_flags>
0

> <s_epik_input>
W0NIM11bQ0gyXVtOSF1DKD1PKVtDSDJdW05IXUMoPU8pYzFbY0hdW2NIXWMobltjSF0xKU4yW0NIMl1bQ0BASF0oW0NIM10pT1tDQEBIXShbQ0gzXSlbQ0gyXTI=

> <s_epik_cmdline>
J2VwaWtfcHl0aG9uJywgJy1waCcsICc3LjAnLCAnLXRuJywgJzgnLCAnLW1hJywgJzIwMCcsICctbWV0YWxfYmluZGluZycsICctaW1hZScsICc8aW5maWxlLm1hZT4nLCAnLW9tYWUnLCAnPG91dGZpbGUubWFlPic=

> <r_lp_tautomer_probability>
1

> <r_epik_Ionization_Penalty>
1.15681e-05

> <r_epik_Ionization_Penalty_Charging>
0

> <r_epik_Ionization_Penalty_Neutral>
1.15681e-05

> <r_epik_State_Penalty>
-0

> <r_epik_Charging_Adjusted_Penalty>
0

> <i_epik_Tot_Q>
0

> <i_epik_Tot_abs_Q>
0

> <r_epik_Metal_State_Penalty>
-0

> <b_epik_Metal_Only>
0

> <s_lp_Force_Field>
OPLS_2005

> <r_lp_Energy>
18.6065

> <b_lp_Chiralities_Consistent>
1

> <s_lp_Variant>
AV-unprocessed.smi:1257-2

> <Gold.Version>
5.8.1

> <Gold.Id.Protein>
6NUR|6NUR_protein|mol2

> <Gold.PLP.Fitness>
42.4503

> <Gold.PLP.PLP>
-36.9055

> <Gold.PLP.part.hbond>
-2.0000

> <Gold.PLP.part.metal>
0.0000

> <Gold.PLP.part.buried>
-5.9401

> <Gold.PLP.part.nonpolar>
-30.2977

> <Gold.PLP.part.repulsive>
1.2254

> <Gold.PLP.ligand.clash>
0.0000

> <Gold.PLP.ligand.torsion>
0.2891

> <Gold.PLP.Chemscore.Hbond>
2.0000

> <Gold.PLP.Chemscore.CHOScore>
0.0000

> <Gold.PLP.Chemscore.Metal>
0.0000

> <Gold.Chemscore.Hbonds>
donor molecule, donor type, donor heavy atom, donor atom, acceptor molecule, acceptor atom, score
      P1  H  6896  6907       L1     5  1.00
      P1  H 10752 10764       L1     9  1.00

> <Gold.PLP.Chemscore.Internal.Correction>
0.1229

> <Gold.Rescore>
     Score         DG    S(hbond)    S(metal)    S(lipo)     H(rot)  DE(clash)    DE(int)     intcor
     18.62     -19.10       1.98        0.00      97.11       1.71       0.18       0.30       ----

> <Gold.Chemscore.Fitness>
18.6199

> <Gold.Chemscore.DG>
-19.1027

> <Gold.Chemscore.ZeroCoef>
-5.4800

> <Gold.Chemscore.Hbond>
1.9849

> <Gold.Chemscore.Metal>
0.0000

> <Gold.Chemscore.Lipo>
97.1118

> <Gold.Chemscore.Internal_Hbond>
0.0000

> <Gold.Chemscore.DEClash>
0.1806

> <Gold.Chemscore.DEInternal>
0.3023

> <Gold.Chemscore.Rot>
1.7066

> <Gold.Chemscore.Internal.Correction>
   9.000000E+99

> <Gold.Chemscore.Hbonds>
donor molecule, donor type, donor heavy atom, donor atom, acceptor molecule, acceptor atom, score
      P1  H  6896  6907       L1     5  1.00
      P1  H 10752 10764       L1     9  0.99

> <Gold.Chemscore.Hbond.Weighted>
-6.6296

> <Gold.Chemscore.Metal.Weighted>
-0.0000

> <Gold.Chemscore.Lipo.Weighted>
-11.3621

> <Gold.Chemscore.Internal_Hbond.Weighted>
0.0000

> <Gold.Chemscore.DEClash.Weighted>
0.1806

> <Gold.Chemscore.DEInternal.Weighted>
0.3023

> <Gold.Chemscore.Rot.Weighted>
4.3690

> <Gold.Chemscore.Internal.Correction.Weighted>
   9.000000E+99

> <Gold.Protein.RotatedTorsions>
[ 6907 6896 6895 6894 ] final -151.82 input  -60.11 | X-H torsion
[ 7974 7965 7964 7962 ] final   78.81 input  175.53 | X-H torsion
[ 8008 7997 7996 7995 ] final   58.29 input   59.86 | X-H torsion
[ 10167 10162 10161 10158 ] final   52.90 input  -65.29 | X-H torsion
[ 10718 10713 10712 10709 ] final  -56.04 input   66.30 | X-H torsion
[ 10763 10752 10751 10750 ] final  -79.62 input  -60.55 | X-H torsion
[ 11005 11000 10999 10996 ] final   70.62 input  -57.11 | X-H torsion

> <Gold.Protein.ActiveResidues>
 VAL166  LYS551  ARG553  GLY616  TRP617  ASP618  TYR619  PRO620  LYS621  CYS622 
 ASP623  PHE694  ASN695  SER759  ASP760  ASP761  ALA762  ILE779  LEU786  VAL792 
 PHE793  MET794  SER795  GLU796  ALA797  LYS798  CYS799  TRP800  GLU811  SER814 

> <Gold.Protein.RotatedAtoms>
  151.2186  133.4515  159.2599 H   0  0  0  0  0  0  0  0  0  0  0  0  # atno 6907 bound_to 6896
  151.0906  134.9914  159.8411 H   0  0  0  0  0  0  0  0  0  0  0  0  # atno 6908 bound_to 6896
  152.5434  134.2120  159.8806 H   0  0  0  0  0  0  0  0  0  0  0  0  # atno 6909 bound_to 6896
  145.6724  139.2500  143.1861 H   0  0  0  0  0  0  0  0  0  0  0  0  # atno 7974 bound_to 7965
  155.5476  140.3485  155.4461 H   0  0  0  0  0  0  0  0  0  0  0  0  # atno 8008 bound_to 7997
  156.0606  140.1339  156.9971 H   0  0  0  0  0  0  0  0  0  0  0  0  # atno 8009 bound_to 7997
  154.4478  140.0986  156.6496 H   0  0  0  0  0  0  0  0  0  0  0  0  # atno 8010 bound_to 7997
  140.2464  144.3527  150.6362 H   0  0  0  0  0  0  0  0  0  0  0  0  # atno 10167 bound_to 10162
  156.1320  130.4159  150.0251 H   0  0  0  0  0  0  0  0  0  0  0  0  # atno 10718 bound_to 10713
  154.5409  135.5689  153.6838 H   0  0  0  0  0  0  0  0  0  0  0  0  # atno 10763 bound_to 10752
  152.9963  135.6227  154.2503 H   0  0  0  0  0  0  0  0  0  0  0  0  # atno 10764 bound_to 10752
  154.2434  135.2861  155.2824 H   0  0  0  0  0  0  0  0  0  0  0  0  # atno 10765 bound_to 10752
  139.9588  134.7098  156.0693 H   0  0  0  0  0  0  0  0  0  0  0  0  # atno 11005 bound_to 11000
  146.1034  140.7516  142.9538 LP  0  0  0  0  0  0  0  0  0  0  0  0  # atno 17320 bound_to 7965
  144.7052  140.3824  143.7123 LP  0  0  0  0  0  0  0  0  0  0  0  0  # atno 17321 bound_to 7965
  140.6074  143.2168  151.6954 LP  0  0  0  0  0  0  0  0  0  0  0  0  # atno 17342 bound_to 10162
  139.5060  144.3697  152.0482 LP  0  0  0  0  0  0  0  0  0  0  0  0  # atno 17343 bound_to 10162
  156.8161  130.9342  151.3643 LP  0  0  0  0  0  0  0  0  0  0  0  0  # atno 17370 bound_to 10713
  157.6497  130.8874  149.9609 LP  0  0  0  0  0  0  0  0  0  0  0  0  # atno 17371 bound_to 10713
  141.1262  133.6598  156.3344 LP  0  0  0  0  0  0  0  0  0  0  0  0  # atno 17394 bound_to 11000
  140.5548  134.5992  157.5418 LP  0  0  0  0  0  0  0  0  0  0  0  0  # atno 17395 bound_to 11000

$$$$
