#       Name:                AV-unprocessed.smi:922
#       Creating user name   scv26
#       Creation time:       Fri Mar 27 02:08:18 2020


#       File generated by GOLD software.
#

@<TRIPOS>MOLECULE
AV-unprocessed.smi:922
    38    39     1
SMALL
NO_CHARGES


@<TRIPOS>ATOM
      1 ****        -3.0368   0.1202  -1.7745 C.3            1 S1                 0.0000
      2 ****        -1.6026   0.0120  -1.2472 C.3            1 S1                 0.0000
      3 ****        -1.5228   0.3103   0.2616 C.3            1 S1                 0.0000
      4 ****        -0.1697   0.0861   0.7535 N.pl3          1 S1                 0.0000
      5 ****         0.5903   1.0116   1.4705 C.2            1 S1                 0.0000
      6 ****         1.2266   0.6110   2.7213 C.2            1 S1                 0.0000
      7 ****         1.9409   1.4082   3.4386 N.2            1 S1                 0.0000
      8 ****         2.1096   2.6982   3.0051 N.am           1 S1                 0.0000
      9 ****         1.6019   3.2416   1.8748 C.2            1 S1                 0.0000
     10 ****         1.8196   4.4146   1.5768 O.2            1 S1                 0.0000
     11 ****         0.7955   2.3057   1.0768 C.2            1 S1                 0.0000
     12 ****         0.1690   2.9207  -0.4163 Cl             1 S1                 0.0000
     13 ****         0.2559  -1.2846   0.4927 C.3            1 S1                 0.0000
     14 ****         0.1781  -1.6136  -1.0159 C.3            1 S1                 0.0000
     15 ****         1.2482  -0.8551  -1.8300 C.3            1 S1                 0.0000
     16 ****         0.3596  -3.1245  -1.2275 C.3            1 S1                 0.0000
     17 ****        -1.1399  -1.3169  -1.4925 O.3            1 S1                 0.0000
     18 ****         2.6767   3.2693   3.6153 H              1 S1                 0.0000
     19 ****        -3.4349   1.1240  -1.6239 H              1 S1                 0.0000
     20 ****        -3.6983  -0.5827  -1.2673 H              1 S1                 0.0000
     21 ****        -3.0762  -0.0959  -2.8423 H              1 S1                 0.0000
     22 ****        -0.9884   0.7190  -1.8034 H              1 S1                 0.0000
     23 ****        -1.8491   1.3282   0.4741 H              1 S1                 0.0000
     24 ****        -2.2016  -0.3462   0.8074 H              1 S1                 0.0000
     25 ****         1.0572  -0.4218   3.0264 H              1 S1                 0.0000
     26 ****         1.2728  -1.4485   0.8509 H              1 S1                 0.0000
     27 ****        -0.3875  -1.9576   1.0610 H              1 S1                 0.0000
     28 ****         2.2515  -1.1677  -1.5396 H              1 S1                 0.0000
     29 ****         1.1998   0.2233  -1.6827 H              1 S1                 0.0000
     30 ****         1.1388  -1.0477  -2.8975 H              1 S1                 0.0000
     31 ****         1.3364  -3.4603  -0.8774 H              1 S1                 0.0000
     32 ****         0.2768  -3.3883  -2.2825 H              1 S1                 0.0000
     33 ****        -0.3987  -3.6928  -0.6879 H              1 S1                 0.0000
     34 ****         2.3616   1.0942   4.2898 LP             1 S1                 0.0000
     35 ****         2.3815   4.9864   2.1747 LP             1 S1                 0.0000
     36 ****         1.4348   4.7967   0.7367 LP             1 S1                 0.0000
     37 ****        -1.1505  -1.4684  -2.4808 LP             1 S1                 0.0000
     38 ****        -1.7759  -1.9500  -1.0513 LP             1 S1                 0.0000
@<TRIPOS>BOND
    1    1    2 1     
    2    1   19 1     
    3    1   20 1     
    4    1   21 1     
    5    2   17 1     
    6    2    3 1     
    7    2   22 1     
    8    3    4 1     
    9    3   23 1     
   10    3   24 1     
   11    4    5 1     
   12    4   13 1     
   13    5   11 2     
   14    5    6 1     
   15    6    7 2     
   16    6   25 1     
   17    7    8 1     
   18    8   18 1     
   19    8    9 am    
   20    9   10 2     
   21    9   11 1     
   22   11   12 1     
   23   13   14 1     
   24   13   26 1     
   25   13   27 1     
   26   14   15 1     
   27   14   16 1     
   28   14   17 1     
   29   15   28 1     
   30   15   29 1     
   31   15   30 1     
   32   16   31 1     
   33   16   32 1     
   34   16   33 1     
   35    7   34 1     
   36   10   35 1     
   37   10   36 1     
   38   17   37 1     
   39   17   38 1     
@<TRIPOS>SUBSTRUCTURE
      1 S1             1
@<TRIPOS>SET
LONE_PAIRS      STATIC     ATOMS    <user>   **** ""
5 34 35 36 37 38
DONOR_HYDROGENS      STATIC     ATOMS    <user>   **** ""
1 18
ATOM$BLUE        STATIC     ATOMS    COLORGROUP SYSTEM
5 34 35 36 37 38
ATOM$RED        STATIC     ATOMS    COLORGROUP SYSTEM
1 18
