AV-unprocessed.smi:3145|AV-procd|sdf|11984|dock3
  -GOLD-   2272017383D 1   1.00000     0.00000
 Structure written by MMmdl.
 34 34  0  0  0  0  0  0  0  0  3 V2000
  143.5897  136.2291  152.4633 C   0  0  0  0  0  0  0  0  0  0  0  0
  145.0160  136.5748  152.0158 C   0  0  1  0  0  0  0  0  0  0  0  0
  145.3480  135.8993  150.6685 C   0  0  0  0  0  0  0  0  0  0  0  0
  145.3178  134.4499  150.7444 N   0  0  0  0  0  0  0  0  0  0  0  0
  144.2263  133.6101  150.6758 C   0  0  0  0  0  0  0  0  0  0  0  0
  144.6875  132.3333  150.8218 C   0  0  0  0  0  0  0  0  0  0  0  0
  146.0934  132.4958  150.9712 C   0  0  0  0  0  0  0  0  0  0  0  0
  146.4680  133.7641  150.9210 N   0  0  0  0  0  0  0  0  0  0  0  0
  145.1612  138.0450  151.9254 N   0  3  0  0  0  0  0  0  0  0  0  0
  146.4792  138.5680  152.3428 C   0  0  0  0  0  0  0  0  0  0  0  0
  146.6004  138.5684  153.8707 C   0  0  0  0  0  0  0  0  0  0  0  0
  146.5482  137.4964  154.4851 O   0  0  0  0  0  0  0  0  0  0  0  0
  146.7381  139.8405  154.3304 N   0  5  0  0  0  0  0  0  0  0  0  0
  147.2660  140.9466  153.5331 C   0  0  0  0  0  0  0  0  0  0  0  0
  148.2711  141.7772  154.3496 C   0  0  0  0  0  0  0  0  0  0  0  0
  149.5235  141.0703  154.6704 C   0  0  0  0  0  0  0  0  0  0  0  0
  150.5057  140.5110  154.9255 N   0  0  0  0  0  0  0  0  0  0  0  0
  143.4619  135.1515  152.5695 H   0  0  0  0  0  0  0  0  0  0  0  0
  142.8495  136.5830  151.7446 H   0  0  0  0  0  0  0  0  0  0  0  0
  143.3608  136.6823  153.4287 H   0  0  0  0  0  0  0  0  0  0  0  0
  145.6958  136.1939  152.7800 H   0  0  0  0  0  0  0  0  0  0  0  0
  144.6287  136.2079  149.9087 H   0  0  0  0  0  0  0  0  0  0  0  0
  146.3292  136.2163  150.3110 H   0  0  0  0  0  0  0  0  0  0  0  0
  143.2237  133.9873  150.5375 H   0  0  0  0  0  0  0  0  0  0  0  0
  144.1089  131.4215  150.8239 H   0  0  0  0  0  0  0  0  0  0  0  0
  146.8470  131.7355  151.1149 H   0  0  0  0  0  0  0  0  0  0  0  0
  144.9933  138.3297  150.9708 H   0  0  0  0  0  0  0  0  0  0  0  0
  147.2602  137.9539  151.8906 H   0  0  0  0  0  0  0  0  0  0  0  0
  146.6156  139.5885  151.9850 H   0  0  0  0  0  0  0  0  0  0  0  0
  147.7573  140.5919  152.6261 H   0  0  0  0  0  0  0  0  0  0  0  0
  146.4652  141.6009  153.1887 H   0  0  0  0  0  0  0  0  0  0  0  0
  148.5270  142.7000  153.8285 H   0  0  0  0  0  0  0  0  0  0  0  0
  147.8181  142.0679  155.2975 H   0  0  0  0  0  0  0  0  0  0  0  0
  144.4658  138.4787  152.5150 H   0  0  0  0  0  0  0  0  0  0  0  0
  1  2  1  0  0  0  0
  1 18  1  0  0  0  0
  1 19  1  0  0  0  0
  1 20  1  0  0  0  0
  2  3  1  0  0  0  0
  2  9  1  0  0  0  0
  2 21  1  0  0  0  0
  3  4  1  0  0  0  0
  3 22  1  0  0  0  0
  3 23  1  0  0  0  0
  4  8  1  0  0  0  0
  4  5  1  0  0  0  0
  5  6  2  0  0  0  0
  5 24  1  0  0  0  0
  6  7  1  0  0  0  0
  6 25  1  0  0  0  0
  7  8  2  0  0  0  0
  7 26  1  0  0  0  0
  9 10  1  0  0  0  0
  9 27  1  0  0  0  0
  9 34  1  0  0  0  0
 10 11  1  0  0  0  0
 10 28  1  0  0  0  0
 10 29  1  0  0  0  0
 11 12  2  0  0  0  0
 11 13  1  0  0  0  0
 13 14  1  0  0  0  0
 14 15  1  0  0  0  0
 14 30  1  0  0  0  0
 14 31  1  0  0  0  0
 15 16  1  0  0  0  0
 15 32  1  0  0  0  0
 15 33  1  0  0  0  0
 16 17  3  0  0  0  0
M  CHG  1   9   1
M  CHG  1  13  -1
M  END
> <s_m_source_file>
AV-unprocessed.smi

> <i_m_source_file_index>
3145

> <i_lp_mmshare_version>
43012

> <i_f3d_flags>
0

> <s_epik_input>
bjFbY0hdW2NIXVtjSF1uMVtDSDJdW0NAQEhdKFtDSDNdKVtOSF1bQ0gyXUMoPU8pW05IXVtDSDJdW0NIMl1DI04=

> <s_epik_cmdline>
J2VwaWtfcHl0aG9uJywgJy1waCcsICc3LjAnLCAnLXRuJywgJzgnLCAnLW1hJywgJzIwMCcsICctbWV0YWxfYmluZGluZycsICctaW1hZScsICc8aW5maWxlLm1hZT4nLCAnLW9tYWUnLCAnPG91dGZpbGUubWFlPic=

> <r_lp_tautomer_probability>
1

> <r_epik_Ionization_Penalty>
6.20835

> <r_epik_Ionization_Penalty_Charging>
6.20835

> <r_epik_Ionization_Penalty_Neutral>
3.57231e-06

> <r_epik_State_Penalty>
6.38139

> <r_epik_Charging_Adjusted_Penalty>
12.5897

> <i_epik_Tot_Q>
0

> <i_epik_Tot_abs_Q>
2

> <r_epik_Metal_State_Penalty>
2.31725

> <b_epik_Metal_Only>
1

> <s_lp_Force_Field>
OPLS_2005

> <r_lp_Energy>
1.97057

> <b_lp_Chiralities_Consistent>
1

> <s_lp_Variant>
AV-unprocessed.smi:3145-6

> <Gold.Version>
5.8.1

> <Gold.Id.Protein>
6NUR|6NUR_protein|mol2

> <Gold.PLP.Fitness>
46.9078

> <Gold.PLP.PLP>
-33.9658

> <Gold.PLP.part.hbond>
-2.9598

> <Gold.PLP.part.metal>
0.0000

> <Gold.PLP.part.buried>
-3.6645

> <Gold.PLP.part.nonpolar>
-27.9254

> <Gold.PLP.part.repulsive>
0.5206

> <Gold.PLP.ligand.clash>
0.0000

> <Gold.PLP.ligand.torsion>
1.1104

> <Gold.PLP.Chemscore.Hbond>
2.9460

> <Gold.PLP.Chemscore.CHOScore>
2.0000

> <Gold.PLP.Chemscore.Metal>
0.0000

> <Gold.Chemscore.Hbonds>
donor molecule, donor type, donor heavy atom, donor atom, acceptor molecule, acceptor atom, score
      L1  H     9    27       P1 10171  0.93
      L1  H     9    34       P1 10175  0.90
      P1  H  7989  7998       L1    17  1.00
      L1  C     5    24       P1 10186  1.00
      L1  C     7    26       P1 10747  1.00

> <Gold.PLP.Chemscore.Internal.Correction>
0.3248

> <Gold.Rescore>
     Score         DG    S(hbond)    S(metal)    S(lipo)     H(rot)  DE(clash)    DE(int)     intcor
     11.99     -13.33       2.27        0.00      63.41       2.79       0.22       1.13       ----

> <Gold.Chemscore.Fitness>
11.9895

> <Gold.Chemscore.DG>
-13.3323

> <Gold.Chemscore.ZeroCoef>
-5.4800

> <Gold.Chemscore.Hbond>
2.2719

> <Gold.Chemscore.Metal>
0.0000

> <Gold.Chemscore.Lipo>
63.4129

> <Gold.Chemscore.Internal_Hbond>
0.0000

> <Gold.Chemscore.DEClash>
0.2172

> <Gold.Chemscore.DEInternal>
1.1255

> <Gold.Chemscore.Rot>
2.7949

> <Gold.Chemscore.Internal.Correction>
   9.000000E+99

> <Gold.Chemscore.Hbonds>
donor molecule, donor type, donor heavy atom, donor atom, acceptor molecule, acceptor atom, score
      L1  H     9    27       P1 10171  0.90
      L1  H     9    34       P1 10175  0.46
      P1  H  7989  7998       L1    17  0.42

> <Gold.Chemscore.Hbond.Weighted>
-7.5880

> <Gold.Chemscore.Metal.Weighted>
-0.0000

> <Gold.Chemscore.Lipo.Weighted>
-7.4193

> <Gold.Chemscore.Internal_Hbond.Weighted>
0.0000

> <Gold.Chemscore.DEClash.Weighted>
0.2172

> <Gold.Chemscore.DEInternal.Weighted>
1.1255

> <Gold.Chemscore.Rot.Weighted>
7.1551

> <Gold.Chemscore.Internal.Correction.Weighted>
   9.000000E+99

> <Gold.Protein.RotatedTorsions>
[ 6907 6896 6895 6894 ] final   -6.83 input  -60.11 | X-H torsion
[ 7974 7965 7964 7962 ] final   81.65 input  175.53 | X-H torsion
[ 8008 7997 7996 7995 ] final  -14.12 input   59.86 | X-H torsion
[ 10167 10162 10161 10158 ] final  -38.37 input  -65.29 | X-H torsion
[ 10718 10713 10712 10709 ] final  138.26 input   66.30 | X-H torsion
[ 10763 10752 10751 10750 ] final    7.70 input  -60.55 | X-H torsion
[ 11005 11000 10999 10996 ] final  102.27 input  -57.11 | X-H torsion

> <Gold.Protein.ActiveResidues>
 VAL166  LYS551  ARG553  GLY616  TRP617  ASP618  TYR619  PRO620  LYS621  CYS622 
 ASP623  PHE694  ASN695  SER759  ASP760  ASP761  ALA762  ILE779  LEU786  VAL792 
 PHE793  MET794  SER795  GLU796  ALA797  LYS798  CYS799  TRP800  GLU811  SER814 

> <Gold.Protein.RotatedAtoms>
  151.4592  135.1037  159.9719 H   0  0  0  0  0  0  0  0  0  0  0  0  # atno 6907 bound_to 6896
  152.4859  133.8368  159.7142 H   0  0  0  0  0  0  0  0  0  0  0  0  # atno 6908 bound_to 6896
  150.8968  133.7110  159.2916 H   0  0  0  0  0  0  0  0  0  0  0  0  # atno 6909 bound_to 6896
  145.6354  139.2414  143.2061 H   0  0  0  0  0  0  0  0  0  0  0  0  # atno 7974 bound_to 7965
  154.5236  140.2231  155.8930 H   0  0  0  0  0  0  0  0  0  0  0  0  # atno 8008 bound_to 7997
  156.1689  140.3126  155.8903 H   0  0  0  0  0  0  0  0  0  0  0  0  # atno 8009 bound_to 7997
  155.3599  140.0460  157.3037 H   0  0  0  0  0  0  0  0  0  0  0  0  # atno 8010 bound_to 7997
  140.7094  143.3282  151.2631 H   0  0  0  0  0  0  0  0  0  0  0  0  # atno 10167 bound_to 10162
  157.4272  131.1045  151.0289 H   0  0  0  0  0  0  0  0  0  0  0  0  # atno 10718 bound_to 10713
  153.2333  135.6895  153.7865 H   0  0  0  0  0  0  0  0  0  0  0  0  # atno 10763 bound_to 10752
  153.7022  135.3295  155.3228 H   0  0  0  0  0  0  0  0  0  0  0  0  # atno 10764 bound_to 10752
  154.8323  135.4570  154.1227 H   0  0  0  0  0  0  0  0  0  0  0  0  # atno 10765 bound_to 10752
  139.8777  134.9217  156.5032 H   0  0  0  0  0  0  0  0  0  0  0  0  # atno 11005 bound_to 11000
  146.1323  140.7169  142.9406 LP  0  0  0  0  0  0  0  0  0  0  0  0  # atno 17320 bound_to 7965
  144.7177  140.4268  143.7031 LP  0  0  0  0  0  0  0  0  0  0  0  0  # atno 17321 bound_to 7965
  139.6756  143.9944  152.2779 LP  0  0  0  0  0  0  0  0  0  0  0  0  # atno 17342 bound_to 10162
  139.9557  144.6591  150.8129 LP  0  0  0  0  0  0  0  0  0  0  0  0  # atno 17343 bound_to 10162
  157.1199  130.6057  149.5502 LP  0  0  0  0  0  0  0  0  0  0  0  0  # atno 17370 bound_to 10713
  155.9900  130.4950  150.7241 LP  0  0  0  0  0  0  0  0  0  0  0  0  # atno 17371 bound_to 10713
  140.8574  133.8086  155.9230 LP  0  0  0  0  0  0  0  0  0  0  0  0  # atno 17394 bound_to 11000
  140.9084  134.2292  157.5001 LP  0  0  0  0  0  0  0  0  0  0  0  0  # atno 17395 bound_to 11000

$$$$
