#       Name:                AV-unprocessed.smi:2563
#       Creating user name   scv26
#       Creation time:       Fri Mar 27 14:09:41 2020


#       File generated by GOLD software.
#

@<TRIPOS>MOLECULE
AV-unprocessed.smi:2563
    39    40     1
SMALL
NO_CHARGES


@<TRIPOS>ATOM
      1 ****        -2.3811   2.8046  -0.2582 C.3            1 S1                 0.0000
      2 ****        -2.1274   1.2930  -0.3260 C.3            1 S1                 0.0000
      3 ****        -0.7358   0.9802  -0.6538 N.pl3          1 S1                 0.0000
      4 ****         0.2400   0.9205   0.4329 C.3            1 S1                 0.0000
      5 ****         0.4795  -0.5172   0.9265 C.3            1 S1                 0.0000
      6 ****         1.6768  -0.5933   1.8941 C.3            1 S1                 0.0000
      7 ****         1.8275  -1.9668   2.4138 N.4            1 S1                 1.0000
      8 ****         0.5808  -2.4521   3.0366 C.3            1 S1                 0.0000
      9 ****        -0.5898  -2.3121   2.0495 C.3            1 S1                 0.0000
     10 ****        -0.6859  -0.9586   1.6196 O.3            1 S1                 0.0000
     11 ****        -0.3248   0.8632  -2.0044 C.ar           1 S1                 0.0000
     12 ****         0.9873   0.4599  -2.3556 C.ar           1 S1                 0.0000
     13 ****         1.3120   0.3709  -3.7200 C.ar           1 S1                 0.0000
     14 ****         0.3052   0.6893  -4.6465 C.ar           1 S1                 0.0000
     15 ****        -0.9343   1.0664  -4.2673 N.ar           1 S1                 0.0000
     16 ****        -1.2387   1.1499  -2.9681 N.ar           1 S1                 0.0000
     17 ****        -3.4187   3.0096   0.0054 H              1 S1                 0.0000
     18 ****        -2.1831   3.2837  -1.2172 H              1 S1                 0.0000
     19 ****        -1.7481   3.2804   0.4912 H              1 S1                 0.0000
     20 ****        -2.3644   0.8509   0.6420 H              1 S1                 0.0000
     21 ****        -2.8113   0.8234  -1.0335 H              1 S1                 0.0000
     22 ****         1.1757   1.3808   0.1158 H              1 S1                 0.0000
     23 ****        -0.1107   1.5339   1.2640 H              1 S1                 0.0000
     24 ****         0.6651  -1.1707   0.0721 H              1 S1                 0.0000
     25 ****         2.5980  -0.3003   1.3898 H              1 S1                 0.0000
     26 ****         1.5358   0.0923   2.7308 H              1 S1                 0.0000
     27 ****         2.0632  -2.5787   1.6455 H              1 S1                 0.0000
     28 ****         0.7071  -3.4916   3.3392 H              1 S1                 0.0000
     29 ****         0.3828  -1.8744   3.9404 H              1 S1                 0.0000
     30 ****        -0.4589  -2.9712   1.1897 H              1 S1                 0.0000
     31 ****        -1.5249  -2.5985   2.5308 H              1 S1                 0.0000
     32 ****         1.7379   0.2141  -1.6207 H              1 S1                 0.0000
     33 ****         2.2962   0.0683  -4.0453 H              1 S1                 0.0000
     34 ****         0.4946   0.6394  -5.7085 H              1 S1                 0.0000
     35 ****         2.5739  -1.9895   3.0942 H              1 S1                 0.0000
     36 ****        -1.4732  -0.8720   1.0092 LP             1 S1                 0.0000
     37 ****        -0.8206  -0.3769   2.4218 LP             1 S1                 0.0000
     38 ****        -1.6245   1.2832  -4.9577 LP             1 S1                 0.0000
     39 ****        -2.1604   1.4299  -2.6994 LP             1 S1                 0.0000
@<TRIPOS>BOND
    1    1    2 1     
    2    1   17 1     
    3    1   18 1     
    4    1   19 1     
    5    2    3 1     
    6    2   20 1     
    7    2   21 1     
    8    3    4 1     
    9    3   11 1     
   10    4    5 1     
   11    4   22 1     
   12    4   23 1     
   13    5   10 1     
   14    5    6 1     
   15    5   24 1     
   16    6    7 1     
   17    6   25 1     
   18    6   26 1     
   19    7    8 1     
   20    7   27 1     
   21    7   35 1     
   22    8    9 1     
   23    8   28 1     
   24    8   29 1     
   25    9   10 1     
   26    9   30 1     
   27    9   31 1     
   28   11   16 ar    
   29   11   12 ar    
   30   12   13 ar    
   31   12   32 1     
   32   13   14 ar    
   33   13   33 1     
   34   14   15 ar    
   35   14   34 1     
   36   15   16 ar    
   37   10   36 1     
   38   10   37 1     
   39   15   38 1     
   40   16   39 1     
@<TRIPOS>SUBSTRUCTURE
      1 S1             1
@<TRIPOS>SET
LONE_PAIRS      STATIC     ATOMS    <user>   **** ""
4 36 37 38 39
DONOR_HYDROGENS      STATIC     ATOMS    <user>   **** ""
2 27 35
ATOM$BLUE        STATIC     ATOMS    COLORGROUP SYSTEM
4 36 37 38 39
ATOM$RED        STATIC     ATOMS    COLORGROUP SYSTEM
2 27 35
