AV-unprocessed.smi:3124|AV-procd|sdf|11903|dock8
  -GOLD-   2272017283D 1   1.00000     0.00000
 Structure written by MMmdl.
 24 24  0  0  0  0  0  0  0  0  2 V2000
  148.8484  132.5050  154.0282 C   0  0  0  0  0  0  0  0  0  0  0  0
  147.8074  132.6374  152.9690 C   0  0  0  0  0  0  0  0  0  0  0  0
  146.8996  131.7431  152.4752 C   0  0  0  0  0  0  0  0  0  0  0  0
  146.1908  132.4747  151.4771 C   0  0  0  0  0  0  0  0  0  0  0  0
  145.0695  131.9928  150.5963 C   0  0  0  0  0  0  0  0  0  0  0  0
  143.6972  132.5603  151.0082 C   0  0  1  0  0  0  0  0  0  0  0  0
  143.7918  134.0381  151.4116 C   0  0  0  0  0  0  0  0  0  0  0  0
  142.7074  132.3911  149.9281 N   0  3  0  0  0  0  0  0  0  0  0  0
  146.6231  133.7220  151.3627 N   0  0  0  0  0  0  0  0  0  0  0  0
  147.6073  133.8094  152.2770 N   0  0  0  0  0  0  0  0  0  0  0  0
  148.1307  134.6629  152.4134 H   0  0  0  0  0  0  0  0  0  0  0  0
  148.9492  131.4677  154.3484 H   0  0  0  0  0  0  0  0  0  0  0  0
  148.5904  133.1038  154.9018 H   0  0  0  0  0  0  0  0  0  0  0  0
  149.8197  132.8395  153.6629 H   0  0  0  0  0  0  0  0  0  0  0  0
  146.7640  130.7158  152.7795 H   0  0  0  0  0  0  0  0  0  0  0  0
  145.0343  130.9025  150.6097 H   0  0  0  0  0  0  0  0  0  0  0  0
  145.2793  132.2684  149.5617 H   0  0  0  0  0  0  0  0  0  0  0  0
  143.3317  132.0003  151.8699 H   0  0  0  0  0  0  0  0  0  0  0  0
  144.4872  134.1748  152.2405 H   0  0  0  0  0  0  0  0  0  0  0  0
  142.8225  134.4223  151.7314 H   0  0  0  0  0  0  0  0  0  0  0  0
  144.1391  134.6561  150.5827 H   0  0  0  0  0  0  0  0  0  0  0  0
  142.1532  131.5653  150.1028 H   0  0  0  0  0  0  0  0  0  0  0  0
  143.1859  132.2949  149.0439 H   0  0  0  0  0  0  0  0  0  0  0  0
  142.1040  133.2009  149.8973 H   0  0  0  0  0  0  0  0  0  0  0  0
  1 12  1  0  0  0  0
  1 13  1  0  0  0  0
  1 14  1  0  0  0  0
  1  2  1  0  0  0  0
  2 10  1  0  0  0  0
  2  3  2  0  0  0  0
  3  4  1  0  0  0  0
  3 15  1  0  0  0  0
  4  5  1  0  0  0  0
  4  9  2  0  0  0  0
  5  6  1  0  0  0  0
  5 16  1  0  0  0  0
  5 17  1  0  0  0  0
  6  7  1  0  0  0  0
  6  8  1  0  0  0  0
  6 18  1  0  0  0  0
  7 19  1  0  0  0  0
  7 20  1  0  0  0  0
  7 21  1  0  0  0  0
  8 22  1  0  0  0  0
  8 23  1  0  0  0  0
  8 24  1  0  0  0  0
  9 10  1  0  0  0  0
 10 11  1  0  0  0  0
M  CHG  1   8   1
M  END
> <s_m_source_file>
AV-unprocessed.smi

> <i_m_source_file_index>
3124

> <i_lp_mmshare_version>
43012

> <i_f3d_flags>
0

> <s_epik_input>
W0NIM11jMVtjSF1jKFtuSF1uMSlbQ0gyXVtDQEhdKFtDSDNdKVtOSDJd

> <s_epik_cmdline>
J2VwaWtfcHl0aG9uJywgJy1waCcsICc3LjAnLCAnLXRuJywgJzgnLCAnLW1hJywgJzIwMCcsICctbWV0YWxfYmluZGluZycsICctaW1hZScsICc8aW5maWxlLm1hZT4nLCAnLW9tYWUnLCAnPG91dGZpbGUubWFlPic=

> <r_lp_tautomer_probability>
0.5

> <r_epik_Ionization_Penalty>
0.00151643

> <r_epik_Ionization_Penalty_Charging>
0.00146569

> <r_epik_Ionization_Penalty_Neutral>
5.07401e-05

> <r_epik_State_Penalty>
0.379573

> <r_epik_Charging_Adjusted_Penalty>
0.381038

> <i_epik_Tot_Q>
1

> <i_epik_Tot_abs_Q>
1

> <r_epik_Metal_State_Penalty>
0.378341

> <b_epik_Metal_Only>
0

> <s_lp_Force_Field>
OPLS_2005

> <r_lp_Energy>
2.04404

> <b_lp_Chiralities_Consistent>
1

> <s_lp_Variant>
AV-unprocessed.smi:3124-2

> <Gold.Version>
5.8.1

> <Gold.Id.Protein>
6NUR|6NUR_protein|mol2

> <Gold.PLP.Fitness>
32.9652

> <Gold.PLP.PLP>
-21.5924

> <Gold.PLP.part.hbond>
-3.0000

> <Gold.PLP.part.metal>
0.0000

> <Gold.PLP.part.buried>
-2.5230

> <Gold.PLP.part.nonpolar>
-15.7452

> <Gold.PLP.part.repulsive>
0.3382

> <Gold.PLP.ligand.clash>
0.0000

> <Gold.PLP.ligand.torsion>
0.3152

> <Gold.PLP.Chemscore.Hbond>
4.0000

> <Gold.PLP.Chemscore.CHOScore>
0.0000

> <Gold.PLP.Chemscore.Metal>
0.0000

> <Gold.Chemscore.Hbonds>
donor molecule, donor type, donor heavy atom, donor atom, acceptor molecule, acceptor atom, score
      L1  H     8    22       P1 10952  1.00
      L1  H     8    24       P1 10186  2.00
      L1  H    10    11       P1  7948  1.00

> <Gold.PLP.Chemscore.Internal.Correction>
0.0031

> <Gold.Rescore>
     Score         DG    S(hbond)    S(metal)    S(lipo)     H(rot)  DE(clash)    DE(int)     intcor
     15.66     -17.29       2.77        0.00      50.20       1.30       0.02       1.61       ----

> <Gold.Chemscore.Fitness>
15.6555

> <Gold.Chemscore.DG>
-17.2882

> <Gold.Chemscore.ZeroCoef>
-5.4800

> <Gold.Chemscore.Hbond>
2.7722

> <Gold.Chemscore.Metal>
0.0000

> <Gold.Chemscore.Lipo>
50.2024

> <Gold.Chemscore.Internal_Hbond>
0.0000

> <Gold.Chemscore.DEClash>
0.0231

> <Gold.Chemscore.DEInternal>
1.6095

> <Gold.Chemscore.Rot>
1.2987

> <Gold.Chemscore.Internal.Correction>
   9.000000E+99

> <Gold.Chemscore.Hbonds>
donor molecule, donor type, donor heavy atom, donor atom, acceptor molecule, acceptor atom, score
      L1  H     8    22       P1 10952  0.78
      L1  H     8    24       P1 10186  1.00
      L1  H    10    11       P1  7948  0.38

> <Gold.Chemscore.Hbond.Weighted>
-9.2591

> <Gold.Chemscore.Metal.Weighted>
-0.0000

> <Gold.Chemscore.Lipo.Weighted>
-5.8737

> <Gold.Chemscore.Internal_Hbond.Weighted>
0.0000

> <Gold.Chemscore.DEClash.Weighted>
0.0231

> <Gold.Chemscore.DEInternal.Weighted>
1.6095

> <Gold.Chemscore.Rot.Weighted>
3.3246

> <Gold.Chemscore.Internal.Correction.Weighted>
   9.000000E+99

> <Gold.Protein.RotatedTorsions>
[ 6907 6896 6895 6894 ] final  -94.15 input  -60.11 | X-H torsion
[ 7974 7965 7964 7962 ] final  -28.61 input  175.53 | X-H torsion
[ 8008 7997 7996 7995 ] final  -57.93 input   59.86 | X-H torsion
[ 10167 10162 10161 10158 ] final  111.59 input  -65.29 | X-H torsion
[ 10718 10713 10712 10709 ] final -178.09 input   66.30 | X-H torsion
[ 10763 10752 10751 10750 ] final -178.95 input  -60.55 | X-H torsion
[ 11005 11000 10999 10996 ] final  -72.94 input  -57.11 | X-H torsion

> <Gold.Protein.ActiveResidues>
 VAL166  LYS551  ARG553  GLY616  TRP617  ASP618  TYR619  PRO620  LYS621  CYS622 
 ASP623  PHE694  ASN695  SER759  ASP760  ASP761  ALA762  ILE779  LEU786  VAL792 
 PHE793  MET794  SER795  GLU796  ALA797  LYS798  CYS799  TRP800  GLU811  SER814 

> <Gold.Protein.RotatedAtoms>
  150.6936  134.1856  159.4265 H   0  0  0  0  0  0  0  0  0  0  0  0  # atno 6907 bound_to 6896
  151.9829  135.0017  160.0567 H   0  0  0  0  0  0  0  0  0  0  0  0  # atno 6908 bound_to 6896
  152.1738  133.4626  159.4960 H   0  0  0  0  0  0  0  0  0  0  0  0  # atno 6909 bound_to 6896
  146.1276  140.5305  142.8708 H   0  0  0  0  0  0  0  0  0  0  0  0  # atno 7974 bound_to 7965
  154.4288  140.1095  156.5877 H   0  0  0  0  0  0  0  0  0  0  0  0  # atno 8008 bound_to 7997
  155.6045  140.3493  155.4585 H   0  0  0  0  0  0  0  0  0  0  0  0  # atno 8009 bound_to 7997
  156.0147  140.1226  157.0408 H   0  0  0  0  0  0  0  0  0  0  0  0  # atno 8010 bound_to 7997
  139.6599  144.7129  151.1884 H   0  0  0  0  0  0  0  0  0  0  0  0  # atno 10167 bound_to 10162
  156.8392  130.9680  151.3101 H   0  0  0  0  0  0  0  0  0  0  0  0  # atno 10718 bound_to 10713
  154.5412  135.2806  155.1093 H   0  0  0  0  0  0  0  0  0  0  0  0  # atno 10763 bound_to 10752
  154.2575  135.6328  153.5266 H   0  0  0  0  0  0  0  0  0  0  0  0  # atno 10764 bound_to 10752
  152.9979  135.5597  154.5952 H   0  0  0  0  0  0  0  0  0  0  0  0  # atno 10765 bound_to 10752
  141.1616  133.6862  156.7136 H   0  0  0  0  0  0  0  0  0  0  0  0  # atno 11005 bound_to 11000
  144.7658  140.5526  143.6704 LP  0  0  0  0  0  0  0  0  0  0  0  0  # atno 17320 bound_to 7965
  145.5332  139.1475  143.3488 LP  0  0  0  0  0  0  0  0  0  0  0  0  # atno 17321 bound_to 7965
  140.7575  143.6010  150.8699 LP  0  0  0  0  0  0  0  0  0  0  0  0  # atno 17342 bound_to 10162
  139.9667  143.6103  152.2986 LP  0  0  0  0  0  0  0  0  0  0  0  0  # atno 17343 bound_to 10162
  157.6365  130.8771  149.9368 LP  0  0  0  0  0  0  0  0  0  0  0  0  # atno 17370 bound_to 10713
  156.0890  130.3665  150.0431 LP  0  0  0  0  0  0  0  0  0  0  0  0  # atno 17371 bound_to 10713
  140.2869  134.8272  157.3982 LP  0  0  0  0  0  0  0  0  0  0  0  0  # atno 17394 bound_to 11000
  140.1382  134.5006  155.8052 LP  0  0  0  0  0  0  0  0  0  0  0  0  # atno 17395 bound_to 11000

$$$$
