AV-unprocessed.smi:1060|AV-procd|sdf|4658|dock7
  -GOLD-   22720 3173D 1   1.00000     0.00000
 Structure written by MMmdl.
 36 37  0  0  0  0  0  0  0  0  2 V2000
  151.1535  140.1772  154.8991 O   0  0  0  0  0  0  0  0  0  0  0  0
  150.1987  140.1281  155.6740 C   0  0  0  0  0  0  0  0  0  0  0  0
  149.6725  141.4157  156.3114 C   0  0  0  0  0  0  0  0  0  0  0  0
  150.4000  141.6915  157.4988 O   0  0  0  0  0  0  0  0  0  0  0  0
  151.1591  142.8852  157.4143 C   0  0  0  0  0  0  0  0  0  0  0  0
  151.0693  143.6227  158.7558 C   0  0  2  0  0  0  0  0  0  0  0  0
  151.5208  145.0788  158.6916 C   0  0  0  0  0  0  0  0  0  0  0  0
  151.8720  145.3881  160.1364 C   0  0  0  0  0  0  0  0  0  0  0  0
  152.1482  144.0118  160.7507 C   0  0  0  0  0  0  0  0  0  0  0  0
  151.9852  143.0761  159.6916 O   0  0  0  0  0  0  0  0  0  0  0  0
  149.5399  139.0100  156.0372 N   0  0  0  0  0  0  0  0  0  0  0  0
  149.7481  137.6693  155.6651 C   0  0  0  0  0  0  0  0  0  0  0  0
  148.7669  136.7723  155.3661 C   0  0  0  0  0  0  0  0  0  0  0  0
  149.0567  135.3961  154.9834 C   0  0  0  0  0  0  0  0  0  0  0  0
  147.9879  134.3473  154.7310 C   0  0  0  0  0  0  0  0  0  0  0  0
  147.1950  134.7377  153.7341 F   0  0  0  0  0  0  0  0  0  0  0  0
  148.5345  133.1790  154.3934 F   0  0  0  0  0  0  0  0  0  0  0  0
  147.2336  134.1610  155.8142 F   0  0  0  0  0  0  0  0  0  0  0  0
  150.4111  135.1262  154.9808 C   0  0  0  0  0  0  0  0  0  0  0  0
  151.4438  135.9564  155.2430 N   0  5  0  0  0  0  0  0  0  0  0  0
  151.1616  137.2420  155.5965 C   0  0  0  0  0  0  0  0  0  0  0  0
  152.0558  138.0480  155.8562 O   0  0  0  0  0  0  0  0  0  0  0  0
  149.7763  142.2422  155.6062 H   0  0  0  0  0  0  0  0  0  0  0  0
  148.6116  141.2935  156.5348 H   0  0  0  0  0  0  0  0  0  0  0  0
  152.1986  142.6717  157.1606 H   0  0  0  0  0  0  0  0  0  0  0  0
  150.7478  143.5125  156.6221 H   0  0  0  0  0  0  0  0  0  0  0  0
  150.0560  143.5682  159.1586 H   0  0  0  0  0  0  0  0  0  0  0  0
  152.4124  145.1695  158.0696 H   0  0  0  0  0  0  0  0  0  0  0  0
  150.7562  145.7430  158.2874 H   0  0  0  0  0  0  0  0  0  0  0  0
  152.7318  146.0549  160.2082 H   0  0  0  0  0  0  0  0  0  0  0  0
  151.0330  145.8648  160.6443 H   0  0  0  0  0  0  0  0  0  0  0  0
  153.1516  143.9390  161.1703 H   0  0  0  0  0  0  0  0  0  0  0  0
  151.4317  143.7938  161.5433 H   0  0  0  0  0  0  0  0  0  0  0  0
  148.7672  139.1413  156.6739 H   0  0  0  0  0  0  0  0  0  0  0  0
  147.7274  137.0493  155.3951 H   0  0  0  0  0  0  0  0  0  0  0  0
  150.7091  134.0847  154.7346 H   0  0  0  0  0  0  0  0  0  0  0  0
  1  2  2  0  0  0  0
  2  3  1  0  0  0  0
  2 11  1  0  0  0  0
  3  4  1  0  0  0  0
  3 23  1  0  0  0  0
  3 24  1  0  0  0  0
  4  5  1  0  0  0  0
  5  6  1  0  0  0  0
  5 25  1  0  0  0  0
  5 26  1  0  0  0  0
  6 10  1  0  0  0  0
  6  7  1  0  0  0  0
  6 27  1  0  0  0  0
  7  8  1  0  0  0  0
  7 28  1  0  0  0  0
  7 29  1  0  0  0  0
  8  9  1  0  0  0  0
  8 30  1  0  0  0  0
  8 31  1  0  0  0  0
  9 10  1  0  0  0  0
  9 32  1  0  0  0  0
  9 33  1  0  0  0  0
 11 12  1  0  0  0  0
 11 34  1  0  0  0  0
 12 21  1  0  0  0  0
 12 13  2  0  0  0  0
 13 14  1  0  0  0  0
 13 35  1  0  0  0  0
 14 15  1  0  0  0  0
 14 19  2  0  0  0  0
 15 16  1  0  0  0  0
 15 17  1  0  0  0  0
 15 18  1  0  0  0  0
 19 20  1  0  0  0  0
 19 36  1  0  0  0  0
 20 21  1  0  0  0  0
 21 22  2  0  0  0  0
M  CHG  1  20  -1
M  END
> <s_m_source_file>
AV-unprocessed.smi

> <i_m_source_file_index>
1060

> <i_lp_mmshare_version>
43012

> <i_f3d_flags>
0

> <s_epik_input>
Tz1jMVtuSF1bY0hdYyhDKEYpKEYpRilbY0hdYzFbTkhdQyg9TylbQ0gyXU9bQ0gyXVtDQEBIXTJbQ0gyXVtDSDJdW0NIMl1PMg==

> <s_epik_cmdline>
J2VwaWtfcHl0aG9uJywgJy1waCcsICc3LjAnLCAnLXRuJywgJzgnLCAnLW1hJywgJzIwMCcsICctbWV0YWxfYmluZGluZycsICctaW1hZScsICc8aW5maWxlLm1hZT4nLCAnLW9tYWUnLCAnPG91dGZpbGUubWFlPic=

> <r_epik_Ionization_Penalty>
2.50578

> <r_epik_Ionization_Penalty_Charging>
0.0523173

> <r_epik_Ionization_Penalty_Neutral>
2.45346

> <r_epik_State_Penalty>
2.61512

> <r_epik_Charging_Adjusted_Penalty>
2.66744

> <i_epik_Tot_Q>
-1

> <i_epik_Tot_abs_Q>
1

> <r_epik_Metal_State_Penalty>
0.513209

> <b_epik_Metal_Only>
0

> <s_lp_Force_Field>
OPLS_2005

> <r_lp_Energy>
34.3401

> <b_lp_Chiralities_Consistent>
1

> <s_lp_Variant>
AV-unprocessed.smi:1060-3

> <Gold.Version>
5.8.1

> <Gold.Id.Protein>
6NUR|6NUR_protein|mol2

> <Gold.PLP.Fitness>
39.2549

> <Gold.PLP.PLP>
-33.1651

> <Gold.PLP.part.hbond>
-2.0000

> <Gold.PLP.part.metal>
0.0000

> <Gold.PLP.part.buried>
-4.9682

> <Gold.PLP.part.nonpolar>
-26.4699

> <Gold.PLP.part.repulsive>
0.2370

> <Gold.PLP.ligand.clash>
0.0000

> <Gold.PLP.ligand.torsion>
1.5466

> <Gold.PLP.Chemscore.Hbond>
3.0000

> <Gold.PLP.Chemscore.CHOScore>
0.0000

> <Gold.PLP.Chemscore.Metal>
0.0000

> <Gold.Chemscore.Hbonds>
donor molecule, donor type, donor heavy atom, donor atom, acceptor molecule, acceptor atom, score
      P1  H  7989  7998       L1     1  1.00
      P1  H 10752 10764       L1    20  2.00

> <Gold.PLP.Chemscore.Internal.Correction>
0.1829

> <Gold.Rescore>
     Score         DG    S(hbond)    S(metal)    S(lipo)     H(rot)  DE(clash)    DE(int)     intcor
     12.05     -16.64       1.95        0.00      81.69       1.92       0.20       4.39       ----

> <Gold.Chemscore.Fitness>
12.0515

> <Gold.Chemscore.DG>
-16.6390

> <Gold.Chemscore.ZeroCoef>
-5.4800

> <Gold.Chemscore.Hbond>
1.9504

> <Gold.Chemscore.Metal>
0.0000

> <Gold.Chemscore.Lipo>
81.6855

> <Gold.Chemscore.Internal_Hbond>
0.0000

> <Gold.Chemscore.DEClash>
0.1992

> <Gold.Chemscore.DEInternal>
4.3882

> <Gold.Chemscore.Rot>
1.9190

> <Gold.Chemscore.Internal.Correction>
   9.000000E+99

> <Gold.Chemscore.Hbonds>
donor molecule, donor type, donor heavy atom, donor atom, acceptor molecule, acceptor atom, score
      P1  H  7989  7998       L1     1  0.99
      P1  H 10752 10764       L1    20  0.93

> <Gold.Chemscore.Hbond.Weighted>
-6.5144

> <Gold.Chemscore.Metal.Weighted>
-0.0000

> <Gold.Chemscore.Lipo.Weighted>
-9.5572

> <Gold.Chemscore.Internal_Hbond.Weighted>
0.0000

> <Gold.Chemscore.DEClash.Weighted>
0.1992

> <Gold.Chemscore.DEInternal.Weighted>
4.3882

> <Gold.Chemscore.Rot.Weighted>
4.9126

> <Gold.Chemscore.Internal.Correction.Weighted>
   9.000000E+99

> <Gold.Protein.RotatedTorsions>
[ 6907 6896 6895 6894 ] final -167.61 input  -60.11 | X-H torsion
[ 7974 7965 7964 7962 ] final  -93.55 input  175.53 | X-H torsion
[ 8008 7997 7996 7995 ] final -122.74 input   59.86 | X-H torsion
[ 10167 10162 10161 10158 ] final -103.33 input  -65.29 | X-H torsion
[ 10718 10713 10712 10709 ] final  150.47 input   66.30 | X-H torsion
[ 10763 10752 10751 10750 ] final  -55.76 input  -60.55 | X-H torsion
[ 11005 11000 10999 10996 ] final  -55.52 input  -57.11 | X-H torsion

> <Gold.Protein.ActiveResidues>
 VAL166  LYS551  ARG553  GLY616  TRP617  ASP618  TYR619  PRO620  LYS621  CYS622 
 ASP623  PHE694  ASN695  SER759  ASP760  ASP761  ALA762  ILE779  LEU786  VAL792 
 PHE793  MET794  SER795  GLU796  ALA797  LYS798  CYS799  TRP800  GLU811  SER814 

> <Gold.Protein.RotatedAtoms>
  151.4623  133.3590  159.2810 H   0  0  0  0  0  0  0  0  0  0  0  0  # atno 6907 bound_to 6896
  150.9017  134.8431  159.7375 H   0  0  0  0  0  0  0  0  0  0  0  0  # atno 6908 bound_to 6896
  152.4883  134.4544  159.9637 H   0  0  0  0  0  0  0  0  0  0  0  0  # atno 6909 bound_to 6896
  145.3850  140.9522  143.2372 H   0  0  0  0  0  0  0  0  0  0  0  0  # atno 7974 bound_to 7965
  155.1692  140.0407  157.2859 H   0  0  0  0  0  0  0  0  0  0  0  0  # atno 8008 bound_to 7997
  154.6282  140.2517  155.7439 H   0  0  0  0  0  0  0  0  0  0  0  0  # atno 8009 bound_to 7997
  156.2470  140.2881  156.0621 H   0  0  0  0  0  0  0  0  0  0  0  0  # atno 8010 bound_to 7997
  140.2212  143.3675  152.0968 H   0  0  0  0  0  0  0  0  0  0  0  0  # atno 10167 bound_to 10162
  157.2830  131.0839  151.1518 H   0  0  0  0  0  0  0  0  0  0  0  0  # atno 10718 bound_to 10713
  154.1958  135.6419  153.5073 H   0  0  0  0  0  0  0  0  0  0  0  0  # atno 10763 bound_to 10752
  153.0024  135.5439  154.6367 H   0  0  0  0  0  0  0  0  0  0  0  0  # atno 10764 bound_to 10752
  154.5767  135.2921  155.0746 H   0  0  0  0  0  0  0  0  0  0  0  0  # atno 10765 bound_to 10752
  141.1078  133.6612  156.4482 H   0  0  0  0  0  0  0  0  0  0  0  0  # atno 11005 bound_to 11000
  144.8480  139.5366  143.6869 LP  0  0  0  0  0  0  0  0  0  0  0  0  # atno 17320 bound_to 7965
  146.2824  139.6913  142.9219 LP  0  0  0  0  0  0  0  0  0  0  0  0  # atno 17321 bound_to 7965
  139.5143  144.6946  151.5665 LP  0  0  0  0  0  0  0  0  0  0  0  0  # atno 17342 bound_to 10162
  140.6254  143.9179  150.6560 LP  0  0  0  0  0  0  0  0  0  0  0  0  # atno 17343 bound_to 10162
  157.2944  130.6812  149.6131 LP  0  0  0  0  0  0  0  0  0  0  0  0  # atno 17370 bound_to 10713
  155.9665  130.4411  150.5326 LP  0  0  0  0  0  0  0  0  0  0  0  0  # atno 17371 bound_to 10713
  140.4857  134.6623  157.5189 LP  0  0  0  0  0  0  0  0  0  0  0  0  # atno 17394 bound_to 11000
  139.9956  134.6916  155.9615 LP  0  0  0  0  0  0  0  0  0  0  0  0  # atno 17395 bound_to 11000

$$$$
