AV-unprocessed.smi:2775|AV-procd|sdf|10688|dock2
  -GOLD-   2272015133D 1   1.00000     0.00000
 Structure written by MMmdl.
 42 45  0  0  0  0  0  0  0  0  1 V2000
  152.9784  144.0595  162.6570 C   0  0  0  0  0  0  0  0  0  0  0  0
  153.0525  142.9237  161.6538 C   0  0  0  0  0  0  0  0  0  0  0  0
  153.8621  141.8968  161.9925 N   0  0  0  0  0  0  0  0  0  0  0  0
  153.9676  140.8619  161.1343 C   0  0  0  0  0  0  0  0  0  0  0  0
  153.2718  140.7948  159.9125 C   0  0  0  0  0  0  0  0  0  0  0  0
  152.4090  141.8609  159.5623 C   0  0  0  0  0  0  0  0  0  0  0  0
  151.6665  141.9043  158.3500 N   0  0  0  0  0  0  0  0  0  0  0  0
  151.7090  141.0648  157.2969 C   0  0  0  0  0  0  0  0  0  0  0  0
  152.4771  140.1121  157.1841 O   0  0  0  0  0  0  0  0  0  0  0  0
  150.8024  141.3434  156.3449 N   0  0  0  0  0  0  0  0  0  0  0  0
  150.5897  140.6252  155.0805 C   0  0  2  0  0  0  0  0  0  0  0  0
  149.2055  140.8509  154.4559 C   0  0  2  0  0  0  0  0  0  0  0  0
  148.1706  141.9147  154.5283 C   0  0  0  0  0  0  0  0  0  0  0  0
  146.9354  140.9790  154.5467 C   0  0  0  0  0  0  0  0  0  0  0  0
  147.4591  139.6355  154.7005 O   0  0  0  0  0  0  0  0  0  0  0  0
  148.6678  139.8043  155.4184 C   0  0  1  0  0  0  0  0  0  0  0  0
  150.0582  139.1644  155.2660 C   0  0  0  0  0  0  0  0  0  0  0  0
  150.3264  138.0690  154.2209 C   0  0  0  0  0  0  0  0  0  0  0  0
  151.3361  137.4571  155.1967 C   0  0  0  0  0  0  0  0  0  0  0  0
  150.6388  138.2200  156.3278 C   0  0  0  0  0  0  0  0  0  0  0  0
  152.3117  142.9587  160.4492 C   0  0  0  0  0  0  0  0  0  0  0  0
  151.3025  144.3155  160.0730 Cl  0  0  0  0  0  0  0  0  0  0  0  0
  151.9538  144.1887  163.0067 H   0  0  0  0  0  0  0  0  0  0  0  0
  153.3078  144.9928  162.2000 H   0  0  0  0  0  0  0  0  0  0  0  0
  153.6088  143.8684  163.5265 H   0  0  0  0  0  0  0  0  0  0  0  0
  154.6321  140.0629  161.4281 H   0  0  0  0  0  0  0  0  0  0  0  0
  153.4227  139.9401  159.2718 H   0  0  0  0  0  0  0  0  0  0  0  0
  150.9371  142.6018  158.3209 H   0  0  0  0  0  0  0  0  0  0  0  0
  150.1952  142.1325  156.5130 H   0  0  0  0  0  0  0  0  0  0  0  0
  151.4181  140.6976  154.3744 H   0  0  0  0  0  0  0  0  0  0  0  0
  149.2484  140.4736  153.4275 H   0  0  0  0  0  0  0  0  0  0  0  0
  148.2472  142.5075  155.4406 H   0  0  0  0  0  0  0  0  0  0  0  0
  148.1812  142.5788  153.6643 H   0  0  0  0  0  0  0  0  0  0  0  0
  146.2740  141.2271  155.3778 H   0  0  0  0  0  0  0  0  0  0  0  0
  146.3593  141.0447  153.6234 H   0  0  0  0  0  0  0  0  0  0  0  0
  148.4832  140.1788  156.4297 H   0  0  0  0  0  0  0  0  0  0  0  0
  149.4603  137.4271  154.0526 H   0  0  0  0  0  0  0  0  0  0  0  0
  150.7572  138.4207  153.2830 H   0  0  0  0  0  0  0  0  0  0  0  0
  151.2884  136.3711  155.2818 H   0  0  0  0  0  0  0  0  0  0  0  0
  152.3549  137.8055  155.0200 H   0  0  0  0  0  0  0  0  0  0  0  0
  151.3167  138.6841  157.0442 H   0  0  0  0  0  0  0  0  0  0  0  0
  149.8714  137.6254  156.8256 H   0  0  0  0  0  0  0  0  0  0  0  0
  1  2  1  0  0  0  0
  1 23  1  0  0  0  0
  1 24  1  0  0  0  0
  1 25  1  0  0  0  0
  2 21  1  0  0  0  0
  2  3  2  0  0  0  0
  3  4  1  0  0  0  0
  4  5  2  0  0  0  0
  4 26  1  0  0  0  0
  5  6  1  0  0  0  0
  5 27  1  0  0  0  0
  6  7  1  0  0  0  0
  6 21  2  0  0  0  0
  7  8  1  0  0  0  0
  7 28  1  0  0  0  0
  8  9  2  0  0  0  0
  8 10  1  0  0  0  0
 10 11  1  0  0  0  0
 10 29  1  0  0  0  0
 11 17  1  0  0  0  0
 11 12  1  0  0  0  0
 11 30  1  0  0  0  0
 12 16  1  0  0  0  0
 12 13  1  0  0  0  0
 12 31  1  0  0  0  0
 13 14  1  0  0  0  0
 13 32  1  0  0  0  0
 13 33  1  0  0  0  0
 14 15  1  0  0  0  0
 14 34  1  0  0  0  0
 14 35  1  0  0  0  0
 15 16  1  0  0  0  0
 16 17  1  0  0  0  0
 16 36  1  0  0  0  0
 17 20  1  0  0  0  0
 17 18  1  0  0  0  0
 18 19  1  0  0  0  0
 18 37  1  0  0  0  0
 18 38  1  0  0  0  0
 19 20  1  0  0  0  0
 19 39  1  0  0  0  0
 19 40  1  0  0  0  0
 20 41  1  0  0  0  0
 20 42  1  0  0  0  0
 21 22  1  0  0  0  0
M  END
> <s_m_source_file>
AV-unprocessed.smi

> <i_m_source_file_index>
2775

> <i_lp_mmshare_version>
43012

> <i_f3d_flags>
0

> <s_epik_input>
W0NIM11jMW5bY0hdW2NIXWMoYzFDbClbTkhdQyg9TylbTkhdW0NAQEhdMltDQEhdKFtDSDJdW0NIMl1PMylbQ0BASF0zQzI0W0NIMl1bQ0gyXVtDSDJdNA==

> <s_epik_cmdline>
J2VwaWtfcHl0aG9uJywgJy1waCcsICc3LjAnLCAnLXRuJywgJzgnLCAnLW1hJywgJzIwMCcsICctbWV0YWxfYmluZGluZycsICctaW1hZScsICc8aW5maWxlLm1hZT4nLCAnLW9tYWUnLCAnPG91dGZpbGUubWFlPic=

> <r_epik_Ionization_Penalty>
0.01026

> <r_epik_Ionization_Penalty_Charging>
0

> <r_epik_Ionization_Penalty_Neutral>
0.01026

> <r_epik_State_Penalty>
0.00780685

> <r_epik_Charging_Adjusted_Penalty>
0.00780685

> <i_epik_Tot_Q>
0

> <i_epik_Tot_abs_Q>
0

> <r_epik_Metal_State_Penalty>
0.00767411

> <b_epik_Metal_Only>
0

> <s_lp_Force_Field>
OPLS_2005

> <r_lp_Energy>
81.865

> <b_lp_Chiralities_Consistent>
1

> <s_lp_Variant>
AV-unprocessed.smi:2775-1

> <Gold.Version>
5.8.1

> <Gold.Id.Protein>
6NUR|6NUR_protein|mol2

> <Gold.PLP.Fitness>
43.1083

> <Gold.PLP.PLP>
-40.1469

> <Gold.PLP.part.hbond>
-1.4207

> <Gold.PLP.part.metal>
0.0000

> <Gold.PLP.part.buried>
-1.9069

> <Gold.PLP.part.nonpolar>
-36.3090

> <Gold.PLP.part.repulsive>
0.2766

> <Gold.PLP.ligand.clash>
0.0000

> <Gold.PLP.ligand.torsion>
0.1774

> <Gold.PLP.Chemscore.Hbond>
1.0000

> <Gold.PLP.Chemscore.CHOScore>
0.0000

> <Gold.PLP.Chemscore.Metal>
0.0000

> <Gold.Chemscore.Hbonds>
donor molecule, donor type, donor heavy atom, donor atom, acceptor molecule, acceptor atom, score
      P1  H  7997  8009       L1     9  1.00

> <Gold.PLP.Chemscore.Internal.Correction>
0.3163

> <Gold.Rescore>
     Score         DG    S(hbond)    S(metal)    S(lipo)     H(rot)  DE(clash)    DE(int)     intcor
     16.95     -21.73       0.95        0.00     133.67       1.00       1.95       2.83       ----

> <Gold.Chemscore.Fitness>
16.9499

> <Gold.Chemscore.DG>
-21.7304

> <Gold.Chemscore.ZeroCoef>
-5.4800

> <Gold.Chemscore.Hbond>
0.9493

> <Gold.Chemscore.Metal>
0.0000

> <Gold.Chemscore.Lipo>
133.6743

> <Gold.Chemscore.Internal_Hbond>
0.0000

> <Gold.Chemscore.DEClash>
1.9499

> <Gold.Chemscore.DEInternal>
2.8306

> <Gold.Chemscore.Rot>
1.0000

> <Gold.Chemscore.Internal.Correction>
   9.000000E+99

> <Gold.Chemscore.Hbonds>
donor molecule, donor type, donor heavy atom, donor atom, acceptor molecule, acceptor atom, score
      P1  H  7997  8009       L1     9  0.96

> <Gold.Chemscore.Hbond.Weighted>
-3.1706

> <Gold.Chemscore.Metal.Weighted>
-0.0000

> <Gold.Chemscore.Lipo.Weighted>
-15.6399

> <Gold.Chemscore.Internal_Hbond.Weighted>
0.0000

> <Gold.Chemscore.DEClash.Weighted>
1.9499

> <Gold.Chemscore.DEInternal.Weighted>
2.8306

> <Gold.Chemscore.Rot.Weighted>
2.5600

> <Gold.Chemscore.Internal.Correction.Weighted>
   9.000000E+99

> <Gold.Protein.RotatedTorsions>
[ 6907 6896 6895 6894 ] final  -80.73 input  -60.11 | X-H torsion
[ 7974 7965 7964 7962 ] final  173.38 input  175.53 | X-H torsion
[ 8008 7997 7996 7995 ] final -179.83 input   59.86 | X-H torsion
[ 10167 10162 10161 10158 ] final   94.30 input  -65.29 | X-H torsion
[ 10718 10713 10712 10709 ] final   18.41 input   66.30 | X-H torsion
[ 10763 10752 10751 10750 ] final   29.23 input  -60.55 | X-H torsion
[ 11005 11000 10999 10996 ] final   25.98 input  -57.11 | X-H torsion

> <Gold.Protein.ActiveResidues>
 VAL166  LYS551  ARG553  GLY616  TRP617  ASP618  TYR619  PRO620  LYS621  CYS622 
 ASP623  PHE694  ASN695  SER759  ASP760  ASP761  ALA762  ILE779  LEU786  VAL792 
 PHE793  MET794  SER795  GLU796  ALA797  LYS798  CYS799  TRP800  GLU811  SER814 

> <Gold.Protein.RotatedAtoms>
  150.6924  134.3926  159.5082 H   0  0  0  0  0  0  0  0  0  0  0  0  # atno 6907 bound_to 6896
  152.1711  134.8830  160.0543 H   0  0  0  0  0  0  0  0  0  0  0  0  # atno 6908 bound_to 6896
  151.9856  133.3738  159.4161 H   0  0  0  0  0  0  0  0  0  0  0  0  # atno 6909 bound_to 6896
  144.7245  139.9638  143.6435 H   0  0  0  0  0  0  0  0  0  0  0  0  # atno 7974 bound_to 7965
  156.0350  140.1290  157.0217 H   0  0  0  0  0  0  0  0  0  0  0  0  # atno 8008 bound_to 7997
  154.4366  140.1042  156.6225 H   0  0  0  0  0  0  0  0  0  0  0  0  # atno 8009 bound_to 7997
  155.5750  140.3467  155.4527 H   0  0  0  0  0  0  0  0  0  0  0  0  # atno 8010 bound_to 7997
  139.8096  144.6779  150.9657 H   0  0  0  0  0  0  0  0  0  0  0  0  # atno 10167 bound_to 10162
  157.0960  130.6448  149.5860 H   0  0  0  0  0  0  0  0  0  0  0  0  # atno 10718 bound_to 10713
  153.0443  135.6494  154.0859 H   0  0  0  0  0  0  0  0  0  0  0  0  # atno 10763 bound_to 10752
  154.0560  135.2892  155.3334 H   0  0  0  0  0  0  0  0  0  0  0  0  # atno 10764 bound_to 10752
  154.6689  135.5363  153.8178 H   0  0  0  0  0  0  0  0  0  0  0  0  # atno 10765 bound_to 10752
  140.3420  134.2322  155.7689 H   0  0  0  0  0  0  0  0  0  0  0  0  # atno 11005 bound_to 11000
  146.0616  139.3609  143.0577 LP  0  0  0  0  0  0  0  0  0  0  0  0  # atno 17320 bound_to 7965
  145.8085  140.9737  143.0961 LP  0  0  0  0  0  0  0  0  0  0  0  0  # atno 17321 bound_to 7965
  140.7818  143.4198  151.0859 LP  0  0  0  0  0  0  0  0  0  0  0  0  # atno 17342 bound_to 10162
  139.7865  143.8279  152.3145 LP  0  0  0  0  0  0  0  0  0  0  0  0  # atno 17343 bound_to 10162
  155.9886  130.4930  150.7176 LP  0  0  0  0  0  0  0  0  0  0  0  0  # atno 17370 bound_to 10713
  157.4681  131.0890  151.0672 LP  0  0  0  0  0  0  0  0  0  0  0  0  # atno 17371 bound_to 10713
  141.2036  133.7908  157.0332 LP  0  0  0  0  0  0  0  0  0  0  0  0  # atno 17394 bound_to 11000
  140.0773  134.9668  157.1567 LP  0  0  0  0  0  0  0  0  0  0  0  0  # atno 17395 bound_to 11000

$$$$
