#       Name:                AV-unprocessed.smi:1032
#       Creating user name   scv26
#       Creation time:       Fri Mar 27 02:46:04 2020


#       File generated by GOLD software.
#

@<TRIPOS>MOLECULE
AV-unprocessed.smi:1032
    51    52     1
SMALL
NO_CHARGES


@<TRIPOS>ATOM
      1 ****        -4.3653   4.4096   0.2275 C.3            1 S1                 0.0000
      2 ****        -3.9509   2.9317   0.2588 C.3            1 S1                 0.0000
      3 ****        -2.4597   2.7676   0.5979 C.3            1 S1                 0.0000
      4 ****        -2.0416   1.2876   0.5894 C.3            1 S1                 0.0000
      5 ****        -2.3481   0.6530  -0.7201 N.4            1 S1                 1.0000
      6 ****        -1.8409  -0.7388  -0.8339 C.3            1 S1                 0.0000
      7 ****        -0.3269  -0.7939  -1.1238 C.3            1 S1                 0.0000
      8 ****        -0.1161  -0.2384  -2.4070 O.3            1 S1                 0.0000
      9 ****         0.1942  -2.2460  -1.1388 C.3            1 S1                 0.0000
     10 ****         1.6472  -2.3121  -1.0104 N.am           1 S1                 0.0000
     11 ****         2.3271  -2.1389   0.1328 C.2            1 S1                 0.0000
     12 ****         1.7839  -1.8747   1.2055 O.2            1 S1                 0.0000
     13 ****         3.6507  -2.2712  -0.0631 N.am           1 S1                 0.0000
     14 ****         4.7082  -2.1722   0.8825 C.ar           1 S1                 0.0000
     15 ****         6.0134  -1.9761   0.3853 C.ar           1 S1                 0.0000
     16 ****         7.0834  -1.8902   1.2984 C.ar           1 S1                 0.0000
     17 ****         6.9280  -1.9942   2.6349 N.ar           1 S1                 0.0000
     18 ****         5.6804  -2.1952   3.1090 C.ar           1 S1                 0.0000
     19 ****         4.5422  -2.2952   2.2836 C.ar           1 S1                 0.0000
     20 ****        -3.7929   0.7589  -1.0485 C.3            1 S1                 0.0000
     21 ****        -4.2482   2.2279  -1.0762 C.3            1 S1                 0.0000
     22 ****        -3.8198   4.9595  -0.5401 H              1 S1                 0.0000
     23 ****        -4.1683   4.8926   1.1852 H              1 S1                 0.0000
     24 ****        -5.4303   4.5153   0.0189 H              1 S1                 0.0000
     25 ****        -4.5333   2.4404   1.0398 H              1 S1                 0.0000
     26 ****        -1.8531   3.3203  -0.1210 H              1 S1                 0.0000
     27 ****        -2.2500   3.2012   1.5763 H              1 S1                 0.0000
     28 ****        -0.9761   1.2224   0.8058 H              1 S1                 0.0000
     29 ****        -2.5564   0.7485   1.3862 H              1 S1                 0.0000
     30 ****        -2.0771  -1.2791   0.0841 H              1 S1                 0.0000
     31 ****        -2.3653  -1.2625  -1.6350 H              1 S1                 0.0000
     32 ****         0.2205  -0.2077  -0.3868 H              1 S1                 0.0000
     33 ****         0.8095  -0.2681  -2.5978 H              1 S1                 0.0000
     34 ****        -0.2454  -2.8090  -0.3135 H              1 S1                 0.0000
     35 ****        -0.1127  -2.7618  -2.0496 H              1 S1                 0.0000
     36 ****         2.1695  -2.5229  -1.8485 H              1 S1                 0.0000
     37 ****         3.9429  -2.4188  -1.0179 H              1 S1                 0.0000
     38 ****         6.1972  -1.8880  -0.6756 H              1 S1                 0.0000
     39 ****         8.0920  -1.7363   0.9442 H              1 S1                 0.0000
     40 ****         5.5861  -2.2858   4.1812 H              1 S1                 0.0000
     41 ****         3.5812  -2.4754   2.7392 H              1 S1                 0.0000
     42 ****        -3.9843   0.3096  -2.0238 H              1 S1                 0.0000
     43 ****        -4.3770   0.1951  -0.3192 H              1 S1                 0.0000
     44 ****        -5.3155   2.2770  -1.2948 H              1 S1                 0.0000
     45 ****        -3.7423   2.7491  -1.8904 H              1 S1                 0.0000
     46 ****        -1.8613   1.1841  -1.4284 H              1 S1                 0.0000
     47 ****        -0.4332   0.7099  -2.4205 LP             1 S1                 0.0000
     48 ****        -0.6187  -0.7676  -3.0906 LP             1 S1                 0.0000
     49 ****         0.7896  -1.7796   1.2523 LP             1 S1                 0.0000
     50 ****         2.3371  -1.7552   2.0299 LP             1 S1                 0.0000
     51 ****         7.7109  -1.9247   3.2531 LP             1 S1                 0.0000
@<TRIPOS>BOND
    1    1    2 1     
    2    1   22 1     
    3    1   23 1     
    4    1   24 1     
    5    2   21 1     
    6    2    3 1     
    7    2   25 1     
    8    3    4 1     
    9    3   26 1     
   10    3   27 1     
   11    4    5 1     
   12    4   28 1     
   13    4   29 1     
   14    5    6 1     
   15    5   20 1     
   16    5   46 1     
   17    6    7 1     
   18    6   30 1     
   19    6   31 1     
   20    7    8 1     
   21    7    9 1     
   22    7   32 1     
   23    8   33 1     
   24    9   10 1     
   25    9   34 1     
   26    9   35 1     
   27   10   11 am    
   28   10   36 1     
   29   11   12 2     
   30   11   13 am    
   31   13   14 1     
   32   13   37 1     
   33   14   19 ar    
   34   14   15 ar    
   35   15   16 ar    
   36   15   38 1     
   37   16   17 ar    
   38   16   39 1     
   39   17   18 ar    
   40   18   19 ar    
   41   18   40 1     
   42   19   41 1     
   43   20   21 1     
   44   20   42 1     
   45   20   43 1     
   46   21   44 1     
   47   21   45 1     
   48    8   47 1     
   49    8   48 1     
   50   12   49 1     
   51   12   50 1     
   52   17   51 1     
@<TRIPOS>SUBSTRUCTURE
      1 S1             1
@<TRIPOS>SET
LONE_PAIRS      STATIC     ATOMS    <user>   **** ""
5 47 48 49 50 51
DONOR_HYDROGENS      STATIC     ATOMS    <user>   **** ""
4 46 33 36 37
ATOM$BLUE        STATIC     ATOMS    COLORGROUP SYSTEM
5 47 48 49 50 51
ATOM$RED        STATIC     ATOMS    COLORGROUP SYSTEM
4 46 33 36 37
