#       Name:                AV-unprocessed.smi:1677
#       Creating user name   scv26
#       Creation time:       Fri Mar 27 07:46:41 2020


#       File generated by GOLD software.
#

@<TRIPOS>MOLECULE
AV-unprocessed.smi:1677
    39    40     1
SMALL
NO_CHARGES


@<TRIPOS>ATOM
      1 ****        -0.2958  -2.1038  -1.8402 C.3            1 S1                 0.0000
      2 ****         0.1119  -1.4304  -0.5197 C.3            1 S1                 0.0000
      3 ****         1.6331  -1.4766  -0.2593 C.3            1 S1                 0.0000
      4 ****         2.1634  -2.8427  -0.2245 N.pl3          1 S1                 0.0000
      5 ****         2.0003  -3.7686   0.7737 C.2            1 S1                 0.0000
      6 ****         2.6705  -4.8961   0.3745 C.2            1 S1                 0.0000
      7 ****         3.2173  -4.6097  -0.8479 N.pl3          1 S1                 1.0000
      8 ****         2.9112  -3.3591  -1.2085 C.2            1 S1                 0.0000
      9 ****        -0.3573  -0.0481  -0.5224 N.am           1 S1                 0.0000
     10 ****        -0.6362   0.6793   0.5708 C.2            1 S1                 0.0000
     11 ****        -0.5072   0.2487   1.7173 O.2            1 S1                 0.0000
     12 ****        -1.1396   2.1090   0.3318 C.3            1 S1                 0.0000
     13 ****        -0.1854   3.1543   0.9550 C.3            1 S1                 0.0000
     14 ****        -0.7866   4.5490   0.9566 C.2            1 S1                 0.0000
     15 ****        -2.0950   4.7901   0.7652 C.2            1 S1                 0.0000
     16 ****        -3.1214   3.6957   0.5307 C.3            1 S1                 0.0000
     17 ****        -2.5713   2.2978   0.8716 C.3            1 S1                 0.0000
     18 ****        -0.0488  -3.1655  -1.8411 H              1 S1                 0.0000
     19 ****         0.2060  -1.6432  -2.6918 H              1 S1                 0.0000
     20 ****        -1.3710  -2.0236  -2.0045 H              1 S1                 0.0000
     21 ****        -0.3956  -1.9641   0.2862 H              1 S1                 0.0000
     22 ****         2.1710  -0.9169  -1.0265 H              1 S1                 0.0000
     23 ****         1.8761  -1.0123   0.6975 H              1 S1                 0.0000
     24 ****         1.4322  -3.5614   1.6695 H              1 S1                 0.0000
     25 ****         2.7966  -5.8548   0.8561 H              1 S1                 0.0000
     26 ****         3.2066  -2.8664  -2.1179 H              1 S1                 0.0000
     27 ****        -0.4933   0.3860  -1.4241 H              1 S1                 0.0000
     28 ****        -1.1694   2.2826  -0.7458 H              1 S1                 0.0000
     29 ****         0.0684   2.8984   1.9847 H              1 S1                 0.0000
     30 ****         0.7499   3.1802   0.3948 H              1 S1                 0.0000
     31 ****        -0.1098   5.3715   1.1356 H              1 S1                 0.0000
     32 ****        -2.4589   5.8071   0.7649 H              1 S1                 0.0000
     33 ****        -4.0104   3.9007   1.1277 H              1 S1                 0.0000
     34 ****        -3.4246   3.7367  -0.5159 H              1 S1                 0.0000
     35 ****        -3.2405   1.5341   0.4727 H              1 S1                 0.0000
     36 ****        -2.5709   2.1701   1.9555 H              1 S1                 0.0000
     37 ****         3.7740  -5.2496  -1.4006 H              1 S1                 0.0000
     38 ****        -0.1806  -0.6845   1.8671 LP             1 S1                 0.0000
     39 ****        -0.7290   0.8323   2.4984 LP             1 S1                 0.0000
@<TRIPOS>BOND
    1    1    2 1     
    2    1   18 1     
    3    1   19 1     
    4    1   20 1     
    5    2    3 1     
    6    2    9 1     
    7    2   21 1     
    8    3    4 1     
    9    3   22 1     
   10    3   23 1     
   11    4    8 1     
   12    4    5 1     
   13    5    6 2     
   14    5   24 1     
   15    6    7 1     
   16    6   25 1     
   17    7    8 2     
   18    7   37 1     
   19    8   26 1     
   20    9   10 am    
   21    9   27 1     
   22   10   11 2     
   23   10   12 1     
   24   12   17 1     
   25   12   13 1     
   26   12   28 1     
   27   13   14 1     
   28   13   29 1     
   29   13   30 1     
   30   14   15 2     
   31   14   31 1     
   32   15   16 1     
   33   15   32 1     
   34   16   17 1     
   35   16   33 1     
   36   16   34 1     
   37   17   35 1     
   38   17   36 1     
   39   11   38 1     
   40   11   39 1     
@<TRIPOS>SUBSTRUCTURE
      1 S1             1
@<TRIPOS>SET
LONE_PAIRS      STATIC     ATOMS    <user>   **** ""
2 38 39
DONOR_HYDROGENS      STATIC     ATOMS    <user>   **** ""
2 37 27
ATOM$BLUE        STATIC     ATOMS    COLORGROUP SYSTEM
2 38 39
ATOM$RED        STATIC     ATOMS    COLORGROUP SYSTEM
2 37 27
