AV-unprocessed.smi:375|AV-procd|sdf|2454|dock9
  -GOLD-   2262022393D 1   1.00000     0.00000
 Structure written by MMmdl.
 36 38  0  0  0  0  0  0  0  0  1 V2000
  153.8967  140.9791  160.3179 C   0  0  0  0  0  0  0  0  0  0  0  0
  152.9422  141.6063  159.4118 N   0  0  0  0  0  0  0  0  0  0  0  0
  152.4416  141.0872  158.2660 C   0  0  0  0  0  0  0  0  0  0  0  0
  152.7138  139.9848  157.7909 O   0  0  0  0  0  0  0  0  0  0  0  0
  151.5896  141.9945  157.7328 N   0  0  0  0  0  0  0  0  0  0  0  0
  150.8378  141.8568  156.4870 C   0  0  0  0  0  0  0  0  0  0  0  0
  149.9068  140.6285  156.5109 C   0  0  1  0  0  0  0  0  0  0  0  0
  149.2392  140.5912  157.7575 O   0  0  0  0  0  0  0  0  0  0  0  0
  148.9226  140.6747  155.3489 C   0  0  0  0  0  0  0  0  0  0  0  0
  148.0040  141.7424  155.2315 C   0  0  0  0  0  0  0  0  0  0  0  0
  147.1017  141.7915  154.1515 C   0  0  0  0  0  0  0  0  0  0  0  0
  147.1139  140.7755  153.1774 C   0  0  0  0  0  0  0  0  0  0  0  0
  148.0315  139.7134  153.2826 C   0  0  0  0  0  0  0  0  0  0  0  0
  148.9352  139.6621  154.3621 C   0  0  0  0  0  0  0  0  0  0  0  0
  149.8171  138.6364  154.4403 F   0  0  0  0  0  0  0  0  0  0  0  0
  151.5507  143.1283  158.5570 C   0  0  0  0  0  0  0  0  0  0  0  0
  150.8386  144.3347  158.4401 C   0  0  0  0  0  0  0  0  0  0  0  0
  151.0254  145.2965  159.4607 C   0  0  0  0  0  0  0  0  0  0  0  0
  151.8977  145.0404  160.5507 C   0  0  0  0  0  0  0  0  0  0  0  0
  152.6037  143.8179  160.6424 C   0  0  0  0  0  0  0  0  0  0  0  0
  152.4003  142.8817  159.6144 C   0  0  0  0  0  0  0  0  0  0  0  0
  154.2466  140.0162  159.9437 H   0  0  0  0  0  0  0  0  0  0  0  0
  153.4375  140.8165  161.2932 H   0  0  0  0  0  0  0  0  0  0  0  0
  154.7671  141.6220  160.4524 H   0  0  0  0  0  0  0  0  0  0  0  0
  150.2835  142.7673  156.2518 H   0  0  0  0  0  0  0  0  0  0  0  0
  151.5690  141.7427  155.6858 H   0  0  0  0  0  0  0  0  0  0  0  0
  150.4961  139.7140  156.4346 H   0  0  0  0  0  0  0  0  0  0  0  0
  148.4219  141.0583  157.6738 H   0  0  0  0  0  0  0  0  0  0  0  0
  147.9899  142.5319  155.9688 H   0  0  0  0  0  0  0  0  0  0  0  0
  146.4016  142.6099  154.0695 H   0  0  0  0  0  0  0  0  0  0  0  0
  146.4228  140.8130  152.3483 H   0  0  0  0  0  0  0  0  0  0  0  0
  148.0445  138.9367  152.5322 H   0  0  0  0  0  0  0  0  0  0  0  0
  150.1770  144.5241  157.6079 H   0  0  0  0  0  0  0  0  0  0  0  0
  150.4976  146.2374  159.4092 H   0  0  0  0  0  0  0  0  0  0  0  0
  152.0254  145.7886  161.3193 H   0  0  0  0  0  0  0  0  0  0  0  0
  153.2707  143.6156  161.4673 H   0  0  0  0  0  0  0  0  0  0  0  0
  1  2  1  0  0  0  0
  1 22  1  0  0  0  0
  1 23  1  0  0  0  0
  1 24  1  0  0  0  0
  2 21  1  0  0  0  0
  2  3  1  0  0  0  0
  3  4  2  0  0  0  0
  3  5  1  0  0  0  0
  5  6  1  0  0  0  0
  5 16  1  0  0  0  0
  6  7  1  0  0  0  0
  6 25  1  0  0  0  0
  6 26  1  0  0  0  0
  7  8  1  0  0  0  0
  7  9  1  0  0  0  0
  7 27  1  0  0  0  0
  8 28  1  0  0  0  0
  9 14  1  0  0  0  0
  9 10  2  0  0  0  0
 10 11  1  0  0  0  0
 10 29  1  0  0  0  0
 11 12  2  0  0  0  0
 11 30  1  0  0  0  0
 12 13  1  0  0  0  0
 12 31  1  0  0  0  0
 13 14  2  0  0  0  0
 13 32  1  0  0  0  0
 14 15  1  0  0  0  0
 16 21  2  0  0  0  0
 16 17  1  0  0  0  0
 17 18  2  0  0  0  0
 17 33  1  0  0  0  0
 18 19  1  0  0  0  0
 18 34  1  0  0  0  0
 19 20  2  0  0  0  0
 19 35  1  0  0  0  0
 20 21  1  0  0  0  0
 20 36  1  0  0  0  0
M  END
> <s_m_source_file>
AV-unprocessed.smi

> <i_m_source_file_index>
375

> <i_lp_mmshare_version>
43012

> <i_f3d_flags>
0

> <s_epik_input>
W2NIXTFbY0hdW2NIXVtjSF1jKGMxMiluKFtDSDNdKWMoPU8pbjJbQ0gyXVtDQEhdKFtPSF0pYzNbY0hdW2NIXVtjSF1bY0hdYzNG

> <s_epik_cmdline>
J2VwaWtfcHl0aG9uJywgJy1waCcsICc3LjAnLCAnLXRuJywgJzgnLCAnLW1hJywgJzIwMCcsICctbWV0YWxfYmluZGluZycsICctaW1hZScsICc8aW5maWxlLm1hZT4nLCAnLW9tYWUnLCAnPG91dGZpbGUubWFlPic=

> <r_lp_tautomer_probability>
1

> <r_epik_Ionization_Penalty>
1.34619e-06

> <r_epik_Ionization_Penalty_Charging>
2.57375e-09

> <r_epik_Ionization_Penalty_Neutral>
1.34362e-06

> <r_epik_State_Penalty>
-0

> <r_epik_Charging_Adjusted_Penalty>
2.57375e-09

> <i_epik_Tot_Q>
0

> <i_epik_Tot_abs_Q>
0

> <r_epik_Metal_State_Penalty>
-0

> <b_epik_Metal_Only>
0

> <s_lp_Force_Field>
OPLS_2005

> <r_lp_Energy>
44.2188

> <b_lp_Chiralities_Consistent>
1

> <s_lp_Variant>
AV-unprocessed.smi:375-2

> <Gold.Version>
5.8.1

> <Gold.Id.Protein>
6NUR|6NUR_protein|mol2

> <Gold.PLP.Fitness>
49.9123

> <Gold.PLP.PLP>
-47.1102

> <Gold.PLP.part.hbond>
-1.0000

> <Gold.PLP.part.metal>
0.0000

> <Gold.PLP.part.buried>
-2.4637

> <Gold.PLP.part.nonpolar>
-44.5023

> <Gold.PLP.part.repulsive>
0.0000

> <Gold.PLP.ligand.clash>
0.0000

> <Gold.PLP.ligand.torsion>
0.1029

> <Gold.PLP.Chemscore.Hbond>
1.0000

> <Gold.PLP.Chemscore.CHOScore>
0.0000

> <Gold.PLP.Chemscore.Metal>
0.0000

> <Gold.Chemscore.Hbonds>
donor molecule, donor type, donor heavy atom, donor atom, acceptor molecule, acceptor atom, score
      P1  H  7997  8010       L1     4  1.00

> <Gold.PLP.Chemscore.Internal.Correction>
0.0080

> <Gold.Rescore>
     Score         DG    S(hbond)    S(metal)    S(lipo)     H(rot)  DE(clash)    DE(int)     intcor
     17.25     -18.71       0.89        0.00     128.08       1.85       1.37       0.10       ----

> <Gold.Chemscore.Fitness>
17.2480

> <Gold.Chemscore.DG>
-18.7140

> <Gold.Chemscore.ZeroCoef>
-5.4800

> <Gold.Chemscore.Hbond>
0.8909

> <Gold.Chemscore.Metal>
0.0000

> <Gold.Chemscore.Lipo>
128.0791

> <Gold.Chemscore.Internal_Hbond>
0.0000

> <Gold.Chemscore.DEClash>
1.3684

> <Gold.Chemscore.DEInternal>
0.0976

> <Gold.Chemscore.Rot>
1.8465

> <Gold.Chemscore.Internal.Correction>
   9.000000E+99

> <Gold.Chemscore.Hbonds>
donor molecule, donor type, donor heavy atom, donor atom, acceptor molecule, acceptor atom, score
      P1  H  7997  8010       L1     4  0.71

> <Gold.Chemscore.Hbond.Weighted>
-2.9757

> <Gold.Chemscore.Metal.Weighted>
-0.0000

> <Gold.Chemscore.Lipo.Weighted>
-14.9853

> <Gold.Chemscore.Internal_Hbond.Weighted>
0.0000

> <Gold.Chemscore.DEClash.Weighted>
1.3684

> <Gold.Chemscore.DEInternal.Weighted>
0.0976

> <Gold.Chemscore.Rot.Weighted>
4.7270

> <Gold.Chemscore.Internal.Correction.Weighted>
   9.000000E+99

> <Gold.Protein.RotatedTorsions>
[ 6907 6896 6895 6894 ] final   60.18 input  -60.11 | X-H torsion
[ 7974 7965 7964 7962 ] final  158.42 input  175.53 | X-H torsion
[ 8008 7997 7996 7995 ] final   47.74 input   59.86 | X-H torsion
[ 10167 10162 10161 10158 ] final  -77.92 input  -65.29 | X-H torsion
[ 10718 10713 10712 10709 ] final  178.68 input   66.30 | X-H torsion
[ 10763 10752 10751 10750 ] final  101.34 input  -60.55 | X-H torsion
[ 11005 11000 10999 10996 ] final   55.77 input  -57.11 | X-H torsion

> <Gold.Protein.ActiveResidues>
 VAL166  LYS551  ARG553  GLY616  TRP617  ASP618  TYR619  PRO620  LYS621  CYS622 
 ASP623  PHE694  ASN695  SER759  ASP760  ASP761  ALA762  ILE779  LEU786  VAL792 
 PHE793  MET794  SER795  GLU796  ALA797  LYS798  CYS799  TRP800  GLU811  SER814 

> <Gold.Protein.RotatedAtoms>
  152.3980  134.6333  160.0080 H   0  0  0  0  0  0  0  0  0  0  0  0  # atno 6907 bound_to 6896
  151.6547  133.3314  159.3168 H   0  0  0  0  0  0  0  0  0  0  0  0  # atno 6908 bound_to 6896
  150.7885  134.6932  159.6553 H   0  0  0  0  0  0  0  0  0  0  0  0  # atno 6909 bound_to 6896
  144.7847  139.7476  143.6246 H   0  0  0  0  0  0  0  0  0  0  0  0  # atno 7974 bound_to 7965
  155.3741  140.3425  155.4244 H   0  0  0  0  0  0  0  0  0  0  0  0  # atno 8008 bound_to 7997
  156.1646  140.1612  156.8587 H   0  0  0  0  0  0  0  0  0  0  0  0  # atno 8009 bound_to 7997
  154.5173  140.0775  156.8087 H   0  0  0  0  0  0  0  0  0  0  0  0  # atno 8010 bound_to 7997
  140.4727  143.2422  151.8179 H   0  0  0  0  0  0  0  0  0  0  0  0  # atno 10167 bound_to 10162
  156.8869  130.9834  151.3054 H   0  0  0  0  0  0  0  0  0  0  0  0  # atno 10718 bound_to 10713
  153.3255  135.4048  155.1452 H   0  0  0  0  0  0  0  0  0  0  0  0  # atno 10763 bound_to 10752
  154.8611  135.3598  154.5540 H   0  0  0  0  0  0  0  0  0  0  0  0  # atno 10764 bound_to 10752
  153.5975  135.7072  153.5457 H   0  0  0  0  0  0  0  0  0  0  0  0  # atno 10765 bound_to 10752
  140.0581  134.5641  155.9184 H   0  0  0  0  0  0  0  0  0  0  0  0  # atno 11005 bound_to 11000
  146.2072  139.5405  142.9704 LP  0  0  0  0  0  0  0  0  0  0  0  0  # atno 17320 bound_to 7965
  145.5955  141.0363  143.2047 LP  0  0  0  0  0  0  0  0  0  0  0  0  # atno 17321 bound_to 7965
  139.4821  144.4871  151.9232 LP  0  0  0  0  0  0  0  0  0  0  0  0  # atno 17342 bound_to 10162
  140.3956  144.2559  150.5896 LP  0  0  0  0  0  0  0  0  0  0  0  0  # atno 17343 bound_to 10162
  157.6107  130.8580  149.8947 LP  0  0  0  0  0  0  0  0  0  0  0  0  # atno 17370 bound_to 10713
  156.0648  130.3694  150.0902 LP  0  0  0  0  0  0  0  0  0  0  0  0  # atno 17371 bound_to 10713
  141.1961  133.6590  156.5675 LP  0  0  0  0  0  0  0  0  0  0  0  0  # atno 17394 bound_to 11000
  140.3813  134.7521  157.4662 LP  0  0  0  0  0  0  0  0  0  0  0  0  # atno 17395 bound_to 11000

$$$$
