#       Name:                AV-unprocessed.smi:689
#       Creating user name   scv26
#       Creation time:       Fri Mar 27 00:33:51 2020


#       File generated by GOLD software.
#

@<TRIPOS>MOLECULE
AV-unprocessed.smi:689
    39    40     1
SMALL
NO_CHARGES


@<TRIPOS>ATOM
      1 ****        -2.2956   0.5068   3.2026 C.3            1 S1                 0.0000
      2 ****        -2.4662   0.6140   1.7144 C.2            1 S1                 0.0000
      3 ****        -2.9767   1.7163   1.1921 N.2            1 S1                 0.0000
      4 ****        -2.9947   1.5122  -0.1908 O.3            1 S1                 0.0000
      5 ****        -2.4870   0.2809  -0.4504 C.2            1 S1                 0.0000
      6 ****        -2.4133  -0.1158  -1.8861 C.3            1 S1                 0.0000
      7 ****        -2.1342  -0.3447   0.7146 C.2            1 S1                 0.0000
      8 ****        -1.5246  -1.7090   0.9097 C.3            1 S1                 0.0000
      9 ****        -0.0134  -1.6098   0.7156 C.2            1 S1                 0.0000
     10 ****         0.7175  -1.1478   1.5905 O.2            1 S1                 0.0000
     11 ****         0.4551  -2.0282  -0.5330 N.am           1 S1                 0.0000
     12 ****         2.0076  -1.6587  -1.1968 S.o2           1 S1                 0.0000
     13 ****         3.0140  -1.8244  -0.1363 O.2            1 S1                 0.0000
     14 ****         2.1183  -2.4271  -2.4459 O.2            1 S1                 0.0000
     15 ****         1.8453   0.1293  -1.6468 C.3            1 S1                 0.0000
     16 ****         2.1154   1.0671  -0.4846 C.3            1 S1                 0.0000
     17 ****         2.8626   2.3647  -0.6940 C.3            1 S1                 0.0000
     18 ****         3.5116   1.2394   0.0707 C.3            1 S1                 0.0000
     19 ****        -1.2404   0.5348   3.4753 H              1 S1                 0.0000
     20 ****        -2.7098  -0.4295   3.5762 H              1 S1                 0.0000
     21 ****        -2.7974   1.3206   3.7275 H              1 S1                 0.0000
     22 ****        -1.9417  -1.0913  -2.0024 H              1 S1                 0.0000
     23 ****        -1.8313   0.6086  -2.4561 H              1 S1                 0.0000
     24 ****        -3.4103  -0.1690  -2.3230 H              1 S1                 0.0000
     25 ****        -1.7228  -2.0981   1.9088 H              1 S1                 0.0000
     26 ****        -1.9428  -2.4368   0.2130 H              1 S1                 0.0000
     27 ****        -0.1856  -2.4066  -1.2298 H              1 S1                 0.0000
     28 ****         2.5694   0.3274  -2.4374 H              1 S1                 0.0000
     29 ****         0.8524   0.3085  -2.0585 H              1 S1                 0.0000
     30 ****         1.3107   1.0992   0.2467 H              1 S1                 0.0000
     31 ****         3.2449   2.5790  -1.6900 H              1 S1                 0.0000
     32 ****         2.5304   3.2316  -0.1265 H              1 S1                 0.0000
     33 ****         3.6100   1.3507   1.1487 H              1 S1                 0.0000
     34 ****         4.3236   0.7049  -0.4188 H              1 S1                 0.0000
     35 ****        -3.2864   2.5293   1.6852 LP             1 S1                 0.0000
     36 ****        -2.4372   2.2091  -0.6420 LP             1 S1                 0.0000
     37 ****        -3.9346   1.5676  -0.5278 LP             1 S1                 0.0000
     38 ****         0.3246  -0.8269   2.4523 LP             1 S1                 0.0000
     39 ****         1.7046  -1.0931   1.4400 LP             1 S1                 0.0000
@<TRIPOS>BOND
    1    1    2 1     
    2    1   19 1     
    3    1   20 1     
    4    1   21 1     
    5    2    7 1     
    6    2    3 2     
    7    3    4 1     
    8    4    5 1     
    9    5    6 1     
   10    5    7 2     
   11    6   22 1     
   12    6   23 1     
   13    6   24 1     
   14    7    8 1     
   15    8    9 1     
   16    8   25 1     
   17    8   26 1     
   18    9   10 2     
   19    9   11 am    
   20   11   12 1     
   21   11   27 1     
   22   12   13 2     
   23   12   14 2     
   24   12   15 1     
   25   15   16 1     
   26   15   28 1     
   27   15   29 1     
   28   16   18 1     
   29   16   17 1     
   30   16   30 1     
   31   17   18 1     
   32   17   31 1     
   33   17   32 1     
   34   18   33 1     
   35   18   34 1     
   36    3   35 1     
   37    4   36 1     
   38    4   37 1     
   39   10   38 1     
   40   10   39 1     
@<TRIPOS>SUBSTRUCTURE
      1 S1             1
@<TRIPOS>SET
LONE_PAIRS      STATIC     ATOMS    <user>   **** ""
7 35 36 37 38 39 13 14
DONOR_HYDROGENS      STATIC     ATOMS    <user>   **** ""
1 27
ATOM$BLUE        STATIC     ATOMS    COLORGROUP SYSTEM
7 35 36 37 38 39 13 14
ATOM$RED        STATIC     ATOMS    COLORGROUP SYSTEM
1 27
