AV-unprocessed.smi:1842|AV-procd|sdf|7498|dock4
  -GOLD-   22720 9203D 1   1.00000     0.00000
 Structure written by MMmdl.
 39 40  0  0  0  0  0  0  0  0  2 V2000
  150.1649  142.3504  158.7029 O   0  0  0  0  0  0  0  0  0  0  0  0
  150.8983  142.6310  157.7553 C   0  0  0  0  0  0  0  0  0  0  0  0
  152.0760  143.5910  157.9485 C   0  0  0  0  0  0  0  0  0  0  0  0
  152.2750  144.0377  159.4116 C   0  0  0  0  0  0  0  0  0  0  0  0
  152.6290  142.9001  160.3924 C   0  0  0  0  0  0  0  0  0  0  0  0
  152.9833  143.3947  161.7974 C   0  0  0  0  0  0  0  0  0  0  0  0
  153.7791  142.2527  162.4420 C   0  0  0  0  0  0  0  0  0  0  0  0
  154.2882  141.3751  161.2883 C   0  0  0  0  0  0  0  0  0  0  0  0
  153.8580  142.0772  159.9970 C   0  0  0  0  0  0  0  0  0  0  0  0
  150.7253  142.1398  156.5188 N   0  0  0  0  0  0  0  0  0  0  0  0
  149.6782  141.2026  156.1231 C   0  0  0  0  0  0  0  0  0  0  0  0
  149.4075  141.2157  154.6061 C   0  0  0  0  0  0  0  0  0  0  0  0
  147.9852  141.3738  154.2887 N   0  0  0  0  0  0  0  0  0  0  0  0
  147.2401  142.5226  154.3605 C   0  0  0  0  0  0  0  0  0  0  0  0
  145.9684  142.1879  153.9717 C   0  0  0  0  0  0  0  0  0  0  0  0
  145.9915  140.8505  153.6785 N   0  3  0  0  0  0  0  0  0  0  0  0
  147.2195  140.3576  153.8699 C   0  0  0  0  0  0  0  0  0  0  0  0
  152.9936  143.1379  157.5706 H   0  0  0  0  0  0  0  0  0  0  0  0
  151.8948  144.4681  157.3268 H   0  0  0  0  0  0  0  0  0  0  0  0
  153.0603  144.7940  159.4387 H   0  0  0  0  0  0  0  0  0  0  0  0
  151.3729  144.5418  159.7610 H   0  0  0  0  0  0  0  0  0  0  0  0
  151.7793  142.2222  160.4873 H   0  0  0  0  0  0  0  0  0  0  0  0
  153.6163  144.2809  161.7315 H   0  0  0  0  0  0  0  0  0  0  0  0
  152.1008  143.6654  162.3780 H   0  0  0  0  0  0  0  0  0  0  0  0
  154.5996  142.6399  163.0471 H   0  0  0  0  0  0  0  0  0  0  0  0
  153.1379  141.6651  163.1003 H   0  0  0  0  0  0  0  0  0  0  0  0
  155.3682  141.2290  161.3271 H   0  0  0  0  0  0  0  0  0  0  0  0
  153.8234  140.3899  161.3466 H   0  0  0  0  0  0  0  0  0  0  0  0
  153.6494  141.3702  159.1934 H   0  0  0  0  0  0  0  0  0  0  0  0
  154.6562  142.7392  159.6582 H   0  0  0  0  0  0  0  0  0  0  0  0
  151.3811  142.4198  155.8036 H   0  0  0  0  0  0  0  0  0  0  0  0
  149.9769  140.2028  156.4396 H   0  0  0  0  0  0  0  0  0  0  0  0
  148.7608  141.4338  156.6666 H   0  0  0  0  0  0  0  0  0  0  0  0
  149.9398  142.0458  154.1406 H   0  0  0  0  0  0  0  0  0  0  0  0
  149.7726  140.3048  154.1296 H   0  0  0  0  0  0  0  0  0  0  0  0
  147.6590  143.4676  154.6751 H   0  0  0  0  0  0  0  0  0  0  0  0
  145.0725  142.7855  153.8837 H   0  0  0  0  0  0  0  0  0  0  0  0
  147.5303  139.3387  153.7198 H   0  0  0  0  0  0  0  0  0  0  0  0
  145.1962  140.3103  153.3611 H   0  0  0  0  0  0  0  0  0  0  0  0
  1  2  2  0  0  0  0
  2  3  1  0  0  0  0
  2 10  1  0  0  0  0
  3  4  1  0  0  0  0
  3 18  1  0  0  0  0
  3 19  1  0  0  0  0
  4  5  1  0  0  0  0
  4 20  1  0  0  0  0
  4 21  1  0  0  0  0
  5  9  1  0  0  0  0
  5  6  1  0  0  0  0
  5 22  1  0  0  0  0
  6  7  1  0  0  0  0
  6 23  1  0  0  0  0
  6 24  1  0  0  0  0
  7  8  1  0  0  0  0
  7 25  1  0  0  0  0
  7 26  1  0  0  0  0
  8  9  1  0  0  0  0
  8 27  1  0  0  0  0
  8 28  1  0  0  0  0
  9 29  1  0  0  0  0
  9 30  1  0  0  0  0
 10 11  1  0  0  0  0
 10 31  1  0  0  0  0
 11 12  1  0  0  0  0
 11 32  1  0  0  0  0
 11 33  1  0  0  0  0
 12 13  1  0  0  0  0
 12 34  1  0  0  0  0
 12 35  1  0  0  0  0
 13 17  1  0  0  0  0
 13 14  1  0  0  0  0
 14 15  2  0  0  0  0
 14 36  1  0  0  0  0
 15 16  1  0  0  0  0
 15 37  1  0  0  0  0
 16 17  2  0  0  0  0
 16 39  1  0  0  0  0
 17 38  1  0  0  0  0
M  CHG  1  16   1
M  END
> <s_m_source_file>
AV-unprocessed.smi

> <i_m_source_file_index>
1842

> <i_lp_mmshare_version>
43012

> <i_f3d_flags>
0

> <s_epik_input>
W0NIMl0xW0NIMl1bQ0gyXVtDSDJdW0NIXTFbQ0gyXVtDSDJdQyg9TylbTkhdW0NIMl1bQ0gyXW4yW2NIXVtjSF1uW2NIXTI=

> <s_epik_cmdline>
J2VwaWtfcHl0aG9uJywgJy1waCcsICc3LjAnLCAnLXRuJywgJzgnLCAnLW1hJywgJzIwMCcsICctbWV0YWxfYmluZGluZycsICctaW1hZScsICc8aW5maWxlLm1hZT4nLCAnLW9tYWUnLCAnPG91dGZpbGUubWFlPic=

> <r_lp_tautomer_probability>
1

> <r_epik_Ionization_Penalty>
0.269886

> <r_epik_Ionization_Penalty_Charging>
0

> <r_epik_Ionization_Penalty_Neutral>
0.269886

> <r_epik_State_Penalty>
0.261983

> <r_epik_Charging_Adjusted_Penalty>
0.261983

> <i_epik_Tot_Q>
1

> <i_epik_Tot_abs_Q>
1

> <r_epik_Metal_State_Penalty>
0.546964

> <b_epik_Metal_Only>
0

> <s_lp_Force_Field>
OPLS_2005

> <r_lp_Energy>
23.3455

> <b_lp_Chiralities_Consistent>
1

> <s_lp_Variant>
AV-unprocessed.smi:1842-1

> <Gold.Version>
5.8.1

> <Gold.Id.Protein>
6NUR|6NUR_protein|mol2

> <Gold.PLP.Fitness>
53.1722

> <Gold.PLP.PLP>
-46.3340

> <Gold.PLP.part.hbond>
-1.4377

> <Gold.PLP.part.metal>
0.0000

> <Gold.PLP.part.buried>
-3.0536

> <Gold.PLP.part.nonpolar>
-40.0767

> <Gold.PLP.part.repulsive>
0.1882

> <Gold.PLP.ligand.clash>
0.0000

> <Gold.PLP.ligand.torsion>
0.7394

> <Gold.PLP.Chemscore.Hbond>
1.8880

> <Gold.PLP.Chemscore.CHOScore>
0.8702

> <Gold.PLP.Chemscore.Metal>
0.0000

> <Gold.Chemscore.Hbonds>
donor molecule, donor type, donor heavy atom, donor atom, acceptor molecule, acceptor atom, score
      L1  H    16    39       P1 10175  1.63
      L1  C    14    36       P1  8028  0.82

> <Gold.PLP.Chemscore.Internal.Correction>
0.0426

> <Gold.Rescore>
     Score         DG    S(hbond)    S(metal)    S(lipo)     H(rot)  DE(clash)    DE(int)     intcor
     14.11     -15.30       0.89        0.00     107.66       2.25       0.15       1.03       ----

> <Gold.Chemscore.Fitness>
14.1130

> <Gold.Chemscore.DG>
-15.3001

> <Gold.Chemscore.ZeroCoef>
-5.4800

> <Gold.Chemscore.Hbond>
0.8921

> <Gold.Chemscore.Metal>
0.0000

> <Gold.Chemscore.Lipo>
107.6639

> <Gold.Chemscore.Internal_Hbond>
0.0000

> <Gold.Chemscore.DEClash>
0.1533

> <Gold.Chemscore.DEInternal>
1.0339

> <Gold.Chemscore.Rot>
2.2485

> <Gold.Chemscore.Internal.Correction>
   9.000000E+99

> <Gold.Chemscore.Hbonds>
donor molecule, donor type, donor heavy atom, donor atom, acceptor molecule, acceptor atom, score
      L1  H    16    39       P1 10175  0.81

> <Gold.Chemscore.Hbond.Weighted>
-2.9797

> <Gold.Chemscore.Metal.Weighted>
-0.0000

> <Gold.Chemscore.Lipo.Weighted>
-12.5967

> <Gold.Chemscore.Internal_Hbond.Weighted>
0.0000

> <Gold.Chemscore.DEClash.Weighted>
0.1533

> <Gold.Chemscore.DEInternal.Weighted>
1.0339

> <Gold.Chemscore.Rot.Weighted>
5.7562

> <Gold.Chemscore.Internal.Correction.Weighted>
   9.000000E+99

> <Gold.Protein.RotatedTorsions>
[ 6907 6896 6895 6894 ] final   60.66 input  -60.11 | X-H torsion
[ 7974 7965 7964 7962 ] final  124.86 input  175.53 | X-H torsion
[ 8008 7997 7996 7995 ] final   -2.83 input   59.86 | X-H torsion
[ 10167 10162 10161 10158 ] final  149.10 input  -65.29 | X-H torsion
[ 10718 10713 10712 10709 ] final -137.59 input   66.30 | X-H torsion
[ 10763 10752 10751 10750 ] final  165.24 input  -60.55 | X-H torsion
[ 11005 11000 10999 10996 ] final   14.86 input  -57.11 | X-H torsion

> <Gold.Protein.ActiveResidues>
 VAL166  LYS551  ARG553  GLY616  TRP617  ASP618  TYR619  PRO620  LYS621  CYS622 
 ASP623  PHE694  ASN695  SER759  ASP760  ASP761  ALA762  ILE779  LEU786  VAL792 
 PHE793  MET794  SER795  GLU796  ALA797  LYS798  CYS799  TRP800  GLU811  SER814 

> <Gold.Protein.RotatedAtoms>
  152.4022  134.6267  160.0064 H   0  0  0  0  0  0  0  0  0  0  0  0  # atno 6907 bound_to 6896
  151.6469  133.3317  159.3151 H   0  0  0  0  0  0  0  0  0  0  0  0  # atno 6908 bound_to 6896
  150.7921  134.6994  159.6586 H   0  0  0  0  0  0  0  0  0  0  0  0  # atno 6909 bound_to 6896
  145.0796  139.3667  143.4916 H   0  0  0  0  0  0  0  0  0  0  0  0  # atno 7974 bound_to 7965
  154.6315  140.2524  155.7428 H   0  0  0  0  0  0  0  0  0  0  0  0  # atno 8008 bound_to 7997
  156.2482  140.2906  156.0589 H   0  0  0  0  0  0  0  0  0  0  0  0  # atno 8009 bound_to 7997
  155.1738  140.0387  157.2858 H   0  0  0  0  0  0  0  0  0  0  0  0  # atno 8010 bound_to 7997
  139.4866  144.5628  151.7199 H   0  0  0  0  0  0  0  0  0  0  0  0  # atno 10167 bound_to 10162
  156.2898  130.7368  151.1390 H   0  0  0  0  0  0  0  0  0  0  0  0  # atno 10718 bound_to 10713
  154.3210  135.2756  155.2519 H   0  0  0  0  0  0  0  0  0  0  0  0  # atno 10763 bound_to 10752
  154.4872  135.5843  153.6436 H   0  0  0  0  0  0  0  0  0  0  0  0  # atno 10764 bound_to 10752
  152.9876  135.6126  154.3395 H   0  0  0  0  0  0  0  0  0  0  0  0  # atno 10765 bound_to 10752
  140.4647  134.1091  155.7722 H   0  0  0  0  0  0  0  0  0  0  0  0  # atno 11005 bound_to 11000
  146.3531  140.0580  142.8631 LP  0  0  0  0  0  0  0  0  0  0  0  0  # atno 17320 bound_to 7965
  145.1194  140.9453  143.4609 LP  0  0  0  0  0  0  0  0  0  0  0  0  # atno 17321 bound_to 7965
  140.5201  144.0892  150.6020 LP  0  0  0  0  0  0  0  0  0  0  0  0  # atno 17342 bound_to 10162
  140.3847  143.2784  152.0130 LP  0  0  0  0  0  0  0  0  0  0  0  0  # atno 17343 bound_to 10162
  157.7339  131.0587  150.5552 LP  0  0  0  0  0  0  0  0  0  0  0  0  # atno 17370 bound_to 10713
  156.5667  130.4269  149.6038 LP  0  0  0  0  0  0  0  0  0  0  0  0  # atno 17371 bound_to 10713
  141.1605  133.8802  157.1861 LP  0  0  0  0  0  0  0  0  0  0  0  0  # atno 17394 bound_to 11000
  139.9923  135.0060  157.0002 LP  0  0  0  0  0  0  0  0  0  0  0  0  # atno 17395 bound_to 11000

$$$$
