AV-unprocessed.smi:2027|AV-procd|sdf|8215|dock9
  -GOLD-   2272010483D 1   1.00000     0.00000
 Structure written by MMmdl.
 50 52  0  0  0  0  0  0  0  0  2 V2000
  151.7770  145.3327  160.3808 C   0  0  0  0  0  0  0  0  0  0  0  0
  151.7665  144.0879  159.5099 C   0  0  0  0  0  0  0  0  0  0  0  0
  151.0295  144.1144  158.3045 C   0  0  0  0  0  0  0  0  0  0  0  0
  151.0427  142.9621  157.5274 C   0  0  0  0  0  0  0  0  0  0  0  0
  150.4302  142.6743  156.3056 N   0  3  0  0  0  0  0  0  0  0  0  0
  150.7429  141.4035  155.9283 C   0  0  0  0  0  0  0  0  0  0  0  0
  151.5458  140.8761  156.8917 N   0  0  0  0  0  0  0  0  0  0  0  0
  152.1843  139.5554  156.9735 C   0  0  0  0  0  0  0  0  0  0  0  0
  151.7914  138.6419  155.7972 C   0  0  2  0  0  0  0  0  0  0  0  0
  152.2637  139.2111  154.5917 O   0  0  0  0  0  0  0  0  0  0  0  0
  150.2633  138.4523  155.6918 C   0  0  0  0  0  0  0  0  0  0  0  0
  149.7922  137.1409  155.2168 N   0  0  0  0  0  0  0  0  0  0  0  0
  148.3511  137.0408  155.4170 C   0  0  0  0  0  0  0  0  0  0  0  0
  150.4448  136.0007  155.8764 C   0  0  0  0  0  0  0  0  0  0  0  0
  150.0714  134.6496  155.3297 C   0  0  0  0  0  0  0  0  0  0  0  0
  150.5694  133.3806  155.7411 C   0  0  0  0  0  0  0  0  0  0  0  0
  150.0657  132.3783  155.0404 N   0  0  0  0  0  0  0  0  0  0  0  0
  149.2207  132.9677  154.1706 N   0  0  0  0  0  0  0  0  0  0  0  0
  148.4959  132.1526  153.2200 C   0  0  0  0  0  0  0  0  0  0  0  0
  149.1868  134.3358  154.3352 C   0  0  0  0  0  0  0  0  0  0  0  0
  151.7556  141.8104  157.9120 C   0  0  0  0  0  0  0  0  0  0  0  0
  152.4833  141.7658  159.0985 C   0  0  0  0  0  0  0  0  0  0  0  0
  152.4823  142.9275  159.9029 C   0  0  0  0  0  0  0  0  0  0  0  0
  153.2675  142.9093  161.2033 C   0  0  0  0  0  0  0  0  0  0  0  0
  151.2121  146.1451  159.9230 H   0  0  0  0  0  0  0  0  0  0  0  0
  152.7973  145.6840  160.5356 H   0  0  0  0  0  0  0  0  0  0  0  0
  151.3310  145.1227  161.3533 H   0  0  0  0  0  0  0  0  0  0  0  0
  150.4814  144.9938  157.9998 H   0  0  0  0  0  0  0  0  0  0  0  0
  150.4212  140.9081  155.0236 H   0  0  0  0  0  0  0  0  0  0  0  0
  153.2647  139.7009  157.0116 H   0  0  0  0  0  0  0  0  0  0  0  0
  151.8949  139.1049  157.9240 H   0  0  0  0  0  0  0  0  0  0  0  0
  152.3003  137.6962  155.9416 H   0  0  0  0  0  0  0  0  0  0  0  0
  152.2796  138.5384  153.9283 H   0  0  0  0  0  0  0  0  0  0  0  0
  149.8027  138.6662  156.6574 H   0  0  0  0  0  0  0  0  0  0  0  0
  149.8964  139.2330  155.0232 H   0  0  0  0  0  0  0  0  0  0  0  0
  147.9680  136.0961  155.0293 H   0  0  0  0  0  0  0  0  0  0  0  0
  147.8284  137.8406  154.8912 H   0  0  0  0  0  0  0  0  0  0  0  0
  148.0938  137.1040  156.4753 H   0  0  0  0  0  0  0  0  0  0  0  0
  151.5267  136.1386  155.8480 H   0  0  0  0  0  0  0  0  0  0  0  0
  150.1884  136.0179  156.9366 H   0  0  0  0  0  0  0  0  0  0  0  0
  151.2928  133.1614  156.5126 H   0  0  0  0  0  0  0  0  0  0  0  0
  147.8633  132.7817  152.5933 H   0  0  0  0  0  0  0  0  0  0  0  0
  147.8692  131.4353  153.7508 H   0  0  0  0  0  0  0  0  0  0  0  0
  149.2001  131.6137  152.5851 H   0  0  0  0  0  0  0  0  0  0  0  0
  148.5638  134.9706  153.7225 H   0  0  0  0  0  0  0  0  0  0  0  0
  153.0325  140.8845  159.3946 H   0  0  0  0  0  0  0  0  0  0  0  0
  153.7308  141.9375  161.3758 H   0  0  0  0  0  0  0  0  0  0  0  0
  152.6144  143.1203  162.0500 H   0  0  0  0  0  0  0  0  0  0  0  0
  154.0604  143.6570  161.1799 H   0  0  0  0  0  0  0  0  0  0  0  0
  149.8462  143.2985  155.7639 H   0  0  0  0  0  0  0  0  0  0  0  0
  1  2  1  0  0  0  0
  1 25  1  0  0  0  0
  1 26  1  0  0  0  0
  1 27  1  0  0  0  0
  2 23  1  0  0  0  0
  2  3  2  0  0  0  0
  3  4  1  0  0  0  0
  3 28  1  0  0  0  0
  4 21  2  0  0  0  0
  4  5  1  0  0  0  0
  5  6  2  0  0  0  0
  5 50  1  0  0  0  0
  6  7  1  0  0  0  0
  6 29  1  0  0  0  0
  7  8  1  0  0  0  0
  7 21  1  0  0  0  0
  8  9  1  0  0  0  0
  8 30  1  0  0  0  0
  8 31  1  0  0  0  0
  9 10  1  0  0  0  0
  9 11  1  0  0  0  0
  9 32  1  0  0  0  0
 10 33  1  0  0  0  0
 11 12  1  0  0  0  0
 11 34  1  0  0  0  0
 11 35  1  0  0  0  0
 12 13  1  0  0  0  0
 12 14  1  0  0  0  0
 13 36  1  0  0  0  0
 13 37  1  0  0  0  0
 13 38  1  0  0  0  0
 14 15  1  0  0  0  0
 14 39  1  0  0  0  0
 14 40  1  0  0  0  0
 15 20  2  0  0  0  0
 15 16  1  0  0  0  0
 16 17  2  0  0  0  0
 16 41  1  0  0  0  0
 17 18  1  0  0  0  0
 18 19  1  0  0  0  0
 18 20  1  0  0  0  0
 19 42  1  0  0  0  0
 19 43  1  0  0  0  0
 19 44  1  0  0  0  0
 20 45  1  0  0  0  0
 21 22  1  0  0  0  0
 22 23  2  0  0  0  0
 22 46  1  0  0  0  0
 23 24  1  0  0  0  0
 24 47  1  0  0  0  0
 24 48  1  0  0  0  0
 24 49  1  0  0  0  0
M  CHG  1   5   1
M  END
> <s_m_source_file>
AV-unprocessed.smi

> <i_m_source_file_index>
2027

> <i_lp_mmshare_version>
43012

> <i_f3d_flags>
0

> <s_epik_input>
W0NIM11jKFtjSF0xKWMoW0NIM10pW2NIXWMoYzEyKW4oW2NIXW4yKVtDSDJdW0NASF0oW09IXSlbQ0gyXU4oW0NIM10pW0NIMl1jM1tjSF1ubihbQ0gzXSlbY0hdMw==

> <s_epik_cmdline>
J2VwaWtfcHl0aG9uJywgJy1waCcsICc3LjAnLCAnLXRuJywgJzgnLCAnLW1hJywgJzIwMCcsICctbWV0YWxfYmluZGluZycsICctaW1hZScsICc8aW5maWxlLm1hZT4nLCAnLW9tYWUnLCAnPG91dGZpbGUubWFlPic=

> <r_epik_Ionization_Penalty>
1.48134

> <r_epik_Ionization_Penalty_Charging>
1.21121

> <r_epik_Ionization_Penalty_Neutral>
0.270133

> <r_epik_State_Penalty>
1.53013

> <r_epik_Charging_Adjusted_Penalty>
2.74134

> <i_epik_Tot_Q>
1

> <i_epik_Tot_abs_Q>
1

> <r_epik_Metal_State_Penalty>
1.60443

> <b_epik_Metal_Only>
0

> <s_lp_Force_Field>
OPLS_2005

> <r_lp_Energy>
21.1476

> <b_lp_Chiralities_Consistent>
1

> <s_lp_Variant>
AV-unprocessed.smi:2027-7

> <Gold.Version>
5.8.1

> <Gold.Id.Protein>
6NUR|6NUR_protein|mol2

> <Gold.PLP.Fitness>
58.2587

> <Gold.PLP.PLP>
-48.6247

> <Gold.PLP.part.hbond>
-2.0000

> <Gold.PLP.part.metal>
0.0000

> <Gold.PLP.part.buried>
-4.7744

> <Gold.PLP.part.nonpolar>
-41.6321

> <Gold.PLP.part.repulsive>
0.2205

> <Gold.PLP.ligand.clash>
0.5462

> <Gold.PLP.ligand.torsion>
0.5397

> <Gold.PLP.Chemscore.Hbond>
2.7114

> <Gold.PLP.Chemscore.CHOScore>
1.0000

> <Gold.PLP.Chemscore.Metal>
0.0000

> <Gold.Chemscore.Hbonds>
donor molecule, donor type, donor heavy atom, donor atom, acceptor molecule, acceptor atom, score
      L1  H     5    50       P1  8028  2.00
      P1  H  7989  7998       L1    10  0.71
      L1  C    20    45       P1  7948  1.00

> <Gold.PLP.Chemscore.Internal.Correction>
0.1255

> <Gold.Rescore>
     Score         DG    S(hbond)    S(metal)    S(lipo)     H(rot)  DE(clash)    DE(int)     intcor
     15.70     -18.56       1.39        0.00     126.90       2.50       0.30       2.56       ----

> <Gold.Chemscore.Fitness>
15.7031

> <Gold.Chemscore.DG>
-18.5603

> <Gold.Chemscore.ZeroCoef>
-5.4800

> <Gold.Chemscore.Hbond>
1.3869

> <Gold.Chemscore.Metal>
0.0000

> <Gold.Chemscore.Lipo>
126.9041

> <Gold.Chemscore.Internal_Hbond>
0.0000

> <Gold.Chemscore.DEClash>
0.2987

> <Gold.Chemscore.DEInternal>
2.5584

> <Gold.Chemscore.Rot>
2.5000

> <Gold.Chemscore.Internal.Correction>
   9.000000E+99

> <Gold.Chemscore.Hbonds>
donor molecule, donor type, donor heavy atom, donor atom, acceptor molecule, acceptor atom, score
      L1  H     5    50       P1  8028  0.94
      P1  H  7989  7998       L1    10  0.20

> <Gold.Chemscore.Hbond.Weighted>
-4.6324

> <Gold.Chemscore.Metal.Weighted>
-0.0000

> <Gold.Chemscore.Lipo.Weighted>
-14.8478

> <Gold.Chemscore.Internal_Hbond.Weighted>
0.0000

> <Gold.Chemscore.DEClash.Weighted>
0.2987

> <Gold.Chemscore.DEInternal.Weighted>
2.5584

> <Gold.Chemscore.Rot.Weighted>
6.3999

> <Gold.Chemscore.Internal.Correction.Weighted>
   9.000000E+99

> <Gold.Protein.RotatedTorsions>
[ 6907 6896 6895 6894 ] final -116.68 input  -60.11 | X-H torsion
[ 7974 7965 7964 7962 ] final -138.47 input  175.53 | X-H torsion
[ 8008 7997 7996 7995 ] final  -87.85 input   59.86 | X-H torsion
[ 10167 10162 10161 10158 ] final   49.05 input  -65.29 | X-H torsion
[ 10718 10713 10712 10709 ] final   50.50 input   66.30 | X-H torsion
[ 10763 10752 10751 10750 ] final -147.30 input  -60.55 | X-H torsion
[ 11005 11000 10999 10996 ] final  103.98 input  -57.11 | X-H torsion

> <Gold.Protein.ActiveResidues>
 VAL166  LYS551  ARG553  GLY616  TRP617  ASP618  TYR619  PRO620  LYS621  CYS622 
 ASP623  PHE694  ASN695  SER759  ASP760  ASP761  ALA762  ILE779  LEU786  VAL792 
 PHE793  MET794  SER795  GLU796  ALA797  LYS798  CYS799  TRP800  GLU811  SER814 

> <Gold.Protein.RotatedAtoms>
  150.8075  133.8483  159.3198 H   0  0  0  0  0  0  0  0  0  0  0  0  # atno 6907 bound_to 6896
  151.6278  135.1024  160.0125 H   0  0  0  0  0  0  0  0  0  0  0  0  # atno 6908 bound_to 6896
  152.4166  133.7008  159.6479 H   0  0  0  0  0  0  0  0  0  0  0  0  # atno 6909 bound_to 6896
  144.8756  140.6432  143.5239 H   0  0  0  0  0  0  0  0  0  0  0  0  # atno 7974 bound_to 7965
  154.6680  140.0561  157.0135 H   0  0  0  0  0  0  0  0  0  0  0  0  # atno 8008 bound_to 7997
  155.1130  140.3240  155.4498 H   0  0  0  0  0  0  0  0  0  0  0  0  # atno 8009 bound_to 7997
  156.2646  140.2011  156.6254 H   0  0  0  0  0  0  0  0  0  0  0  0  # atno 8010 bound_to 7997
  140.2870  144.3091  150.6250 H   0  0  0  0  0  0  0  0  0  0  0  0  # atno 10167 bound_to 10162
  157.4890  130.8364  149.8181 H   0  0  0  0  0  0  0  0  0  0  0  0  # atno 10718 bound_to 10713
  154.8293  135.3364  154.6796 H   0  0  0  0  0  0  0  0  0  0  0  0  # atno 10763 bound_to 10752
  153.7418  135.6945  153.4970 H   0  0  0  0  0  0  0  0  0  0  0  0  # atno 10764 bound_to 10752
  153.2239  135.4439  155.0471 H   0  0  0  0  0  0  0  0  0  0  0  0  # atno 10765 bound_to 10752
  139.8788  134.9283  156.5292 H   0  0  0  0  0  0  0  0  0  0  0  0  # atno 11005 bound_to 11000
  145.4049  139.1591  143.4157 LP  0  0  0  0  0  0  0  0  0  0  0  0  # atno 17320 bound_to 7965
  146.2960  140.4148  142.8721 LP  0  0  0  0  0  0  0  0  0  0  0  0  # atno 17321 bound_to 7965
  140.5764  143.2176  151.7507 LP  0  0  0  0  0  0  0  0  0  0  0  0  # atno 17342 bound_to 10162
  139.4948  144.4143  152.0047 LP  0  0  0  0  0  0  0  0  0  0  0  0  # atno 17343 bound_to 10162
  156.0163  130.3812  150.2101 LP  0  0  0  0  0  0  0  0  0  0  0  0  # atno 17370 bound_to 10713
  157.0289  131.0001  151.3318 LP  0  0  0  0  0  0  0  0  0  0  0  0  # atno 17371 bound_to 10713
  140.8393  133.8217  155.9060 LP  0  0  0  0  0  0  0  0  0  0  0  0  # atno 17394 bound_to 11000
  140.9252  134.2091  157.4900 LP  0  0  0  0  0  0  0  0  0  0  0  0  # atno 17395 bound_to 11000

$$$$
