AV-unprocessed.smi:526|AV-procd|sdf|2814|dock3
  -GOLD-   2262023293D 1   1.00000     0.00000
 Structure written by MMmdl.
 29 29  0  0  0  0  0  0  0  0  3 V2000
  151.9327  144.7078  160.6879 C   0  0  0  0  0  0  0  0  0  0  0  0
  152.2904  143.4158  160.7741 C   0  0  0  0  0  0  0  0  0  0  0  0
  152.9221  142.8423  162.0285 C   0  0  0  0  0  0  0  0  0  0  0  0
  152.0872  142.4424  159.6239 C   0  0  0  0  0  0  0  0  0  0  0  0
  151.1404  143.1458  158.2352 S   0  0  0  0  0  0  0  0  0  0  0  0
  151.0133  141.8207  157.0151 C   0  0  0  0  0  0  0  0  0  0  0  0
  149.9775  141.8181  156.2677 N   0  0  0  0  0  0  0  0  0  0  0  0
  149.8285  140.8188  155.2910 C   0  0  0  0  0  0  0  0  0  0  0  0
  148.5628  140.8935  154.4553 C   0  0  0  0  0  0  0  0  0  0  0  0
  150.7745  139.8511  155.1201 C   0  0  0  0  0  0  0  0  0  0  0  0
  150.6543  138.7355  154.0780 C   0  0  0  0  0  0  0  0  0  0  0  0
  150.5804  137.3146  154.6508 C   0  0  0  0  0  0  0  0  0  0  0  0
  149.5290  137.0148  155.2584 O   0  0  0  0  0  0  0  0  0  0  0  0
  151.5569  136.5504  154.4839 O   0  5  0  0  0  0  0  0  0  0  0  0
  151.9551  139.8884  156.0018 C   0  0  0  0  0  0  0  0  0  0  0  0
  152.8467  139.0482  155.8870 O   0  0  0  0  0  0  0  0  0  0  0  0
  152.0143  140.8785  156.9377 N   0  5  0  0  0  0  0  0  0  0  0  0
  152.0816  145.3889  161.5123 H   0  0  0  0  0  0  0  0  0  0  0  0
  151.4809  145.1031  159.7896 H   0  0  0  0  0  0  0  0  0  0  0  0
  152.2833  142.0725  162.4616 H   0  0  0  0  0  0  0  0  0  0  0  0
  153.0768  143.6141  162.7832 H   0  0  0  0  0  0  0  0  0  0  0  0
  153.8893  142.3963  161.7959 H   0  0  0  0  0  0  0  0  0  0  0  0
  153.0428  142.0616  159.2619 H   0  0  0  0  0  0  0  0  0  0  0  0
  151.5406  141.5789  160.0026 H   0  0  0  0  0  0  0  0  0  0  0  0
  147.9519  140.0036  154.6057 H   0  0  0  0  0  0  0  0  0  0  0  0
  148.8077  140.9730  153.3961 H   0  0  0  0  0  0  0  0  0  0  0  0
  147.9619  141.7624  154.7252 H   0  0  0  0  0  0  0  0  0  0  0  0
  149.7889  138.8953  153.4343 H   0  0  0  0  0  0  0  0  0  0  0  0
  151.5146  138.7868  153.4107 H   0  0  0  0  0  0  0  0  0  0  0  0
  1  2  2  0  0  0  0
  1 18  1  0  0  0  0
  1 19  1  0  0  0  0
  2  3  1  0  0  0  0
  2  4  1  0  0  0  0
  3 20  1  0  0  0  0
  3 21  1  0  0  0  0
  3 22  1  0  0  0  0
  4  5  1  0  0  0  0
  4 23  1  0  0  0  0
  4 24  1  0  0  0  0
  5  6  1  0  0  0  0
  6 17  1  0  0  0  0
  6  7  2  0  0  0  0
  7  8  1  0  0  0  0
  8  9  1  0  0  0  0
  8 10  2  0  0  0  0
  9 25  1  0  0  0  0
  9 26  1  0  0  0  0
  9 27  1  0  0  0  0
 10 11  1  0  0  0  0
 10 15  1  0  0  0  0
 11 12  1  0  0  0  0
 11 28  1  0  0  0  0
 11 29  1  0  0  0  0
 12 13  2  0  0  0  0
 12 14  1  0  0  0  0
 15 16  2  0  0  0  0
 15 17  1  0  0  0  0
M  CHG  1  14  -1
M  CHG  1  17  -1
M  END
> <s_m_source_file>
AV-unprocessed.smi

> <i_m_source_file_index>
526

> <i_lp_mmshare_version>
43012

> <i_f3d_flags>
0

> <s_epik_input>
W0NIMl09QyhbQ0gzXSlbQ0gyXVNjMW5jKFtDSDNdKWMoYyg9TylbbkhdMSlbQ0gyXUMoPU8pW09IXQ==

> <s_epik_cmdline>
J2VwaWtfcHl0aG9uJywgJy1waCcsICc3LjAnLCAnLXRuJywgJzgnLCAnLW1hJywgJzIwMCcsICctbWV0YWxfYmluZGluZycsICctaW1hZScsICc8aW5maWxlLm1hZT4nLCAnLW9tYWUnLCAnPG91dGZpbGUubWFlPic=

> <r_lp_tautomer_probability>
0.660323

> <r_epik_Ionization_Penalty>
6.90042

> <r_epik_Ionization_Penalty_Charging>
0.0120653

> <r_epik_Ionization_Penalty_Neutral>
6.88835

> <r_epik_State_Penalty>
4.79278

> <r_epik_Charging_Adjusted_Penalty>
4.80485

> <i_epik_Tot_Q>
-2

> <i_epik_Tot_abs_Q>
2

> <r_epik_Metal_State_Penalty>
1.03474

> <b_epik_Metal_Only>
1

> <s_lp_Force_Field>
OPLS_2005

> <r_lp_Energy>
11.6225

> <b_lp_Chiralities_Consistent>
1

> <s_lp_Variant>
AV-unprocessed.smi:526-4

> <Gold.Version>
5.8.1

> <Gold.Id.Protein>
6NUR|6NUR_protein|mol2

> <Gold.PLP.Fitness>
45.3710

> <Gold.PLP.PLP>
-37.3497

> <Gold.PLP.part.hbond>
-2.0000

> <Gold.PLP.part.metal>
0.0000

> <Gold.PLP.part.buried>
-3.7646

> <Gold.PLP.part.nonpolar>
-32.4648

> <Gold.PLP.part.repulsive>
0.4712

> <Gold.PLP.ligand.clash>
0.0000

> <Gold.PLP.ligand.torsion>
0.5233

> <Gold.PLP.Chemscore.Hbond>
3.0000

> <Gold.PLP.Chemscore.CHOScore>
0.0000

> <Gold.PLP.Chemscore.Metal>
0.0000

> <Gold.Chemscore.Hbonds>
donor molecule, donor type, donor heavy atom, donor atom, acceptor molecule, acceptor atom, score
      P1  H  7997  8009       L1    16  0.99
      P1  H 10752 10764       L1    14  2.00

> <Gold.PLP.Chemscore.Internal.Correction>
0.0679

> <Gold.Rescore>
     Score         DG    S(hbond)    S(metal)    S(lipo)     H(rot)  DE(clash)    DE(int)     intcor
     14.47     -15.43       1.78        0.00      84.09       2.28       0.35       0.61       ----

> <Gold.Chemscore.Fitness>
14.4727

> <Gold.Chemscore.DG>
-15.4342

> <Gold.Chemscore.ZeroCoef>
-5.4800

> <Gold.Chemscore.Hbond>
1.7839

> <Gold.Chemscore.Metal>
0.0000

> <Gold.Chemscore.Lipo>
84.0904

> <Gold.Chemscore.Internal_Hbond>
0.0000

> <Gold.Chemscore.DEClash>
0.3472

> <Gold.Chemscore.DEInternal>
0.6142

> <Gold.Chemscore.Rot>
2.2823

> <Gold.Chemscore.Internal.Correction>
   9.000000E+99

> <Gold.Chemscore.Hbonds>
donor molecule, donor type, donor heavy atom, donor atom, acceptor molecule, acceptor atom, score
      P1  H  7997  8009       L1    16  0.24
      P1  H 10752 10764       L1    14  1.00

> <Gold.Chemscore.Hbond.Weighted>
-5.9583

> <Gold.Chemscore.Metal.Weighted>
-0.0000

> <Gold.Chemscore.Lipo.Weighted>
-9.8386

> <Gold.Chemscore.Internal_Hbond.Weighted>
0.0000

> <Gold.Chemscore.DEClash.Weighted>
0.3472

> <Gold.Chemscore.DEInternal.Weighted>
0.6142

> <Gold.Chemscore.Rot.Weighted>
5.8426

> <Gold.Chemscore.Internal.Correction.Weighted>
   9.000000E+99

> <Gold.Protein.RotatedTorsions>
[ 6907 6896 6895 6894 ] final -130.47 input  -60.11 | X-H torsion
[ 7974 7965 7964 7962 ] final   55.79 input  175.53 | X-H torsion
[ 8008 7997 7996 7995 ] final -176.73 input   59.86 | X-H torsion
[ 10167 10162 10161 10158 ] final   30.63 input  -65.29 | X-H torsion
[ 10718 10713 10712 10709 ] final   85.76 input   66.30 | X-H torsion
[ 10763 10752 10751 10750 ] final  -81.77 input  -60.55 | X-H torsion
[ 11005 11000 10999 10996 ] final  -92.10 input  -57.11 | X-H torsion

> <Gold.Protein.ActiveResidues>
 VAL166  LYS551  ARG553  GLY616  TRP617  ASP618  TYR619  PRO620  LYS621  CYS622 
 ASP623  PHE694  ASN695  SER759  ASP760  ASP761  ALA762  ILE779  LEU786  VAL792 
 PHE793  MET794  SER795  GLU796  ALA797  LYS798  CYS799  TRP800  GLU811  SER814 

> <Gold.Protein.RotatedAtoms>
  150.9402  133.6666  159.2792 H   0  0  0  0  0  0  0  0  0  0  0  0  # atno 6907 bound_to 6896
  151.4058  135.0976  159.9579 H   0  0  0  0  0  0  0  0  0  0  0  0  # atno 6908 bound_to 6896
  152.5066  133.8885  159.7437 H   0  0  0  0  0  0  0  0  0  0  0  0  # atno 6909 bound_to 6896
  145.9466  139.3935  143.0331 H   0  0  0  0  0  0  0  0  0  0  0  0  # atno 7974 bound_to 7965
  155.9984  140.1215  157.0571 H   0  0  0  0  0  0  0  0  0  0  0  0  # atno 8008 bound_to 7997
  154.4234  140.1111  156.5731 H   0  0  0  0  0  0  0  0  0  0  0  0  # atno 8009 bound_to 7997
  155.6246  140.3472  155.4665 H   0  0  0  0  0  0  0  0  0  0  0  0  # atno 8010 bound_to 7997
  140.4660  144.0834  150.6225 H   0  0  0  0  0  0  0  0  0  0  0  0  # atno 10167 bound_to 10162
  157.6919  131.0188  150.2871 H   0  0  0  0  0  0  0  0  0  0  0  0  # atno 10718 bound_to 10713
  154.5676  135.5615  153.7065 H   0  0  0  0  0  0  0  0  0  0  0  0  # atno 10763 bound_to 10752
  153.0038  135.6289  154.2159 H   0  0  0  0  0  0  0  0  0  0  0  0  # atno 10764 bound_to 10752
  154.2098  135.2874  155.2942 H   0  0  0  0  0  0  0  0  0  0  0  0  # atno 10765 bound_to 10752
  141.1530  133.7798  156.9972 H   0  0  0  0  0  0  0  0  0  0  0  0  # atno 11005 bound_to 11000
  145.8228  140.9670  143.0890 LP  0  0  0  0  0  0  0  0  0  0  0  0  # atno 17320 bound_to 7965
  144.6788  140.0063  143.7484 LP  0  0  0  0  0  0  0  0  0  0  0  0  # atno 17321 bound_to 7965
  140.4035  143.2692  151.9919 LP  0  0  0  0  0  0  0  0  0  0  0  0  # atno 17342 bound_to 10162
  139.4812  144.5977  151.7661 LP  0  0  0  0  0  0  0  0  0  0  0  0  # atno 17343 bound_to 10162
  156.3408  130.3815  149.7410 LP  0  0  0  0  0  0  0  0  0  0  0  0  # atno 17370 bound_to 10713
  156.4920  130.8089  151.3098 LP  0  0  0  0  0  0  0  0  0  0  0  0  # atno 17371 bound_to 10713
  140.0964  134.9562  157.1855 LP  0  0  0  0  0  0  0  0  0  0  0  0  # atno 17394 bound_to 11000
  140.3377  134.2739  155.7217 LP  0  0  0  0  0  0  0  0  0  0  0  0  # atno 17395 bound_to 11000

$$$$
