AV-unprocessed.smi:4|AV-procd|sdf|36|dock10
  -GOLD-   2262015153D 1   1.00000     0.00000
 Structure written by MMmdl.
 42 43  0  0  0  0  0  0  0  0  2 V2000
  150.2550  138.5209  153.8304 C   0  0  0  0  0  0  0  0  0  0  0  0
  151.1331  138.2386  155.0797 C   0  0  0  0  0  0  0  0  0  0  0  0
  152.5785  138.6077  154.6621 C   0  0  0  0  0  0  0  0  0  0  0  0
  150.6174  139.2123  156.1705 C   0  0  0  0  0  0  0  0  0  0  0  0
  151.0753  136.8118  155.5701 N   0  0  0  0  0  0  0  0  0  0  0  0
  150.3735  135.8321  154.8202 C   0  0  0  0  0  0  0  0  0  0  0  0
  150.2653  134.5350  155.1880 C   0  0  0  0  0  0  0  0  0  0  0  0
  149.5180  133.4686  154.3868 C   0  0  0  0  0  0  0  0  0  0  0  0
  148.4532  134.0094  153.5421 N   0  0  0  0  0  0  0  0  0  0  0  0
  147.9606  133.0606  152.5479 C   0  0  0  0  0  0  0  0  0  0  0  0
  146.6270  133.5225  151.9523 C   0  0  0  0  0  0  0  0  0  0  0  0
  146.7164  134.9324  151.8813 O   0  0  0  0  0  0  0  0  0  0  0  0
  146.1860  132.8672  150.6306 C   0  0  0  0  0  0  0  0  0  0  0  0
  144.7514  132.8128  151.1577 C   0  0  0  0  0  0  0  0  0  0  0  0
  145.3209  132.9824  152.5665 C   0  0  0  0  0  0  0  0  0  0  0  0
  150.9155  134.1431  156.4363 C   0  0  0  0  0  0  0  0  0  0  0  0
  150.8384  132.9790  156.8287 O   0  0  0  0  0  0  0  0  0  0  0  0
  151.5914  135.0983  157.1289 N   0  5  0  0  0  0  0  0  0  0  0  0
  151.6911  136.4021  156.7326 C   0  0  0  0  0  0  0  0  0  0  0  0
  152.3276  137.2073  157.4105 O   0  0  0  0  0  0  0  0  0  0  0  0
  150.3237  139.5663  153.5271 H   0  0  0  0  0  0  0  0  0  0  0  0
  149.1985  138.3255  154.0199 H   0  0  0  0  0  0  0  0  0  0  0  0
  150.5695  137.9333  152.9666 H   0  0  0  0  0  0  0  0  0  0  0  0
  152.9665  137.9014  153.9275 H   0  0  0  0  0  0  0  0  0  0  0  0
  153.2769  138.6286  155.4969 H   0  0  0  0  0  0  0  0  0  0  0  0
  152.6176  139.5996  154.2107 H   0  0  0  0  0  0  0  0  0  0  0  0
  150.5369  140.2298  155.7866 H   0  0  0  0  0  0  0  0  0  0  0  0
  151.2700  139.2734  157.0398 H   0  0  0  0  0  0  0  0  0  0  0  0
  149.6275  138.9193  156.5220 H   0  0  0  0  0  0  0  0  0  0  0  0
  149.9079  136.1645  153.9123 H   0  0  0  0  0  0  0  0  0  0  0  0
  150.2347  132.9294  153.7656 H   0  0  0  0  0  0  0  0  0  0  0  0
  149.1058  132.7453  155.0917 H   0  0  0  0  0  0  0  0  0  0  0  0
  148.7951  134.8360  153.0620 H   0  0  0  0  0  0  0  0  0  0  0  0
  148.7032  132.9183  151.7611 H   0  0  0  0  0  0  0  0  0  0  0  0
  147.8374  132.0857  153.0210 H   0  0  0  0  0  0  0  0  0  0  0  0
  147.6007  135.1398  151.6208 H   0  0  0  0  0  0  0  0  0  0  0  0
  146.3133  133.4887  149.7435 H   0  0  0  0  0  0  0  0  0  0  0  0
  146.6138  131.8743  150.4822 H   0  0  0  0  0  0  0  0  0  0  0  0
  144.1523  133.6670  150.8388 H   0  0  0  0  0  0  0  0  0  0  0  0
  144.2372  131.8672  150.9846 H   0  0  0  0  0  0  0  0  0  0  0  0
  145.4558  132.0296  153.0816 H   0  0  0  0  0  0  0  0  0  0  0  0
  144.7779  133.6954  153.1877 H   0  0  0  0  0  0  0  0  0  0  0  0
  1  2  1  0  0  0  0
  1 21  1  0  0  0  0
  1 22  1  0  0  0  0
  1 23  1  0  0  0  0
  2  3  1  0  0  0  0
  2  4  1  0  0  0  0
  2  5  1  0  0  0  0
  3 24  1  0  0  0  0
  3 25  1  0  0  0  0
  3 26  1  0  0  0  0
  4 27  1  0  0  0  0
  4 28  1  0  0  0  0
  4 29  1  0  0  0  0
  5 19  1  0  0  0  0
  5  6  1  0  0  0  0
  6  7  2  0  0  0  0
  6 30  1  0  0  0  0
  7  8  1  0  0  0  0
  7 16  1  0  0  0  0
  8  9  1  0  0  0  0
  8 31  1  0  0  0  0
  8 32  1  0  0  0  0
  9 10  1  0  0  0  0
  9 33  1  0  0  0  0
 10 11  1  0  0  0  0
 10 34  1  0  0  0  0
 10 35  1  0  0  0  0
 11 15  1  0  0  0  0
 11 12  1  0  0  0  0
 11 13  1  0  0  0  0
 12 36  1  0  0  0  0
 13 14  1  0  0  0  0
 13 37  1  0  0  0  0
 13 38  1  0  0  0  0
 14 15  1  0  0  0  0
 14 39  1  0  0  0  0
 14 40  1  0  0  0  0
 15 41  1  0  0  0  0
 15 42  1  0  0  0  0
 16 17  2  0  0  0  0
 16 18  1  0  0  0  0
 18 19  1  0  0  0  0
 19 20  2  0  0  0  0
M  CHG  1  18  -1
M  END
> <s_m_source_file>
AV-unprocessed.smi

> <i_m_source_file_index>
4

> <i_lp_mmshare_version>
43012

> <i_f3d_flags>
0

> <s_epik_input>
W0NIM11DKFtDSDNdKShbQ0gzXSluMVtjSF1jKGMoPU8pW25IXWMxPU8pW0NIMl1bTkhdW0NIMl1DMihbT0hdKVtDSDJdW0NIMl1bQ0gyXTI=

> <s_epik_cmdline>
J2VwaWtfcHl0aG9uJywgJy1waCcsICc3LjAnLCAnLXRuJywgJzgnLCAnLW1hJywgJzIwMCcsICctbWV0YWxfYmluZGluZycsICctaW1hZScsICc8aW5maWxlLm1hZT4nLCAnLW9tYWUnLCAnPG91dGZpbGUubWFlPic=

> <r_lp_tautomer_probability>
0.999537

> <r_epik_Ionization_Penalty>
6.25758

> <r_epik_Ionization_Penalty_Charging>
1.60838e-06

> <r_epik_Ionization_Penalty_Neutral>
6.25758

> <r_epik_State_Penalty>
6.1746

> <r_epik_Charging_Adjusted_Penalty>
6.1746

> <i_epik_Tot_Q>
-1

> <i_epik_Tot_abs_Q>
1

> <r_epik_Metal_State_Penalty>
2.58365

> <b_epik_Metal_Only>
1

> <s_lp_Force_Field>
OPLS_2005

> <r_lp_Energy>
44.4869

> <b_lp_Chiralities_Consistent>
1

> <s_lp_Variant>
AV-unprocessed.smi:4-4

> <Gold.Version>
5.8.1

> <Gold.Id.Protein>
6NUR|6NUR_protein|mol2

> <Gold.PLP.Fitness>
41.4731

> <Gold.PLP.PLP>
-34.3933

> <Gold.PLP.part.hbond>
-3.1034

> <Gold.PLP.part.metal>
0.0000

> <Gold.PLP.part.buried>
-5.9925

> <Gold.PLP.part.nonpolar>
-27.0118

> <Gold.PLP.part.repulsive>
0.0000

> <Gold.PLP.ligand.clash>
0.0000

> <Gold.PLP.ligand.torsion>
1.0157

> <Gold.PLP.Chemscore.Hbond>
2.0000

> <Gold.PLP.Chemscore.CHOScore>
0.9988

> <Gold.PLP.Chemscore.Metal>
0.0000

> <Gold.Chemscore.Hbonds>
donor molecule, donor type, donor heavy atom, donor atom, acceptor molecule, acceptor atom, score
      L1  H     9    33       P1  7948  0.95
      L1  H    12    36       P1  7948  0.94
      L1  C     6    30       P1  7948  0.96

> <Gold.PLP.Chemscore.Internal.Correction>
0.1147

> <Gold.Rescore>
     Score         DG    S(hbond)    S(metal)    S(lipo)     H(rot)  DE(clash)    DE(int)     intcor
     12.02     -14.33       1.90        0.00      73.97       2.40       0.01       2.30       ----

> <Gold.Chemscore.Fitness>
12.0203

> <Gold.Chemscore.DG>
-14.3299

> <Gold.Chemscore.ZeroCoef>
-5.4800

> <Gold.Chemscore.Hbond>
1.8966

> <Gold.Chemscore.Metal>
0.0000

> <Gold.Chemscore.Lipo>
73.9726

> <Gold.Chemscore.Internal_Hbond>
0.0000

> <Gold.Chemscore.DEClash>
0.0139

> <Gold.Chemscore.DEInternal>
2.2957

> <Gold.Chemscore.Rot>
2.3983

> <Gold.Chemscore.Internal.Correction>
   9.000000E+99

> <Gold.Chemscore.Hbonds>
donor molecule, donor type, donor heavy atom, donor atom, acceptor molecule, acceptor atom, score
      L1  H     9    33       P1  7948  0.22
      L1  H    12    36       P1  7948  0.64

> <Gold.Chemscore.Hbond.Weighted>
-6.3347

> <Gold.Chemscore.Metal.Weighted>
-0.0000

> <Gold.Chemscore.Lipo.Weighted>
-8.6548

> <Gold.Chemscore.Internal_Hbond.Weighted>
0.0000

> <Gold.Chemscore.DEClash.Weighted>
0.0139

> <Gold.Chemscore.DEInternal.Weighted>
2.2957

> <Gold.Chemscore.Rot.Weighted>
6.1395

> <Gold.Chemscore.Internal.Correction.Weighted>
   9.000000E+99

> <Gold.Protein.RotatedTorsions>
[ 6907 6896 6895 6894 ] final -110.51 input  -60.11 | X-H torsion
[ 7974 7965 7964 7962 ] final  -11.14 input  175.53 | X-H torsion
[ 8008 7997 7996 7995 ] final   64.96 input   59.86 | X-H torsion
[ 10167 10162 10161 10158 ] final  -33.80 input  -65.29 | X-H torsion
[ 10718 10713 10712 10709 ] final  179.44 input   66.30 | X-H torsion
[ 10763 10752 10751 10750 ] final -108.72 input  -60.55 | X-H torsion
[ 11005 11000 10999 10996 ] final -150.33 input  -57.11 | X-H torsion

> <Gold.Protein.ActiveResidues>
 VAL166  LYS551  ARG553  GLY616  TRP617  ASP618  TYR619  PRO620  LYS621  CYS622 
 ASP623  PHE694  ASN695  SER759  ASP760  ASP761  ALA762  ILE779  LEU786  VAL792 
 PHE793  MET794  SER795  GLU796  ALA797  LYS798  CYS799  TRP800  GLU811  SER814 

> <Gold.Protein.RotatedAtoms>
  150.7629  133.9371  159.3444 H   0  0  0  0  0  0  0  0  0  0  0  0  # atno 6907 bound_to 6896
  151.7276  135.0879  160.0304 H   0  0  0  0  0  0  0  0  0  0  0  0  # atno 6908 bound_to 6896
  152.3610  133.6259  159.6051 H   0  0  0  0  0  0  0  0  0  0  0  0  # atno 6909 bound_to 6896
  146.2197  140.2867  142.8366 H   0  0  0  0  0  0  0  0  0  0  0  0  # atno 7974 bound_to 7965
  155.6543  140.3497  155.4759 H   0  0  0  0  0  0  0  0  0  0  0  0  # atno 8008 bound_to 7997
  155.9822  140.1177  157.0739 H   0  0  0  0  0  0  0  0  0  0  0  0  # atno 8009 bound_to 7997
  154.4195  140.1136  156.5437 H   0  0  0  0  0  0  0  0  0  0  0  0  # atno 8010 bound_to 7997
  140.7198  143.3594  151.1994 H   0  0  0  0  0  0  0  0  0  0  0  0  # atno 10167 bound_to 10162
  156.8757  130.9799  151.3068 H   0  0  0  0  0  0  0  0  0  0  0  0  # atno 10718 bound_to 10713
  154.8152  135.4627  154.0623 H   0  0  0  0  0  0  0  0  0  0  0  0  # atno 10763 bound_to 10752
  153.2022  135.6870  153.8223 H   0  0  0  0  0  0  0  0  0  0  0  0  # atno 10764 bound_to 10752
  153.7704  135.3271  155.3328 H   0  0  0  0  0  0  0  0  0  0  0  0  # atno 10765 bound_to 10752
  140.7413  134.3511  157.5147 H   0  0  0  0  0  0  0  0  0  0  0  0  # atno 11005 bound_to 11000
  144.9157  140.7810  143.5779 LP  0  0  0  0  0  0  0  0  0  0  0  0  # atno 17320 bound_to 7965
  145.2800  139.1922  143.4796 LP  0  0  0  0  0  0  0  0  0  0  0  0  # atno 17321 bound_to 7965
  139.7142  143.9327  152.2960 LP  0  0  0  0  0  0  0  0  0  0  0  0  # atno 17342 bound_to 10162
  139.9062  144.6883  150.8611 LP  0  0  0  0  0  0  0  0  0  0  0  0  # atno 17343 bound_to 10162
  157.6170  130.8626  149.9044 LP  0  0  0  0  0  0  0  0  0  0  0  0  # atno 17370 bound_to 10713
  156.0703  130.3686  150.0790 LP  0  0  0  0  0  0  0  0  0  0  0  0  # atno 17371 bound_to 10713
  139.8805  134.9082  156.2963 LP  0  0  0  0  0  0  0  0  0  0  0  0  # atno 17394 bound_to 11000
  140.9834  133.7253  156.0706 LP  0  0  0  0  0  0  0  0  0  0  0  0  # atno 17395 bound_to 11000

$$$$
