AV-unprocessed.smi:3108|AV-procd|sdf|11826|dock1
  -GOLD-   2272017193D 1   1.00000     0.00000
 Structure written by MMmdl.
 37 38  0  0  0  0  0  0  0  0  2 V2000
  145.4210  144.9118  152.8757 C   0  0  0  0  0  0  0  0  0  0  0  0
  145.9076  143.7456  153.6868 C   0  0  0  0  0  0  0  0  0  0  0  0
  145.3780  143.2495  154.9121 C   0  0  0  0  0  0  0  0  0  0  0  0
  146.0409  142.2003  155.3713 N   0  0  0  0  0  0  0  0  0  0  0  0
  147.0115  141.9887  154.4577 N   0  0  0  0  0  0  0  0  0  0  0  0
  147.9472  140.8966  154.6422 C   0  0  0  0  0  0  0  0  0  0  0  0
  149.3887  141.4027  154.7961 C   0  0  0  0  0  0  0  0  0  0  0  0
  149.5638  142.1267  156.0696 N   0  3  0  0  0  0  0  0  0  0  0  0
  150.6931  141.6394  156.8858 C   0  0  0  0  0  0  0  0  0  0  0  0
  151.0018  142.6020  158.0440 C   0  0  0  0  0  0  0  0  0  0  0  0
  151.6188  143.9354  157.6074 C   0  0  0  0  0  0  0  0  0  0  0  0
  152.3234  144.4834  158.8544 C   0  0  0  0  0  0  0  0  0  0  0  0
  152.5492  143.2830  159.7862 C   0  0  0  0  0  0  0  0  0  0  0  0
  152.0354  142.0540  159.0304 C   0  0  0  0  0  0  0  0  0  0  0  0
  146.9567  142.9084  153.4321 C   0  0  0  0  0  0  0  0  0  0  0  0
  144.6959  145.5133  153.4246 H   0  0  0  0  0  0  0  0  0  0  0  0
  144.9368  144.5861  151.9549 H   0  0  0  0  0  0  0  0  0  0  0  0
  146.2387  145.5750  152.5928 H   0  0  0  0  0  0  0  0  0  0  0  0
  144.5358  143.6195  155.4783 H   0  0  0  0  0  0  0  0  0  0  0  0
  147.6475  140.3295  155.5246 H   0  0  0  0  0  0  0  0  0  0  0  0
  147.8655  140.2223  153.7883 H   0  0  0  0  0  0  0  0  0  0  0  0
  150.0876  140.5655  154.7622 H   0  0  0  0  0  0  0  0  0  0  0  0
  149.6404  142.0676  153.9687 H   0  0  0  0  0  0  0  0  0  0  0  0
  149.7152  143.1041  155.8648 H   0  0  0  0  0  0  0  0  0  0  0  0
  150.4367  140.6567  157.2839 H   0  0  0  0  0  0  0  0  0  0  0  0
  151.5734  141.5081  156.2548 H   0  0  0  0  0  0  0  0  0  0  0  0
  150.0838  142.8066  158.5983 H   0  0  0  0  0  0  0  0  0  0  0  0
  152.3576  143.7641  156.8230 H   0  0  0  0  0  0  0  0  0  0  0  0
  150.8772  144.6308  157.2128 H   0  0  0  0  0  0  0  0  0  0  0  0
  153.2610  144.9750  158.5920 H   0  0  0  0  0  0  0  0  0  0  0  0
  151.6958  145.2246  159.3509 H   0  0  0  0  0  0  0  0  0  0  0  0
  153.5970  143.1718  160.0672 H   0  0  0  0  0  0  0  0  0  0  0  0
  151.9785  143.4202  160.7057 H   0  0  0  0  0  0  0  0  0  0  0  0
  151.6184  141.2995  159.6985 H   0  0  0  0  0  0  0  0  0  0  0  0
  152.8607  141.5922  158.4864 H   0  0  0  0  0  0  0  0  0  0  0  0
  147.6604  142.8919  152.6126 H   0  0  0  0  0  0  0  0  0  0  0  0
  148.7155  142.0370  156.6105 H   0  0  0  0  0  0  0  0  0  0  0  0
  1  2  1  0  0  0  0
  1 16  1  0  0  0  0
  1 17  1  0  0  0  0
  1 18  1  0  0  0  0
  2 15  2  0  0  0  0
  2  3  1  0  0  0  0
  3  4  2  0  0  0  0
  3 19  1  0  0  0  0
  4  5  1  0  0  0  0
  5  6  1  0  0  0  0
  5 15  1  0  0  0  0
  6  7  1  0  0  0  0
  6 20  1  0  0  0  0
  6 21  1  0  0  0  0
  7  8  1  0  0  0  0
  7 22  1  0  0  0  0
  7 23  1  0  0  0  0
  8  9  1  0  0  0  0
  8 24  1  0  0  0  0
  8 37  1  0  0  0  0
  9 10  1  0  0  0  0
  9 25  1  0  0  0  0
  9 26  1  0  0  0  0
 10 14  1  0  0  0  0
 10 11  1  0  0  0  0
 10 27  1  0  0  0  0
 11 12  1  0  0  0  0
 11 28  1  0  0  0  0
 11 29  1  0  0  0  0
 12 13  1  0  0  0  0
 12 30  1  0  0  0  0
 12 31  1  0  0  0  0
 13 14  1  0  0  0  0
 13 32  1  0  0  0  0
 13 33  1  0  0  0  0
 14 34  1  0  0  0  0
 14 35  1  0  0  0  0
 15 36  1  0  0  0  0
M  CHG  1   8   1
M  END
> <s_m_source_file>
AV-unprocessed.smi

> <i_m_source_file_index>
3108

> <i_lp_mmshare_version>
43012

> <i_f3d_flags>
0

> <s_epik_input>
W0NIM11jMVtjSF1ubihbY0hdMSlbQ0gyXVtDSDJdW05IXVtDSDJdW0NIXTJbQ0gyXVtDSDJdW0NIMl1bQ0gyXTI=

> <s_epik_cmdline>
J2VwaWtfcHl0aG9uJywgJy1waCcsICc3LjAnLCAnLXRuJywgJzgnLCAnLW1hJywgJzIwMCcsICctbWV0YWxfYmluZGluZycsICctaW1hZScsICc8aW5maWxlLm1hZT4nLCAnLW9tYWUnLCAnPG91dGZpbGUubWFlPic=

> <r_lp_tautomer_probability>
1

> <r_epik_Ionization_Penalty>
0.00170215

> <r_epik_Ionization_Penalty_Charging>
0.00169627

> <r_epik_Ionization_Penalty_Neutral>
5.87243e-06

> <r_epik_State_Penalty>
-0

> <r_epik_Charging_Adjusted_Penalty>
0.00169627

> <i_epik_Tot_Q>
1

> <i_epik_Tot_abs_Q>
1

> <r_epik_Metal_State_Penalty>
-0

> <b_epik_Metal_Only>
0

> <s_lp_Force_Field>
OPLS_2005

> <r_lp_Energy>
23.864

> <b_lp_Chiralities_Consistent>
1

> <s_lp_Variant>
AV-unprocessed.smi:3108-1

> <Gold.Version>
5.8.1

> <Gold.Id.Protein>
6NUR|6NUR_protein|mol2

> <Gold.PLP.Fitness>
45.8509

> <Gold.PLP.PLP>
-40.7477

> <Gold.PLP.part.hbond>
-1.0000

> <Gold.PLP.part.metal>
0.0000

> <Gold.PLP.part.buried>
-5.4045

> <Gold.PLP.part.nonpolar>
-35.9779

> <Gold.PLP.part.repulsive>
0.2346

> <Gold.PLP.ligand.clash>
0.0000

> <Gold.PLP.ligand.torsion>
0.4619

> <Gold.PLP.Chemscore.Hbond>
2.0000

> <Gold.PLP.Chemscore.CHOScore>
0.0000

> <Gold.PLP.Chemscore.Metal>
0.0000

> <Gold.Chemscore.Hbonds>
donor molecule, donor type, donor heavy atom, donor atom, acceptor molecule, acceptor atom, score
      L1  H     8    24       P1  8028  1.79

> <Gold.PLP.Chemscore.Internal.Correction>
0.0271

> <Gold.Rescore>
     Score         DG    S(hbond)    S(metal)    S(lipo)     H(rot)  DE(clash)    DE(int)     intcor
     16.65     -17.43       0.94        0.00     108.47       1.52       0.18       0.59       ----

> <Gold.Chemscore.Fitness>
16.6510

> <Gold.Chemscore.DG>
-17.4259

> <Gold.Chemscore.ZeroCoef>
-5.4800

> <Gold.Chemscore.Hbond>
0.9436

> <Gold.Chemscore.Metal>
0.0000

> <Gold.Chemscore.Lipo>
108.4713

> <Gold.Chemscore.Internal_Hbond>
0.0000

> <Gold.Chemscore.DEClash>
0.1801

> <Gold.Chemscore.DEInternal>
0.5948

> <Gold.Chemscore.Rot>
1.5222

> <Gold.Chemscore.Internal.Correction>
   9.000000E+99

> <Gold.Chemscore.Hbonds>
donor molecule, donor type, donor heavy atom, donor atom, acceptor molecule, acceptor atom, score
      L1  H     8    24       P1  8028  0.87

> <Gold.Chemscore.Hbond.Weighted>
-3.1516

> <Gold.Chemscore.Metal.Weighted>
-0.0000

> <Gold.Chemscore.Lipo.Weighted>
-12.6911

> <Gold.Chemscore.Internal_Hbond.Weighted>
0.0000

> <Gold.Chemscore.DEClash.Weighted>
0.1801

> <Gold.Chemscore.DEInternal.Weighted>
0.5948

> <Gold.Chemscore.Rot.Weighted>
3.8969

> <Gold.Chemscore.Internal.Correction.Weighted>
   9.000000E+99

> <Gold.Protein.RotatedTorsions>
[ 6907 6896 6895 6894 ] final  -31.07 input  -60.11 | X-H torsion
[ 7974 7965 7964 7962 ] final  -56.82 input  175.53 | X-H torsion
[ 8008 7997 7996 7995 ] final  102.46 input   59.86 | X-H torsion
[ 10167 10162 10161 10158 ] final  -11.89 input  -65.29 | X-H torsion
[ 10718 10713 10712 10709 ] final -173.79 input   66.30 | X-H torsion
[ 10763 10752 10751 10750 ] final -126.20 input  -60.55 | X-H torsion
[ 11005 11000 10999 10996 ] final  -39.24 input  -57.11 | X-H torsion

> <Gold.Protein.ActiveResidues>
 VAL166  LYS551  ARG553  GLY616  TRP617  ASP618  TYR619  PRO620  LYS621  CYS622 
 ASP623  PHE694  ASN695  SER759  ASP760  ASP761  ALA762  ILE779  LEU786  VAL792 
 PHE793  MET794  SER795  GLU796  ALA797  LYS798  CYS799  TRP800  GLU811  SER814 

> <Gold.Protein.RotatedAtoms>
  151.0971  134.9950  159.8430 H   0  0  0  0  0  0  0  0  0  0  0  0  # atno 6907 bound_to 6896
  152.5434  134.1995  159.8716 H   0  0  0  0  0  0  0  0  0  0  0  0  # atno 6908 bound_to 6896
  151.2035  133.4552  159.2630 H   0  0  0  0  0  0  0  0  0  0  0  0  # atno 6909 bound_to 6896
  145.8582  140.8304  142.9950 H   0  0  0  0  0  0  0  0  0  0  0  0  # atno 7974 bound_to 7965
  156.1395  140.3181  155.8472 H   0  0  0  0  0  0  0  0  0  0  0  0  # atno 8008 bound_to 7997
  155.4182  140.0510  157.3044 H   0  0  0  0  0  0  0  0  0  0  0  0  # atno 8009 bound_to 7997
  154.4964  140.2112  155.9450 H   0  0  0  0  0  0  0  0  0  0  0  0  # atno 8010 bound_to 7997
  140.7149  143.5590  150.9216 H   0  0  0  0  0  0  0  0  0  0  0  0  # atno 10167 bound_to 10162
  156.7755  130.9464  151.3120 H   0  0  0  0  0  0  0  0  0  0  0  0  # atno 10718 bound_to 10713
  154.8743  135.4003  154.3392 H   0  0  0  0  0  0  0  0  0  0  0  0  # atno 10763 bound_to 10752
  153.4194  135.7023  153.6310 H   0  0  0  0  0  0  0  0  0  0  0  0  # atno 10764 bound_to 10752
  153.4978  135.3734  155.2495 H   0  0  0  0  0  0  0  0  0  0  0  0  # atno 10765 bound_to 10752
  141.0087  133.6919  156.2160 H   0  0  0  0  0  0  0  0  0  0  0  0  # atno 11005 bound_to 11000
  144.6727  140.1055  143.7458 LP  0  0  0  0  0  0  0  0  0  0  0  0  # atno 17320 bound_to 7965
  145.9279  139.2587  143.1342 LP  0  0  0  0  0  0  0  0  0  0  0  0  # atno 17321 bound_to 7965
  139.9316  143.6487  152.3075 LP  0  0  0  0  0  0  0  0  0  0  0  0  # atno 17342 bound_to 10162
  139.6939  144.7643  151.1389 LP  0  0  0  0  0  0  0  0  0  0  0  0  # atno 17343 bound_to 10162
  157.6671  130.9017  149.9956 LP  0  0  0  0  0  0  0  0  0  0  0  0  # atno 17370 bound_to 10713
  156.1251  130.3645  149.9823 LP  0  0  0  0  0  0  0  0  0  0  0  0  # atno 17371 bound_to 10713
  140.6770  134.4807  157.5588 LP  0  0  0  0  0  0  0  0  0  0  0  0  # atno 17394 bound_to 11000
  139.9077  134.8412  156.1642 LP  0  0  0  0  0  0  0  0  0  0  0  0  # atno 17395 bound_to 11000

$$$$
