AV-unprocessed.smi:2183|AV-procd|sdf|8867|dock1
  -GOLD-   2272012 63D 1   1.00000     0.00000
 Structure written by MMmdl.
 41 43  0  0  0  0  0  0  0  0  2 V2000
  150.1492  139.9742  153.8469 O   0  0  0  0  0  0  0  0  0  0  0  0
  149.4316  140.8974  154.6352 C   0  0  0  0  0  0  0  0  0  0  0  0
  150.2195  141.3690  155.8125 C   0  0  0  0  0  0  0  0  0  0  0  0
  150.2302  142.6378  156.3093 N   0  3  0  0  0  0  0  0  0  0  0  0
  151.0902  142.7089  157.4058 C   0  0  0  0  0  0  0  0  0  0  0  0
  151.4262  143.7775  158.2312 C   0  0  0  0  0  0  0  0  0  0  0  0
  152.3405  143.5108  159.2713 C   0  0  0  0  0  0  0  0  0  0  0  0
  152.8825  142.2228  159.4596 C   0  0  0  0  0  0  0  0  0  0  0  0
  152.5351  141.1475  158.6155 C   0  0  0  0  0  0  0  0  0  0  0  0
  151.6316  141.4193  157.5880 C   0  0  0  0  0  0  0  0  0  0  0  0
  151.0676  140.6263  156.5808 N   0  0  0  0  0  0  0  0  0  0  0  0
  151.4339  139.2048  156.4757 C   0  0  0  0  0  0  0  0  0  0  0  0
  150.2619  138.2602  156.8091 C   0  0  2  0  0  0  0  0  0  0  0  0
  149.7739  138.5346  158.1065 O   0  0  0  0  0  0  0  0  0  0  0  0
  150.6614  136.7794  156.7387 C   0  0  0  0  0  0  0  0  0  0  0  0
  150.0053  136.1815  155.6283 O   0  0  0  0  0  0  0  0  0  0  0  0
  150.1256  134.8198  155.4533 C   0  0  0  0  0  0  0  0  0  0  0  0
  149.4632  134.2569  154.3427 C   0  0  0  0  0  0  0  0  0  0  0  0
  149.5317  132.8738  154.0868 C   0  0  0  0  0  0  0  0  0  0  0  0
  150.2672  132.0355  154.9451 C   0  0  0  0  0  0  0  0  0  0  0  0
  150.3525  130.3404  154.6353 Cl  0  0  0  0  0  0  0  0  0  0  0  0
  150.9331  132.5835  156.0574 C   0  0  0  0  0  0  0  0  0  0  0  0
  150.8644  133.9672  156.3125 C   0  0  0  0  0  0  0  0  0  0  0  0
  149.7353  139.9161  152.9992 H   0  0  0  0  0  0  0  0  0  0  0  0
  149.1533  141.7523  154.0183 H   0  0  0  0  0  0  0  0  0  0  0  0
  148.5059  140.4327  154.9746 H   0  0  0  0  0  0  0  0  0  0  0  0
  151.0122  144.7650  158.0890 H   0  0  0  0  0  0  0  0  0  0  0  0
  152.6316  144.3097  159.9381 H   0  0  0  0  0  0  0  0  0  0  0  0
  153.5789  142.0554  160.2684 H   0  0  0  0  0  0  0  0  0  0  0  0
  152.9542  140.1648  158.7731 H   0  0  0  0  0  0  0  0  0  0  0  0
  151.7687  139.0369  155.4514 H   0  0  0  0  0  0  0  0  0  0  0  0
  152.2984  139.0040  157.1086 H   0  0  0  0  0  0  0  0  0  0  0  0
  149.4420  138.4349  156.1118 H   0  0  0  0  0  0  0  0  0  0  0  0
  150.4398  139.0072  158.5819 H   0  0  0  0  0  0  0  0  0  0  0  0
  151.7450  136.6860  156.6472 H   0  0  0  0  0  0  0  0  0  0  0  0
  150.3532  136.2736  157.6557 H   0  0  0  0  0  0  0  0  0  0  0  0
  148.8962  134.8928  153.6789 H   0  0  0  0  0  0  0  0  0  0  0  0
  149.0192  132.4581  153.2318 H   0  0  0  0  0  0  0  0  0  0  0  0
  151.4986  131.9434  156.7183 H   0  0  0  0  0  0  0  0  0  0  0  0
  151.3872  134.3491  157.1759 H   0  0  0  0  0  0  0  0  0  0  0  0
  149.6906  143.4000  155.9198 H   0  0  0  0  0  0  0  0  0  0  0  0
  1  2  1  0  0  0  0
  1 24  1  0  0  0  0
  2  3  1  0  0  0  0
  2 25  1  0  0  0  0
  2 26  1  0  0  0  0
  3 11  1  0  0  0  0
  3  4  2  0  0  0  0
  4  5  1  0  0  0  0
  4 41  1  0  0  0  0
  5 10  2  0  0  0  0
  5  6  1  0  0  0  0
  6  7  2  0  0  0  0
  6 27  1  0  0  0  0
  7  8  1  0  0  0  0
  7 28  1  0  0  0  0
  8  9  2  0  0  0  0
  8 29  1  0  0  0  0
  9 10  1  0  0  0  0
  9 30  1  0  0  0  0
 10 11  1  0  0  0  0
 11 12  1  0  0  0  0
 12 13  1  0  0  0  0
 12 31  1  0  0  0  0
 12 32  1  0  0  0  0
 13 14  1  0  0  0  0
 13 15  1  0  0  0  0
 13 33  1  0  0  0  0
 14 34  1  0  0  0  0
 15 16  1  0  0  0  0
 15 35  1  0  0  0  0
 15 36  1  0  0  0  0
 16 17  1  0  0  0  0
 17 23  1  0  0  0  0
 17 18  2  0  0  0  0
 18 19  1  0  0  0  0
 18 37  1  0  0  0  0
 19 20  2  0  0  0  0
 19 38  1  0  0  0  0
 20 21  1  0  0  0  0
 20 22  1  0  0  0  0
 22 23  2  0  0  0  0
 22 39  1  0  0  0  0
 23 40  1  0  0  0  0
M  CHG  1   4   1
M  END
> <s_m_source_file>
AV-unprocessed.smi

> <i_m_source_file_index>
2183

> <i_lp_mmshare_version>
43012

> <i_f3d_flags>
0

> <s_epik_input>
W2NIXTFbY0hdW2NIXVtjSF1jKGMxMiluKGMobjIpW0NIMl1bT0hdKVtDSDJdW0NASF0oW09IXSlbQ0gyXU9jM1tjSF1bY0hdYyhDbClbY0hdW2NIXTM=

> <s_epik_cmdline>
J2VwaWtfcHl0aG9uJywgJy1waCcsICc3LjAnLCAnLXRuJywgJzgnLCAnLW1hJywgJzIwMCcsICctbWV0YWxfYmluZGluZycsICctaW1hZScsICc8aW5maWxlLm1hZT4nLCAnLW9tYWUnLCAnPG91dGZpbGUubWFlPic=

> <r_lp_tautomer_probability>
1

> <r_epik_Ionization_Penalty>
1.40052

> <r_epik_Ionization_Penalty_Charging>
1.39966

> <r_epik_Ionization_Penalty_Neutral>
0.000858184

> <r_epik_State_Penalty>
1.4817

> <r_epik_Charging_Adjusted_Penalty>
2.88136

> <i_epik_Tot_Q>
1

> <i_epik_Tot_abs_Q>
1

> <r_epik_Metal_State_Penalty>
5.5238

> <b_epik_Metal_Only>
0

> <s_lp_Force_Field>
OPLS_2005

> <r_lp_Energy>
17.0634

> <b_lp_Chiralities_Consistent>
1

> <s_lp_Variant>
AV-unprocessed.smi:2183-3

> <Gold.Version>
5.8.1

> <Gold.Id.Protein>
6NUR|6NUR_protein|mol2

> <Gold.PLP.Fitness>
55.7667

> <Gold.PLP.PLP>
-46.1160

> <Gold.PLP.part.hbond>
-3.0000

> <Gold.PLP.part.metal>
0.0000

> <Gold.PLP.part.buried>
-5.6273

> <Gold.PLP.part.nonpolar>
-38.0570

> <Gold.PLP.part.repulsive>
0.1860

> <Gold.PLP.ligand.clash>
0.0000

> <Gold.PLP.ligand.torsion>
1.1026

> <Gold.PLP.Chemscore.Hbond>
3.8960

> <Gold.PLP.Chemscore.CHOScore>
0.0000

> <Gold.PLP.Chemscore.Metal>
0.0000

> <Gold.Chemscore.Hbonds>
donor molecule, donor type, donor heavy atom, donor atom, acceptor molecule, acceptor atom, score
      L1  H     1    24       P1  7957  1.00
      L1  H     4    41       P1  8028  2.00
      P1  H  7989  7998       L1     1  0.90

> <Gold.PLP.Chemscore.Internal.Correction>
0.1679

> <Gold.Rescore>
     Score         DG    S(hbond)    S(metal)    S(lipo)     H(rot)  DE(clash)    DE(int)     intcor
     18.68     -19.64       2.47        0.00     118.97       3.13       0.04       0.91       ----

> <Gold.Chemscore.Fitness>
18.6846

> <Gold.Chemscore.DG>
-19.6387

> <Gold.Chemscore.ZeroCoef>
-5.4800

> <Gold.Chemscore.Hbond>
2.4712

> <Gold.Chemscore.Metal>
0.0000

> <Gold.Chemscore.Lipo>
118.9668

> <Gold.Chemscore.Internal_Hbond>
0.0000

> <Gold.Chemscore.DEClash>
0.0437

> <Gold.Chemscore.DEInternal>
0.9103

> <Gold.Chemscore.Rot>
3.1305

> <Gold.Chemscore.Internal.Correction>
   9.000000E+99

> <Gold.Chemscore.Hbonds>
donor molecule, donor type, donor heavy atom, donor atom, acceptor molecule, acceptor atom, score
      L1  H     1    24       P1  7957  0.98
      L1  H     4    41       P1  8028  0.97
      P1  H  7989  7998       L1     1  0.09

> <Gold.Chemscore.Hbond.Weighted>
-8.2537

> <Gold.Chemscore.Metal.Weighted>
-0.0000

> <Gold.Chemscore.Lipo.Weighted>
-13.9191

> <Gold.Chemscore.Internal_Hbond.Weighted>
0.0000

> <Gold.Chemscore.DEClash.Weighted>
0.0437

> <Gold.Chemscore.DEInternal.Weighted>
0.9103

> <Gold.Chemscore.Rot.Weighted>
8.0141

> <Gold.Chemscore.Internal.Correction.Weighted>
   9.000000E+99

> <Gold.Protein.RotatedTorsions>
[ 6907 6896 6895 6894 ] final   91.02 input  -60.11 | X-H torsion
[ 7974 7965 7964 7962 ] final  107.42 input  175.53 | X-H torsion
[ 8008 7997 7996 7995 ] final  118.51 input   59.86 | X-H torsion
[ 10167 10162 10161 10158 ] final -141.79 input  -65.29 | X-H torsion
[ 10718 10713 10712 10709 ] final -157.76 input   66.30 | X-H torsion
[ 10763 10752 10751 10750 ] final  124.14 input  -60.55 | X-H torsion
[ 11005 11000 10999 10996 ] final  133.23 input  -57.11 | X-H torsion

> <Gold.Protein.ActiveResidues>
 VAL166  LYS551  ARG553  GLY616  TRP617  ASP618  TYR619  PRO620  LYS621  CYS622 
 ASP623  PHE694  ASN695  SER759  ASP760  ASP761  ALA762  ILE779  LEU786  VAL792 
 PHE793  MET794  SER795  GLU796  ALA797  LYS798  CYS799  TRP800  GLU811  SER814 

> <Gold.Protein.RotatedAtoms>
  152.5448  134.1721  159.8600 H   0  0  0  0  0  0  0  0  0  0  0  0  # atno 6907 bound_to 6896
  151.1731  133.4765  159.2601 H   0  0  0  0  0  0  0  0  0  0  0  0  # atno 6908 bound_to 6896
  151.1255  135.0114  159.8613 H   0  0  0  0  0  0  0  0  0  0  0  0  # atno 6909 bound_to 6896
  145.2938  139.2591  143.3850 H   0  0  0  0  0  0  0  0  0  0  0  0  # atno 7974 bound_to 7965
  156.2550  140.2873  156.0846 H   0  0  0  0  0  0  0  0  0  0  0  0  # atno 8008 bound_to 7997
  155.1529  140.0398  157.2842 H   0  0  0  0  0  0  0  0  0  0  0  0  # atno 8009 bound_to 7997
  154.6448  140.2531  155.7287 H   0  0  0  0  0  0  0  0  0  0  0  0  # atno 8010 bound_to 7997
  139.8150  143.7651  152.2665 H   0  0  0  0  0  0  0  0  0  0  0  0  # atno 10167 bound_to 10162
  156.5447  130.8579  151.2760 H   0  0  0  0  0  0  0  0  0  0  0  0  # atno 10718 bound_to 10713
  153.6567  135.3353  155.3115 H   0  0  0  0  0  0  0  0  0  0  0  0  # atno 10763 bound_to 10752
  154.8525  135.4354  154.1848 H   0  0  0  0  0  0  0  0  0  0  0  0  # atno 10764 bound_to 10752
  153.2804  135.7008  153.7466 H   0  0  0  0  0  0  0  0  0  0  0  0  # atno 10765 bound_to 10752
  139.9839  134.9539  156.9695 H   0  0  0  0  0  0  0  0  0  0  0  0  # atno 11005 bound_to 11000
  146.3176  140.3436  142.8650 LP  0  0  0  0  0  0  0  0  0  0  0  0  # atno 17320 bound_to 7965
  144.9150  140.7802  143.5784 LP  0  0  0  0  0  0  0  0  0  0  0  0  # atno 17321 bound_to 7965
  139.7811  144.7444  151.0086 LP  0  0  0  0  0  0  0  0  0  0  0  0  # atno 17342 bound_to 10162
  140.7816  143.4541  151.0371 LP  0  0  0  0  0  0  0  0  0  0  0  0  # atno 17343 bound_to 10162
  157.7399  130.9840  150.2342 LP  0  0  0  0  0  0  0  0  0  0  0  0  # atno 17370 bound_to 10713
  156.2939  130.3749  149.7815 LP  0  0  0  0  0  0  0  0  0  0  0  0  # atno 17371 bound_to 10713
  140.5042  134.1067  155.7256 LP  0  0  0  0  0  0  0  0  0  0  0  0  # atno 17394 bound_to 11000
  141.1507  133.8974  157.2105 LP  0  0  0  0  0  0  0  0  0  0  0  0  # atno 17395 bound_to 11000

$$$$
