#       Name:                AV-unprocessed.smi:1486
#       Creating user name   scv26
#       Creation time:       Fri Mar 27 06:10:07 2020


#       File generated by GOLD software.
#

@<TRIPOS>MOLECULE
AV-unprocessed.smi:1486
    46    47     1
SMALL
NO_CHARGES


@<TRIPOS>ATOM
      1 ****        -3.2884   0.8257   1.8756 C.3            1 S1                 0.0000
      2 ****        -2.9101   1.4715   0.6734 O.3            1 S1                 0.0000
      3 ****        -3.0385   0.6311  -0.4626 C.3            1 S1                 0.0000
      4 ****        -2.5334   1.3709  -1.7135 C.3            1 S1                 0.0000
      5 ****        -2.8094   0.5698  -2.9929 C.3            1 S1                 0.0000
      6 ****        -1.0974   1.6082  -1.5985 N.am           1 S1                 0.0000
      7 ****        -0.5210   2.7398  -1.1618 C.2            1 S1                 0.0000
      8 ****        -1.1465   3.7641  -0.8887 O.2            1 S1                 0.0000
      9 ****         0.9973   2.7013  -0.9843 C.3            1 S1                 0.0000
     10 ****         1.3494   1.8244   0.1828 C.2            1 S1                 0.0000
     11 ****         1.3546   2.1813   1.5093 C.2            1 S1                 0.0000
     12 ****         1.7912   0.8487   2.5428 S.3            1 S1                 0.0000
     13 ****         1.9617  -0.1656   1.1068 C.2            1 S1                 0.0000
     14 ****         2.3317  -1.5435   1.0816 N.am           1 S1                 0.0000
     15 ****         2.5137  -2.2668  -0.1735 C.3            1 S1                 0.0000
     16 ****         3.1072  -3.6278   0.2060 C.3            1 S1                 0.0000
     17 ****         2.8923  -3.7569   1.7125 C.3            1 S1                 0.0000
     18 ****         2.5224  -2.3470   2.1430 C.2            1 S1                 0.0000
     19 ****         2.4210  -2.0444   3.3310 O.2            1 S1                 0.0000
     20 ****         1.7048   0.4881  -0.0312 N.2            1 S1                 0.0000
     21 ****        -3.1810   1.5168   2.7116 H              1 S1                 0.0000
     22 ****        -2.6553  -0.0403   2.0726 H              1 S1                 0.0000
     23 ****        -4.3284   0.4997   1.8384 H              1 S1                 0.0000
     24 ****        -2.4752  -0.2927  -0.3178 H              1 S1                 0.0000
     25 ****        -4.0871   0.3568  -0.5884 H              1 S1                 0.0000
     26 ****        -3.0661   2.3198  -1.7984 H              1 S1                 0.0000
     27 ****        -3.8772   0.3903  -3.1198 H              1 S1                 0.0000
     28 ****        -2.3095  -0.3992  -2.9715 H              1 S1                 0.0000
     29 ****        -2.4597   1.1062  -3.8756 H              1 S1                 0.0000
     30 ****        -0.4934   0.8241  -1.7983 H              1 S1                 0.0000
     31 ****         1.4587   2.3380  -1.9036 H              1 S1                 0.0000
     32 ****         1.3711   3.7142  -0.8292 H              1 S1                 0.0000
     33 ****         1.1172   3.1431   1.9395 H              1 S1                 0.0000
     34 ****         1.5449  -2.3895  -0.6601 H              1 S1                 0.0000
     35 ****         3.1710  -1.7268  -0.8564 H              1 S1                 0.0000
     36 ****         2.6385  -4.4426  -0.3470 H              1 S1                 0.0000
     37 ****         4.1745  -3.6481  -0.0195 H              1 S1                 0.0000
     38 ****         2.0672  -4.4326   1.9399 H              1 S1                 0.0000
     39 ****         3.7866  -4.1097   2.2274 H              1 S1                 0.0000
     40 ****        -1.9559   1.7602   0.7517 LP             1 S1                 0.0000
     41 ****        -3.4918   2.2746   0.5447 LP             1 S1                 0.0000
     42 ****        -2.1413   3.7839  -0.9881 LP             1 S1                 0.0000
     43 ****        -0.6598   4.5765  -0.5675 LP             1 S1                 0.0000
     44 ****         2.1717  -1.1112   3.5897 LP             1 S1                 0.0000
     45 ****         2.5879  -2.7316   4.0380 LP             1 S1                 0.0000
     46 ****         1.7606   0.0676  -0.9368 LP             1 S1                 0.0000
@<TRIPOS>BOND
    1    1    2 1     
    2    1   21 1     
    3    1   22 1     
    4    1   23 1     
    5    2    3 1     
    6    3    4 1     
    7    3   24 1     
    8    3   25 1     
    9    4    5 1     
   10    4    6 1     
   11    4   26 1     
   12    5   27 1     
   13    5   28 1     
   14    5   29 1     
   15    6    7 am    
   16    6   30 1     
   17    7    8 2     
   18    7    9 1     
   19    9   10 1     
   20    9   31 1     
   21    9   32 1     
   22   10   20 1     
   23   10   11 2     
   24   11   12 1     
   25   11   33 1     
   26   12   13 1     
   27   13   14 1     
   28   13   20 2     
   29   14   18 am    
   30   14   15 1     
   31   15   16 1     
   32   15   34 1     
   33   15   35 1     
   34   16   17 1     
   35   16   36 1     
   36   16   37 1     
   37   17   18 1     
   38   17   38 1     
   39   17   39 1     
   40   18   19 2     
   41    2   40 1     
   42    2   41 1     
   43    8   42 1     
   44    8   43 1     
   45   19   44 1     
   46   19   45 1     
   47   20   46 1     
@<TRIPOS>SUBSTRUCTURE
      1 S1             1
@<TRIPOS>SET
LONE_PAIRS      STATIC     ATOMS    <user>   **** ""
7 40 41 42 43 44 45 46
DONOR_HYDROGENS      STATIC     ATOMS    <user>   **** ""
1 30
ATOM$BLUE        STATIC     ATOMS    COLORGROUP SYSTEM
7 40 41 42 43 44 45 46
ATOM$RED        STATIC     ATOMS    COLORGROUP SYSTEM
1 30
