AV-unprocessed.smi:1402|AV-procd|sdf|5696|dock1
  -GOLD-   22720 5323D 1   1.00000     0.00000
 Structure written by MMmdl.
 44 45  0  0  0  0  0  0  0  0  1 V2000
  146.1402  129.5293  151.9239 C   0  0  0  0  0  0  0  0  0  0  0  0
  146.1392  131.0292  151.9233 C   0  0  0  0  0  0  0  0  0  0  0  0
  146.9680  131.9080  152.6792 C   0  0  0  0  0  0  0  0  0  0  0  0
  146.5275  133.1445  152.2933 C   0  0  0  0  0  0  0  0  0  0  0  0
  146.9682  134.3660  152.6959 N   0  0  0  0  0  0  0  0  0  0  0  0
  146.5304  135.1157  153.7223 C   0  0  0  0  0  0  0  0  0  0  0  0
  145.6517  134.7877  154.5201 O   0  0  0  0  0  0  0  0  0  0  0  0
  147.1661  136.2955  153.7650 N   0  0  0  0  0  0  0  0  0  0  0  0
  146.8554  137.3778  154.6921 C   0  0  0  0  0  0  0  0  0  0  0  0
  148.0574  137.6984  155.6048 C   0  0  0  0  0  0  0  0  0  0  0  0
  149.2135  138.1775  154.8380 N   0  0  0  0  0  0  0  0  0  0  0  0
  149.0575  139.4849  154.1819 C   0  0  0  0  0  0  0  0  0  0  0  0
  149.9019  140.6096  154.8246 C   0  0  0  0  0  0  0  0  0  0  0  0
  151.2351  140.1780  155.4675 C   0  0  0  0  0  0  0  0  0  0  0  0
  152.1523  139.3279  154.5629 C   0  0  0  0  0  0  0  0  0  0  0  0
  151.5306  138.0474  153.9547 C   0  0  0  0  0  0  0  0  0  0  0  0
  150.3626  137.4620  154.7646 C   0  0  0  0  0  0  0  0  0  0  0  0
  150.5138  136.3734  155.3194 O   0  0  0  0  0  0  0  0  0  0  0  0
  145.5207  132.9885  151.3644 N   0  0  0  0  0  0  0  0  0  0  0  0
  144.7359  133.9818  150.6568 C   0  0  0  0  0  0  0  0  0  0  0  0
  145.2824  131.6780  151.1427 N   0  0  0  0  0  0  0  0  0  0  0  0
  146.9197  129.1355  152.5764 H   0  0  0  0  0  0  0  0  0  0  0  0
  146.3154  129.1353  150.9227 H   0  0  0  0  0  0  0  0  0  0  0  0
  145.1854  129.1377  152.2750 H   0  0  0  0  0  0  0  0  0  0  0  0
  147.7481  131.6538  153.3809 H   0  0  0  0  0  0  0  0  0  0  0  0
  147.6738  134.7848  152.1081 H   0  0  0  0  0  0  0  0  0  0  0  0
  147.8800  136.4783  153.0751 H   0  0  0  0  0  0  0  0  0  0  0  0
  146.4918  138.2669  154.1731 H   0  0  0  0  0  0  0  0  0  0  0  0
  146.0221  137.0382  155.3077 H   0  0  0  0  0  0  0  0  0  0  0  0
  147.7651  138.4616  156.3274 H   0  0  0  0  0  0  0  0  0  0  0  0
  148.3315  136.8385  156.2194 H   0  0  0  0  0  0  0  0  0  0  0  0
  149.3160  139.3880  153.1273 H   0  0  0  0  0  0  0  0  0  0  0  0
  148.0098  139.7879  154.1671 H   0  0  0  0  0  0  0  0  0  0  0  0
  150.0907  141.3790  154.0750 H   0  0  0  0  0  0  0  0  0  0  0  0
  149.3032  141.0934  155.5970 H   0  0  0  0  0  0  0  0  0  0  0  0
  151.7779  141.0702  155.7808 H   0  0  0  0  0  0  0  0  0  0  0  0
  151.0312  139.6343  156.3910 H   0  0  0  0  0  0  0  0  0  0  0  0
  152.5240  139.9525  153.7498 H   0  0  0  0  0  0  0  0  0  0  0  0
  153.0334  139.0471  155.1408 H   0  0  0  0  0  0  0  0  0  0  0  0
  151.1917  138.2413  152.9373 H   0  0  0  0  0  0  0  0  0  0  0  0
  152.3071  137.2885  153.8487 H   0  0  0  0  0  0  0  0  0  0  0  0
  145.0664  134.9886  150.9116 H   0  0  0  0  0  0  0  0  0  0  0  0
  143.6846  133.8781  150.9270 H   0  0  0  0  0  0  0  0  0  0  0  0
  144.8436  133.8381  149.5814 H   0  0  0  0  0  0  0  0  0  0  0  0
  1  2  1  0  0  0  0
  1 22  1  0  0  0  0
  1 23  1  0  0  0  0
  1 24  1  0  0  0  0
  2 21  2  0  0  0  0
  2  3  1  0  0  0  0
  3  4  2  0  0  0  0
  3 25  1  0  0  0  0
  4  5  1  0  0  0  0
  4 19  1  0  0  0  0
  5  6  1  0  0  0  0
  5 26  1  0  0  0  0
  6  7  2  0  0  0  0
  6  8  1  0  0  0  0
  8  9  1  0  0  0  0
  8 27  1  0  0  0  0
  9 10  1  0  0  0  0
  9 28  1  0  0  0  0
  9 29  1  0  0  0  0
 10 11  1  0  0  0  0
 10 30  1  0  0  0  0
 10 31  1  0  0  0  0
 11 17  1  0  0  0  0
 11 12  1  0  0  0  0
 12 13  1  0  0  0  0
 12 32  1  0  0  0  0
 12 33  1  0  0  0  0
 13 14  1  0  0  0  0
 13 34  1  0  0  0  0
 13 35  1  0  0  0  0
 14 15  1  0  0  0  0
 14 36  1  0  0  0  0
 14 37  1  0  0  0  0
 15 16  1  0  0  0  0
 15 38  1  0  0  0  0
 15 39  1  0  0  0  0
 16 17  1  0  0  0  0
 16 40  1  0  0  0  0
 16 41  1  0  0  0  0
 17 18  2  0  0  0  0
 19 20  1  0  0  0  0
 19 21  1  0  0  0  0
 20 42  1  0  0  0  0
 20 43  1  0  0  0  0
 20 44  1  0  0  0  0
M  END
> <s_m_source_file>
AV-unprocessed.smi

> <i_m_source_file_index>
1402

> <i_lp_mmshare_version>
43012

> <i_f3d_flags>
0

> <s_epik_input>
W0NIM11jMVtjSF1jKG4objEpW0NIM10pW05IXUMoPU8pW05IXVtDSDJdW0NIMl1OMltDSDJdW0NIMl1bQ0gyXVtDSDJdW0NIMl1DMj1P

> <s_epik_cmdline>
J2VwaWtfcHl0aG9uJywgJy1waCcsICc3LjAnLCAnLXRuJywgJzgnLCAnLW1hJywgJzIwMCcsICctbWV0YWxfYmluZGluZycsICctaW1hZScsICc8aW5maWxlLm1hZT4nLCAnLW9tYWUnLCAnPG91dGZpbGUubWFlPic=

> <r_lp_tautomer_probability>
1

> <r_epik_Ionization_Penalty>
9.00432e-05

> <r_epik_Ionization_Penalty_Charging>
0

> <r_epik_Ionization_Penalty_Neutral>
9.00432e-05

> <r_epik_State_Penalty>
-0

> <r_epik_Charging_Adjusted_Penalty>
0

> <i_epik_Tot_Q>
0

> <i_epik_Tot_abs_Q>
0

> <r_epik_Metal_State_Penalty>
-0

> <b_epik_Metal_Only>
0

> <s_lp_Force_Field>
OPLS_2005

> <r_lp_Energy>
25.7606

> <b_lp_Chiralities_Consistent>
1

> <s_lp_Variant>
AV-unprocessed.smi:1402-1

> <Gold.Version>
5.8.1

> <Gold.Id.Protein>
6NUR|6NUR_protein|mol2

> <Gold.PLP.Fitness>
38.0136

> <Gold.PLP.PLP>
-33.5181

> <Gold.PLP.part.hbond>
-2.0000

> <Gold.PLP.part.metal>
0.0000

> <Gold.PLP.part.buried>
-3.3991

> <Gold.PLP.part.nonpolar>
-28.9221

> <Gold.PLP.part.repulsive>
0.2796

> <Gold.PLP.ligand.clash>
0.0000

> <Gold.PLP.ligand.torsion>
0.7939

> <Gold.PLP.Chemscore.Hbond>
2.0000

> <Gold.PLP.Chemscore.CHOScore>
0.0000

> <Gold.PLP.Chemscore.Metal>
0.0000

> <Gold.Chemscore.Hbonds>
donor molecule, donor type, donor heavy atom, donor atom, acceptor molecule, acceptor atom, score
      L1  H     5    26       P1  7948  0.98
      L1  H     8    27       P1  7948  1.00

> <Gold.PLP.Chemscore.Internal.Correction>
0.0832

> <Gold.Rescore>
     Score         DG    S(hbond)    S(metal)    S(lipo)     H(rot)  DE(clash)    DE(int)     intcor
     15.10     -15.89       1.85        0.00      69.79       1.54       0.01       0.77       ----

> <Gold.Chemscore.Fitness>
15.1049

> <Gold.Chemscore.DG>
-15.8890

> <Gold.Chemscore.ZeroCoef>
-5.4800

> <Gold.Chemscore.Hbond>
1.8525

> <Gold.Chemscore.Metal>
0.0000

> <Gold.Chemscore.Lipo>
69.7943

> <Gold.Chemscore.Internal_Hbond>
0.0000

> <Gold.Chemscore.DEClash>
0.0106

> <Gold.Chemscore.DEInternal>
0.7736

> <Gold.Chemscore.Rot>
1.5407

> <Gold.Chemscore.Internal.Correction>
   9.000000E+99

> <Gold.Chemscore.Hbonds>
donor molecule, donor type, donor heavy atom, donor atom, acceptor molecule, acceptor atom, score
      L1  H     5    26       P1  7948  0.65
      L1  H     8    27       P1  7948  0.99

> <Gold.Chemscore.Hbond.Weighted>
-6.1872

> <Gold.Chemscore.Metal.Weighted>
-0.0000

> <Gold.Chemscore.Lipo.Weighted>
-8.1659

> <Gold.Chemscore.Internal_Hbond.Weighted>
0.0000

> <Gold.Chemscore.DEClash.Weighted>
0.0106

> <Gold.Chemscore.DEInternal.Weighted>
0.7736

> <Gold.Chemscore.Rot.Weighted>
3.9441

> <Gold.Chemscore.Internal.Correction.Weighted>
   9.000000E+99

> <Gold.Protein.RotatedTorsions>
[ 6907 6896 6895 6894 ] final -130.22 input  -60.11 | X-H torsion
[ 7974 7965 7964 7962 ] final  175.03 input  175.53 | X-H torsion
[ 8008 7997 7996 7995 ] final   51.85 input   59.86 | X-H torsion
[ 10167 10162 10161 10158 ] final -139.81 input  -65.29 | X-H torsion
[ 10718 10713 10712 10709 ] final   30.11 input   66.30 | X-H torsion
[ 10763 10752 10751 10750 ] final -152.36 input  -60.55 | X-H torsion
[ 11005 11000 10999 10996 ] final   26.28 input  -57.11 | X-H torsion

> <Gold.Protein.ActiveResidues>
 VAL166  LYS551  ARG553  GLY616  TRP617  ASP618  TYR619  PRO620  LYS621  CYS622 
 ASP623  PHE694  ASN695  SER759  ASP760  ASP761  ALA762  ILE779  LEU786  VAL792 
 PHE793  MET794  SER795  GLU796  ALA797  LYS798  CYS799  TRP800  GLU811  SER814 

> <Gold.Protein.RotatedAtoms>
  150.9373  133.6697  159.2797 H   0  0  0  0  0  0  0  0  0  0  0  0  # atno 6907 bound_to 6896
  151.4098  135.0982  159.9591 H   0  0  0  0  0  0  0  0  0  0  0  0  # atno 6908 bound_to 6896
  152.5054  133.8849  159.7420 H   0  0  0  0  0  0  0  0  0  0  0  0  # atno 6909 bound_to 6896
  144.7209  139.9886  143.6439 H   0  0  0  0  0  0  0  0  0  0  0  0  # atno 7974 bound_to 7965
  155.4421  140.3455  155.4291 H   0  0  0  0  0  0  0  0  0  0  0  0  # atno 8008 bound_to 7997
  156.1272  140.1504  156.9149 H   0  0  0  0  0  0  0  0  0  0  0  0  # atno 8009 bound_to 7997
  154.4867  140.0853  156.7483 H   0  0  0  0  0  0  0  0  0  0  0  0  # atno 8010 bound_to 7997
  139.8342  143.7406  152.2665 H   0  0  0  0  0  0  0  0  0  0  0  0  # atno 10167 bound_to 10162
  157.2553  130.7135  149.6426 H   0  0  0  0  0  0  0  0  0  0  0  0  # atno 10718 bound_to 10713
  154.7999  135.3238  154.7576 H   0  0  0  0  0  0  0  0  0  0  0  0  # atno 10763 bound_to 10752
  153.8246  135.6884  153.4827 H   0  0  0  0  0  0  0  0  0  0  0  0  # atno 10764 bound_to 10752
  153.1710  135.4623  154.9845 H   0  0  0  0  0  0  0  0  0  0  0  0  # atno 10765 bound_to 10752
  140.3387  134.2357  155.7693 H   0  0  0  0  0  0  0  0  0  0  0  0  # atno 11005 bound_to 11000
  146.0430  139.3439  143.0686 LP  0  0  0  0  0  0  0  0  0  0  0  0  # atno 17320 bound_to 7965
  145.8311  140.9630  143.0848 LP  0  0  0  0  0  0  0  0  0  0  0  0  # atno 17321 bound_to 7965
  139.7623  144.7502  151.0345 LP  0  0  0  0  0  0  0  0  0  0  0  0  # atno 17342 bound_to 10162
  140.7804  143.4737  151.0112 LP  0  0  0  0  0  0  0  0  0  0  0  0  # atno 17343 bound_to 10162
  155.9665  130.4414  150.5341 LP  0  0  0  0  0  0  0  0  0  0  0  0  # atno 17370 bound_to 10713
  157.3234  131.0686  151.1915 LP  0  0  0  0  0  0  0  0  0  0  0  0  # atno 17371 bound_to 10713
  141.2044  133.7886  157.0287 LP  0  0  0  0  0  0  0  0  0  0  0  0  # atno 17394 bound_to 11000
  140.0799  134.9654  157.1607 LP  0  0  0  0  0  0  0  0  0  0  0  0  # atno 17395 bound_to 11000

$$$$
