AV-unprocessed.smi:2979|AV-procd|sdf|11370|dock3
  -GOLD-   2272016283D 1   1.00000     0.00000
 Structure written by MMmdl.
 35 36  0  0  0  0  0  0  0  0  1 V2000
  152.7092  138.6234  155.3502 C   0  0  0  0  0  0  0  0  0  0  0  0
  153.5191  139.2833  156.3065 O   0  0  0  0  0  0  0  0  0  0  0  0
  153.0898  139.0477  157.6379 C   0  0  0  0  0  0  0  0  0  0  0  0
  151.6141  139.4449  157.7859 C   0  0  0  0  0  0  0  0  0  0  0  0
  151.3863  140.8638  157.5418 N   0  0  0  0  0  0  0  0  0  0  0  0
  150.7241  141.4541  156.5126 C   0  0  0  0  0  0  0  0  0  0  0  0
  150.0571  140.6779  155.4159 C   0  0  0  0  0  0  0  0  0  0  0  0
  149.1696  141.5608  154.5248 C   0  0  0  0  0  0  0  0  0  0  0  0
  148.0617  140.7611  153.8278 C   0  0  0  0  0  0  0  0  0  0  0  0
  148.5842  139.5456  153.3370 O   0  0  0  0  0  0  0  0  0  0  0  0
  150.6880  142.7871  156.5362 N   0  0  0  0  0  0  0  0  0  0  0  0
  151.3770  143.0915  157.6930 C   0  0  0  0  0  0  0  0  0  0  0  0
  151.6781  144.3418  158.2791 C   0  0  0  0  0  0  0  0  0  0  0  0
  152.4041  144.4081  159.4861 C   0  0  0  0  0  0  0  0  0  0  0  0
  152.8380  143.2276  160.1231 C   0  0  0  0  0  0  0  0  0  0  0  0
  152.5496  141.9718  159.5551 C   0  0  0  0  0  0  0  0  0  0  0  0
  151.8255  141.9104  158.3486 C   0  0  0  0  0  0  0  0  0  0  0  0
  153.0759  138.8418  154.3473 H   0  0  0  0  0  0  0  0  0  0  0  0
  151.6731  138.9587  155.4115 H   0  0  0  0  0  0  0  0  0  0  0  0
  152.7370  137.5420  155.4903 H   0  0  0  0  0  0  0  0  0  0  0  0
  153.2147  137.9934  157.8888 H   0  0  0  0  0  0  0  0  0  0  0  0
  153.7038  139.6161  158.3361 H   0  0  0  0  0  0  0  0  0  0  0  0
  151.0138  138.8718  157.0792 H   0  0  0  0  0  0  0  0  0  0  0  0
  151.2372  139.1821  158.7740 H   0  0  0  0  0  0  0  0  0  0  0  0
  150.8327  140.2094  154.8088 H   0  0  0  0  0  0  0  0  0  0  0  0
  149.4706  139.8598  155.8300 H   0  0  0  0  0  0  0  0  0  0  0  0
  148.7209  142.3540  155.1234 H   0  0  0  0  0  0  0  0  0  0  0  0
  149.7879  142.0574  153.7757 H   0  0  0  0  0  0  0  0  0  0  0  0
  147.2485  140.5446  154.5210 H   0  0  0  0  0  0  0  0  0  0  0  0
  147.6423  141.3280  152.9962 H   0  0  0  0  0  0  0  0  0  0  0  0
  148.8393  139.6698  152.4356 H   0  0  0  0  0  0  0  0  0  0  0  0
  151.3482  145.2514  157.7993 H   0  0  0  0  0  0  0  0  0  0  0  0
  152.6279  145.3689  159.9258 H   0  0  0  0  0  0  0  0  0  0  0  0
  153.3917  143.2866  161.0488 H   0  0  0  0  0  0  0  0  0  0  0  0
  152.8788  141.0671  160.0439 H   0  0  0  0  0  0  0  0  0  0  0  0
  1  2  1  0  0  0  0
  1 18  1  0  0  0  0
  1 19  1  0  0  0  0
  1 20  1  0  0  0  0
  2  3  1  0  0  0  0
  3  4  1  0  0  0  0
  3 21  1  0  0  0  0
  3 22  1  0  0  0  0
  4  5  1  0  0  0  0
  4 23  1  0  0  0  0
  4 24  1  0  0  0  0
  5 17  1  0  0  0  0
  5  6  1  0  0  0  0
  6  7  1  0  0  0  0
  6 11  2  0  0  0  0
  7  8  1  0  0  0  0
  7 25  1  0  0  0  0
  7 26  1  0  0  0  0
  8  9  1  0  0  0  0
  8 27  1  0  0  0  0
  8 28  1  0  0  0  0
  9 10  1  0  0  0  0
  9 29  1  0  0  0  0
  9 30  1  0  0  0  0
 10 31  1  0  0  0  0
 11 12  1  0  0  0  0
 12 17  2  0  0  0  0
 12 13  1  0  0  0  0
 13 14  2  0  0  0  0
 13 32  1  0  0  0  0
 14 15  1  0  0  0  0
 14 33  1  0  0  0  0
 15 16  2  0  0  0  0
 15 34  1  0  0  0  0
 16 17  1  0  0  0  0
 16 35  1  0  0  0  0
M  END
> <s_m_source_file>
AV-unprocessed.smi

> <i_m_source_file_index>
2979

> <i_lp_mmshare_version>
43012

> <i_f3d_flags>
0

> <s_epik_input>
W2NIXTFbY0hdW2NIXVtjSF1jKGMxMiluKFtDSDJdW0NIMl1PW0NIM10pYyhuMilbQ0gyXVtDSDJdW0NIMl1bT0hd

> <s_epik_cmdline>
J2VwaWtfcHl0aG9uJywgJy1waCcsICc3LjAnLCAnLXRuJywgJzgnLCAnLW1hJywgJzIwMCcsICctbWV0YWxfYmluZGluZycsICctaW1hZScsICc8aW5maWxlLm1hZT4nLCAnLW9tYWUnLCAnPG91dGZpbGUubWFlPic=

> <r_epik_Ionization_Penalty>
0.183246

> <r_epik_Ionization_Penalty_Charging>
0

> <r_epik_Ionization_Penalty_Neutral>
0.183246

> <r_epik_State_Penalty>
0.172781

> <r_epik_Charging_Adjusted_Penalty>
0.172781

> <i_epik_Tot_Q>
0

> <i_epik_Tot_abs_Q>
0

> <r_epik_Metal_State_Penalty>
0.000200578

> <b_epik_Metal_Only>
0

> <s_lp_Force_Field>
OPLS_2005

> <r_lp_Energy>
6.05289

> <b_lp_Chiralities_Consistent>
1

> <s_lp_Variant>
AV-unprocessed.smi:2979-1

> <Gold.Version>
5.8.1

> <Gold.Id.Protein>
6NUR|6NUR_protein|mol2

> <Gold.PLP.Fitness>
44.4619

> <Gold.PLP.PLP>
-39.1550

> <Gold.PLP.part.hbond>
-1.8430

> <Gold.PLP.part.metal>
0.0000

> <Gold.PLP.part.buried>
-3.9804

> <Gold.PLP.part.nonpolar>
-35.2673

> <Gold.PLP.part.repulsive>
1.9489

> <Gold.PLP.ligand.clash>
0.0000

> <Gold.PLP.ligand.torsion>
0.3719

> <Gold.PLP.Chemscore.Hbond>
2.0000

> <Gold.PLP.Chemscore.CHOScore>
0.0000

> <Gold.PLP.Chemscore.Metal>
0.0000

> <Gold.Chemscore.Hbonds>
donor molecule, donor type, donor heavy atom, donor atom, acceptor molecule, acceptor atom, score
      L1  H    10    31       P1  7957  0.99
      P1  H  7997  8009       L1     2  0.08

> <Gold.PLP.Chemscore.Internal.Correction>
0.0507

> <Gold.Rescore>
     Score         DG    S(hbond)    S(metal)    S(lipo)     H(rot)  DE(clash)    DE(int)     intcor
     16.72     -18.40       1.93        0.00     109.01       2.45       1.35       0.32       ----

> <Gold.Chemscore.Fitness>
16.7248

> <Gold.Chemscore.DG>
-18.3989

> <Gold.Chemscore.ZeroCoef>
-5.4800

> <Gold.Chemscore.Hbond>
1.9251

> <Gold.Chemscore.Metal>
0.0000

> <Gold.Chemscore.Lipo>
109.0125

> <Gold.Chemscore.Internal_Hbond>
0.0000

> <Gold.Chemscore.DEClash>
1.3513

> <Gold.Chemscore.DEInternal>
0.3228

> <Gold.Chemscore.Rot>
2.4474

> <Gold.Chemscore.Internal.Correction>
   9.000000E+99

> <Gold.Chemscore.Hbonds>
donor molecule, donor type, donor heavy atom, donor atom, acceptor molecule, acceptor atom, score
      L1  H    10    31       P1  7957  0.92
      P1  H  7997  8009       L1     2  0.06

> <Gold.Chemscore.Hbond.Weighted>
-6.4298

> <Gold.Chemscore.Metal.Weighted>
-0.0000

> <Gold.Chemscore.Lipo.Weighted>
-12.7545

> <Gold.Chemscore.Internal_Hbond.Weighted>
0.0000

> <Gold.Chemscore.DEClash.Weighted>
1.3513

> <Gold.Chemscore.DEInternal.Weighted>
0.3228

> <Gold.Chemscore.Rot.Weighted>
6.2654

> <Gold.Chemscore.Internal.Correction.Weighted>
   9.000000E+99

> <Gold.Protein.RotatedTorsions>
[ 6907 6896 6895 6894 ] final   62.00 input  -60.11 | X-H torsion
[ 7974 7965 7964 7962 ] final  -40.66 input  175.53 | X-H torsion
[ 8008 7997 7996 7995 ] final -164.78 input   59.86 | X-H torsion
[ 10167 10162 10161 10158 ] final   84.88 input  -65.29 | X-H torsion
[ 10718 10713 10712 10709 ] final -111.52 input   66.30 | X-H torsion
[ 10763 10752 10751 10750 ] final  -86.24 input  -60.55 | X-H torsion
[ 11005 11000 10999 10996 ] final  -30.10 input  -57.11 | X-H torsion

> <Gold.Protein.ActiveResidues>
 VAL166  LYS551  ARG553  GLY616  TRP617  ASP618  TYR619  PRO620  LYS621  CYS622 
 ASP623  PHE694  ASN695  SER759  ASP760  ASP761  ALA762  ILE779  LEU786  VAL792 
 PHE793  MET794  SER795  GLU796  ALA797  LYS798  CYS799  TRP800  GLU811  SER814 

> <Gold.Protein.RotatedAtoms>
  152.4136  134.6082  160.0018 H   0  0  0  0  0  0  0  0  0  0  0  0  # atno 6907 bound_to 6896
  151.6252  133.3330  159.3104 H   0  0  0  0  0  0  0  0  0  0  0  0  # atno 6908 bound_to 6896
  150.8025  134.7168  159.6680 H   0  0  0  0  0  0  0  0  0  0  0  0  # atno 6909 bound_to 6896
  146.0284  140.6763  142.9144 H   0  0  0  0  0  0  0  0  0  0  0  0  # atno 7974 bound_to 7965
  155.8405  140.0947  157.1737 H   0  0  0  0  0  0  0  0  0  0  0  0  # atno 8008 bound_to 7997
  154.3982  140.1402  156.3784 H   0  0  0  0  0  0  0  0  0  0  0  0  # atno 8009 bound_to 7997
  155.8070  140.3451  155.5438 H   0  0  0  0  0  0  0  0  0  0  0  0  # atno 8010 bound_to 7997
  139.9035  144.6315  150.8612 H   0  0  0  0  0  0  0  0  0  0  0  0  # atno 10167 bound_to 10162
  156.0652  130.5871  150.8384 H   0  0  0  0  0  0  0  0  0  0  0  0  # atno 10718 bound_to 10713
  154.6202  135.5456  153.7567 H   0  0  0  0  0  0  0  0  0  0  0  0  # atno 10763 bound_to 10752
  153.0235  135.6411  154.1451 H   0  0  0  0  0  0  0  0  0  0  0  0  # atno 10764 bound_to 10752
  154.1385  135.2910  155.3147 H   0  0  0  0  0  0  0  0  0  0  0  0  # atno 10765 bound_to 10752
  140.9353  133.7312  156.0996 H   0  0  0  0  0  0  0  0  0  0  0  0  # atno 11005 bound_to 11000
  144.7019  140.3691  143.7149 LP  0  0  0  0  0  0  0  0  0  0  0  0  # atno 17320 bound_to 7965
  145.7081  139.1678  143.2554 LP  0  0  0  0  0  0  0  0  0  0  0  0  # atno 17321 bound_to 7965
  140.7701  143.3419  151.2191 LP  0  0  0  0  0  0  0  0  0  0  0  0  # atno 17342 bound_to 10162
  139.7004  143.9542  152.2903 LP  0  0  0  0  0  0  0  0  0  0  0  0  # atno 17343 bound_to 10162
  157.5688  131.0946  150.9449 LP  0  0  0  0  0  0  0  0  0  0  0  0  # atno 17370 bound_to 10713
  156.9670  130.5476  149.5288 LP  0  0  0  0  0  0  0  0  0  0  0  0  # atno 17371 bound_to 10713
  140.7807  134.3728  157.5488 LP  0  0  0  0  0  0  0  0  0  0  0  0  # atno 17394 bound_to 11000
  139.8806  134.9080  156.2957 LP  0  0  0  0  0  0  0  0  0  0  0  0  # atno 17395 bound_to 11000

$$$$
