AV-unprocessed.smi:1840|AV-procd|sdf|7490|dock7
  -GOLD-   22720 9193D 1   1.00000     0.00000
 Structure written by MMmdl.
 43 44  0  0  0  0  0  0  0  0  1 V2000
  148.3247  140.0814  153.7282 C   0  0  0  0  0  0  0  0  0  0  0  0
  147.8109  138.9900  154.6770 C   0  0  2  0  0  0  0  0  0  0  0  0
  148.8085  138.7271  155.8256 C   0  0  0  0  0  0  0  0  0  0  0  0
  150.1911  138.7338  155.3810 N   0  0  0  0  0  0  0  0  0  0  0  0
  150.7847  137.9504  154.4133 C   0  0  0  0  0  0  0  0  0  0  0  0
  152.1036  138.2991  154.3617 C   0  0  0  0  0  0  0  0  0  0  0  0
  152.2214  139.3208  155.3452 C   0  0  0  0  0  0  0  0  0  0  0  0
  151.0743  139.5815  155.9508 N   0  0  0  0  0  0  0  0  0  0  0  0
  147.5727  137.7676  153.9105 N   0  0  0  0  0  0  0  0  0  0  0  0
  146.5295  136.9398  154.0664 C   0  0  0  0  0  0  0  0  0  0  0  0
  145.5987  137.1366  154.8475 O   0  0  0  0  0  0  0  0  0  0  0  0
  146.6415  135.8568  153.2861 N   0  0  0  0  0  0  0  0  0  0  0  0
  145.7151  134.7242  153.2606 C   0  0  1  0  0  0  0  0  0  0  0  0
  144.2876  135.2030  152.9263 C   0  0  0  0  0  0  0  0  0  0  0  0
  144.1591  135.6670  151.4652 C   0  0  0  0  0  0  0  0  0  0  0  0
  144.6193  134.5710  150.4923 C   0  0  0  0  0  0  0  0  0  0  0  0
  146.0521  134.1102  150.8047 C   0  0  0  0  0  0  0  0  0  0  0  0
  146.1909  133.6361  152.2665 C   0  0  1  0  0  0  0  0  0  0  0  0
  147.6150  133.1367  152.5678 C   0  0  0  0  0  0  0  0  0  0  0  0
  148.4832  141.0195  154.2610 H   0  0  0  0  0  0  0  0  0  0  0  0
  147.6092  140.2750  152.9283 H   0  0  0  0  0  0  0  0  0  0  0  0
  149.2715  139.7960  153.2683 H   0  0  0  0  0  0  0  0  0  0  0  0
  146.8726  139.3503  155.1034 H   0  0  0  0  0  0  0  0  0  0  0  0
  148.6916  139.4726  156.6134 H   0  0  0  0  0  0  0  0  0  0  0  0
  148.6059  137.7579  156.2839 H   0  0  0  0  0  0  0  0  0  0  0  0
  150.2275  137.2118  153.8559 H   0  0  0  0  0  0  0  0  0  0  0  0
  152.8686  137.8856  153.7214 H   0  0  0  0  0  0  0  0  0  0  0  0
  153.1007  139.8770  155.6353 H   0  0  0  0  0  0  0  0  0  0  0  0
  148.2797  137.5128  153.2367 H   0  0  0  0  0  0  0  0  0  0  0  0
  147.4443  135.7937  152.6778 H   0  0  0  0  0  0  0  0  0  0  0  0
  145.6903  134.2683  154.2523 H   0  0  0  0  0  0  0  0  0  0  0  0
  143.5872  134.3855  153.1019 H   0  0  0  0  0  0  0  0  0  0  0  0
  143.9894  136.0058  153.6018 H   0  0  0  0  0  0  0  0  0  0  0  0
  143.1252  135.9410  151.2532 H   0  0  0  0  0  0  0  0  0  0  0  0
  144.7530  136.5683  151.3096 H   0  0  0  0  0  0  0  0  0  0  0  0
  143.9404  133.7197  150.5546 H   0  0  0  0  0  0  0  0  0  0  0  0
  144.5619  134.9371  149.4668 H   0  0  0  0  0  0  0  0  0  0  0  0
  146.3295  133.3037  150.1251 H   0  0  0  0  0  0  0  0  0  0  0  0
  146.7482  134.9270  150.6096 H   0  0  0  0  0  0  0  0  0  0  0  0
  145.5266  132.7794  152.3904 H   0  0  0  0  0  0  0  0  0  0  0  0
  148.3600  133.9176  152.4137 H   0  0  0  0  0  0  0  0  0  0  0  0
  147.8793  132.2993  151.9217 H   0  0  0  0  0  0  0  0  0  0  0  0
  147.7005  132.7954  153.5998 H   0  0  0  0  0  0  0  0  0  0  0  0
  1  2  1  0  0  0  0
  1 20  1  0  0  0  0
  1 21  1  0  0  0  0
  1 22  1  0  0  0  0
  2  3  1  0  0  0  0
  2  9  1  0  0  0  0
  2 23  1  0  0  0  0
  3  4  1  0  0  0  0
  3 24  1  0  0  0  0
  3 25  1  0  0  0  0
  4  8  1  0  0  0  0
  4  5  1  0  0  0  0
  5  6  2  0  0  0  0
  5 26  1  0  0  0  0
  6  7  1  0  0  0  0
  6 27  1  0  0  0  0
  7  8  2  0  0  0  0
  7 28  1  0  0  0  0
  9 10  1  0  0  0  0
  9 29  1  0  0  0  0
 10 11  2  0  0  0  0
 10 12  1  0  0  0  0
 12 13  1  0  0  0  0
 12 30  1  0  0  0  0
 13 18  1  0  0  0  0
 13 14  1  0  0  0  0
 13 31  1  0  0  0  0
 14 15  1  0  0  0  0
 14 32  1  0  0  0  0
 14 33  1  0  0  0  0
 15 16  1  0  0  0  0
 15 34  1  0  0  0  0
 15 35  1  0  0  0  0
 16 17  1  0  0  0  0
 16 36  1  0  0  0  0
 16 37  1  0  0  0  0
 17 18  1  0  0  0  0
 17 38  1  0  0  0  0
 17 39  1  0  0  0  0
 18 19  1  0  0  0  0
 18 40  1  0  0  0  0
 19 41  1  0  0  0  0
 19 42  1  0  0  0  0
 19 43  1  0  0  0  0
M  END
> <s_m_source_file>
AV-unprocessed.smi

> <i_m_source_file_index>
1840

> <i_lp_mmshare_version>
43012

> <i_f3d_flags>
0

> <s_epik_input>
bjFbY0hdW2NIXVtjSF1uMVtDSDJdW0NAQEhdKFtDSDNdKVtOSF1DKD1PKVtOSF1bQ0BASF0yW0NIMl1bQ0gyXVtDSDJdW0NIMl1bQ0BIXTJbQ0gzXQ==

> <s_epik_cmdline>
J2VwaWtfcHl0aG9uJywgJy1waCcsICc3LjAnLCAnLXRuJywgJzgnLCAnLW1hJywgJzIwMCcsICctbWV0YWxfYmluZGluZycsICctaW1hZScsICc8aW5maWxlLm1hZT4nLCAnLW9tYWUnLCAnPG91dGZpbGUubWFlPic=

> <r_lp_tautomer_probability>
1

> <r_epik_Ionization_Penalty>
7.38659e-05

> <r_epik_Ionization_Penalty_Charging>
0

> <r_epik_Ionization_Penalty_Neutral>
7.38659e-05

> <r_epik_State_Penalty>
-0

> <r_epik_Charging_Adjusted_Penalty>
0

> <i_epik_Tot_Q>
0

> <i_epik_Tot_abs_Q>
0

> <r_epik_Metal_State_Penalty>
-0

> <b_epik_Metal_Only>
0

> <s_lp_Force_Field>
OPLS_2005

> <r_lp_Energy>
7.22709

> <b_lp_Chiralities_Consistent>
1

> <s_lp_Variant>
AV-unprocessed.smi:1840-3

> <Gold.Version>
5.8.1

> <Gold.Id.Protein>
6NUR|6NUR_protein|mol2

> <Gold.PLP.Fitness>
36.6335

> <Gold.PLP.PLP>
-28.3715

> <Gold.PLP.part.hbond>
-2.0000

> <Gold.PLP.part.metal>
0.0000

> <Gold.PLP.part.buried>
-2.3396

> <Gold.PLP.part.nonpolar>
-24.0198

> <Gold.PLP.part.repulsive>
0.0428

> <Gold.PLP.ligand.clash>
0.0000

> <Gold.PLP.ligand.torsion>
0.4897

> <Gold.PLP.Chemscore.Hbond>
2.0000

> <Gold.PLP.Chemscore.CHOScore>
1.0748

> <Gold.PLP.Chemscore.Metal>
0.0000

> <Gold.Chemscore.Hbonds>
donor molecule, donor type, donor heavy atom, donor atom, acceptor molecule, acceptor atom, score
      L1  H     9    29       P1  7948  1.00
      L1  H    12    30       P1  7948  1.00
      L1  C     5    26       P1  7948  1.00
      L1  C     5    26       P1  7949  0.08

> <Gold.PLP.Chemscore.Internal.Correction>
0.0172

> <Gold.Rescore>
     Score         DG    S(hbond)    S(metal)    S(lipo)     H(rot)  DE(clash)    DE(int)     intcor
     15.11     -15.91       1.91        0.00      68.85       1.56       0.23       0.57       ----

> <Gold.Chemscore.Fitness>
15.1143

> <Gold.Chemscore.DG>
-15.9129

> <Gold.Chemscore.ZeroCoef>
-5.4800

> <Gold.Chemscore.Hbond>
1.9058

> <Gold.Chemscore.Metal>
0.0000

> <Gold.Chemscore.Lipo>
68.8473

> <Gold.Chemscore.Internal_Hbond>
0.0000

> <Gold.Chemscore.DEClash>
0.2295

> <Gold.Chemscore.DEInternal>
0.5691

> <Gold.Chemscore.Rot>
1.5576

> <Gold.Chemscore.Internal.Correction>
   9.000000E+99

> <Gold.Chemscore.Hbonds>
donor molecule, donor type, donor heavy atom, donor atom, acceptor molecule, acceptor atom, score
      L1  H     9    29       P1  7948  0.92
      L1  H    12    30       P1  7948  1.00

> <Gold.Chemscore.Hbond.Weighted>
-6.3652

> <Gold.Chemscore.Metal.Weighted>
-0.0000

> <Gold.Chemscore.Lipo.Weighted>
-8.0551

> <Gold.Chemscore.Internal_Hbond.Weighted>
0.0000

> <Gold.Chemscore.DEClash.Weighted>
0.2295

> <Gold.Chemscore.DEInternal.Weighted>
0.5691

> <Gold.Chemscore.Rot.Weighted>
3.9875

> <Gold.Chemscore.Internal.Correction.Weighted>
   9.000000E+99

> <Gold.Protein.RotatedTorsions>
[ 6907 6896 6895 6894 ] final  -57.19 input  -60.11 | X-H torsion
[ 7974 7965 7964 7962 ] final   69.53 input  175.53 | X-H torsion
[ 8008 7997 7996 7995 ] final -175.42 input   59.86 | X-H torsion
[ 10167 10162 10161 10158 ] final  -94.05 input  -65.29 | X-H torsion
[ 10718 10713 10712 10709 ] final  151.27 input   66.30 | X-H torsion
[ 10763 10752 10751 10750 ] final   52.42 input  -60.55 | X-H torsion
[ 11005 11000 10999 10996 ] final -118.28 input  -57.11 | X-H torsion

> <Gold.Protein.ActiveResidues>
 VAL166  LYS551  ARG553  GLY616  TRP617  ASP618  TYR619  PRO620  LYS621  CYS622 
 ASP623  PHE694  ASN695  SER759  ASP760  ASP761  ALA762  ILE779  LEU786  VAL792 
 PHE793  MET794  SER795  GLU796  ALA797  LYS798  CYS799  TRP800  GLU811  SER814 

> <Gold.Protein.RotatedAtoms>
  150.8106  134.7258  159.6684 H   0  0  0  0  0  0  0  0  0  0  0  0  # atno 6907 bound_to 6896
  152.4226  134.5924  159.9987 H   0  0  0  0  0  0  0  0  0  0  0  0  # atno 6908 bound_to 6896
  151.6135  133.3308  159.3108 H   0  0  0  0  0  0  0  0  0  0  0  0  # atno 6909 bound_to 6896
  145.7893  139.2926  143.1219 H   0  0  0  0  0  0  0  0  0  0  0  0  # atno 7974 bound_to 7965
  155.9824  140.1184  157.0715 H   0  0  0  0  0  0  0  0  0  0  0  0  # atno 8008 bound_to 7997
  154.4186  140.1142  156.5521 H   0  0  0  0  0  0  0  0  0  0  0  0  # atno 8009 bound_to 7997
  155.6453  140.3473  155.4731 H   0  0  0  0  0  0  0  0  0  0  0  0  # atno 8010 bound_to 7997
  140.3184  143.3064  152.0073 H   0  0  0  0  0  0  0  0  0  0  0  0  # atno 10167 bound_to 10162
  157.2728  131.0820  151.1588 H   0  0  0  0  0  0  0  0  0  0  0  0  # atno 10718 bound_to 10713
  152.9789  135.5813  154.4575 H   0  0  0  0  0  0  0  0  0  0  0  0  # atno 10763 bound_to 10752
  154.4155  135.2770  155.2011 H   0  0  0  0  0  0  0  0  0  0  0  0  # atno 10764 bound_to 10752
  154.3782  135.6152  153.5830 H   0  0  0  0  0  0  0  0  0  0  0  0  # atno 10765 bound_to 10752
  141.0297  134.0000  157.3162 H   0  0  0  0  0  0  0  0  0  0  0  0  # atno 11005 bound_to 11000
  145.9993  140.8534  143.0027 LP  0  0  0  0  0  0  0  0  0  0  0  0  # atno 17320 bound_to 7965
  144.6784  140.2329  143.7353 LP  0  0  0  0  0  0  0  0  0  0  0  0  # atno 17321 bound_to 7965
  139.4879  144.6330  151.7031 LP  0  0  0  0  0  0  0  0  0  0  0  0  # atno 17342 bound_to 10162
  140.5506  144.0431  150.6125 LP  0  0  0  0  0  0  0  0  0  0  0  0  # atno 17343 bound_to 10162
  157.3053  130.6863  149.6186 LP  0  0  0  0  0  0  0  0  0  0  0  0  # atno 17370 bound_to 10713
  155.9663  130.4380  150.5198 LP  0  0  0  0  0  0  0  0  0  0  0  0  # atno 17371 bound_to 10713
  139.9199  135.0200  156.8026 LP  0  0  0  0  0  0  0  0  0  0  0  0  # atno 17394 bound_to 11000
  140.6429  133.9802  155.7716 LP  0  0  0  0  0  0  0  0  0  0  0  0  # atno 17395 bound_to 11000

$$$$
