#       Name:                AV-unprocessed.smi:3234
#       Creating user name   scv26
#       Creation time:       Fri Mar 27 18:21:37 2020


#       File generated by GOLD software.
#

@<TRIPOS>MOLECULE
AV-unprocessed.smi:3234
    40    42     1
SMALL
NO_CHARGES


@<TRIPOS>ATOM
      1 ****        -0.5671   2.2305  -0.0550 O.2            1 S1                 0.0000
      2 ****        -1.1034   1.1423   0.1513 C.2            1 S1                 0.0000
      3 ****        -2.4233   0.9450   0.3158 N.am           1 S1                 0.0000
      4 ****        -3.4683   1.9097   0.3168 C.ar           1 S1                 0.0000
      5 ****        -4.7772   1.4567   0.0385 C.ar           1 S1                 0.0000
      6 ****        -5.8473   2.3746   0.0435 C.ar           1 S1                 0.0000
      7 ****        -5.6164   3.6749   0.3243 N.pl3          1 S1                 1.0000
      8 ****        -4.3862   4.1525   0.6107 C.ar           1 S1                 0.0000
      9 ****        -3.2770   3.2822   0.6199 C.ar           1 S1                 0.0000
     10 ****        -0.4234  -0.0115   0.2184 N.am           1 S1                 0.0000
     11 ****         1.0234  -0.1299   0.0645 C.3            1 S1                 0.0000
     12 ****         1.5178  -0.0171  -1.3804 C.3            1 S1                 0.0000
     13 ****         2.7929  -0.8773  -1.4210 C.3            1 S1                 0.0000
     14 ****         2.8698  -1.5931  -0.1259 N.4            1 S1                 1.0000
     15 ****         3.4042  -2.9682  -0.2199 C.3            1 S1                 0.0000
     16 ****         4.1035  -3.4314   1.0359 C.3            1 S1                 0.0000
     17 ****         4.9122  -3.0346  -0.1802 C.3            1 S1                 0.0000
     18 ****         1.5308  -1.5064   0.4834 C.3            1 S1                 0.0000
     19 ****        -2.7223  -0.0164   0.3910 H              1 S1                 0.0000
     20 ****        -4.9638   0.4158  -0.1838 H              1 S1                 0.0000
     21 ****        -6.8734   2.1092  -0.1652 H              1 S1                 0.0000
     22 ****        -4.3264   5.2089   0.8283 H              1 S1                 0.0000
     23 ****        -2.3066   3.6824   0.8708 H              1 S1                 0.0000
     24 ****        -0.9391  -0.8632   0.3866 H              1 S1                 0.0000
     25 ****         1.5218   0.6249   0.6766 H              1 S1                 0.0000
     26 ****         0.7793  -0.4290  -2.0700 H              1 S1                 0.0000
     27 ****         1.7028   1.0170  -1.6729 H              1 S1                 0.0000
     28 ****         2.7478  -1.5756  -2.2582 H              1 S1                 0.0000
     29 ****         3.6863  -0.2655  -1.5485 H              1 S1                 0.0000
     30 ****         2.8363  -3.6704  -0.8279 H              1 S1                 0.0000
     31 ****         4.1233  -2.7606   1.8930 H              1 S1                 0.0000
     32 ****         4.0538  -4.4915   1.2766 H              1 S1                 0.0000
     33 ****         5.3950  -3.8337  -0.7392 H              1 S1                 0.0000
     34 ****         5.4688  -2.1002  -0.1308 H              1 S1                 0.0000
     35 ****         1.5750  -1.6261   1.5665 H              1 S1                 0.0000
     36 ****         0.8900  -2.2919   0.0776 H              1 S1                 0.0000
     37 ****         3.4906  -1.0574   0.4640 H              1 S1                 0.0000
     38 ****        -6.4048   4.3229   0.3247 H              1 S1                 0.0000
     39 ****        -1.1236   3.0594  -0.1118 LP             1 S1                 0.0000
     40 ****         0.4252   2.2859  -0.1658 LP             1 S1                 0.0000
@<TRIPOS>BOND
    1    1    2 2     
    2    2    3 am    
    3    2   10 am    
    4    3    4 1     
    5    3   19 1     
    6    4    9 ar    
    7    4    5 ar    
    8    5    6 ar    
    9    5   20 1     
   10    6    7 ar    
   11    6   21 1     
   12    7    8 ar    
   13    7   38 1     
   14    8    9 ar    
   15    8   22 1     
   16    9   23 1     
   17   10   11 1     
   18   10   24 1     
   19   11   18 1     
   20   11   12 1     
   21   11   25 1     
   22   12   13 1     
   23   12   26 1     
   24   12   27 1     
   25   13   14 1     
   26   13   28 1     
   27   13   29 1     
   28   14   15 1     
   29   14   18 1     
   30   14   37 1     
   31   15   17 1     
   32   15   16 1     
   33   15   30 1     
   34   16   17 1     
   35   16   31 1     
   36   16   32 1     
   37   17   33 1     
   38   17   34 1     
   39   18   35 1     
   40   18   36 1     
   41    1   39 1     
   42    1   40 1     
@<TRIPOS>SUBSTRUCTURE
      1 S1             1
@<TRIPOS>SET
LONE_PAIRS      STATIC     ATOMS    <user>   **** ""
2 39 40
DONOR_HYDROGENS      STATIC     ATOMS    <user>   **** ""
4 19 38 24 37
ATOM$BLUE        STATIC     ATOMS    COLORGROUP SYSTEM
2 39 40
ATOM$RED        STATIC     ATOMS    COLORGROUP SYSTEM
4 19 38 24 37
