AV-unprocessed.smi:1031|AV-procd|sdf|4481|dock4
  -GOLD-   22720 2463D 1   1.00000     0.00000
 Structure written by MMmdl.
 35 36  0  0  0  0  0  0  0  0  1 V2000
  149.6220  140.1065  157.4852 C   0  0  0  0  0  0  0  0  0  0  0  0
  150.7346  140.7226  156.6264 C   0  0  1  0  0  0  0  0  0  0  0  0
  150.1587  141.6940  155.5737 C   0  0  0  0  0  0  0  0  0  0  0  0
  149.1757  141.0679  154.7074 N   0  0  0  0  0  0  0  0  0  0  0  0
  148.0604  141.6344  154.1265 C   0  0  0  0  0  0  0  0  0  0  0  0
  147.4513  140.6634  153.3848 C   0  0  0  0  0  0  0  0  0  0  0  0
  148.2771  139.5212  153.5806 C   0  0  0  0  0  0  0  0  0  0  0  0
  149.3060  139.7652  154.3761 N   0  0  0  0  0  0  0  0  0  0  0  0
  151.6834  141.4079  157.5035 N   0  0  0  0  0  0  0  0  0  0  0  0
  151.3646  142.1937  158.5446 C   0  0  0  0  0  0  0  0  0  0  0  0
  150.2044  142.4398  158.8766 O   0  0  0  0  0  0  0  0  0  0  0  0
  152.5414  142.7825  159.3389 C   0  0  0  0  0  0  0  0  0  0  0  0
  152.4950  142.3689  160.8289 C   0  0  0  0  0  0  0  0  0  0  0  0
  152.3871  143.6614  161.6486 C   0  0  0  0  0  0  0  0  0  0  0  0
  151.8723  144.7162  160.6737 C   0  0  0  0  0  0  0  0  0  0  0  0
  152.5102  144.3230  159.3425 C   0  0  0  0  0  0  0  0  0  0  0  0
  148.9098  139.5570  156.8691 H   0  0  0  0  0  0  0  0  0  0  0  0
  149.0689  140.8724  158.0300 H   0  0  0  0  0  0  0  0  0  0  0  0
  150.0311  139.4075  158.2156 H   0  0  0  0  0  0  0  0  0  0  0  0
  151.2331  139.9002  156.1101 H   0  0  0  0  0  0  0  0  0  0  0  0
  149.6803  142.5411  156.0678 H   0  0  0  0  0  0  0  0  0  0  0  0
  150.9569  142.1073  154.9554 H   0  0  0  0  0  0  0  0  0  0  0  0
  147.8010  142.6715  154.2812 H   0  0  0  0  0  0  0  0  0  0  0  0
  146.5541  140.7553  152.7911 H   0  0  0  0  0  0  0  0  0  0  0  0
  148.1598  138.5284  153.1716 H   0  0  0  0  0  0  0  0  0  0  0  0
  152.6636  141.2649  157.3074 H   0  0  0  0  0  0  0  0  0  0  0  0
  153.4764  142.4444  158.8884 H   0  0  0  0  0  0  0  0  0  0  0  0
  151.6412  141.7244  161.0461 H   0  0  0  0  0  0  0  0  0  0  0  0
  153.3861  141.8073  161.1115 H   0  0  0  0  0  0  0  0  0  0  0  0
  151.7422  143.5513  162.5211 H   0  0  0  0  0  0  0  0  0  0  0  0
  153.3770  143.9499  162.0045 H   0  0  0  0  0  0  0  0  0  0  0  0
  150.7858  144.6530  160.5990 H   0  0  0  0  0  0  0  0  0  0  0  0
  152.1279  145.7312  160.9789 H   0  0  0  0  0  0  0  0  0  0  0  0
  153.5304  144.7063  159.2989 H   0  0  0  0  0  0  0  0  0  0  0  0
  151.9734  144.7507  158.4940 H   0  0  0  0  0  0  0  0  0  0  0  0
  1  2  1  0  0  0  0
  1 17  1  0  0  0  0
  1 18  1  0  0  0  0
  1 19  1  0  0  0  0
  2  3  1  0  0  0  0
  2  9  1  0  0  0  0
  2 20  1  0  0  0  0
  3  4  1  0  0  0  0
  3 21  1  0  0  0  0
  3 22  1  0  0  0  0
  4  8  1  0  0  0  0
  4  5  1  0  0  0  0
  5  6  2  0  0  0  0
  5 23  1  0  0  0  0
  6  7  1  0  0  0  0
  6 24  1  0  0  0  0
  7  8  2  0  0  0  0
  7 25  1  0  0  0  0
  9 10  1  0  0  0  0
  9 26  1  0  0  0  0
 10 11  2  0  0  0  0
 10 12  1  0  0  0  0
 12 16  1  0  0  0  0
 12 13  1  0  0  0  0
 12 27  1  0  0  0  0
 13 14  1  0  0  0  0
 13 28  1  0  0  0  0
 13 29  1  0  0  0  0
 14 15  1  0  0  0  0
 14 30  1  0  0  0  0
 14 31  1  0  0  0  0
 15 16  1  0  0  0  0
 15 32  1  0  0  0  0
 15 33  1  0  0  0  0
 16 34  1  0  0  0  0
 16 35  1  0  0  0  0
M  END
> <s_m_source_file>
AV-unprocessed.smi

> <i_m_source_file_index>
1031

> <i_lp_mmshare_version>
43012

> <i_f3d_flags>
0

> <s_epik_input>
bjFbY0hdW2NIXVtjSF1uMVtDSDJdW0NAQEhdKFtDSDNdKVtOSF1DKD1PKVtDSF0yW0NIMl1bQ0gyXVtDSDJdW0NIMl0y

> <s_epik_cmdline>
J2VwaWtfcHl0aG9uJywgJy1waCcsICc3LjAnLCAnLXRuJywgJzgnLCAnLW1hJywgJzIwMCcsICctbWV0YWxfYmluZGluZycsICctaW1hZScsICc8aW5maWxlLm1hZT4nLCAnLW9tYWUnLCAnPG91dGZpbGUubWFlPic=

> <r_lp_tautomer_probability>
1

> <r_epik_Ionization_Penalty>
0.000326659

> <r_epik_Ionization_Penalty_Charging>
0

> <r_epik_Ionization_Penalty_Neutral>
0.000326659

> <r_epik_State_Penalty>
-0

> <r_epik_Charging_Adjusted_Penalty>
0

> <i_epik_Tot_Q>
0

> <i_epik_Tot_abs_Q>
0

> <r_epik_Metal_State_Penalty>
-0

> <b_epik_Metal_Only>
0

> <s_lp_Force_Field>
OPLS_2005

> <r_lp_Energy>
19.4397

> <b_lp_Chiralities_Consistent>
1

> <s_lp_Variant>
AV-unprocessed.smi:1031-2

> <Gold.Version>
5.8.1

> <Gold.Id.Protein>
6NUR|6NUR_protein|mol2

> <Gold.PLP.Fitness>
40.5832

> <Gold.PLP.PLP>
-38.6110

> <Gold.PLP.part.hbond>
-0.6075

> <Gold.PLP.part.metal>
0.0000

> <Gold.PLP.part.buried>
-2.1684

> <Gold.PLP.part.nonpolar>
-35.3736

> <Gold.PLP.part.repulsive>
0.2664

> <Gold.PLP.ligand.clash>
0.0000

> <Gold.PLP.ligand.torsion>
0.6211

> <Gold.PLP.Chemscore.Hbond>
0.0000

> <Gold.PLP.Chemscore.CHOScore>
1.0647

> <Gold.PLP.Chemscore.Metal>
0.0000

> <Gold.Chemscore.Hbonds>
donor molecule, donor type, donor heavy atom, donor atom, acceptor molecule, acceptor atom, score
      L1  C     5    23       P1  8028  0.68
      L1  C     7    25       P1  7948  0.47

> <Gold.PLP.Chemscore.Internal.Correction>
0.0204

> <Gold.Rescore>
     Score         DG    S(hbond)    S(metal)    S(lipo)     H(rot)  DE(clash)    DE(int)     intcor
     11.24     -12.98       0.00        0.00      97.21       1.51       0.03       1.71       ----

> <Gold.Chemscore.Fitness>
11.2396

> <Gold.Chemscore.DG>
-12.9763

> <Gold.Chemscore.ZeroCoef>
-5.4800

> <Gold.Chemscore.Hbond>
0.0000

> <Gold.Chemscore.Metal>
0.0000

> <Gold.Chemscore.Lipo>
97.2106

> <Gold.Chemscore.Internal_Hbond>
0.0000

> <Gold.Chemscore.DEClash>
0.0284

> <Gold.Chemscore.DEInternal>
1.7083

> <Gold.Chemscore.Rot>
1.5146

> <Gold.Chemscore.Internal.Correction>
   9.000000E+99

> <Gold.Chemscore.Hbond.Weighted>
-0.0000

> <Gold.Chemscore.Metal.Weighted>
-0.0000

> <Gold.Chemscore.Lipo.Weighted>
-11.3736

> <Gold.Chemscore.Internal_Hbond.Weighted>
0.0000

> <Gold.Chemscore.DEClash.Weighted>
0.0284

> <Gold.Chemscore.DEInternal.Weighted>
1.7083

> <Gold.Chemscore.Rot.Weighted>
3.8773

> <Gold.Chemscore.Internal.Correction.Weighted>
   9.000000E+99

> <Gold.Protein.RotatedTorsions>
[ 6907 6896 6895 6894 ] final -106.20 input  -60.11 | X-H torsion
[ 7974 7965 7964 7962 ] final  -67.90 input  175.53 | X-H torsion
[ 8008 7997 7996 7995 ] final -125.85 input   59.86 | X-H torsion
[ 10167 10162 10161 10158 ] final  117.56 input  -65.29 | X-H torsion
[ 10718 10713 10712 10709 ] final   73.78 input   66.30 | X-H torsion
[ 10763 10752 10751 10750 ] final  137.97 input  -60.55 | X-H torsion
[ 11005 11000 10999 10996 ] final -157.12 input  -57.11 | X-H torsion

> <Gold.Protein.ActiveResidues>
 VAL166  LYS551  ARG553  GLY616  TRP617  ASP618  TYR619  PRO620  LYS621  CYS622 
 ASP623  PHE694  ASN695  SER759  ASP760  ASP761  ALA762  ILE779  LEU786  VAL792 
 PHE793  MET794  SER795  GLU796  ALA797  LYS798  CYS799  TRP800  GLU811  SER814 

> <Gold.Protein.RotatedAtoms>
  150.7377  134.0011  159.3638 H   0  0  0  0  0  0  0  0  0  0  0  0  # atno 6907 bound_to 6896
  151.7965  135.0719  160.0404 H   0  0  0  0  0  0  0  0  0  0  0  0  # atno 6908 bound_to 6896
  152.3171  133.5777  159.5755 H   0  0  0  0  0  0  0  0  0  0  0  0  # atno 6909 bound_to 6896
  145.7234  140.9029  143.0618 H   0  0  0  0  0  0  0  0  0  0  0  0  # atno 7974 bound_to 7965
  155.2200  140.0421  157.2947 H   0  0  0  0  0  0  0  0  0  0  0  0  # atno 8008 bound_to 7997
  154.5955  140.2438  155.7833 H   0  0  0  0  0  0  0  0  0  0  0  0  # atno 8009 bound_to 7997
  156.2287  140.2945  156.0143 H   0  0  0  0  0  0  0  0  0  0  0  0  # atno 8010 bound_to 7997
  139.6170  144.7094  151.2717 H   0  0  0  0  0  0  0  0  0  0  0  0  # atno 10167 bound_to 10162
  157.6563  130.9645  150.1118 H   0  0  0  0  0  0  0  0  0  0  0  0  # atno 10718 bound_to 10713
  153.8819  135.3043  155.3445 H   0  0  0  0  0  0  0  0  0  0  0  0  # atno 10763 bound_to 10752
  154.7757  135.4862  153.9743 H   0  0  0  0  0  0  0  0  0  0  0  0  # atno 10764 bound_to 10752
  153.1346  135.6811  153.9220 H   0  0  0  0  0  0  0  0  0  0  0  0  # atno 10765 bound_to 10752
  140.6681  134.4277  157.5232 H   0  0  0  0  0  0  0  0  0  0  0  0  # atno 11005 bound_to 11000
  144.6911  139.9232  143.7469 LP  0  0  0  0  0  0  0  0  0  0  0  0  # atno 17320 bound_to 7965
  146.0605  139.3599  143.0584 LP  0  0  0  0  0  0  0  0  0  0  0  0  # atno 17321 bound_to 7965
  140.7357  143.6728  150.8067 LP  0  0  0  0  0  0  0  0  0  0  0  0  # atno 17342 bound_to 10162
  140.0332  143.5422  152.2751 LP  0  0  0  0  0  0  0  0  0  0  0  0  # atno 17343 bound_to 10162
  156.2012  130.3660  149.8786 LP  0  0  0  0  0  0  0  0  0  0  0  0  # atno 17370 bound_to 10713
  156.6689  130.8812  151.3559 LP  0  0  0  0  0  0  0  0  0  0  0  0  # atno 17371 bound_to 10713
  139.8991  134.8599  156.1976 LP  0  0  0  0  0  0  0  0  0  0  0  0  # atno 17394 bound_to 11000
  141.0414  133.6936  156.1604 LP  0  0  0  0  0  0  0  0  0  0  0  0  # atno 17395 bound_to 11000

$$$$
