AV-unprocessed.smi:218|AV-procd|sdf|1676|dock9
  -GOLD-   2262020103D 1   1.00000     0.00000
 Structure written by MMmdl.
 54 57  0  0  0  0  0  0  0  0  1 V2000
  153.0351  142.6090  161.1540 C   0  0  0  0  0  0  0  0  0  0  0  0
  152.7665  141.4742  160.1581 C   0  0  0  0  0  0  0  0  0  0  0  0
  154.0057  140.5781  159.9887 C   0  0  0  0  0  0  0  0  0  0  0  0
  152.4241  142.0865  158.9130 O   0  0  0  0  0  0  0  0  0  0  0  0
  151.8380  141.3389  157.9096 C   0  0  0  0  0  0  0  0  0  0  0  0
  150.5823  141.7496  157.4172 C   0  0  0  0  0  0  0  0  0  0  0  0
  149.9737  140.9993  156.3906 C   0  0  0  0  0  0  0  0  0  0  0  0
  148.6286  141.4100  155.8268 C   0  0  0  0  0  0  0  0  0  0  0  0
  147.5171  141.0863  156.7108 N   0  0  0  0  0  0  0  0  0  0  0  0
  146.5004  140.3174  156.2662 C   0  0  0  0  0  0  0  0  0  0  0  0
  145.2157  140.5841  156.6181 N   0  0  0  0  0  0  0  0  0  0  0  0
  144.2259  139.8090  156.1652 C   0  0  0  0  0  0  0  0  0  0  0  0
  144.3013  138.7418  155.3674 N   0  0  0  0  0  0  0  0  0  0  0  0
  145.5893  138.4691  155.0086 C   0  0  0  0  0  0  0  0  0  0  0  0
  146.7367  139.2053  155.4171 C   0  0  0  0  0  0  0  0  0  0  0  0
  147.8795  138.6411  154.8663 N   0  0  0  0  0  0  0  0  0  0  0  0
  147.4290  137.6314  154.1718 C   0  0  0  0  0  0  0  0  0  0  0  0
  146.0636  137.4521  154.2018 N   0  0  0  0  0  0  0  0  0  0  0  0
  145.2783  136.3823  153.5023 C   0  0  2  0  0  0  0  0  0  0  0  0
  146.1263  135.3231  153.1652 O   0  0  0  0  0  0  0  0  0  0  0  0
  146.1351  135.1154  151.7525 C   0  0  1  0  0  0  0  0  0  0  0  0
  146.3421  133.6239  151.4471 C   0  0  0  0  0  0  0  0  0  0  0  0
  145.7482  133.2942  150.2099 O   0  0  0  0  0  0  0  0  0  0  0  0
  144.7644  135.6425  151.3244 C   0  0  2  0  0  0  0  0  0  0  0  0
  144.6812  135.9423  149.9442 O   0  0  0  0  0  0  0  0  0  0  0  0
  144.5985  136.8695  152.2086 C   0  0  2  0  0  0  0  0  0  0  0  0
  145.1998  138.0288  151.6510 O   0  0  0  0  0  0  0  0  0  0  0  0
  150.6427  139.8590  155.9011 C   0  0  0  0  0  0  0  0  0  0  0  0
  151.8914  139.5242  156.4589 C   0  0  0  0  0  0  0  0  0  0  0  0
  152.4811  140.2414  157.4385 N   0  0  0  0  0  0  0  0  0  0  0  0
  144.5632  136.0331  154.2482 H   0  0  0  0  0  0  0  0  0  0  0  0
  146.9174  135.7229  151.2943 H   0  0  0  0  0  0  0  0  0  0  0  0
  143.9960  134.9095  151.5759 H   0  0  0  0  0  0  0  0  0  0  0  0
  143.5487  137.0883  152.4063 H   0  0  0  0  0  0  0  0  0  0  0  0
  153.2909  142.2164  162.1383 H   0  0  0  0  0  0  0  0  0  0  0  0
  152.1554  143.2428  161.2690 H   0  0  0  0  0  0  0  0  0  0  0  0
  153.8590  143.2409  160.8211 H   0  0  0  0  0  0  0  0  0  0  0  0
  151.9336  140.8898  160.5522 H   0  0  0  0  0  0  0  0  0  0  0  0
  154.3030  140.1392  160.9412 H   0  0  0  0  0  0  0  0  0  0  0  0
  154.8525  141.1484  159.6060 H   0  0  0  0  0  0  0  0  0  0  0  0
  153.8211  139.7575  159.2960 H   0  0  0  0  0  0  0  0  0  0  0  0
  150.1007  142.6288  157.8196 H   0  0  0  0  0  0  0  0  0  0  0  0
  148.6474  142.4854  155.6454 H   0  0  0  0  0  0  0  0  0  0  0  0
  148.4758  140.9227  154.8627 H   0  0  0  0  0  0  0  0  0  0  0  0
  147.5820  141.4368  157.6557 H   0  0  0  0  0  0  0  0  0  0  0  0
  143.2317  140.0822  156.4867 H   0  0  0  0  0  0  0  0  0  0  0  0
  148.0877  136.9817  153.6136 H   0  0  0  0  0  0  0  0  0  0  0  0
  147.4005  133.3624  151.4435 H   0  0  0  0  0  0  0  0  0  0  0  0
  145.8603  133.0139  152.2118 H   0  0  0  0  0  0  0  0  0  0  0  0
  145.9779  133.9593  149.5788 H   0  0  0  0  0  0  0  0  0  0  0  0
  144.2638  136.7856  149.8508 H   0  0  0  0  0  0  0  0  0  0  0  0
  144.6062  138.7558  151.7616 H   0  0  0  0  0  0  0  0  0  0  0  0
  150.2108  139.2527  155.1182 H   0  0  0  0  0  0  0  0  0  0  0  0
  152.4316  138.6571  156.1086 H   0  0  0  0  0  0  0  0  0  0  0  0
  1  2  1  0  0  0  0
  1 35  1  0  0  0  0
  1 36  1  0  0  0  0
  1 37  1  0  0  0  0
  2  3  1  0  0  0  0
  2  4  1  0  0  0  0
  2 38  1  0  0  0  0
  3 39  1  0  0  0  0
  3 40  1  0  0  0  0
  3 41  1  0  0  0  0
  4  5  1  0  0  0  0
  5 30  1  0  0  0  0
  5  6  2  0  0  0  0
  6  7  1  0  0  0  0
  6 42  1  0  0  0  0
  7  8  1  0  0  0  0
  7 28  2  0  0  0  0
  8  9  1  0  0  0  0
  8 43  1  0  0  0  0
  8 44  1  0  0  0  0
  9 10  1  0  0  0  0
  9 45  1  0  0  0  0
 10 15  1  0  0  0  0
 10 11  2  0  0  0  0
 11 12  1  0  0  0  0
 12 13  2  0  0  0  0
 12 46  1  0  0  0  0
 13 14  1  0  0  0  0
 14 18  1  0  0  0  0
 14 15  2  0  0  0  0
 15 16  1  0  0  0  0
 16 17  2  0  0  0  0
 17 18  1  0  0  0  0
 17 47  1  0  0  0  0
 18 19  1  0  0  0  0
 19 31  1  0  0  0  0
 19 26  1  0  0  0  0
 19 20  1  0  0  0  0
 20 21  1  0  0  0  0
 21 32  1  0  0  0  0
 21 22  1  0  0  0  0
 21 24  1  0  0  0  0
 22 23  1  0  0  0  0
 22 48  1  0  0  0  0
 22 49  1  0  0  0  0
 23 50  1  0  0  0  0
 24 33  1  0  0  0  0
 24 25  1  0  0  0  0
 24 26  1  0  0  0  0
 25 51  1  0  0  0  0
 26 34  1  0  0  0  0
 26 27  1  0  0  0  0
 27 52  1  0  0  0  0
 28 29  1  0  0  0  0
 28 53  1  0  0  0  0
 29 30  2  0  0  0  0
 29 54  1  0  0  0  0
M  END
> <s_m_source_file>
AV-unprocessed.smi

> <i_m_source_file_index>
218

> <i_lp_mmshare_version>
43012

> <i_f3d_flags>
0

> <s_epik_input>
W0NIM11bQ0hdKFtDSDNdKU9jMVtjSF1jKFtjSF1bY0hdbjEpW0NIMl1bTkhdYyhuW2NIXW4yKWMoYzIzKW5bY0hdbjNbQ0BASF00T1tDQEhdKFtDSDJdW09IXSlbQ0BASF0oW09IXSlbQ0BIXTRbT0hd

> <s_epik_cmdline>
J2VwaWtfcHl0aG9uJywgJy1waCcsICc3LjAnLCAnLXRuJywgJzgnLCAnLW1hJywgJzIwMCcsICctbWV0YWxfYmluZGluZycsICctaW1hZScsICc8aW5maWxlLm1hZT4nLCAnLW9tYWUnLCAnPG91dGZpbGUubWFlPic=

> <r_lp_tautomer_probability>
1

> <r_epik_Ionization_Penalty>
0.00457014

> <r_epik_Ionization_Penalty_Charging>
0

> <r_epik_Ionization_Penalty_Neutral>
0.00457014

> <r_epik_State_Penalty>
-0

> <r_epik_Charging_Adjusted_Penalty>
0

> <i_epik_Tot_Q>
0

> <i_epik_Tot_abs_Q>
0

> <r_epik_Metal_State_Penalty>
-0

> <b_epik_Metal_Only>
0

> <s_epik_Chemistry_Notes>
This compound contains an acetal/aminal-like group ( X-CH(R)-Y where X, Y are N, S, or O) that may be acid/base labile, releasing an aldehyde.

> <s_lp_Force_Field>
OPLS_2005

> <r_lp_Energy>
48.139

> <b_lp_Chiralities_Consistent>
1

> <s_lp_Variant>
AV-unprocessed.smi:218-15

> <Gold.Version>
5.8.1

> <Gold.Id.Protein>
6NUR|6NUR_protein|mol2

> <Gold.PLP.Fitness>
47.5261

> <Gold.PLP.PLP>
-35.4168

> <Gold.PLP.part.hbond>
-5.3685

> <Gold.PLP.part.metal>
0.0000

> <Gold.PLP.part.buried>
-2.1982

> <Gold.PLP.part.nonpolar>
-27.9297

> <Gold.PLP.part.repulsive>
0.3161

> <Gold.PLP.ligand.clash>
0.0000

> <Gold.PLP.ligand.torsion>
1.4199

> <Gold.PLP.Chemscore.Hbond>
3.9280

> <Gold.PLP.Chemscore.CHOScore>
1.0000

> <Gold.PLP.Chemscore.Metal>
0.0000

> <Gold.Chemscore.Hbonds>
donor molecule, donor type, donor heavy atom, donor atom, acceptor molecule, acceptor atom, score
      L1  H    23    50       P1  7921  0.74
      L1  H    25    51       P1 10171  1.00
      L1  H    27    52       P1 10175  0.96
      P1  H  7997  8009       L1    30  0.86
      L1  C    17    47       P1  7948  1.00

> <Gold.PLP.Chemscore.Internal.Correction>
0.1650

> <Gold.Rescore>
     Score         DG    S(hbond)    S(metal)    S(lipo)     H(rot)  DE(clash)    DE(int)     intcor
     10.58     -13.52       3.45        0.00      77.46       4.90       0.38       2.56       ----

> <Gold.Chemscore.Fitness>
10.5764

> <Gold.Chemscore.DG>
-13.5238

> <Gold.Chemscore.ZeroCoef>
-5.4800

> <Gold.Chemscore.Hbond>
3.4527

> <Gold.Chemscore.Metal>
0.0000

> <Gold.Chemscore.Lipo>
77.4645

> <Gold.Chemscore.Internal_Hbond>
0.0000

> <Gold.Chemscore.DEClash>
0.3827

> <Gold.Chemscore.DEInternal>
2.5646

> <Gold.Chemscore.Rot>
4.9029

> <Gold.Chemscore.Internal.Correction>
   9.000000E+99

> <Gold.Chemscore.Hbonds>
donor molecule, donor type, donor heavy atom, donor atom, acceptor molecule, acceptor atom, score
      L1  H    23    50       P1  7921  0.16
      L1  H    25    51       P1 10171  1.00
      L1  H    27    52       P1 10175  0.91
      P1  H  7997  8009       L1    30  0.18

> <Gold.Chemscore.Hbond.Weighted>
-11.5320

> <Gold.Chemscore.Metal.Weighted>
-0.0000

> <Gold.Chemscore.Lipo.Weighted>
-9.0634

> <Gold.Chemscore.Internal_Hbond.Weighted>
0.0000

> <Gold.Chemscore.DEClash.Weighted>
0.3827

> <Gold.Chemscore.DEInternal.Weighted>
2.5646

> <Gold.Chemscore.Rot.Weighted>
12.5515

> <Gold.Chemscore.Internal.Correction.Weighted>
   9.000000E+99

> <Gold.Protein.RotatedTorsions>
[ 6907 6896 6895 6894 ] final  -92.04 input  -60.11 | X-H torsion
[ 7974 7965 7964 7962 ] final -153.56 input  175.53 | X-H torsion
[ 8008 7997 7996 7995 ] final  169.09 input   59.86 | X-H torsion
[ 10167 10162 10161 10158 ] final   59.25 input  -65.29 | X-H torsion
[ 10718 10713 10712 10709 ] final  155.99 input   66.30 | X-H torsion
[ 10763 10752 10751 10750 ] final  127.94 input  -60.55 | X-H torsion
[ 11005 11000 10999 10996 ] final   49.12 input  -57.11 | X-H torsion

> <Gold.Protein.ActiveResidues>
 VAL166  LYS551  ARG553  GLY616  TRP617  ASP618  TYR619  PRO620  LYS621  CYS622 
 ASP623  PHE694  ASN695  SER759  ASP760  ASP761  ALA762  ILE779  LEU786  VAL792 
 PHE793  MET794  SER795  GLU796  ALA797  LYS798  CYS799  TRP800  GLU811  SER814 

> <Gold.Protein.RotatedAtoms>
  150.6900  134.2184  159.4386 H   0  0  0  0  0  0  0  0  0  0  0  0  # atno 6907 bound_to 6896
  152.0142  134.9857  160.0578 H   0  0  0  0  0  0  0  0  0  0  0  0  # atno 6908 bound_to 6896
  152.1459  133.4457  159.4826 H   0  0  0  0  0  0  0  0  0  0  0  0  # atno 6909 bound_to 6896
  144.7734  140.4509  143.5891 H   0  0  0  0  0  0  0  0  0  0  0  0  # atno 7974 bound_to 7965
  156.1488  140.1573  156.8803 H   0  0  0  0  0  0  0  0  0  0  0  0  # atno 8008 bound_to 7997
  154.5052  140.0815  156.7917 H   0  0  0  0  0  0  0  0  0  0  0  0  # atno 8009 bound_to 7997
  155.3936  140.3411  155.4255 H   0  0  0  0  0  0  0  0  0  0  0  0  # atno 8010 bound_to 7997
  140.1784  144.4206  150.6627 H   0  0  0  0  0  0  0  0  0  0  0  0  # atno 10167 bound_to 10162
  157.2110  131.0697  151.1970 H   0  0  0  0  0  0  0  0  0  0  0  0  # atno 10718 bound_to 10713
  153.7175  135.3258  155.3259 H   0  0  0  0  0  0  0  0  0  0  0  0  # atno 10763 bound_to 10752
  154.8366  135.4491  154.1251 H   0  0  0  0  0  0  0  0  0  0  0  0  # atno 10764 bound_to 10752
  153.2362  135.6966  153.7913 H   0  0  0  0  0  0  0  0  0  0  0  0  # atno 10765 bound_to 10752
  140.1131  134.4928  155.8660 H   0  0  0  0  0  0  0  0  0  0  0  0  # atno 11005 bound_to 11000
  145.6256  139.1529  143.2998 LP  0  0  0  0  0  0  0  0  0  0  0  0  # atno 17320 bound_to 7965
  146.1897  140.6363  142.9151 LP  0  0  0  0  0  0  0  0  0  0  0  0  # atno 17321 bound_to 7965
  140.6536  143.2231  151.6021 LP  0  0  0  0  0  0  0  0  0  0  0  0  # atno 17342 bound_to 10162
  139.5307  144.2926  152.1140 LP  0  0  0  0  0  0  0  0  0  0  0  0  # atno 17343 bound_to 10162
  157.3672  130.7162  149.6541 LP  0  0  0  0  0  0  0  0  0  0  0  0  # atno 17370 bound_to 10713
  155.9691  130.4209  150.4443 LP  0  0  0  0  0  0  0  0  0  0  0  0  # atno 17371 bound_to 10713
  141.2135  133.6734  156.6744 LP  0  0  0  0  0  0  0  0  0  0  0  0  # atno 17394 bound_to 11000
  140.3064  134.8122  157.4140 LP  0  0  0  0  0  0  0  0  0  0  0  0  # atno 17395 bound_to 11000

$$$$
