AV-unprocessed.smi:79|AV-procd|sdf|783|dock3
  -GOLD-   2262017143D 1   1.00000     0.00000
 Structure written by MMmdl.
 56 59  0  0  0  0  0  0  0  0  2 V2000
  152.4577  143.9622  159.9808 C   0  0  0  0  0  0  0  0  0  0  0  0
  151.6294  142.8930  159.2529 C   0  0  2  0  0  0  0  0  0  0  0  0
  152.4099  141.7208  159.1542 O   0  0  0  0  0  0  0  0  0  0  0  0
  151.2085  143.3178  157.8314 C   0  0  0  0  0  0  0  0  0  0  0  0
  150.3308  142.3198  157.1682 N   0  3  1  0  0  0  0  0  0  0  0  0
  151.1040  141.3041  156.4087 C   0  0  0  0  0  0  0  0  0  0  0  0
  150.1692  140.3538  155.6416 C   0  0  0  0  0  0  0  0  0  0  0  0
  149.1874  139.7579  156.5450 N   0  0  0  0  0  0  0  0  0  0  0  0
  149.5527  138.5691  157.0926 C   0  0  0  0  0  0  0  0  0  0  0  0
  150.7673  138.0299  156.8046 N   0  0  0  0  0  0  0  0  0  0  0  0
  151.1283  136.8563  157.3316 C   0  0  0  0  0  0  0  0  0  0  0  0
  150.4402  136.0662  158.1572 N   0  0  0  0  0  0  0  0  0  0  0  0
  149.2220  136.6022  158.4541 C   0  0  0  0  0  0  0  0  0  0  0  0
  148.7043  137.8364  157.9696 C   0  0  0  0  0  0  0  0  0  0  0  0
  147.4377  138.0567  158.4970 N   0  0  0  0  0  0  0  0  0  0  0  0
  147.2166  137.0101  159.2448 C   0  0  0  0  0  0  0  0  0  0  0  0
  148.2321  136.0805  159.2693 N   0  0  0  0  0  0  0  0  0  0  0  0
  148.2537  134.8317  160.0159 C   0  0  0  0  0  0  0  0  0  0  0  0
  147.0575  134.6556  160.9698 C   0  0  0  0  0  0  0  0  0  0  0  0
  145.7714  134.5333  160.1276 C   0  0  0  0  0  0  0  0  0  0  0  0
  144.6063  134.4637  160.9252 O   0  0  0  0  0  0  0  0  0  0  0  0
  147.2546  133.5988  162.0662 C   0  0  0  0  0  0  0  0  0  0  0  0
  146.9229  134.5365  163.1140 O   0  0  0  0  0  0  0  0  0  0  0  0
  146.9928  135.6210  162.1622 C   0  0  0  0  0  0  0  0  0  0  0  0
  148.4109  140.7077  157.3488 C   0  0  2  0  0  0  0  0  0  0  0  0
  147.3689  141.4470  156.4919 C   0  0  0  0  0  0  0  0  0  0  0  0
  149.3445  141.6924  158.0900 C   0  0  0  0  0  0  0  0  0  0  0  0
  151.8845  144.8790  160.1206 H   0  0  0  0  0  0  0  0  0  0  0  0
  153.3603  144.2159  159.4235 H   0  0  0  0  0  0  0  0  0  0  0  0
  152.7628  143.6160  160.9690 H   0  0  0  0  0  0  0  0  0  0  0  0
  150.7563  142.6397  159.8535 H   0  0  0  0  0  0  0  0  0  0  0  0
  153.0160  141.8161  158.4349 H   0  0  0  0  0  0  0  0  0  0  0  0
  150.6862  144.2735  157.8996 H   0  0  0  0  0  0  0  0  0  0  0  0
  152.0857  143.4953  157.2066 H   0  0  0  0  0  0  0  0  0  0  0  0
  151.7727  141.7965  155.7018 H   0  0  0  0  0  0  0  0  0  0  0  0
  151.7311  140.7370  157.0988 H   0  0  0  0  0  0  0  0  0  0  0  0
  149.6420  140.8984  154.8582 H   0  0  0  0  0  0  0  0  0  0  0  0
  150.7631  139.5954  155.1322 H   0  0  0  0  0  0  0  0  0  0  0  0
  152.1084  136.4987  157.0520 H   0  0  0  0  0  0  0  0  0  0  0  0
  146.3002  136.8897  159.8040 H   0  0  0  0  0  0  0  0  0  0  0  0
  148.3035  134.0050  159.3059 H   0  0  0  0  0  0  0  0  0  0  0  0
  149.1924  134.7980  160.5704 H   0  0  0  0  0  0  0  0  0  0  0  0
  145.6531  135.3884  159.4624 H   0  0  0  0  0  0  0  0  0  0  0  0
  145.8033  133.6436  159.4978 H   0  0  0  0  0  0  0  0  0  0  0  0
  143.8850  134.8301  160.4368 H   0  0  0  0  0  0  0  0  0  0  0  0
  146.5588  132.7606  162.0167 H   0  0  0  0  0  0  0  0  0  0  0  0
  148.2808  133.2399  162.1575 H   0  0  0  0  0  0  0  0  0  0  0  0
  147.8946  136.2172  162.3043 H   0  0  0  0  0  0  0  0  0  0  0  0
  146.1038  136.2525  162.1789 H   0  0  0  0  0  0  0  0  0  0  0  0
  147.8407  140.1546  158.0967 H   0  0  0  0  0  0  0  0  0  0  0  0
  146.7429  142.0898  157.1113 H   0  0  0  0  0  0  0  0  0  0  0  0
  146.7102  140.7411  155.9852 H   0  0  0  0  0  0  0  0  0  0  0  0
  147.8320  142.0751  155.7309 H   0  0  0  0  0  0  0  0  0  0  0  0
  149.8874  141.1671  158.8766 H   0  0  0  0  0  0  0  0  0  0  0  0
  148.7438  142.4514  158.5895 H   0  0  0  0  0  0  0  0  0  0  0  0
  149.7968  142.8287  156.4783 H   0  0  0  0  0  0  0  0  0  0  0  0
  1  2  1  0  0  0  0
  1 28  1  0  0  0  0
  1 29  1  0  0  0  0
  1 30  1  0  0  0  0
  2  3  1  0  0  0  0
  2  4  1  0  0  0  0
  2 31  1  0  0  0  0
  3 32  1  0  0  0  0
  4  5  1  0  0  0  0
  4 33  1  0  0  0  0
  4 34  1  0  0  0  0
  5 27  1  0  0  0  0
  5  6  1  0  0  0  0
  5 56  1  0  0  0  0
  6  7  1  0  0  0  0
  6 35  1  0  0  0  0
  6 36  1  0  0  0  0
  7  8  1  0  0  0  0
  7 37  1  0  0  0  0
  7 38  1  0  0  0  0
  8  9  1  0  0  0  0
  8 25  1  0  0  0  0
  9 14  1  0  0  0  0
  9 10  2  0  0  0  0
 10 11  1  0  0  0  0
 11 12  2  0  0  0  0
 11 39  1  0  0  0  0
 12 13  1  0  0  0  0
 13 17  1  0  0  0  0
 13 14  2  0  0  0  0
 14 15  1  0  0  0  0
 15 16  2  0  0  0  0
 16 17  1  0  0  0  0
 16 40  1  0  0  0  0
 17 18  1  0  0  0  0
 18 19  1  0  0  0  0
 18 41  1  0  0  0  0
 18 42  1  0  0  0  0
 19 24  1  0  0  0  0
 19 20  1  0  0  0  0
 19 22  1  0  0  0  0
 20 21  1  0  0  0  0
 20 43  1  0  0  0  0
 20 44  1  0  0  0  0
 21 45  1  0  0  0  0
 22 23  1  0  0  0  0
 22 46  1  0  0  0  0
 22 47  1  0  0  0  0
 23 24  1  0  0  0  0
 24 48  1  0  0  0  0
 24 49  1  0  0  0  0
 25 26  1  0  0  0  0
 25 27  1  0  0  0  0
 25 50  1  0  0  0  0
 26 51  1  0  0  0  0
 26 52  1  0  0  0  0
 26 53  1  0  0  0  0
 27 54  1  0  0  0  0
 27 55  1  0  0  0  0
M  CHG  1   5   1
M  END
> <s_m_source_file>
AV-unprocessed.smi

> <i_m_source_file_index>
79

> <i_lp_mmshare_version>
43012

> <i_f3d_flags>
0

> <s_epik_input>
W0NIM11bQ0BIXShbT0hdKVtDSDJdTjFbQ0gyXVtDSDJdTihbQ0BASF0oW0NIM10pW0NIMl0xKWMobltjSF1uMiljKGMyMyluW2NIXW4zW0NIMl1DNChbQ0gyXVtPSF0pW0NIMl1PW0NIMl00

> <s_epik_cmdline>
J2VwaWtfcHl0aG9uJywgJy1waCcsICc3LjAnLCAnLXRuJywgJzgnLCAnLW1hJywgJzIwMCcsICctbWV0YWxfYmluZGluZycsICctaW1hZScsICc8aW5maWxlLm1hZT4nLCAnLW9tYWUnLCAnPG91dGZpbGUubWFlPic=

> <r_lp_tautomer_probability>
1

> <r_epik_Ionization_Penalty>
0.00515943

> <r_epik_Ionization_Penalty_Charging>
0.00509693

> <r_epik_Ionization_Penalty_Neutral>
6.25007e-05

> <r_epik_State_Penalty>
-0

> <r_epik_Charging_Adjusted_Penalty>
0.00509693

> <i_epik_Tot_Q>
1

> <i_epik_Tot_abs_Q>
1

> <r_epik_Metal_State_Penalty>
-0

> <b_epik_Metal_Only>
0

> <s_lp_Force_Field>
OPLS_2005

> <r_lp_Energy>
51.2807

> <b_lp_Chiralities_Consistent>
1

> <s_lp_Variant>
AV-unprocessed.smi:79-7

> <Gold.Version>
5.8.1

> <Gold.Id.Protein>
6NUR|6NUR_protein|mol2

> <Gold.PLP.Fitness>
43.8277

> <Gold.PLP.PLP>
-38.6166

> <Gold.PLP.part.hbond>
-4.1569

> <Gold.PLP.part.metal>
0.0000

> <Gold.PLP.part.buried>
-6.1872

> <Gold.PLP.part.nonpolar>
-28.2211

> <Gold.PLP.part.repulsive>
0.0447

> <Gold.PLP.ligand.clash>
0.0000

> <Gold.PLP.ligand.torsion>
0.8584

> <Gold.PLP.Chemscore.Hbond>
2.0000

> <Gold.PLP.Chemscore.CHOScore>
0.0000

> <Gold.PLP.Chemscore.Metal>
0.0000

> <Gold.Chemscore.Hbonds>
donor molecule, donor type, donor heavy atom, donor atom, acceptor molecule, acceptor atom, score
      L1  H     5    56       P1  8028  0.88
      P1  H  6896  6907       L1    12  0.02

> <Gold.PLP.Chemscore.Internal.Correction>
0.9278

> <Gold.Rescore>
     Score         DG    S(hbond)    S(metal)    S(lipo)     H(rot)  DE(clash)    DE(int)     intcor
      8.11      -9.74       0.97        0.00      90.30       3.72       0.05       1.58       ----

> <Gold.Chemscore.Fitness>
8.1082

> <Gold.Chemscore.DG>
-9.7412

> <Gold.Chemscore.ZeroCoef>
-5.4800

> <Gold.Chemscore.Hbond>
0.9659

> <Gold.Chemscore.Metal>
0.0000

> <Gold.Chemscore.Lipo>
90.2973

> <Gold.Chemscore.Internal_Hbond>
0.0000

> <Gold.Chemscore.DEClash>
0.0513

> <Gold.Chemscore.DEInternal>
1.5817

> <Gold.Chemscore.Rot>
3.7226

> <Gold.Chemscore.Internal.Correction>
   9.000000E+99

> <Gold.Chemscore.Hbonds>
donor molecule, donor type, donor heavy atom, donor atom, acceptor molecule, acceptor atom, score
      L1  H     5    56       P1  8028  0.42
      P1  H  6896  6907       L1    12  0.02
      P1  H  6896  6908       L1    12  0.01

> <Gold.Chemscore.Hbond.Weighted>
-3.2262

> <Gold.Chemscore.Metal.Weighted>
-0.0000

> <Gold.Chemscore.Lipo.Weighted>
-10.5648

> <Gold.Chemscore.Internal_Hbond.Weighted>
0.0000

> <Gold.Chemscore.DEClash.Weighted>
0.0513

> <Gold.Chemscore.DEInternal.Weighted>
1.5817

> <Gold.Chemscore.Rot.Weighted>
9.5298

> <Gold.Chemscore.Internal.Correction.Weighted>
   9.000000E+99

> <Gold.Protein.RotatedTorsions>
[ 6907 6896 6895 6894 ] final -109.35 input  -60.11 | X-H torsion
[ 7974 7965 7964 7962 ] final  -39.08 input  175.53 | X-H torsion
[ 8008 7997 7996 7995 ] final -165.92 input   59.86 | X-H torsion
[ 10167 10162 10161 10158 ] final   -1.19 input  -65.29 | X-H torsion
[ 10718 10713 10712 10709 ] final   49.26 input   66.30 | X-H torsion
[ 10763 10752 10751 10750 ] final  163.87 input  -60.55 | X-H torsion
[ 11005 11000 10999 10996 ] final   38.09 input  -57.11 | X-H torsion

> <Gold.Protein.ActiveResidues>
 VAL166  LYS551  ARG553  GLY616  TRP617  ASP618  TYR619  PRO620  LYS621  CYS622 
 ASP623  PHE694  ASN695  SER759  ASP760  ASP761  ALA762  ILE779  LEU786  VAL792 
 PHE793  MET794  SER795  GLU796  ALA797  LYS798  CYS799  TRP800  GLU811  SER814 

> <Gold.Protein.RotatedAtoms>
  150.7557  133.9541  159.3494 H   0  0  0  0  0  0  0  0  0  0  0  0  # atno 6907 bound_to 6896
  151.7461  135.0841  160.0333 H   0  0  0  0  0  0  0  0  0  0  0  0  # atno 6908 bound_to 6896
  152.3496  133.6127  159.5971 H   0  0  0  0  0  0  0  0  0  0  0  0  # atno 6909 bound_to 6896
  146.0429  140.6585  142.9079 H   0  0  0  0  0  0  0  0  0  0  0  0  # atno 7974 bound_to 7965
  155.8566  140.0971  157.1641 H   0  0  0  0  0  0  0  0  0  0  0  0  # atno 8008 bound_to 7997
  154.3988  140.1373  156.3971 H   0  0  0  0  0  0  0  0  0  0  0  0  # atno 8009 bound_to 7997
  155.7903  140.3456  155.5348 H   0  0  0  0  0  0  0  0  0  0  0  0  # atno 8010 bound_to 7997
  140.6799  143.6805  150.8109 H   0  0  0  0  0  0  0  0  0  0  0  0  # atno 10167 bound_to 10162
  157.4769  130.8290  149.8049 H   0  0  0  0  0  0  0  0  0  0  0  0  # atno 10718 bound_to 10713
  154.3003  135.2759  155.2614 H   0  0  0  0  0  0  0  0  0  0  0  0  # atno 10763 bound_to 10752
  154.5053  135.5797  153.6566 H   0  0  0  0  0  0  0  0  0  0  0  0  # atno 10764 bound_to 10752
  152.9901  135.6168  154.3174 H   0  0  0  0  0  0  0  0  0  0  0  0  # atno 10765 bound_to 10752
  140.2161  134.3697  155.8026 H   0  0  0  0  0  0  0  0  0  0  0  0  # atno 11005 bound_to 11000
  144.7083  140.3940  143.7100 LP  0  0  0  0  0  0  0  0  0  0  0  0  # atno 17320 bound_to 7965
  145.6855  139.1627  143.2676 LP  0  0  0  0  0  0  0  0  0  0  0  0  # atno 17321 bound_to 7965
  140.0504  143.5256  152.2676 LP  0  0  0  0  0  0  0  0  0  0  0  0  # atno 17342 bound_to 10162
  139.6115  144.7610  151.2941 LP  0  0  0  0  0  0  0  0  0  0  0  0  # atno 17343 bound_to 10162
  156.0101  130.3837  150.2293 LP  0  0  0  0  0  0  0  0  0  0  0  0  # atno 17370 bound_to 10713
  157.0478  131.0054  151.3263 LP  0  0  0  0  0  0  0  0  0  0  0  0  # atno 17371 bound_to 10713
  141.2225  133.7168  156.8498 LP  0  0  0  0  0  0  0  0  0  0  0  0  # atno 17394 bound_to 11000
  140.1899  134.8973  157.3048 LP  0  0  0  0  0  0  0  0  0  0  0  0  # atno 17395 bound_to 11000

$$$$
