#       Name:                AV-unprocessed.smi:2719
#       Creating user name   scv26
#       Creation time:       Fri Mar 27 14:54:20 2020


#       File generated by GOLD software.
#

@<TRIPOS>MOLECULE
AV-unprocessed.smi:2719
    27    27     1
SMALL
NO_CHARGES


@<TRIPOS>ATOM
      1 ****         0.0326  -2.2488  -0.2051 C.3            1 S1                 0.0000
      2 ****        -0.5989  -0.8686  -0.1696 C.ar           1 S1                 0.0000
      3 ****        -2.0068  -0.7494  -0.1885 C.ar           1 S1                 0.0000
      4 ****        -2.6013   0.5278  -0.1492 C.ar           1 S1                 0.0000
      5 ****        -1.7731   1.6647  -0.0900 C.ar           1 S1                 0.0000
      6 ****        -0.4321   1.5157  -0.0759 N.pl3          1 S1                 1.0000
      7 ****         0.1887   0.3114  -0.1130 C.ar           1 S1                 0.0000
      8 ****         1.7163   0.3068  -0.0813 C.3            1 S1                 0.0000
      9 ****         2.2860   1.3547  -0.8459 O.3            1 S1                 0.0000
     10 ****         2.1421   0.4283   1.3887 C.2            1 S1                 0.0000
     11 ****         2.4848  -0.6265   1.9665 O.co2          1 S1                 0.0000
     12 ****         2.0985   1.5621   1.9176 O.co2          1 S1                -1.0000
     13 ****        -0.7234  -3.0328  -0.1535 H              1 S1                 0.0000
     14 ****         0.7097  -2.3839   0.6385 H              1 S1                 0.0000
     15 ****         0.5959  -2.3859  -1.1283 H              1 S1                 0.0000
     16 ****        -2.6314  -1.6299  -0.2306 H              1 S1                 0.0000
     17 ****        -3.6763   0.6326  -0.1604 H              1 S1                 0.0000
     18 ****        -2.1377   2.6807  -0.0514 H              1 S1                 0.0000
     19 ****         2.1049  -0.6256  -0.4905 H              1 S1                 0.0000
     20 ****         2.0692   1.2144  -1.7543 H              1 S1                 0.0000
     21 ****         0.1520   2.3513  -0.0244 H              1 S1                 0.0000
     22 ****         3.2795   1.3539  -0.7321 LP             1 S1                 0.0000
     23 ****         1.9166   2.2331  -0.5426 LP             1 S1                 0.0000
     24 ****         2.7531  -0.6045   2.9296 LP             1 S1                 0.0000
     25 ****         2.4906  -1.4918   1.4655 LP             1 S1                 0.0000
     26 ****         2.3506   1.6756   2.8787 LP             1 S1                 0.0000
     27 ****         1.8116   2.3544   1.3791 LP             1 S1                 0.0000
@<TRIPOS>BOND
    1    1    2 1     
    2    1   13 1     
    3    1   14 1     
    4    1   15 1     
    5    2    7 ar    
    6    2    3 ar    
    7    3    4 ar    
    8    3   16 1     
    9    4    5 ar    
   10    4   17 1     
   11    5    6 ar    
   12    5   18 1     
   13    6    7 ar    
   14    6   21 1     
   15    7    8 1     
   16    8    9 1     
   17    8   10 1     
   18    8   19 1     
   19    9   20 1     
   20   10   11 ar    
   21   10   12 ar    
   22    9   22 1     
   23    9   23 1     
   24   11   24 1     
   25   11   25 1     
   26   12   26 1     
   27   12   27 1     
@<TRIPOS>SUBSTRUCTURE
      1 S1             1
@<TRIPOS>SET
LONE_PAIRS      STATIC     ATOMS    <user>   **** ""
6 22 23 24 25 26 27
DONOR_HYDROGENS      STATIC     ATOMS    <user>   **** ""
2 21 20
ATOM$BLUE        STATIC     ATOMS    COLORGROUP SYSTEM
6 22 23 24 25 26 27
ATOM$RED        STATIC     ATOMS    COLORGROUP SYSTEM
2 21 20
