#       Name:                AV-unprocessed.smi:788
#       Creating user name   scv26
#       Creation time:       Fri Mar 27 01:17:06 2020


#       File generated by GOLD software.
#

@<TRIPOS>MOLECULE
AV-unprocessed.smi:788
    39    40     1
SMALL
NO_CHARGES


@<TRIPOS>ATOM
      1 ****        -1.2830   0.8769  -2.5470 C.3            1 S1                 0.0000
      2 ****        -1.6127   0.2027  -1.2043 C.3            1 S1                 0.0000
      3 ****        -1.2469  -1.2957  -1.2200 C.3            1 S1                 0.0000
      4 ****        -1.6283  -1.9825   0.1003 C.3            1 S1                 0.0000
      5 ****        -0.9947  -1.2735   1.3071 C.3            1 S1                 0.0000
      6 ****        -1.3572   0.2258   1.3372 C.3            1 S1                 0.0000
      7 ****        -0.7612   0.9234   2.5724 C.3            1 S1                 0.0000
      8 ****        -0.9708   0.9232   0.0085 C.3            1 S1                 0.0000
      9 ****         0.4862   0.9862  -0.1297 N.am           1 S1                 0.0000
     10 ****         1.2506   2.0755  -0.3410 C.2            1 S1                 0.0000
     11 ****         0.7116   3.1741  -0.4643 O.2            1 S1                 0.0000
     12 ****         2.5960   1.8930  -0.4070 N.pl3          1 S1                -1.0000
     13 ****         3.1680   0.6860  -0.2391 C.2            1 S1                 0.0000
     14 ****         3.4874  -0.1100  -1.2723 N.2            1 S1                 0.0000
     15 ****         4.0490  -1.3166  -0.8780 N.2            1 S1                 0.0000
     16 ****         4.1497  -1.3954   0.4486 C.2            1 S1                 0.0000
     17 ****         3.5659  -0.0041   1.3370 S.3            1 S1                 0.0000
     18 ****        -0.2236   0.7926  -2.7914 H              1 S1                 0.0000
     19 ****        -1.5363   1.9371  -2.5255 H              1 S1                 0.0000
     20 ****        -1.8448   0.4203  -3.3620 H              1 S1                 0.0000
     21 ****        -2.6945   0.2705  -1.0801 H              1 S1                 0.0000
     22 ****        -1.7532  -1.7938  -2.0475 H              1 S1                 0.0000
     23 ****        -0.1775  -1.4171  -1.3989 H              1 S1                 0.0000
     24 ****        -2.7135  -1.9867   0.2085 H              1 S1                 0.0000
     25 ****        -1.3164  -3.0270   0.0782 H              1 S1                 0.0000
     26 ****        -1.3283  -1.7552   2.2267 H              1 S1                 0.0000
     27 ****         0.0889  -1.3956   1.2743 H              1 S1                 0.0000
     28 ****        -2.4419   0.2951   1.4319 H              1 S1                 0.0000
     29 ****         0.3263   0.8444   2.5960 H              1 S1                 0.0000
     30 ****        -1.1423   0.4807   3.4929 H              1 S1                 0.0000
     31 ****        -1.0179   1.9830   2.5857 H              1 S1                 0.0000
     32 ****        -1.3780   1.9348   0.0445 H              1 S1                 0.0000
     33 ****         0.9723   0.1056  -0.0471 H              1 S1                 0.0000
     34 ****         4.5709  -2.2776   0.9067 H              1 S1                 0.0000
     35 ****        -0.2837   3.2519  -0.4074 LP             1 S1                 0.0000
     36 ****         1.2687   3.9895  -0.6215 LP             1 S1                 0.0000
     37 ****         3.1817   2.6834  -0.5867 LP             1 S1                 0.0000
     38 ****         3.3361   0.1409  -2.2284 LP             1 S1                 0.0000
     39 ****         4.3409  -2.0353  -1.5091 LP             1 S1                 0.0000
@<TRIPOS>BOND
    1    1    2 1     
    2    1   18 1     
    3    1   19 1     
    4    1   20 1     
    5    2    8 1     
    6    2    3 1     
    7    2   21 1     
    8    3    4 1     
    9    3   22 1     
   10    3   23 1     
   11    4    5 1     
   12    4   24 1     
   13    4   25 1     
   14    5    6 1     
   15    5   26 1     
   16    5   27 1     
   17    6    7 1     
   18    6    8 1     
   19    6   28 1     
   20    7   29 1     
   21    7   30 1     
   22    7   31 1     
   23    8    9 1     
   24    8   32 1     
   25    9   10 am    
   26    9   33 1     
   27   10   11 2     
   28   10   12 1     
   29   12   13 1     
   30   13   17 1     
   31   13   14 2     
   32   14   15 1     
   33   15   16 2     
   34   16   17 1     
   35   16   34 1     
   36   11   35 1     
   37   11   36 1     
   38   12   37 1     
   39   14   38 1     
   40   15   39 1     
@<TRIPOS>SUBSTRUCTURE
      1 S1             1
@<TRIPOS>SET
LONE_PAIRS      STATIC     ATOMS    <user>   **** ""
5 35 36 37 38 39
DONOR_HYDROGENS      STATIC     ATOMS    <user>   **** ""
1 33
ATOM$BLUE        STATIC     ATOMS    COLORGROUP SYSTEM
5 35 36 37 38 39
ATOM$RED        STATIC     ATOMS    COLORGROUP SYSTEM
1 33
