AV-unprocessed.smi:2819|AV-procd|sdf|10851|dock5
  -GOLD-   2272015293D 1   1.00000     0.00000
 Structure written by MMmdl.
 51 52  0  0  0  0  0  0  0  0  3 V2000
  152.7953  142.6902  161.9146 C   0  0  0  0  0  0  0  0  0  0  0  0
  152.7360  142.0799  160.5901 N   0  0  0  0  0  0  0  0  0  0  0  0
  153.3363  140.7716  160.3613 C   0  0  0  0  0  0  0  0  0  0  0  0
  152.1457  142.7834  159.5170 C   0  0  0  0  0  0  0  0  0  0  0  0
  152.4797  144.1218  159.2202 C   0  0  0  0  0  0  0  0  0  0  0  0
  151.8291  144.7218  158.1279 C   0  0  0  0  0  0  0  0  0  0  0  0
  150.9195  144.0271  157.4032 N   0  3  0  0  0  0  0  0  0  0  0  0
  150.6365  142.7554  157.7257 C   0  0  0  0  0  0  0  0  0  0  0  0
  149.6964  142.1151  156.9468 N   0  0  0  0  0  0  0  0  0  0  0  0
  149.2507  140.8442  156.9861 C   0  0  0  0  0  0  0  0  0  0  0  0
  149.6510  139.9724  157.7583 O   0  0  0  0  0  0  0  0  0  0  0  0
  148.2971  140.6308  156.0661 N   0  0  0  0  0  0  0  0  0  0  0  0
  147.6233  139.3551  155.8206 C   0  0  0  0  0  0  0  0  0  0  0  0
  147.8739  138.7776  154.3940 C   0  0  0  0  0  0  0  0  0  0  0  0
  146.6796  137.8977  153.9468 C   0  0  0  0  0  0  0  0  0  0  0  0
  147.9586  139.9370  153.3698 C   0  0  0  0  0  0  0  0  0  0  0  0
  149.1426  137.9634  154.3471 N   0  3  0  0  0  0  0  0  0  0  0  0
  150.4131  138.7330  154.4747 C   0  0  0  0  0  0  0  0  0  0  0  0
  151.6272  137.8217  154.2287 C   0  0  0  0  0  0  0  0  0  0  0  0
  151.6038  136.7369  155.1449 O   0  0  0  0  0  0  0  0  0  0  0  0
  150.4447  135.9340  154.9760 C   0  0  0  0  0  0  0  0  0  0  0  0
  149.1869  136.7762  155.2483 C   0  0  0  0  0  0  0  0  0  0  0  0
  151.2310  142.1374  158.7585 N   0  0  0  0  0  0  0  0  0  0  0  0
  153.3922  143.6022  161.8900 H   0  0  0  0  0  0  0  0  0  0  0  0
  153.2444  142.0156  162.6437 H   0  0  0  0  0  0  0  0  0  0  0  0
  151.7941  142.9410  162.2670 H   0  0  0  0  0  0  0  0  0  0  0  0
  154.1162  140.8351  159.6020 H   0  0  0  0  0  0  0  0  0  0  0  0
  152.5832  140.0561  160.0303 H   0  0  0  0  0  0  0  0  0  0  0  0
  153.7908  140.3788  161.2710 H   0  0  0  0  0  0  0  0  0  0  0  0
  153.2035  144.6833  159.7920 H   0  0  0  0  0  0  0  0  0  0  0  0
  152.0071  145.7385  157.8095 H   0  0  0  0  0  0  0  0  0  0  0  0
  149.2735  142.6960  156.2384 H   0  0  0  0  0  0  0  0  0  0  0  0
  148.0250  141.4031  155.4749 H   0  0  0  0  0  0  0  0  0  0  0  0
  147.9969  138.6675  156.5786 H   0  0  0  0  0  0  0  0  0  0  0  0
  146.5565  139.4608  156.0186 H   0  0  0  0  0  0  0  0  0  0  0  0
  145.7844  138.4919  153.7612 H   0  0  0  0  0  0  0  0  0  0  0  0
  146.4021  137.1606  154.7002 H   0  0  0  0  0  0  0  0  0  0  0  0
  146.9026  137.3653  153.0213 H   0  0  0  0  0  0  0  0  0  0  0  0
  146.9931  140.4246  153.2310 H   0  0  0  0  0  0  0  0  0  0  0  0
  148.2786  139.5797  152.3902 H   0  0  0  0  0  0  0  0  0  0  0  0
  148.6491  140.7194  153.6838 H   0  0  0  0  0  0  0  0  0  0  0  0
  150.4613  139.5498  153.7575 H   0  0  0  0  0  0  0  0  0  0  0  0
  150.4917  139.1716  155.4695 H   0  0  0  0  0  0  0  0  0  0  0  0
  151.6363  137.4502  153.2027 H   0  0  0  0  0  0  0  0  0  0  0  0
  152.5513  138.3823  154.3718 H   0  0  0  0  0  0  0  0  0  0  0  0
  150.4214  135.5105  153.9705 H   0  0  0  0  0  0  0  0  0  0  0  0
  150.4931  135.0964  155.6722 H   0  0  0  0  0  0  0  0  0  0  0  0
  149.1864  137.0922  156.2914 H   0  0  0  0  0  0  0  0  0  0  0  0
  148.3220  136.1313  155.1064 H   0  0  0  0  0  0  0  0  0  0  0  0
  150.4591  144.4835  156.6153 H   0  0  0  0  0  0  0  0  0  0  0  0
  149.1615  137.5810  153.4122 H   0  0  0  0  0  0  0  0  0  0  0  0
  1  2  1  0  0  0  0
  1 24  1  0  0  0  0
  1 25  1  0  0  0  0
  1 26  1  0  0  0  0
  2  3  1  0  0  0  0
  2  4  1  0  0  0  0
  3 27  1  0  0  0  0
  3 28  1  0  0  0  0
  3 29  1  0  0  0  0
  4 23  1  0  0  0  0
  4  5  2  0  0  0  0
  5  6  1  0  0  0  0
  5 30  1  0  0  0  0
  6  7  2  0  0  0  0
  6 31  1  0  0  0  0
  7  8  1  0  0  0  0
  7 50  1  0  0  0  0
  8  9  1  0  0  0  0
  8 23  2  0  0  0  0
  9 10  1  0  0  0  0
  9 32  1  0  0  0  0
 10 11  2  0  0  0  0
 10 12  1  0  0  0  0
 12 13  1  0  0  0  0
 12 33  1  0  0  0  0
 13 14  1  0  0  0  0
 13 34  1  0  0  0  0
 13 35  1  0  0  0  0
 14 15  1  0  0  0  0
 14 16  1  0  0  0  0
 14 17  1  0  0  0  0
 15 36  1  0  0  0  0
 15 37  1  0  0  0  0
 15 38  1  0  0  0  0
 16 39  1  0  0  0  0
 16 40  1  0  0  0  0
 16 41  1  0  0  0  0
 17 22  1  0  0  0  0
 17 18  1  0  0  0  0
 17 51  1  0  0  0  0
 18 19  1  0  0  0  0
 18 42  1  0  0  0  0
 18 43  1  0  0  0  0
 19 20  1  0  0  0  0
 19 44  1  0  0  0  0
 19 45  1  0  0  0  0
 20 21  1  0  0  0  0
 21 22  1  0  0  0  0
 21 46  1  0  0  0  0
 21 47  1  0  0  0  0
 22 48  1  0  0  0  0
 22 49  1  0  0  0  0
M  CHG  1   7   1
M  CHG  1  17   1
M  END
> <s_m_source_file>
AV-unprocessed.smi

> <i_m_source_file_index>
2819

> <i_lp_mmshare_version>
43012

> <i_f3d_flags>
0

> <s_epik_input>
W0NIM11OKFtDSDNdKWMxW2NIXVtjSF1uYyhuMSlbTkhdQyg9TylbTkhdW0NIMl1DKFtDSDNdKShbQ0gzXSlOMltDSDJdW0NIMl1PW0NIMl1bQ0gyXTI=

> <s_epik_cmdline>
J2VwaWtfcHl0aG9uJywgJy1waCcsICc3LjAnLCAnLXRuJywgJzgnLCAnLW1hJywgJzIwMCcsICctbWV0YWxfYmluZGluZycsICctaW1hZScsICc8aW5maWxlLm1hZT4nLCAnLW9tYWUnLCAnPG91dGZpbGUubWFlPic=

> <r_lp_tautomer_probability>
0.999336

> <r_epik_Ionization_Penalty>
0.713728

> <r_epik_Ionization_Penalty_Charging>
0.713701

> <r_epik_Ionization_Penalty_Neutral>
2.70516e-05

> <r_epik_State_Penalty>
0.725459

> <r_epik_Charging_Adjusted_Penalty>
1.43916

> <i_epik_Tot_Q>
2

> <i_epik_Tot_abs_Q>
2

> <r_epik_Metal_State_Penalty>
1.06371

> <b_epik_Metal_Only>
0

> <s_lp_Force_Field>
OPLS_2005

> <r_lp_Energy>
33.0145

> <b_lp_Chiralities_Consistent>
1

> <s_lp_Variant>
AV-unprocessed.smi:2819-2

> <Gold.Version>
5.8.1

> <Gold.Id.Protein>
6NUR|6NUR_protein|mol2

> <Gold.PLP.Fitness>
56.3870

> <Gold.PLP.PLP>
-42.3896

> <Gold.PLP.part.hbond>
-3.9792

> <Gold.PLP.part.metal>
0.0000

> <Gold.PLP.part.buried>
-4.4001

> <Gold.PLP.part.nonpolar>
-35.3676

> <Gold.PLP.part.repulsive>
0.1666

> <Gold.PLP.ligand.clash>
0.0000

> <Gold.PLP.ligand.torsion>
1.4281

> <Gold.PLP.Chemscore.Hbond>
5.5780

> <Gold.PLP.Chemscore.CHOScore>
0.0000

> <Gold.PLP.Chemscore.Metal>
0.0000

> <Gold.Chemscore.Hbonds>
donor molecule, donor type, donor heavy atom, donor atom, acceptor molecule, acceptor atom, score
      L1  H     7    50       P1  8028  1.92
      L1  H     9    32       P1  8028  0.64
      L1  H    17    51       P1  7948  1.95
      P1  H 10752 10764       L1    20  1.00

> <Gold.PLP.Chemscore.Internal.Correction>
0.1196

> <Gold.Rescore>
     Score         DG    S(hbond)    S(metal)    S(lipo)     H(rot)  DE(clash)    DE(int)     intcor
     18.80     -21.24       2.96        0.00      84.45       1.57       0.06       2.38       ----

> <Gold.Chemscore.Fitness>
18.8030

> <Gold.Chemscore.DG>
-21.2387

> <Gold.Chemscore.ZeroCoef>
-5.4800

> <Gold.Chemscore.Hbond>
2.9641

> <Gold.Chemscore.Metal>
0.0000

> <Gold.Chemscore.Lipo>
84.4528

> <Gold.Chemscore.Internal_Hbond>
0.0000

> <Gold.Chemscore.DEClash>
0.0588

> <Gold.Chemscore.DEInternal>
2.3769

> <Gold.Chemscore.Rot>
1.5713

> <Gold.Chemscore.Internal.Correction>
   9.000000E+99

> <Gold.Chemscore.Hbonds>
donor molecule, donor type, donor heavy atom, donor atom, acceptor molecule, acceptor atom, score
      L1  H     7    50       P1  8028  0.90
      L1  H     9    32       P1  8028  0.63
      L1  H    17    51       P1  7948  0.91
      P1  H 10752 10764       L1    20  0.31

> <Gold.Chemscore.Hbond.Weighted>
-9.9002

> <Gold.Chemscore.Metal.Weighted>
-0.0000

> <Gold.Chemscore.Lipo.Weighted>
-9.8810

> <Gold.Chemscore.Internal_Hbond.Weighted>
0.0000

> <Gold.Chemscore.DEClash.Weighted>
0.0588

> <Gold.Chemscore.DEInternal.Weighted>
2.3769

> <Gold.Chemscore.Rot.Weighted>
4.0225

> <Gold.Chemscore.Internal.Correction.Weighted>
   9.000000E+99

> <Gold.Protein.RotatedTorsions>
[ 6907 6896 6895 6894 ] final  -72.40 input  -60.11 | X-H torsion
[ 7974 7965 7964 7962 ] final -130.80 input  175.53 | X-H torsion
[ 8008 7997 7996 7995 ] final  136.27 input   59.86 | X-H torsion
[ 10167 10162 10161 10158 ] final -121.74 input  -65.29 | X-H torsion
[ 10718 10713 10712 10709 ] final   85.63 input   66.30 | X-H torsion
[ 10763 10752 10751 10750 ] final  -44.85 input  -60.55 | X-H torsion
[ 11005 11000 10999 10996 ] final   28.11 input  -57.11 | X-H torsion

> <Gold.Protein.ActiveResidues>
 VAL166  LYS551  ARG553  GLY616  TRP617  ASP618  TYR619  PRO620  LYS621  CYS622 
 ASP623  PHE694  ASN695  SER759  ASP760  ASP761  ALA762  ILE779  LEU786  VAL792 
 PHE793  MET794  SER795  GLU796  ALA797  LYS798  CYS799  TRP800  GLU811  SER814 

> <Gold.Protein.RotatedAtoms>
  150.7171  134.5168  159.5633 H   0  0  0  0  0  0  0  0  0  0  0  0  # atno 6907 bound_to 6896
  152.2732  134.7907  160.0419 H   0  0  0  0  0  0  0  0  0  0  0  0  # atno 6908 bound_to 6896
  151.8579  133.3416  159.3731 H   0  0  0  0  0  0  0  0  0  0  0  0  # atno 6909 bound_to 6896
  144.9440  140.7271  143.4829 H   0  0  0  0  0  0  0  0  0  0  0  0  # atno 7974 bound_to 7965
  156.3004  140.2449  156.3717 H   0  0  0  0  0  0  0  0  0  0  0  0  # atno 8008 bound_to 7997
  154.8782  140.0413  157.1786 H   0  0  0  0  0  0  0  0  0  0  0  0  # atno 8009 bound_to 7997
  154.8723  140.2937  155.5478 H   0  0  0  0  0  0  0  0  0  0  0  0  # atno 8010 bound_to 7997
  140.0218  143.5337  152.2217 H   0  0  0  0  0  0  0  0  0  0  0  0  # atno 10167 bound_to 10162
  157.6917  131.0182  150.2851 H   0  0  0  0  0  0  0  0  0  0  0  0  # atno 10718 bound_to 10713
  154.0188  135.6672  153.4771 H   0  0  0  0  0  0  0  0  0  0  0  0  # atno 10763 bound_to 10752
  153.0589  135.5039  154.8043 H   0  0  0  0  0  0  0  0  0  0  0  0  # atno 10764 bound_to 10752
  154.6950  135.3068  154.9389 H   0  0  0  0  0  0  0  0  0  0  0  0  # atno 10765 bound_to 10752
  140.3190  134.2564  155.7720 H   0  0  0  0  0  0  0  0  0  0  0  0  # atno 11005 bound_to 11000
  145.2946  139.1871  143.4722 LP  0  0  0  0  0  0  0  0  0  0  0  0  # atno 17320 bound_to 7965
  146.3296  140.2928  142.8616 LP  0  0  0  0  0  0  0  0  0  0  0  0  # atno 17321 bound_to 7965
  139.6135  144.7614  151.2899 LP  0  0  0  0  0  0  0  0  0  0  0  0  # atno 17342 bound_to 10162
  140.7339  143.6780  150.8025 LP  0  0  0  0  0  0  0  0  0  0  0  0  # atno 17343 bound_to 10162
  156.3391  130.3812  149.7424 LP  0  0  0  0  0  0  0  0  0  0  0  0  # atno 17370 bound_to 10713
  156.4939  130.8098  151.3106 LP  0  0  0  0  0  0  0  0  0  0  0  0  # atno 17371 bound_to 10713
  141.2091  133.7759  157.0019 LP  0  0  0  0  0  0  0  0  0  0  0  0  # atno 17394 bound_to 11000
  140.0958  134.9565  157.1847 LP  0  0  0  0  0  0  0  0  0  0  0  0  # atno 17395 bound_to 11000

$$$$
