AV-unprocessed.smi:1080|AV-procd|sdf|4709|dock2
  -GOLD-   22720 3233D 1   1.00000     0.00000
 Structure written by MMmdl.
 49 51  0  0  0  0  0  0  0  0  2 V2000
  146.7130  132.4724  153.8100 O   0  0  0  0  0  0  0  0  0  0  0  0
  147.4085  132.0160  152.9029 C   0  0  0  0  0  0  0  0  0  0  0  0
  147.0860  132.0345  151.5977 N   0  0  0  0  0  0  0  0  0  0  0  0
  145.9006  132.5302  150.9896 C   0  0  0  0  0  0  0  0  0  0  0  0
  145.2031  133.5624  151.6558 C   0  0  0  0  0  0  0  0  0  0  0  0
  144.0317  134.0943  151.0792 C   0  0  0  0  0  0  0  0  0  0  0  0
  143.5920  133.6233  149.8926 N   0  3  0  0  0  0  0  0  0  0  0  0
  144.2328  132.6495  149.2111 C   0  0  0  0  0  0  0  0  0  0  0  0
  145.4093  132.0786  149.7383 C   0  0  0  0  0  0  0  0  0  0  0  0
  148.6096  131.4520  153.0958 N   0  0  0  0  0  0  0  0  0  0  0  0
  149.2854  131.2891  154.3807 C   0  0  2  0  0  0  0  0  0  0  0  0
  148.2776  130.8055  155.4384 C   0  0  0  0  0  0  0  0  0  0  0  0
  148.9013  130.7443  156.8482 C   0  0  0  0  0  0  0  0  0  0  0  0
  149.6254  132.0441  157.2863 C   0  0  2  0  0  0  0  0  0  0  0  0
  148.6664  133.1778  157.7291 C   0  0  0  0  0  0  0  0  0  0  0  0
  148.7207  134.2605  157.1448 O   0  0  0  0  0  0  0  0  0  0  0  0
  147.7676  132.9552  158.7227 N   0  0  0  0  0  0  0  0  0  0  0  0
  147.7765  131.7250  159.5251 C   0  0  0  0  0  0  0  0  0  0  0  0
  148.4510  132.0152  160.8766 C   0  0  0  0  0  0  0  0  0  0  0  0
  147.5165  133.2597  161.8216 S   0  0  0  0  0  0  0  0  0  0  0  0
  147.3182  134.5352  160.5382 C   0  0  0  0  0  0  0  0  0  0  0  0
  146.7858  133.9208  159.2331 C   0  0  0  0  0  0  0  0  0  0  0  0
  150.5981  132.5098  156.1787 C   0  0  0  0  0  0  0  0  0  0  0  0
  149.9254  132.6236  154.8003 C   0  0  0  0  0  0  0  0  0  0  0  0
  147.7985  131.7091  150.9606 H   0  0  0  0  0  0  0  0  0  0  0  0
  145.5555  133.9410  152.6048 H   0  0  0  0  0  0  0  0  0  0  0  0
  143.4386  134.8779  151.5280 H   0  0  0  0  0  0  0  0  0  0  0  0
  143.7921  132.3622  148.2676 H   0  0  0  0  0  0  0  0  0  0  0  0
  145.9181  131.3160  149.1685 H   0  0  0  0  0  0  0  0  0  0  0  0
  149.1063  131.1117  152.2854 H   0  0  0  0  0  0  0  0  0  0  0  0
  150.0805  130.5453  154.3022 H   0  0  0  0  0  0  0  0  0  0  0  0
  147.4049  131.4577  155.4406 H   0  0  0  0  0  0  0  0  0  0  0  0
  147.9058  129.8169  155.1666 H   0  0  0  0  0  0  0  0  0  0  0  0
  148.1336  130.4762  157.5755 H   0  0  0  0  0  0  0  0  0  0  0  0
  149.6213  129.9253  156.8695 H   0  0  0  0  0  0  0  0  0  0  0  0
  150.2090  131.7518  158.1581 H   0  0  0  0  0  0  0  0  0  0  0  0
  146.7578  131.3677  159.6821 H   0  0  0  0  0  0  0  0  0  0  0  0
  148.2923  130.9049  159.0239 H   0  0  0  0  0  0  0  0  0  0  0  0
  148.5213  131.1042  161.4711 H   0  0  0  0  0  0  0  0  0  0  0  0
  149.4689  132.3755  160.7229 H   0  0  0  0  0  0  0  0  0  0  0  0
  146.6330  135.2986  160.9071 H   0  0  0  0  0  0  0  0  0  0  0  0
  148.2789  135.0221  160.3677 H   0  0  0  0  0  0  0  0  0  0  0  0
  146.5422  134.7021  158.5155 H   0  0  0  0  0  0  0  0  0  0  0  0
  145.8359  133.4188  159.4226 H   0  0  0  0  0  0  0  0  0  0  0  0
  151.0464  133.4691  156.4398 H   0  0  0  0  0  0  0  0  0  0  0  0
  151.4270  131.8038  156.1140 H   0  0  0  0  0  0  0  0  0  0  0  0
  150.6663  132.9277  154.0597 H   0  0  0  0  0  0  0  0  0  0  0  0
  149.1713  133.4117  154.8210 H   0  0  0  0  0  0  0  0  0  0  0  0
  142.7429  134.0230  149.4920 H   0  0  0  0  0  0  0  0  0  0  0  0
  1  2  2  0  0  0  0
  2  3  1  0  0  0  0
  2 10  1  0  0  0  0
  3  4  1  0  0  0  0
  3 25  1  0  0  0  0
  4  9  1  0  0  0  0
  4  5  2  0  0  0  0
  5  6  1  0  0  0  0
  5 26  1  0  0  0  0
  6  7  2  0  0  0  0
  6 27  1  0  0  0  0
  7  8  1  0  0  0  0
  7 49  1  0  0  0  0
  8  9  2  0  0  0  0
  8 28  1  0  0  0  0
  9 29  1  0  0  0  0
 10 11  1  0  0  0  0
 10 30  1  0  0  0  0
 11 24  1  0  0  0  0
 11 12  1  0  0  0  0
 11 31  1  0  0  0  0
 12 13  1  0  0  0  0
 12 32  1  0  0  0  0
 12 33  1  0  0  0  0
 13 14  1  0  0  0  0
 13 34  1  0  0  0  0
 13 35  1  0  0  0  0
 14 15  1  0  0  0  0
 14 23  1  0  0  0  0
 14 36  1  0  0  0  0
 15 16  2  0  0  0  0
 15 17  1  0  0  0  0
 17 22  1  0  0  0  0
 17 18  1  0  0  0  0
 18 19  1  0  0  0  0
 18 37  1  0  0  0  0
 18 38  1  0  0  0  0
 19 20  1  0  0  0  0
 19 39  1  0  0  0  0
 19 40  1  0  0  0  0
 20 21  1  0  0  0  0
 21 22  1  0  0  0  0
 21 41  1  0  0  0  0
 21 42  1  0  0  0  0
 22 43  1  0  0  0  0
 22 44  1  0  0  0  0
 23 24  1  0  0  0  0
 23 45  1  0  0  0  0
 23 46  1  0  0  0  0
 24 47  1  0  0  0  0
 24 48  1  0  0  0  0
M  CHG  1   7   1
M  END
> <s_m_source_file>
AV-unprocessed.smi

> <i_m_source_file_index>
1080

> <i_lp_mmshare_version>
43012

> <i_f3d_flags>
0

> <s_epik_input>
W2NIXTFbY0hdbltjSF1bY0hdYzFbTkhdQyg9TylbTkhdW0NAQEhdMltDSDJdW0NIMl1bQ0BIXShbQ0gyXVtDSDJdMilDKD1PKU4zW0NIMl1bQ0gyXVNbQ0gyXVtDSDJdMw==

> <s_epik_cmdline>
J2VwaWtfcHl0aG9uJywgJy1waCcsICc3LjAnLCAnLXRuJywgJzgnLCAnLW1hJywgJzIwMCcsICctbWV0YWxfYmluZGluZycsICctaW1hZScsICc8aW5maWxlLm1hZT4nLCAnLW9tYWUnLCAnPG91dGZpbGUubWFlPic=

> <r_epik_Ionization_Penalty>
1.01281

> <r_epik_Ionization_Penalty_Charging>
1.01278

> <r_epik_Ionization_Penalty_Neutral>
2.07681e-05

> <r_epik_State_Penalty>
1.06237

> <r_epik_Charging_Adjusted_Penalty>
2.07515

> <i_epik_Tot_Q>
1

> <i_epik_Tot_abs_Q>
1

> <r_epik_Metal_State_Penalty>
1.16243

> <b_epik_Metal_Only>
0

> <s_lp_Force_Field>
OPLS_2005

> <r_lp_Energy>
37.4575

> <b_lp_Chiralities_Consistent>
1

> <s_lp_Variant>
AV-unprocessed.smi:1080-4

> <Gold.Version>
5.8.1

> <Gold.Id.Protein>
6NUR|6NUR_protein|mol2

> <Gold.PLP.Fitness>
45.5470

> <Gold.PLP.PLP>
-34.5653

> <Gold.PLP.part.hbond>
-3.0000

> <Gold.PLP.part.metal>
0.0000

> <Gold.PLP.part.buried>
-5.2360

> <Gold.PLP.part.nonpolar>
-26.2387

> <Gold.PLP.part.repulsive>
0.1808

> <Gold.PLP.ligand.clash>
0.0000

> <Gold.PLP.ligand.torsion>
0.4127

> <Gold.PLP.Chemscore.Hbond>
3.9120

> <Gold.PLP.Chemscore.CHOScore>
0.0000

> <Gold.PLP.Chemscore.Metal>
0.0000

> <Gold.Chemscore.Hbonds>
donor molecule, donor type, donor heavy atom, donor atom, acceptor molecule, acceptor atom, score
      L1  H     3    25       P1 10747  1.00
      L1  H     7    49       P1 10186  2.00
      L1  H    10    30       P1 10747  0.91

> <Gold.PLP.Chemscore.Internal.Correction>
0.0711

> <Gold.Rescore>
     Score         DG    S(hbond)    S(metal)    S(lipo)     H(rot)  DE(clash)    DE(int)     intcor
     17.65     -21.47       2.61        0.00      89.39       1.25       0.02       3.80       ----

> <Gold.Chemscore.Fitness>
17.6500

> <Gold.Chemscore.DG>
-21.4659

> <Gold.Chemscore.ZeroCoef>
-5.4800

> <Gold.Chemscore.Hbond>
2.6117

> <Gold.Chemscore.Metal>
0.0000

> <Gold.Chemscore.Lipo>
89.3943

> <Gold.Chemscore.Internal_Hbond>
0.0000

> <Gold.Chemscore.DEClash>
0.0202

> <Gold.Chemscore.DEInternal>
3.7957

> <Gold.Chemscore.Rot>
1.2486

> <Gold.Chemscore.Internal.Correction>
   9.000000E+99

> <Gold.Chemscore.Hbonds>
donor molecule, donor type, donor heavy atom, donor atom, acceptor molecule, acceptor atom, score
      L1  H     3    25       P1 10747  0.99
      L1  H     7    49       P1 10186  0.97
      L1  H    10    30       P1 10747  0.34

> <Gold.Chemscore.Hbond.Weighted>
-8.7231

> <Gold.Chemscore.Metal.Weighted>
-0.0000

> <Gold.Chemscore.Lipo.Weighted>
-10.4591

> <Gold.Chemscore.Internal_Hbond.Weighted>
0.0000

> <Gold.Chemscore.DEClash.Weighted>
0.0202

> <Gold.Chemscore.DEInternal.Weighted>
3.7957

> <Gold.Chemscore.Rot.Weighted>
3.1963

> <Gold.Chemscore.Internal.Correction.Weighted>
   9.000000E+99

> <Gold.Protein.RotatedTorsions>
[ 6907 6896 6895 6894 ] final   10.83 input  -60.11 | X-H torsion
[ 7974 7965 7964 7962 ] final  -61.94 input  175.53 | X-H torsion
[ 8008 7997 7996 7995 ] final -171.72 input   59.86 | X-H torsion
[ 10167 10162 10161 10158 ] final   86.20 input  -65.29 | X-H torsion
[ 10718 10713 10712 10709 ] final   11.41 input   66.30 | X-H torsion
[ 10763 10752 10751 10750 ] final   13.15 input  -60.55 | X-H torsion
[ 11005 11000 10999 10996 ] final  -52.03 input  -57.11 | X-H torsion

> <Gold.Protein.ActiveResidues>
 VAL166  LYS551  ARG553  GLY616  TRP617  ASP618  TYR619  PRO620  LYS621  CYS622 
 ASP623  PHE694  ASN695  SER759  ASP760  ASP761  ALA762  ILE779  LEU786  VAL792 
 PHE793  MET794  SER795  GLU796  ALA797  LYS798  CYS799  TRP800  GLU811  SER814 

> <Gold.Protein.RotatedAtoms>
  151.7446  135.0846  160.0320 H   0  0  0  0  0  0  0  0  0  0  0  0  # atno 6907 bound_to 6896
  152.3457  133.6115  159.5917 H   0  0  0  0  0  0  0  0  0  0  0  0  # atno 6908 bound_to 6896
  150.7507  133.9569  159.3545 H   0  0  0  0  0  0  0  0  0  0  0  0  # atno 6909 bound_to 6896
  145.7974  140.8675  143.0249 H   0  0  0  0  0  0  0  0  0  0  0  0  # atno 7974 bound_to 7965
  155.9352  140.1098  157.1100 H   0  0  0  0  0  0  0  0  0  0  0  0  # atno 8008 bound_to 7997
  154.4078  140.1229  156.4921 H   0  0  0  0  0  0  0  0  0  0  0  0  # atno 8009 bound_to 7997
  155.7030  140.3471  155.4943 H   0  0  0  0  0  0  0  0  0  0  0  0  # atno 8010 bound_to 7997
  139.8899  144.6391  150.8750 H   0  0  0  0  0  0  0  0  0  0  0  0  # atno 10167 bound_to 10162
  156.9951  130.6057  149.5690 H   0  0  0  0  0  0  0  0  0  0  0  0  # atno 10718 bound_to 10713
  153.1750  135.6818  153.8555 H   0  0  0  0  0  0  0  0  0  0  0  0  # atno 10763 bound_to 10752
  153.7906  135.3169  155.3379 H   0  0  0  0  0  0  0  0  0  0  0  0  # atno 10764 bound_to 10752
  154.8023  135.4770  154.0400 H   0  0  0  0  0  0  0  0  0  0  0  0  # atno 10765 bound_to 10752
  141.0903  133.6634  156.3964 H   0  0  0  0  0  0  0  0  0  0  0  0  # atno 11005 bound_to 11000
  144.6773  140.0210  143.7483 LP  0  0  0  0  0  0  0  0  0  0  0  0  # atno 17320 bound_to 7965
  145.9914  139.3018  143.0983 LP  0  0  0  0  0  0  0  0  0  0  0  0  # atno 17321 bound_to 7965
  140.7728  143.3518  151.1999 LP  0  0  0  0  0  0  0  0  0  0  0  0  # atno 17342 bound_to 10162
  139.7119  143.9363  152.2951 LP  0  0  0  0  0  0  0  0  0  0  0  0  # atno 17343 bound_to 10162
  156.0192  130.5287  150.8226 LP  0  0  0  0  0  0  0  0  0  0  0  0  # atno 17370 bound_to 10713
  157.5431  131.0941  150.9800 LP  0  0  0  0  0  0  0  0  0  0  0  0  # atno 17371 bound_to 10713
  140.5268  134.6251  157.5337 LP  0  0  0  0  0  0  0  0  0  0  0  0  # atno 17394 bound_to 11000
  139.9727  134.7266  156.0009 LP  0  0  0  0  0  0  0  0  0  0  0  0  # atno 17395 bound_to 11000

$$$$
