AV-unprocessed.smi:539|AV-procd|sdf|2868|dock8
  -GOLD-   2262023363D 1   1.00000     0.00000
 Structure written by MMmdl.
 39 41  0  0  0  0  0  0  0  0  2 V2000
  147.9842  141.2239  153.4482 C   0  0  0  0  0  0  0  0  0  0  0  0
  149.2058  141.7189  153.9651 O   0  0  0  0  0  0  0  0  0  0  0  0
  149.3857  141.4080  155.3370 C   0  0  0  0  0  0  0  0  0  0  0  0
  150.7019  142.0180  155.8429 C   0  0  0  0  0  0  0  0  0  0  0  0
  151.3620  141.1603  156.8276 N   0  0  0  0  0  0  0  0  0  0  0  0
  151.8110  141.4780  158.0793 C   0  0  0  0  0  0  0  0  0  0  0  0
  151.6881  142.7445  158.6718 N   0  0  0  0  0  0  0  0  0  0  0  0
  150.8711  143.8995  158.2957 C   0  0  0  0  0  0  0  0  0  0  0  0
  150.8456  144.8792  159.4667 C   0  0  0  0  0  0  0  0  0  0  0  0
  152.1715  144.6046  160.1408 C   0  0  0  0  0  0  0  0  0  0  0  0
  152.3022  143.0979  159.9507 C   0  0  0  0  0  0  0  0  0  0  0  0
  152.4197  140.4713  158.7108 N   0  0  0  0  0  0  0  0  0  0  0  0
  152.3489  139.4285  157.8049 C   0  0  0  0  0  0  0  0  0  0  0  0
  151.7267  139.8150  156.6597 C   0  0  0  0  0  0  0  0  0  0  0  0
  151.5380  138.9166  155.4936 C   0  0  0  0  0  0  0  0  0  0  0  0
  151.0032  139.3097  154.4594 O   0  0  0  0  0  0  0  0  0  0  0  0
  152.0238  137.6559  155.7242 N   0  5  0  0  0  0  0  0  0  0  0  0
  152.6471  137.2248  156.8741 C   0  0  0  0  0  0  0  0  0  0  0  0
  153.0501  136.0677  157.0008 O   0  0  0  0  0  0  0  0  0  0  0  0
  152.8298  138.0955  157.9148 N   0  0  0  0  0  0  0  0  0  0  0  0
  153.4979  137.6685  159.1478 C   0  0  0  0  0  0  0  0  0  0  0  0
  147.9001  141.4884  152.3942 H   0  0  0  0  0  0  0  0  0  0  0  0
  147.1308  141.6553  153.9729 H   0  0  0  0  0  0  0  0  0  0  0  0
  147.9333  140.1374  153.5281 H   0  0  0  0  0  0  0  0  0  0  0  0
  148.5446  141.7964  155.9126 H   0  0  0  0  0  0  0  0  0  0  0  0
  149.4036  140.3260  155.4750 H   0  0  0  0  0  0  0  0  0  0  0  0
  151.3758  142.2319  155.0198 H   0  0  0  0  0  0  0  0  0  0  0  0
  150.5159  142.9997  156.2694 H   0  0  0  0  0  0  0  0  0  0  0  0
  151.3158  144.3844  157.4274 H   0  0  0  0  0  0  0  0  0  0  0  0
  149.8567  143.5943  158.0383 H   0  0  0  0  0  0  0  0  0  0  0  0
  150.7287  145.9168  159.1527 H   0  0  0  0  0  0  0  0  0  0  0  0
  150.0260  144.6325  160.1433 H   0  0  0  0  0  0  0  0  0  0  0  0
  152.9751  145.1226  159.6150 H   0  0  0  0  0  0  0  0  0  0  0  0
  152.1937  144.9066  161.1881 H   0  0  0  0  0  0  0  0  0  0  0  0
  151.7756  142.5685  160.7459 H   0  0  0  0  0  0  0  0  0  0  0  0
  153.3472  142.7870  159.9822 H   0  0  0  0  0  0  0  0  0  0  0  0
  154.4795  137.2455  158.9280 H   0  0  0  0  0  0  0  0  0  0  0  0
  152.9043  136.9075  159.6561 H   0  0  0  0  0  0  0  0  0  0  0  0
  153.6515  138.4885  159.8493 H   0  0  0  0  0  0  0  0  0  0  0  0
  1  2  1  0  0  0  0
  1 22  1  0  0  0  0
  1 23  1  0  0  0  0
  1 24  1  0  0  0  0
  2  3  1  0  0  0  0
  3  4  1  0  0  0  0
  3 25  1  0  0  0  0
  3 26  1  0  0  0  0
  4  5  1  0  0  0  0
  4 27  1  0  0  0  0
  4 28  1  0  0  0  0
  5 14  1  0  0  0  0
  5  6  1  0  0  0  0
  6  7  1  0  0  0  0
  6 12  2  0  0  0  0
  7 11  1  0  0  0  0
  7  8  1  0  0  0  0
  8  9  1  0  0  0  0
  8 29  1  0  0  0  0
  8 30  1  0  0  0  0
  9 10  1  0  0  0  0
  9 31  1  0  0  0  0
  9 32  1  0  0  0  0
 10 11  1  0  0  0  0
 10 33  1  0  0  0  0
 10 34  1  0  0  0  0
 11 35  1  0  0  0  0
 11 36  1  0  0  0  0
 12 13  1  0  0  0  0
 13 20  1  0  0  0  0
 13 14  2  0  0  0  0
 14 15  1  0  0  0  0
 15 16  2  0  0  0  0
 15 17  1  0  0  0  0
 17 18  1  0  0  0  0
 18 19  2  0  0  0  0
 18 20  1  0  0  0  0
 20 21  1  0  0  0  0
 21 37  1  0  0  0  0
 21 38  1  0  0  0  0
 21 39  1  0  0  0  0
M  CHG  1  17  -1
M  END
> <s_m_source_file>
AV-unprocessed.smi

> <i_m_source_file_index>
539

> <i_lp_mmshare_version>
43012

> <i_f3d_flags>
0

> <s_epik_input>
W0NIM11uMWMoPU8pW25IXWMoPU8pYyhjMTIpbihbQ0gyXVtDSDJdT1tDSDNdKWMobjIpTjNbQ0gyXVtDSDJdW0NIMl1bQ0gyXTM=

> <s_epik_cmdline>
J2VwaWtfcHl0aG9uJywgJy1waCcsICc3LjAnLCAnLXRuJywgJzgnLCAnLW1hJywgJzIwMCcsICctbWV0YWxfYmluZGluZycsICctaW1hZScsICc8aW5maWxlLm1hZT4nLCAnLW9tYWUnLCAnPG91dGZpbGUubWFlPic=

> <r_lp_tautomer_probability>
1

> <r_epik_Ionization_Penalty>
6.13244

> <r_epik_Ionization_Penalty_Charging>
0.078064

> <r_epik_Ionization_Penalty_Neutral>
6.05438

> <r_epik_State_Penalty>
6.05106

> <r_epik_Charging_Adjusted_Penalty>
6.12912

> <i_epik_Tot_Q>
-1

> <i_epik_Tot_abs_Q>
1

> <r_epik_Metal_State_Penalty>
2.00027

> <b_epik_Metal_Only>
1

> <s_lp_Force_Field>
OPLS_2005

> <r_lp_Energy>
49.7723

> <b_lp_Chiralities_Consistent>
1

> <s_lp_Variant>
AV-unprocessed.smi:539-2

> <Gold.Version>
5.8.1

> <Gold.Id.Protein>
6NUR|6NUR_protein|mol2

> <Gold.PLP.Fitness>
46.5561

> <Gold.PLP.PLP>
-39.3670

> <Gold.PLP.part.hbond>
-3.7114

> <Gold.PLP.part.metal>
0.0000

> <Gold.PLP.part.buried>
-5.4928

> <Gold.PLP.part.nonpolar>
-29.7367

> <Gold.PLP.part.repulsive>
0.3404

> <Gold.PLP.ligand.clash>
0.0000

> <Gold.PLP.ligand.torsion>
0.3292

> <Gold.PLP.Chemscore.Hbond>
2.6080

> <Gold.PLP.Chemscore.CHOScore>
0.0000

> <Gold.PLP.Chemscore.Metal>
0.0000

> <Gold.Chemscore.Hbonds>
donor molecule, donor type, donor heavy atom, donor atom, acceptor molecule, acceptor atom, score
      P1  H  7989  7998       L1    16  1.00
      P1  H  8011  8017       L1     2  0.43
      P1  H 10752 10765       L1    19  1.00

> <Gold.PLP.Chemscore.Internal.Correction>
0.0236

> <Gold.Rescore>
     Score         DG    S(hbond)    S(metal)    S(lipo)     H(rot)  DE(clash)    DE(int)     intcor
     16.22     -18.13       2.27        0.00      75.96       1.50       0.26       1.65       ----

> <Gold.Chemscore.Fitness>
16.2171

> <Gold.Chemscore.DG>
-18.1327

> <Gold.Chemscore.ZeroCoef>
-5.4800

> <Gold.Chemscore.Hbond>
2.2739

> <Gold.Chemscore.Metal>
0.0000

> <Gold.Chemscore.Lipo>
75.9552

> <Gold.Chemscore.Internal_Hbond>
0.0000

> <Gold.Chemscore.DEClash>
0.2641

> <Gold.Chemscore.DEInternal>
1.6515

> <Gold.Chemscore.Rot>
1.4957

> <Gold.Chemscore.Internal.Correction>
   9.000000E+99

> <Gold.Chemscore.Hbonds>
donor molecule, donor type, donor heavy atom, donor atom, acceptor molecule, acceptor atom, score
      P1  H  7989  7998       L1    16  0.98
      P1  H  8011  8017       L1     2  0.05
      P1  H 10752 10765       L1    19  0.85

> <Gold.Chemscore.Hbond.Weighted>
-7.5949

> <Gold.Chemscore.Metal.Weighted>
-0.0000

> <Gold.Chemscore.Lipo.Weighted>
-8.8868

> <Gold.Chemscore.Internal_Hbond.Weighted>
0.0000

> <Gold.Chemscore.DEClash.Weighted>
0.2641

> <Gold.Chemscore.DEInternal.Weighted>
1.6515

> <Gold.Chemscore.Rot.Weighted>
3.8290

> <Gold.Chemscore.Internal.Correction.Weighted>
   9.000000E+99

> <Gold.Protein.RotatedTorsions>
[ 6907 6896 6895 6894 ] final -143.22 input  -60.11 | X-H torsion
[ 7974 7965 7964 7962 ] final -120.64 input  175.53 | X-H torsion
[ 8008 7997 7996 7995 ] final   35.85 input   59.86 | X-H torsion
[ 10167 10162 10161 10158 ] final  118.05 input  -65.29 | X-H torsion
[ 10718 10713 10712 10709 ] final -134.95 input   66.30 | X-H torsion
[ 10763 10752 10751 10750 ] final -108.61 input  -60.55 | X-H torsion
[ 11005 11000 10999 10996 ] final -102.11 input  -57.11 | X-H torsion

> <Gold.Protein.ActiveResidues>
 VAL166  LYS551  ARG553  GLY616  TRP617  ASP618  TYR619  PRO620  LYS621  CYS622 
 ASP623  PHE694  ASN695  SER759  ASP760  ASP761  ALA762  ILE779  LEU786  VAL792 
 PHE793  MET794  SER795  GLU796  ALA797  LYS798  CYS799  TRP800  GLU811  SER814 

> <Gold.Protein.RotatedAtoms>
  151.0976  133.5268  159.2611 H   0  0  0  0  0  0  0  0  0  0  0  0  # atno 6907 bound_to 6896
  151.2111  135.0481  159.8921 H   0  0  0  0  0  0  0  0  0  0  0  0  # atno 6908 bound_to 6896
  152.5440  134.0791  159.8281 H   0  0  0  0  0  0  0  0  0  0  0  0  # atno 6909 bound_to 6896
  145.0492  140.8205  143.4220 H   0  0  0  0  0  0  0  0  0  0  0  0  # atno 7974 bound_to 7965
  155.1779  140.3297  155.4380 H   0  0  0  0  0  0  0  0  0  0  0  0  # atno 8008 bound_to 7997
  156.2487  140.1932  156.6829 H   0  0  0  0  0  0  0  0  0  0  0  0  # atno 8009 bound_to 7997
  154.6292  140.0585  156.9697 H   0  0  0  0  0  0  0  0  0  0  0  0  # atno 8010 bound_to 7997
  139.6137  144.7087  151.2787 H   0  0  0  0  0  0  0  0  0  0  0  0  # atno 10167 bound_to 10162
  156.2609  130.7209  151.1143 H   0  0  0  0  0  0  0  0  0  0  0  0  # atno 10718 bound_to 10713
  154.8145  135.4631  154.0606 H   0  0  0  0  0  0  0  0  0  0  0  0  # atno 10763 bound_to 10752
  153.2010  135.6869  153.8238 H   0  0  0  0  0  0  0  0  0  0  0  0  # atno 10764 bound_to 10752
  153.7722  135.3268  155.3331 H   0  0  0  0  0  0  0  0  0  0  0  0  # atno 10765 bound_to 10752
  141.1203  133.8531  157.1317 H   0  0  0  0  0  0  0  0  0  0  0  0  # atno 11005 bound_to 11000
  145.1549  139.2492  143.5421 LP  0  0  0  0  0  0  0  0  0  0  0  0  # atno 17320 bound_to 7965
  146.3516  140.1261  142.8598 LP  0  0  0  0  0  0  0  0  0  0  0  0  # atno 17321 bound_to 7965
  140.7336  143.6789  150.8018 LP  0  0  0  0  0  0  0  0  0  0  0  0  # atno 17342 bound_to 10162
  140.0388  143.5368  152.2727 LP  0  0  0  0  0  0  0  0  0  0  0  0  # atno 17343 bound_to 10162
  157.7250  131.0656  150.5971 LP  0  0  0  0  0  0  0  0  0  0  0  0  # atno 17370 bound_to 10713
  156.6059  130.4367  149.5878 LP  0  0  0  0  0  0  0  0  0  0  0  0  # atno 17371 bound_to 10713
  140.0155  134.9969  157.0485 LP  0  0  0  0  0  0  0  0  0  0  0  0  # atno 17394 bound_to 11000
  140.4527  134.1566  155.7183 LP  0  0  0  0  0  0  0  0  0  0  0  0  # atno 17395 bound_to 11000

$$$$
