AV-unprocessed.smi:2764|AV-procd|sdf|10642|dock5
  -GOLD-   2272015 93D 1   1.00000     0.00000
 Structure written by MMmdl.
 47 49  0  0  0  0  0  0  0  0  2 V2000
  149.4314  140.3524  156.4983 O   0  0  0  0  0  0  0  0  0  0  0  0
  149.3570  141.5444  156.2002 C   0  0  0  0  0  0  0  0  0  0  0  0
  150.0104  142.5451  156.8166 N   0  0  0  0  0  0  0  0  0  0  0  0
  150.8960  142.4648  157.9241 C   0  0  0  0  0  0  0  0  0  0  0  0
  151.4320  143.7008  158.3512 C   0  0  0  0  0  0  0  0  0  0  0  0
  152.3193  143.7307  159.4448 C   0  0  0  0  0  0  0  0  0  0  0  0
  152.6462  142.5209  160.0826 C   0  0  0  0  0  0  0  0  0  0  0  0
  153.4936  142.4994  161.1384 F   0  0  0  0  0  0  0  0  0  0  0  0
  152.0704  141.3333  159.5946 C   0  0  0  0  0  0  0  0  0  0  0  0
  151.2203  141.3035  158.5460 N   0  0  0  0  0  0  0  0  0  0  0  0
  148.5993  142.0073  155.1952 N   0  0  0  0  0  0  0  0  0  0  0  0
  147.7487  141.1905  154.3296 C   0  0  2  0  0  0  0  0  0  0  0  0
  147.0089  142.0400  153.2789 C   0  0  0  0  0  0  0  0  0  0  0  0
  145.9307  142.9327  153.9177 C   0  0  0  0  0  0  0  0  0  0  0  0
  144.9597  142.1354  154.7138 N   0  3  2  0  0  0  0  0  0  0  0  0
  143.8509  142.9794  155.2344 C   0  0  0  0  0  0  0  0  0  0  0  0
  144.2446  144.4572  155.4490 C   0  0  2  0  0  0  0  0  0  0  0  0
  143.3392  145.1644  156.4422 C   0  0  0  0  0  0  0  0  0  0  0  0
  143.5518  146.6269  156.0833 C   0  0  0  0  0  0  0  0  0  0  0  0
  143.5969  146.6156  154.6659 O   0  0  0  0  0  0  0  0  0  0  0  0
  144.1246  145.3703  154.2173 C   0  0  0  0  0  0  0  0  0  0  0  0
  145.6456  141.3393  155.7670 C   0  0  0  0  0  0  0  0  0  0  0  0
  146.7209  140.4140  155.1679 C   0  0  0  0  0  0  0  0  0  0  0  0
  149.8515  143.4744  156.4567 H   0  0  0  0  0  0  0  0  0  0  0  0
  151.1682  144.6208  157.8499 H   0  0  0  0  0  0  0  0  0  0  0  0
  152.7393  144.6651  159.7875 H   0  0  0  0  0  0  0  0  0  0  0  0
  152.2962  140.3836  160.0566 H   0  0  0  0  0  0  0  0  0  0  0  0
  148.5966  143.0026  155.0272 H   0  0  0  0  0  0  0  0  0  0  0  0
  148.3861  140.4680  153.8162 H   0  0  0  0  0  0  0  0  0  0  0  0
  147.7122  142.6510  152.7119 H   0  0  0  0  0  0  0  0  0  0  0  0
  146.5363  141.3771  152.5527 H   0  0  0  0  0  0  0  0  0  0  0  0
  146.3932  143.6877  154.5555 H   0  0  0  0  0  0  0  0  0  0  0  0
  145.4069  143.4687  153.1251 H   0  0  0  0  0  0  0  0  0  0  0  0
  142.9654  142.8872  154.6037 H   0  0  0  0  0  0  0  0  0  0  0  0
  143.5604  142.5860  156.2097 H   0  0  0  0  0  0  0  0  0  0  0  0
  145.2639  144.5139  155.8351 H   0  0  0  0  0  0  0  0  0  0  0  0
  142.2962  144.8908  156.2756 H   0  0  0  0  0  0  0  0  0  0  0  0
  143.5880  144.9434  157.4805 H   0  0  0  0  0  0  0  0  0  0  0  0
  142.7587  147.2752  156.4563 H   0  0  0  0  0  0  0  0  0  0  0  0
  144.5052  146.9869  156.4733 H   0  0  0  0  0  0  0  0  0  0  0  0
  145.0941  145.5273  153.7437 H   0  0  0  0  0  0  0  0  0  0  0  0
  143.4456  144.9594  153.4694 H   0  0  0  0  0  0  0  0  0  0  0  0
  146.0896  142.0115  156.5028 H   0  0  0  0  0  0  0  0  0  0  0  0
  144.9293  140.7204  156.3017 H   0  0  0  0  0  0  0  0  0  0  0  0
  146.2360  139.6675  154.5371 H   0  0  0  0  0  0  0  0  0  0  0  0
  147.2219  139.8586  155.9619 H   0  0  0  0  0  0  0  0  0  0  0  0
  144.5435  141.4785  154.0692 H   0  0  0  0  0  0  0  0  0  0  0  0
  1  2  2  0  0  0  0
  2  3  1  0  0  0  0
  2 11  1  0  0  0  0
  3  4  1  0  0  0  0
  3 24  1  0  0  0  0
  4 10  1  0  0  0  0
  4  5  2  0  0  0  0
  5  6  1  0  0  0  0
  5 25  1  0  0  0  0
  6  7  2  0  0  0  0
  6 26  1  0  0  0  0
  7  8  1  0  0  0  0
  7  9  1  0  0  0  0
  9 10  2  0  0  0  0
  9 27  1  0  0  0  0
 11 12  1  0  0  0  0
 11 28  1  0  0  0  0
 12 23  1  0  0  0  0
 12 13  1  0  0  0  0
 12 29  1  0  0  0  0
 13 14  1  0  0  0  0
 13 30  1  0  0  0  0
 13 31  1  0  0  0  0
 14 15  1  0  0  0  0
 14 32  1  0  0  0  0
 14 33  1  0  0  0  0
 15 16  1  0  0  0  0
 15 22  1  0  0  0  0
 15 47  1  0  0  0  0
 16 17  1  0  0  0  0
 16 34  1  0  0  0  0
 16 35  1  0  0  0  0
 17 21  1  0  0  0  0
 17 18  1  0  0  0  0
 17 36  1  0  0  0  0
 18 19  1  0  0  0  0
 18 37  1  0  0  0  0
 18 38  1  0  0  0  0
 19 20  1  0  0  0  0
 19 39  1  0  0  0  0
 19 40  1  0  0  0  0
 20 21  1  0  0  0  0
 21 41  1  0  0  0  0
 21 42  1  0  0  0  0
 22 23  1  0  0  0  0
 22 43  1  0  0  0  0
 22 44  1  0  0  0  0
 23 45  1  0  0  0  0
 23 46  1  0  0  0  0
M  CHG  1  15   1
M  END
> <s_m_source_file>
AV-unprocessed.smi

> <i_m_source_file_index>
2764

> <i_lp_mmshare_version>
43012

> <i_f3d_flags>
0

> <s_epik_input>
bjFbY0hdYyhGKVtjSF1bY0hdYzFbTkhdQyg9TylbTkhdW0NIXTJbQ0gyXVtDSDJdTihbQ0gyXVtDSDJdMilbQ0gyXVtDQEBIXTNbQ0gyXVtDSDJdT1tDSDJdMw==

> <s_epik_cmdline>
J2VwaWtfcHl0aG9uJywgJy1waCcsICc3LjAnLCAnLXRuJywgJzgnLCAnLW1hJywgJzIwMCcsICctbWV0YWxfYmluZGluZycsICctaW1hZScsICc8aW5maWxlLm1hZT4nLCAnLW9tYWUnLCAnPG91dGZpbGUubWFlPic=

> <r_epik_Ionization_Penalty>
0.0075076

> <r_epik_Ionization_Penalty_Charging>
0.00747775

> <r_epik_Ionization_Penalty_Neutral>
2.98483e-05

> <r_epik_State_Penalty>
0.00558817

> <r_epik_Charging_Adjusted_Penalty>
0.0130659

> <i_epik_Tot_Q>
1

> <i_epik_Tot_abs_Q>
1

> <r_epik_Metal_State_Penalty>
-0

> <b_epik_Metal_Only>
0

> <s_lp_Force_Field>
OPLS_2005

> <r_lp_Energy>
37.0331

> <b_lp_Chiralities_Consistent>
1

> <s_lp_Variant>
AV-unprocessed.smi:2764-3

> <Gold.Version>
5.8.1

> <Gold.Id.Protein>
6NUR|6NUR_protein|mol2

> <Gold.PLP.Fitness>
52.9605

> <Gold.PLP.PLP>
-42.7614

> <Gold.PLP.part.hbond>
-4.0000

> <Gold.PLP.part.metal>
0.0000

> <Gold.PLP.part.buried>
-8.4938

> <Gold.PLP.part.nonpolar>
-31.8387

> <Gold.PLP.part.repulsive>
0.2056

> <Gold.PLP.ligand.clash>
0.3336

> <Gold.PLP.ligand.torsion>
0.7447

> <Gold.PLP.Chemscore.Hbond>
3.9920

> <Gold.PLP.Chemscore.CHOScore>
0.0000

> <Gold.PLP.Chemscore.Metal>
0.0000

> <Gold.Chemscore.Hbonds>
donor molecule, donor type, donor heavy atom, donor atom, acceptor molecule, acceptor atom, score
      L1  H     3    24       P1  8028  1.00
      L1  H    11    28       P1  8028  1.00
      L1  H    15    47       P1 10175  1.95

> <Gold.PLP.Chemscore.Internal.Correction>
0.0462

> <Gold.Rescore>
     Score         DG    S(hbond)    S(metal)    S(lipo)     H(rot)  DE(clash)    DE(int)     intcor
     17.46     -21.73       2.68        0.00      94.86       1.49       1.31       2.96       ----

> <Gold.Chemscore.Fitness>
17.4607

> <Gold.Chemscore.DG>
-21.7299

> <Gold.Chemscore.ZeroCoef>
-5.4800

> <Gold.Chemscore.Hbond>
2.6836

> <Gold.Chemscore.Metal>
0.0000

> <Gold.Chemscore.Lipo>
94.8599

> <Gold.Chemscore.Internal_Hbond>
0.0000

> <Gold.Chemscore.DEClash>
1.3088

> <Gold.Chemscore.DEInternal>
2.9603

> <Gold.Chemscore.Rot>
1.4891

> <Gold.Chemscore.Internal.Correction>
   9.000000E+99

> <Gold.Chemscore.Hbonds>
donor molecule, donor type, donor heavy atom, donor atom, acceptor molecule, acceptor atom, score
      L1  H     3    24       P1  8028  0.98
      L1  H    11    28       P1  8028  0.94
      L1  H    15    47       P1 10175  0.28

> <Gold.Chemscore.Hbond.Weighted>
-8.9634

> <Gold.Chemscore.Metal.Weighted>
-0.0000

> <Gold.Chemscore.Lipo.Weighted>
-11.0986

> <Gold.Chemscore.Internal_Hbond.Weighted>
0.0000

> <Gold.Chemscore.DEClash.Weighted>
1.3088

> <Gold.Chemscore.DEInternal.Weighted>
2.9603

> <Gold.Chemscore.Rot.Weighted>
3.8121

> <Gold.Chemscore.Internal.Correction.Weighted>
   9.000000E+99

> <Gold.Protein.RotatedTorsions>
[ 6907 6896 6895 6894 ] final -103.12 input  -60.11 | X-H torsion
[ 7974 7965 7964 7962 ] final -178.66 input  175.53 | X-H torsion
[ 8008 7997 7996 7995 ] final  -72.77 input   59.86 | X-H torsion
[ 10167 10162 10161 10158 ] final  -39.12 input  -65.29 | X-H torsion
[ 10718 10713 10712 10709 ] final  -21.43 input   66.30 | X-H torsion
[ 10763 10752 10751 10750 ] final   74.11 input  -60.55 | X-H torsion
[ 11005 11000 10999 10996 ] final  -36.37 input  -57.11 | X-H torsion

> <Gold.Protein.ActiveResidues>
 VAL166  LYS551  ARG553  GLY616  TRP617  ASP618  TYR619  PRO620  LYS621  CYS622 
 ASP623  PHE694  ASN695  SER759  ASP760  ASP761  ALA762  ILE779  LEU786  VAL792 
 PHE793  MET794  SER795  GLU796  ALA797  LYS798  CYS799  TRP800  GLU811  SER814 

> <Gold.Protein.RotatedAtoms>
  150.7226  134.0477  159.3787 H   0  0  0  0  0  0  0  0  0  0  0  0  # atno 6907 bound_to 6896
  151.8453  135.0574  160.0462 H   0  0  0  0  0  0  0  0  0  0  0  0  # atno 6908 bound_to 6896
  152.2831  133.5454  159.5547 H   0  0  0  0  0  0  0  0  0  0  0  0  # atno 6909 bound_to 6896
  144.7132  140.0835  143.6424 H   0  0  0  0  0  0  0  0  0  0  0  0  # atno 7974 bound_to 7965
  154.5193  140.0791  156.8141 H   0  0  0  0  0  0  0  0  0  0  0  0  # atno 8008 bound_to 7997
  155.3611  140.3418  155.4222 H   0  0  0  0  0  0  0  0  0  0  0  0  # atno 8009 bound_to 7997
  156.1663  140.1605  156.8513 H   0  0  0  0  0  0  0  0  0  0  0  0  # atno 8010 bound_to 7997
  140.7073  143.3234  151.2738 H   0  0  0  0  0  0  0  0  0  0  0  0  # atno 10167 bound_to 10162
  156.5183  130.4626  149.6611 H   0  0  0  0  0  0  0  0  0  0  0  0  # atno 10718 bound_to 10713
  153.0565  135.5038  154.7993 H   0  0  0  0  0  0  0  0  0  0  0  0  # atno 10763 bound_to 10752
  154.6815  135.2969  154.9609 H   0  0  0  0  0  0  0  0  0  0  0  0  # atno 10764 bound_to 10752
  154.0393  135.6719  153.4841 H   0  0  0  0  0  0  0  0  0  0  0  0  # atno 10765 bound_to 10752
  140.9870  133.7025  156.1782 H   0  0  0  0  0  0  0  0  0  0  0  0  # atno 11005 bound_to 11000
  145.9682  139.2850  143.1115 LP  0  0  0  0  0  0  0  0  0  0  0  0  # atno 17320 bound_to 7965
  145.9146  140.9157  143.0436 LP  0  0  0  0  0  0  0  0  0  0  0  0  # atno 17321 bound_to 7965
  139.6695  144.0046  152.2744 LP  0  0  0  0  0  0  0  0  0  0  0  0  # atno 17342 bound_to 10162
  139.9640  144.6539  150.8052 LP  0  0  0  0  0  0  0  0  0  0  0  0  # atno 17343 bound_to 10162
  156.3174  130.7262  151.2167 LP  0  0  0  0  0  0  0  0  0  0  0  0  # atno 17370 bound_to 10713
  157.7440  131.0465  150.4896 LP  0  0  0  0  0  0  0  0  0  0  0  0  # atno 17371 bound_to 10713
  140.7100  134.4472  157.5582 LP  0  0  0  0  0  0  0  0  0  0  0  0  # atno 17394 bound_to 11000
  139.8975  134.8636  156.2042 LP  0  0  0  0  0  0  0  0  0  0  0  0  # atno 17395 bound_to 11000

$$$$
