AV-unprocessed.smi:3091|AV-procd|sdf|11781|dock2
  -GOLD-   2272017163D 1   1.00000     0.00000
 Structure written by MMmdl.
 28 29  0  0  0  0  0  0  0  0  1 V2000
  149.2153  138.5959  153.3558 N   0  0  0  0  0  0  0  0  0  0  0  0
  150.3615  138.3487  154.2073 C   0  0  0  0  0  0  0  0  0  0  0  0
  150.6290  139.4926  155.1646 C   0  0  0  0  0  0  0  0  0  0  0  0
  149.8540  140.6686  155.1155 C   0  0  0  0  0  0  0  0  0  0  0  0
  150.1431  141.6990  156.0308 C   0  0  0  0  0  0  0  0  0  0  0  0
  151.1237  141.6162  156.9546 N   0  0  0  0  0  0  0  0  0  0  0  0
  151.8683  140.4834  157.0029 C   0  0  0  0  0  0  0  0  0  0  0  0
  152.8750  140.3801  157.9427 O   0  0  0  0  0  0  0  0  0  0  0  0
  152.5665  140.5493  159.3280 C   0  0  1  0  0  0  0  0  0  0  0  0
  153.7775  140.2407  160.1992 C   0  0  0  0  0  0  0  0  0  0  0  0
  154.4911  141.5831  160.2571 C   0  0  0  0  0  0  0  0  0  0  0  0
  153.4210  142.5043  160.3790 O   0  0  0  0  0  0  0  0  0  0  0  0
  152.3319  142.0460  159.5832 C   0  0  0  0  0  0  0  0  0  0  0  0
  151.6561  139.3998  156.1261 C   0  0  0  0  0  0  0  0  0  0  0  0
  149.4249  139.3518  152.7191 H   0  0  0  0  0  0  0  0  0  0  0  0
  149.0276  137.7811  152.7894 H   0  0  0  0  0  0  0  0  0  0  0  0
  150.1941  137.4330  154.7750 H   0  0  0  0  0  0  0  0  0  0  0  0
  151.2364  138.1793  153.5791 H   0  0  0  0  0  0  0  0  0  0  0  0
  149.0566  140.7825  154.3959 H   0  0  0  0  0  0  0  0  0  0  0  0
  149.5700  142.6143  156.0216 H   0  0  0  0  0  0  0  0  0  0  0  0
  151.6859  139.9735  159.6183 H   0  0  0  0  0  0  0  0  0  0  0  0
  153.4498  139.9574  161.2002 H   0  0  0  0  0  0  0  0  0  0  0  0
  154.4098  139.4404  159.8141 H   0  0  0  0  0  0  0  0  0  0  0  0
  155.1859  141.6582  161.0938 H   0  0  0  0  0  0  0  0  0  0  0  0
  155.0376  141.7749  159.3324 H   0  0  0  0  0  0  0  0  0  0  0  0
  152.2887  142.6106  158.6508 H   0  0  0  0  0  0  0  0  0  0  0  0
  151.3986  142.2199  160.1194 H   0  0  0  0  0  0  0  0  0  0  0  0
  152.2695  138.5132  156.1933 H   0  0  0  0  0  0  0  0  0  0  0  0
  1  2  1  0  0  0  0
  1 15  1  0  0  0  0
  1 16  1  0  0  0  0
  2  3  1  0  0  0  0
  2 17  1  0  0  0  0
  2 18  1  0  0  0  0
  3 14  1  0  0  0  0
  3  4  2  0  0  0  0
  4  5  1  0  0  0  0
  4 19  1  0  0  0  0
  5  6  2  0  0  0  0
  5 20  1  0  0  0  0
  6  7  1  0  0  0  0
  7  8  1  0  0  0  0
  7 14  2  0  0  0  0
  8  9  1  0  0  0  0
  9 13  1  0  0  0  0
  9 10  1  0  0  0  0
  9 21  1  0  0  0  0
 10 11  1  0  0  0  0
 10 22  1  0  0  0  0
 10 23  1  0  0  0  0
 11 12  1  0  0  0  0
 11 24  1  0  0  0  0
 11 25  1  0  0  0  0
 12 13  1  0  0  0  0
 13 26  1  0  0  0  0
 13 27  1  0  0  0  0
 14 28  1  0  0  0  0
M  END
> <s_m_source_file>
AV-unprocessed.smi

> <i_m_source_file_index>
3091

> <i_lp_mmshare_version>
43012

> <i_f3d_flags>
0

> <s_epik_input>
W05IMl1bQ0gyXWMxW2NIXVtjSF1uYyhbY0hdMSlPW0NAQEhdMltDSDJdW0NIMl1PW0NIMl0y

> <s_epik_cmdline>
J2VwaWtfcHl0aG9uJywgJy1waCcsICc3LjAnLCAnLXRuJywgJzgnLCAnLW1hJywgJzIwMCcsICctbWV0YWxfYmluZGluZycsICctaW1hZScsICc8aW5maWxlLm1hZT4nLCAnLW9tYWUnLCAnPG91dGZpbGUubWFlPic=

> <r_lp_tautomer_probability>
1

> <r_epik_Ionization_Penalty>
1.24495

> <r_epik_Ionization_Penalty_Charging>
0

> <r_epik_Ionization_Penalty_Neutral>
1.24495

> <r_epik_State_Penalty>
1.3141

> <r_epik_Charging_Adjusted_Penalty>
1.3141

> <i_epik_Tot_Q>
0

> <i_epik_Tot_abs_Q>
0

> <r_epik_Metal_State_Penalty>
1.31398

> <b_epik_Metal_Only>
0

> <s_lp_Force_Field>
OPLS_2005

> <r_lp_Energy>
15.3378

> <b_lp_Chiralities_Consistent>
1

> <s_lp_Variant>
AV-unprocessed.smi:3091-4

> <Gold.Version>
5.8.1

> <Gold.Id.Protein>
6NUR|6NUR_protein|mol2

> <Gold.PLP.Fitness>
41.1613

> <Gold.PLP.PLP>
-29.6839

> <Gold.PLP.part.hbond>
-2.8420

> <Gold.PLP.part.metal>
0.0000

> <Gold.PLP.part.buried>
-2.0589

> <Gold.PLP.part.nonpolar>
-23.5269

> <Gold.PLP.part.repulsive>
0.0530

> <Gold.PLP.ligand.clash>
0.0000

> <Gold.PLP.ligand.torsion>
0.0907

> <Gold.PLP.Chemscore.Hbond>
2.8800

> <Gold.PLP.Chemscore.CHOScore>
1.0000

> <Gold.PLP.Chemscore.Metal>
0.0000

> <Gold.Chemscore.Hbonds>
donor molecule, donor type, donor heavy atom, donor atom, acceptor molecule, acceptor atom, score
      L1  H     1    15       P1  7957  1.00
      L1  H     1    16       P1  7948  1.00
      P1  H  7997  8009       L1     8  0.88
      L1  C     5    20       P1  8028  1.00

> <Gold.PLP.Chemscore.Internal.Correction>
0.0188

> <Gold.Rescore>
     Score         DG    S(hbond)    S(metal)    S(lipo)     H(rot)  DE(clash)    DE(int)     intcor
     18.41     -18.93       2.78        0.00      69.25       1.54       0.28       0.24       ----

> <Gold.Chemscore.Fitness>
18.4067

> <Gold.Chemscore.DG>
-18.9253

> <Gold.Chemscore.ZeroCoef>
-5.4800

> <Gold.Chemscore.Hbond>
2.7821

> <Gold.Chemscore.Metal>
0.0000

> <Gold.Chemscore.Lipo>
69.2466

> <Gold.Chemscore.Internal_Hbond>
0.0000

> <Gold.Chemscore.DEClash>
0.2753

> <Gold.Chemscore.DEInternal>
0.2433

> <Gold.Chemscore.Rot>
1.5424

> <Gold.Chemscore.Internal.Correction>
   9.000000E+99

> <Gold.Chemscore.Hbonds>
donor molecule, donor type, donor heavy atom, donor atom, acceptor molecule, acceptor atom, score
      L1  H     1    15       P1  7957  0.97
      L1  H     1    16       P1  7948  1.00
      P1  H  7997  8009       L1     8  0.34

> <Gold.Chemscore.Hbond.Weighted>
-9.2921

> <Gold.Chemscore.Metal.Weighted>
-0.0000

> <Gold.Chemscore.Lipo.Weighted>
-8.1018

> <Gold.Chemscore.Internal_Hbond.Weighted>
0.0000

> <Gold.Chemscore.DEClash.Weighted>
0.2753

> <Gold.Chemscore.DEInternal.Weighted>
0.2433

> <Gold.Chemscore.Rot.Weighted>
3.9487

> <Gold.Chemscore.Internal.Correction.Weighted>
   9.000000E+99

> <Gold.Protein.RotatedTorsions>
[ 6907 6896 6895 6894 ] final  -31.33 input  -60.11 | X-H torsion
[ 7974 7965 7964 7962 ] final  -16.20 input  175.53 | X-H torsion
[ 8008 7997 7996 7995 ] final  166.42 input   59.86 | X-H torsion
[ 10167 10162 10161 10158 ] final  -70.05 input  -65.29 | X-H torsion
[ 10718 10713 10712 10709 ] final   -0.12 input   66.30 | X-H torsion
[ 10763 10752 10751 10750 ] final   98.53 input  -60.55 | X-H torsion
[ 11005 11000 10999 10996 ] final  153.62 input  -57.11 | X-H torsion

> <Gold.Protein.ActiveResidues>
 VAL166  LYS551  ARG553  GLY616  TRP617  ASP618  TYR619  PRO620  LYS621  CYS622 
 ASP623  PHE694  ASN695  SER759  ASP760  ASP761  ALA762  ILE779  LEU786  VAL792 
 PHE793  MET794  SER795  GLU796  ALA797  LYS798  CYS799  TRP800  GLU811  SER814 

> <Gold.Protein.RotatedAtoms>
  151.0935  134.9930  159.8413 H   0  0  0  0  0  0  0  0  0  0  0  0  # atno 6907 bound_to 6896
  152.5431  134.2037  159.8732 H   0  0  0  0  0  0  0  0  0  0  0  0  # atno 6908 bound_to 6896
  151.2075  133.4531  159.2631 H   0  0  0  0  0  0  0  0  0  0  0  0  # atno 6909 bound_to 6896
  146.1998  140.3602  142.8427 H   0  0  0  0  0  0  0  0  0  0  0  0  # atno 7974 bound_to 7965
  156.1720  140.1644  156.8431 H   0  0  0  0  0  0  0  0  0  0  0  0  # atno 8008 bound_to 7997
  154.5266  140.0766  156.8304 H   0  0  0  0  0  0  0  0  0  0  0  0  # atno 8009 bound_to 7997
  155.3493  140.3389  155.4241 H   0  0  0  0  0  0  0  0  0  0  0  0  # atno 8010 bound_to 7997
  140.5383  143.2316  151.7137 H   0  0  0  0  0  0  0  0  0  0  0  0  # atno 10167 bound_to 10162
  156.8252  130.5470  149.5693 H   0  0  0  0  0  0  0  0  0  0  0  0  # atno 10718 bound_to 10713
  153.2901  135.4145  155.1159 H   0  0  0  0  0  0  0  0  0  0  0  0  # atno 10763 bound_to 10752
  154.8518  135.3516  154.5992 H   0  0  0  0  0  0  0  0  0  0  0  0  # atno 10764 bound_to 10752
  153.6415  135.7056  153.5298 H   0  0  0  0  0  0  0  0  0  0  0  0  # atno 10765 bound_to 10752
  140.1414  134.8736  157.2336 H   0  0  0  0  0  0  0  0  0  0  0  0  # atno 11005 bound_to 11000
  144.8659  140.7205  143.6078 LP  0  0  0  0  0  0  0  0  0  0  0  0  # atno 17320 bound_to 7965
  145.3521  139.1703  143.4429 LP  0  0  0  0  0  0  0  0  0  0  0  0  # atno 17321 bound_to 7965
  139.4979  144.4009  152.0183 LP  0  0  0  0  0  0  0  0  0  0  0  0  # atno 17342 bound_to 10162
  140.3116  144.3532  150.6032 LP  0  0  0  0  0  0  0  0  0  0  0  0  # atno 17343 bound_to 10162
  156.0966  130.5937  150.9823 LP  0  0  0  0  0  0  0  0  0  0  0  0  # atno 17370 bound_to 10713
  157.6436  131.0907  150.8200 LP  0  0  0  0  0  0  0  0  0  0  0  0  # atno 17371 bound_to 10713
  140.2717  134.3452  155.7371 LP  0  0  0  0  0  0  0  0  0  0  0  0  # atno 17394 bound_to 11000
  141.2186  133.7427  156.9233 LP  0  0  0  0  0  0  0  0  0  0  0  0  # atno 17395 bound_to 11000

$$$$
