#       Name:                AV-unprocessed.smi:2160
#       Creating user name   scv26
#       Creation time:       Fri Mar 27 11:58:13 2020


#       File generated by GOLD software.
#

@<TRIPOS>MOLECULE
AV-unprocessed.smi:2160
    50    52     1
SMALL
NO_CHARGES


@<TRIPOS>ATOM
      1 ****        -5.4145   1.5480  -0.7341 C.3            1 S1                 0.0000
      2 ****        -4.8735   0.7286   0.2918 O.3            1 S1                 0.0000
      3 ****        -3.5419   0.8855   0.6113 C.ar           1 S1                 0.0000
      4 ****        -2.6825   1.8338   0.0011 C.ar           1 S1                 0.0000
      5 ****        -1.3301   1.9211   0.3840 C.ar           1 S1                 0.0000
      6 ****        -0.8142   1.0614   1.3744 C.ar           1 S1                 0.0000
      7 ****         0.6463   1.1385   1.7715 C.3            1 S1                 0.0000
      8 ****         1.2641  -0.1355   1.7012 O.3            1 S1                 0.0000
      9 ****         2.6691  -0.0864   1.8873 C.3            1 S1                 0.0000
     10 ****         3.2819  -1.4792   1.6448 C.3            1 S1                 0.0000
     11 ****         3.1443  -2.2611   2.8123 O.3            1 S1                 0.0000
     12 ****         2.7221  -2.2482   0.4278 C.3            1 S1                 0.0000
     13 ****         2.6179  -1.4267  -0.7663 N.pl3          1 S1                 0.0000
     14 ****         3.6322  -0.9095  -1.4857 C.2            1 S1                 0.0000
     15 ****         3.3144  -0.1715  -2.5453 N.2            1 S1                 0.0000
     16 ****         1.9313  -0.2239  -2.5178 C.ar           1 S1                 0.0000
     17 ****         0.9742   0.3619  -3.3772 C.ar           1 S1                 0.0000
     18 ****        -0.4043   0.1669  -3.1512 C.ar           1 S1                 0.0000
     19 ****        -0.8465  -0.6171  -2.0662 C.ar           1 S1                 0.0000
     20 ****         0.0879  -1.2089  -1.1954 C.ar           1 S1                 0.0000
     21 ****         1.4630  -1.0091  -1.4214 C.ar           1 S1                 0.0000
     22 ****        -1.6660   0.1250   1.9926 C.ar           1 S1                 0.0000
     23 ****        -3.0184   0.0398   1.6106 C.ar           1 S1                 0.0000
     24 ****        -6.4647   1.2959  -0.8797 H              1 S1                 0.0000
     25 ****        -4.9028   1.3875  -1.6839 H              1 S1                 0.0000
     26 ****        -5.3629   2.6046  -0.4690 H              1 S1                 0.0000
     27 ****        -3.0354   2.5040  -0.7677 H              1 S1                 0.0000
     28 ****        -0.6877   2.6438  -0.0975 H              1 S1                 0.0000
     29 ****         1.1593   1.8400   1.1114 H              1 S1                 0.0000
     30 ****         0.7219   1.5316   2.7860 H              1 S1                 0.0000
     31 ****         3.0979   0.6139   1.1687 H              1 S1                 0.0000
     32 ****         2.9175   0.2885   2.8814 H              1 S1                 0.0000
     33 ****         4.3542  -1.3428   1.4998 H              1 S1                 0.0000
     34 ****         2.2224  -2.3737   2.9878 H              1 S1                 0.0000
     35 ****         3.3501  -3.1110   0.2017 H              1 S1                 0.0000
     36 ****         1.7314  -2.6410   0.6591 H              1 S1                 0.0000
     37 ****         4.6630  -1.0765  -1.2090 H              1 S1                 0.0000
     38 ****         1.3014   0.9629  -4.2125 H              1 S1                 0.0000
     39 ****        -1.1262   0.6209  -3.8140 H              1 S1                 0.0000
     40 ****        -1.9042  -0.7585  -1.8977 H              1 S1                 0.0000
     41 ****        -0.2508  -1.8003  -0.3579 H              1 S1                 0.0000
     42 ****        -1.2820  -0.5359   2.7559 H              1 S1                 0.0000
     43 ****        -3.6605  -0.6859   2.0875 H              1 S1                 0.0000
     44 ****        -5.0018  -0.2226   0.0112 LP             1 S1                 0.0000
     45 ****        -5.4013   0.9051   1.1226 LP             1 S1                 0.0000
     46 ****         1.0763  -0.5306   0.8019 LP             1 S1                 0.0000
     47 ****         0.8698  -0.7195   2.4108 LP             1 S1                 0.0000
     48 ****         3.5810  -1.7973   3.5831 LP             1 S1                 0.0000
     49 ****         3.5735  -3.1537   2.6739 LP             1 S1                 0.0000
     50 ****         3.9161   0.2977  -3.1917 LP             1 S1                 0.0000
@<TRIPOS>BOND
    1    1    2 1     
    2    1   24 1     
    3    1   25 1     
    4    1   26 1     
    5    2    3 1     
    6    3   23 ar    
    7    3    4 ar    
    8    4    5 ar    
    9    4   27 1     
   10    5    6 ar    
   11    5   28 1     
   12    6    7 1     
   13    6   22 ar    
   14    7    8 1     
   15    7   29 1     
   16    7   30 1     
   17    8    9 1     
   18    9   10 1     
   19    9   31 1     
   20    9   32 1     
   21   10   11 1     
   22   10   12 1     
   23   10   33 1     
   24   11   34 1     
   25   12   13 1     
   26   12   35 1     
   27   12   36 1     
   28   13   21 1     
   29   13   14 1     
   30   14   15 2     
   31   14   37 1     
   32   15   16 1     
   33   16   21 ar    
   34   16   17 ar    
   35   17   18 ar    
   36   17   38 1     
   37   18   19 ar    
   38   18   39 1     
   39   19   20 ar    
   40   19   40 1     
   41   20   21 ar    
   42   20   41 1     
   43   22   23 ar    
   44   22   42 1     
   45   23   43 1     
   46    2   44 1     
   47    2   45 1     
   48    8   46 1     
   49    8   47 1     
   50   11   48 1     
   51   11   49 1     
   52   15   50 1     
@<TRIPOS>SUBSTRUCTURE
      1 S1             1
@<TRIPOS>SET
LONE_PAIRS      STATIC     ATOMS    <user>   **** ""
7 44 45 46 47 48 49 50
DONOR_HYDROGENS      STATIC     ATOMS    <user>   **** ""
1 34
ATOM$BLUE        STATIC     ATOMS    COLORGROUP SYSTEM
7 44 45 46 47 48 49 50
ATOM$RED        STATIC     ATOMS    COLORGROUP SYSTEM
1 34
