#       Name:                AV-unprocessed.smi:138
#       Creating user name   scv26
#       Creation time:       Thu Mar 26 18:33:13 2020


#       File generated by GOLD software.
#

@<TRIPOS>MOLECULE
AV-unprocessed.smi:138
    62    65     1
SMALL
NO_CHARGES


@<TRIPOS>ATOM
      1 ****        -4.3286   0.5653  -2.6414 C.3            1 S1                 0.0000
      2 ****        -3.0496  -0.0541  -2.1761 C.2            1 S1                 0.0000
      3 ****        -1.8216   0.5125  -2.0035 C.2            1 S1                 0.0000
      4 ****        -0.9214  -0.4878  -1.5421 C.2            1 S1                 0.0000
      5 ****         0.5261  -0.3515  -1.2386 C.2            1 S1                 0.0000
      6 ****         1.2478  -1.3063  -0.9470 O.2            1 S1                 0.0000
      7 ****         1.0946   1.0777  -1.3197 C.3            1 S1                 0.0000
      8 ****         2.5050   1.1533  -0.9572 N.am           1 S1                 0.0000
      9 ****         3.4631   0.9920  -1.9891 C.2            1 S1                 0.0000
     10 ****         3.1381   0.7997  -3.1621 O.2            1 S1                 0.0000
     11 ****         4.8496   1.0553  -1.5418 C.2            1 S1                 0.0000
     12 ****         5.8436   0.9049  -2.4337 F              1 S1                 0.0000
     13 ****         5.1543   1.2588  -0.2421 C.2            1 S1                 0.0000
     14 ****         4.1999   1.4285   0.7447 N.am           1 S1                 0.0000
     15 ****         4.6544   1.5996   2.1782 C.3            1 S1                 0.0000
     16 ****         4.1937   2.9159   2.8219 C.3            1 S1                 0.0000
     17 ****         3.9623   2.4775   4.2518 C.3            1 S1                 0.0000
     18 ****         3.4400   1.0568   4.0676 C.3            1 S1                 0.0000
     19 ****         4.1568   0.5430   2.9477 O.3            1 S1                 0.0000
     20 ****         2.8278   1.3464   0.4084 C.2            1 S1                 0.0000
     21 ****         1.9513   1.4266   1.2708 O.2            1 S1                 0.0000
     22 ****        -1.6347  -1.6595  -1.4246 C.2            1 S1                 0.0000
     23 ****        -1.2089  -3.0267  -0.9639 C.3            1 S1                 0.0000
     24 ****        -2.9436  -1.3974  -1.8365 N.pl3          1 S1                 0.0000
     25 ****        -4.0427  -2.3562  -1.8967 C.3            1 S1                 0.0000
     26 ****        -4.8771  -2.3511  -0.6566 C.2            1 S1                 0.0000
     27 ****        -6.1874  -2.0472  -0.4089 C.2            1 S1                 0.0000
     28 ****        -6.3858  -2.2311   0.9874 C.2            1 S1                 0.0000
     29 ****        -5.1814  -2.6350   1.4886 C.2            1 S1                 0.0000
     30 ****        -4.2511  -2.7144   0.4989 O.3            1 S1                 0.0000
     31 ****        -4.2125   1.6416  -2.7714 H              1 S1                 0.0000
     32 ****        -5.1287   0.4036  -1.9192 H              1 S1                 0.0000
     33 ****        -4.6405   0.1474  -3.5989 H              1 S1                 0.0000
     34 ****        -1.5929   1.5500  -2.1983 H              1 S1                 0.0000
     35 ****         0.9798   1.4867  -2.3245 H              1 S1                 0.0000
     36 ****         0.5424   1.7566  -0.6678 H              1 S1                 0.0000
     37 ****         6.1991   1.2912   0.0305 H              1 S1                 0.0000
     38 ****         5.7420   1.5189   2.1616 H              1 S1                 0.0000
     39 ****         4.9565   3.6883   2.7206 H              1 S1                 0.0000
     40 ****         3.2680   3.2792   2.3776 H              1 S1                 0.0000
     41 ****         4.9078   2.4608   4.7954 H              1 S1                 0.0000
     42 ****         3.2676   3.1215   4.7914 H              1 S1                 0.0000
     43 ****         3.5897   0.4383   4.9526 H              1 S1                 0.0000
     44 ****         2.3734   1.0675   3.8426 H              1 S1                 0.0000
     45 ****        -0.5140  -2.9609  -0.1274 H              1 S1                 0.0000
     46 ****        -0.7158  -3.5686  -1.7710 H              1 S1                 0.0000
     47 ****        -2.0417  -3.6316  -0.6109 H              1 S1                 0.0000
     48 ****        -4.6655  -2.1239  -2.7607 H              1 S1                 0.0000
     49 ****        -3.6537  -3.3549  -2.0909 H              1 S1                 0.0000
     50 ****        -6.9130  -1.7288  -1.1429 H              1 S1                 0.0000
     51 ****        -7.2940  -2.0856   1.5535 H              1 S1                 0.0000
     52 ****        -4.8283  -2.8949   2.4755 H              1 S1                 0.0000
     53 ****         0.8641  -2.2288  -0.9059 LP             1 S1                 0.0000
     54 ****         2.2173  -1.1588  -0.7515 LP             1 S1                 0.0000
     55 ****         2.1709   0.7531  -3.4118 LP             1 S1                 0.0000
     56 ****         3.8416   0.6903  -3.8644 LP             1 S1                 0.0000
     57 ****         4.9178  -0.0197   3.2704 LP             1 S1                 0.0000
     58 ****         3.5435  -0.0148   2.3885 LP             1 S1                 0.0000
     59 ****         0.9878   1.3553   1.0126 LP             1 S1                 0.0000
     60 ****         2.2035   1.5631   2.2288 LP             1 S1                 0.0000
     61 ****        -3.4912  -2.0929   0.6894 LP             1 S1                 0.0000
     62 ****        -3.9059  -3.6499   0.4245 LP             1 S1                 0.0000
@<TRIPOS>BOND
    1    1    2 1     
    2    1   31 1     
    3    1   32 1     
    4    1   33 1     
    5    2   24 1     
    6    2    3 2     
    7    3    4 1     
    8    3   34 1     
    9    4    5 1     
   10    4   22 2     
   11    5    6 2     
   12    5    7 1     
   13    7    8 1     
   14    7   35 1     
   15    7   36 1     
   16    8   20 am    
   17    8    9 am    
   18    9   10 2     
   19    9   11 1     
   20   11   12 1     
   21   11   13 2     
   22   13   14 1     
   23   13   37 1     
   24   14   15 1     
   25   14   20 am    
   26   15   19 1     
   27   15   16 1     
   28   15   38 1     
   29   16   17 1     
   30   16   39 1     
   31   16   40 1     
   32   17   18 1     
   33   17   41 1     
   34   17   42 1     
   35   18   19 1     
   36   18   43 1     
   37   18   44 1     
   38   20   21 2     
   39   22   23 1     
   40   22   24 1     
   41   23   45 1     
   42   23   46 1     
   43   23   47 1     
   44   24   25 1     
   45   25   26 1     
   46   25   48 1     
   47   25   49 1     
   48   26   30 1     
   49   26   27 2     
   50   27   28 1     
   51   27   50 1     
   52   28   29 2     
   53   28   51 1     
   54   29   30 1     
   55   29   52 1     
   56    6   53 1     
   57    6   54 1     
   58   10   55 1     
   59   10   56 1     
   60   19   57 1     
   61   19   58 1     
   62   21   59 1     
   63   21   60 1     
   64   30   61 1     
   65   30   62 1     
@<TRIPOS>SUBSTRUCTURE
      1 S1             1
@<TRIPOS>SET
LONE_PAIRS      STATIC     ATOMS    <user>   **** ""
10 53 54 55 56 57 58 59 60 61 62
ATOM$BLUE        STATIC     ATOMS    COLORGROUP SYSTEM
10 53 54 55 56 57 58 59 60 61 62
