AV-unprocessed.smi:2068|AV-procd|sdf|8427|dock1
  -GOLD-   2272011123D 1   1.00000     0.00000
 Structure written by MMmdl.
 33 34  0  0  0  0  0  0  0  0  1 V2000
  145.4745  141.9370  154.2913 N   0  0  0  0  0  0  0  0  0  0  0  0
  146.7898  141.9596  154.0576 C   0  0  0  0  0  0  0  0  0  0  0  0
  147.5019  142.9019  154.3990 O   0  0  0  0  0  0  0  0  0  0  0  0
  147.3945  140.7495  153.3431 C   0  0  0  0  0  0  0  0  0  0  0  0
  148.5663  140.2176  154.1162 C   0  0  0  0  0  0  0  0  0  0  0  0
  149.4700  139.2707  153.6977 C   0  0  0  0  0  0  0  0  0  0  0  0
  150.6805  138.9402  154.9079 S   0  0  0  0  0  0  0  0  0  0  0  0
  149.9042  140.1211  155.9509 C   0  0  0  0  0  0  0  0  0  0  0  0
  150.3989  140.4189  157.2475 N   0  0  0  0  0  0  0  0  0  0  0  0
  151.6797  140.5299  157.6468 C   0  0  0  0  0  0  0  0  0  0  0  0
  152.6561  140.4076  156.9064 O   0  0  0  0  0  0  0  0  0  0  0  0
  151.8892  140.8422  159.1334 C   0  0  0  0  0  0  0  0  0  0  0  0
  152.6891  142.1383  159.3921 C   0  0  2  0  0  0  0  0  0  0  0  0
  152.7797  142.5155  160.8516 C   0  0  0  0  0  0  0  0  0  0  0  0
  152.3745  143.7612  161.0871 C   0  0  0  0  0  0  0  0  0  0  0  0
  151.9306  144.4683  159.8370 C   0  0  0  0  0  0  0  0  0  0  0  0
  152.0496  143.3896  158.7371 C   0  0  0  0  0  0  0  0  0  0  0  0
  148.8289  140.6986  155.4034 N   0  0  0  0  0  0  0  0  0  0  0  0
  145.0335  142.7196  154.7521 H   0  0  0  0  0  0  0  0  0  0  0  0
  144.9249  141.1420  153.9983 H   0  0  0  0  0  0  0  0  0  0  0  0
  146.6301  139.9793  153.2312 H   0  0  0  0  0  0  0  0  0  0  0  0
  147.6896  141.0369  152.3330 H   0  0  0  0  0  0  0  0  0  0  0  0
  149.4933  138.7469  152.7534 H   0  0  0  0  0  0  0  0  0  0  0  0
  149.6958  140.5585  157.9583 H   0  0  0  0  0  0  0  0  0  0  0  0
  150.9070  140.9209  159.6007 H   0  0  0  0  0  0  0  0  0  0  0  0
  152.3915  140.0014  159.6150 H   0  0  0  0  0  0  0  0  0  0  0  0
  153.7088  142.0223  159.0216 H   0  0  0  0  0  0  0  0  0  0  0  0
  153.1542  141.8353  161.6026 H   0  0  0  0  0  0  0  0  0  0  0  0
  152.3669  144.2414  162.0544 H   0  0  0  0  0  0  0  0  0  0  0  0
  150.9075  144.8297  159.9426 H   0  0  0  0  0  0  0  0  0  0  0  0
  152.5835  145.3191  159.6400 H   0  0  0  0  0  0  0  0  0  0  0  0
  152.6505  143.7454  157.8995 H   0  0  0  0  0  0  0  0  0  0  0  0
  151.0594  143.1605  158.3413 H   0  0  0  0  0  0  0  0  0  0  0  0
  1  2  1  0  0  0  0
  1 19  1  0  0  0  0
  1 20  1  0  0  0  0
  2  3  2  0  0  0  0
  2  4  1  0  0  0  0
  4  5  1  0  0  0  0
  4 21  1  0  0  0  0
  4 22  1  0  0  0  0
  5 18  1  0  0  0  0
  5  6  2  0  0  0  0
  6  7  1  0  0  0  0
  6 23  1  0  0  0  0
  7  8  1  0  0  0  0
  8  9  1  0  0  0  0
  8 18  2  0  0  0  0
  9 10  1  0  0  0  0
  9 24  1  0  0  0  0
 10 11  2  0  0  0  0
 10 12  1  0  0  0  0
 12 13  1  0  0  0  0
 12 25  1  0  0  0  0
 12 26  1  0  0  0  0
 13 17  1  0  0  0  0
 13 14  1  0  0  0  0
 13 27  1  0  0  0  0
 14 15  2  0  0  0  0
 14 28  1  0  0  0  0
 15 16  1  0  0  0  0
 15 29  1  0  0  0  0
 16 17  1  0  0  0  0
 16 30  1  0  0  0  0
 16 31  1  0  0  0  0
 17 32  1  0  0  0  0
 17 33  1  0  0  0  0
M  END
> <s_m_source_file>
AV-unprocessed.smi

> <i_m_source_file_index>
2068

> <i_lp_mmshare_version>
43012

> <i_f3d_flags>
0

> <s_epik_input>
W05IMl1DKD1PKVtDSDJdYzFbY0hdc2MobjEpW05IXUMoPU8pW0NIMl1bQ0BASF0yW0NIXT1bQ0hdW0NIMl1bQ0gyXTI=

> <s_epik_cmdline>
J2VwaWtfcHl0aG9uJywgJy1waCcsICc3LjAnLCAnLXRuJywgJzgnLCAnLW1hJywgJzIwMCcsICctbWV0YWxfYmluZGluZycsICctaW1hZScsICc8aW5maWxlLm1hZT4nLCAnLW9tYWUnLCAnPG91dGZpbGUubWFlPic=

> <r_lp_tautomer_probability>
1

> <r_epik_Ionization_Penalty>
0.000253249

> <r_epik_Ionization_Penalty_Charging>
0

> <r_epik_Ionization_Penalty_Neutral>
0.000253249

> <r_epik_State_Penalty>
-0

> <r_epik_Charging_Adjusted_Penalty>
0

> <i_epik_Tot_Q>
0

> <i_epik_Tot_abs_Q>
0

> <r_epik_Metal_State_Penalty>
0.148671

> <b_epik_Metal_Only>
0

> <s_lp_Force_Field>
OPLS_2005

> <r_lp_Energy>
16.3977

> <b_lp_Chiralities_Consistent>
1

> <s_lp_Variant>
AV-unprocessed.smi:2068-1

> <Gold.Version>
5.8.1

> <Gold.Id.Protein>
6NUR|6NUR_protein|mol2

> <Gold.PLP.Fitness>
45.3951

> <Gold.PLP.PLP>
-33.9099

> <Gold.PLP.part.hbond>
-3.8917

> <Gold.PLP.part.metal>
0.0000

> <Gold.PLP.part.buried>
0.7440

> <Gold.PLP.part.nonpolar>
-32.3009

> <Gold.PLP.part.repulsive>
3.5536

> <Gold.PLP.ligand.clash>
0.0000

> <Gold.PLP.ligand.torsion>
0.4705

> <Gold.PLP.Chemscore.Hbond>
2.6510

> <Gold.PLP.Chemscore.CHOScore>
1.4740

> <Gold.PLP.Chemscore.Metal>
0.0000

> <Gold.Chemscore.Hbonds>
donor molecule, donor type, donor heavy atom, donor atom, acceptor molecule, acceptor atom, score
      L1  H     1    20       P1 10175  0.77
      P1  H  7997  8010       L1    11  0.82
      P1  H  8022  8030       L1     3  0.29
      L1  C     6    23       P1  7948  0.63
      L1  C     6    23       P1  7957  0.66

> <Gold.PLP.Chemscore.Internal.Correction>
0.0514

> <Gold.Rescore>
     Score         DG    S(hbond)    S(metal)    S(lipo)     H(rot)  DE(clash)    DE(int)     intcor
     13.24     -16.68       1.84        0.00      91.49       2.21       1.61       1.82       ----

> <Gold.Chemscore.Fitness>
13.2408

> <Gold.Chemscore.DG>
-16.6760

> <Gold.Chemscore.ZeroCoef>
-5.4800

> <Gold.Chemscore.Hbond>
1.8377

> <Gold.Chemscore.Metal>
0.0000

> <Gold.Chemscore.Lipo>
91.4852

> <Gold.Chemscore.Internal_Hbond>
0.0000

> <Gold.Chemscore.DEClash>
1.6147

> <Gold.Chemscore.DEInternal>
1.8206

> <Gold.Chemscore.Rot>
2.2053

> <Gold.Chemscore.Internal.Correction>
   9.000000E+99

> <Gold.Chemscore.Hbonds>
donor molecule, donor type, donor heavy atom, donor atom, acceptor molecule, acceptor atom, score
      L1  H     1    20       P1 10175  0.54
      P1  H  7997  8010       L1    11  0.81
      P1  H  8022  8030       L1     3  0.30

> <Gold.Chemscore.Hbond.Weighted>
-6.1379

> <Gold.Chemscore.Metal.Weighted>
-0.0000

> <Gold.Chemscore.Lipo.Weighted>
-10.7038

> <Gold.Chemscore.Internal_Hbond.Weighted>
0.0000

> <Gold.Chemscore.DEClash.Weighted>
1.6147

> <Gold.Chemscore.DEInternal.Weighted>
1.8206

> <Gold.Chemscore.Rot.Weighted>
5.6456

> <Gold.Chemscore.Internal.Correction.Weighted>
   9.000000E+99

> <Gold.Protein.RotatedTorsions>
[ 6907 6896 6895 6894 ] final   52.36 input  -60.11 | X-H torsion
[ 7974 7965 7964 7962 ] final  108.48 input  175.53 | X-H torsion
[ 8008 7997 7996 7995 ] final   52.36 input   59.86 | X-H torsion
[ 10167 10162 10161 10158 ] final  -87.05 input  -65.29 | X-H torsion
[ 10718 10713 10712 10709 ] final  -16.90 input   66.30 | X-H torsion
[ 10763 10752 10751 10750 ] final  110.45 input  -60.55 | X-H torsion
[ 11005 11000 10999 10996 ] final -170.69 input  -57.11 | X-H torsion

> <Gold.Protein.ActiveResidues>
 VAL166  LYS551  ARG553  GLY616  TRP617  ASP618  TYR619  PRO620  LYS621  CYS622 
 ASP623  PHE694  ASN695  SER759  ASP760  ASP761  ALA762  ILE779  LEU786  VAL792 
 PHE793  MET794  SER795  GLU796  ALA797  LYS798  CYS799  TRP800  GLU811  SER814 

> <Gold.Protein.RotatedAtoms>
  152.3224  134.7363  160.0310 H   0  0  0  0  0  0  0  0  0  0  0  0  # atno 6907 bound_to 6896
  151.7807  133.3344  159.3479 H   0  0  0  0  0  0  0  0  0  0  0  0  # atno 6908 bound_to 6896
  150.7377  134.5865  159.6010 H   0  0  0  0  0  0  0  0  0  0  0  0  # atno 6909 bound_to 6896
  145.2801  139.2636  143.3920 H   0  0  0  0  0  0  0  0  0  0  0  0  # atno 7974 bound_to 7965
  155.4505  140.3458  155.4300 H   0  0  0  0  0  0  0  0  0  0  0  0  # atno 8008 bound_to 7997
  156.1223  140.1490  156.9216 H   0  0  0  0  0  0  0  0  0  0  0  0  # atno 8009 bound_to 7997
  154.4832  140.0863  156.7406 H   0  0  0  0  0  0  0  0  0  0  0  0  # atno 8010 bound_to 7997
  140.3882  143.2717  151.9297 H   0  0  0  0  0  0  0  0  0  0  0  0  # atno 10167 bound_to 10162
  156.5810  130.4774  149.6320 H   0  0  0  0  0  0  0  0  0  0  0  0  # atno 10718 bound_to 10713
  153.4491  135.3748  155.2273 H   0  0  0  0  0  0  0  0  0  0  0  0  # atno 10763 bound_to 10752
  154.8756  135.3881  154.4060 H   0  0  0  0  0  0  0  0  0  0  0  0  # atno 10764 bound_to 10752
  153.4617  135.7086  153.6110 H   0  0  0  0  0  0  0  0  0  0  0  0  # atno 10765 bound_to 10752
  140.5167  134.5749  157.5035 H   0  0  0  0  0  0  0  0  0  0  0  0  # atno 11005 bound_to 11000
  146.3219  140.3266  142.8637 LP  0  0  0  0  0  0  0  0  0  0  0  0  # atno 17320 bound_to 7965
  144.9261  140.7922  143.5718 LP  0  0  0  0  0  0  0  0  0  0  0  0  # atno 17321 bound_to 7965
  139.4790  144.5753  151.8022 LP  0  0  0  0  0  0  0  0  0  0  0  0  # atno 17342 bound_to 10162
  140.4867  144.1371  150.5942 LP  0  0  0  0  0  0  0  0  0  0  0  0  # atno 17343 bound_to 10162
  156.2631  130.6974  151.1748 LP  0  0  0  0  0  0  0  0  0  0  0  0  # atno 17370 bound_to 10713
  157.7326  131.0598  150.5618 LP  0  0  0  0  0  0  0  0  0  0  0  0  # atno 17371 bound_to 10713
  139.9628  134.7423  156.0200 LP  0  0  0  0  0  0  0  0  0  0  0  0  # atno 17394 bound_to 11000
  141.1356  133.6576  156.3585 LP  0  0  0  0  0  0  0  0  0  0  0  0  # atno 17395 bound_to 11000

$$$$
