AV-unprocessed.smi:2691|AV-procd|sdf|10391|dock8
  -GOLD-   2272014423D 1   1.00000     0.00000
 Structure written by MMmdl.
 49 51  0  0  0  0  0  0  0  0  1 V2000
  152.6367  142.5711  160.6400 C   0  0  0  0  0  0  0  0  0  0  0  0
  151.8721  142.2734  159.3623 C   0  0  0  0  0  0  0  0  0  0  0  0
  151.6079  140.9286  159.0172 C   0  0  0  0  0  0  0  0  0  0  0  0
  150.8989  140.6093  157.8385 C   0  0  0  0  0  0  0  0  0  0  0  0
  150.5339  139.3812  157.3133 N   0  0  0  0  0  0  0  0  0  0  0  0
  149.8955  139.7435  156.2042 C   0  0  0  0  0  0  0  0  0  0  0  0
  149.8034  141.0627  155.9491 N   0  0  0  0  0  0  0  0  0  0  0  0
  149.1546  141.6970  154.8161 C   0  0  0  0  0  0  0  0  0  0  0  0
  147.9212  140.9125  154.3283 C   0  0  1  0  0  0  0  0  0  0  0  0
  148.3684  139.7777  153.6115 O   0  0  0  0  0  0  0  0  0  0  0  0
  147.0421  140.4403  155.5065 C   0  0  0  0  0  0  0  0  0  0  0  0
  146.0756  141.4689  155.9227 N   0  0  0  0  0  0  0  0  0  0  0  0
  145.0603  141.7851  155.0006 C   0  0  0  0  0  0  0  0  0  0  0  0
  144.1486  142.6655  155.2661 N   0  0  0  0  0  0  0  0  0  0  0  0
  144.1627  143.3334  156.4972 C   0  0  0  0  0  0  0  0  0  0  0  0
  143.0710  144.3634  156.7582 C   0  0  0  0  0  0  0  0  0  0  0  0
  143.1027  145.4830  155.7068 C   0  0  0  0  0  0  0  0  0  0  0  0
  143.1437  144.9283  158.1864 C   0  0  0  0  0  0  0  0  0  0  0  0
  145.1317  143.0771  157.4082 C   0  0  0  0  0  0  0  0  0  0  0  0
  146.1750  142.0887  157.1349 C   0  0  0  0  0  0  0  0  0  0  0  0
  147.0751  141.8348  157.9361 O   0  0  0  0  0  0  0  0  0  0  0  0
  150.4565  141.6808  157.0093 C   0  0  0  0  0  0  0  0  0  0  0  0
  150.7128  143.0228  157.3414 C   0  0  0  0  0  0  0  0  0  0  0  0
  151.4254  143.3240  158.5209 C   0  0  0  0  0  0  0  0  0  0  0  0
  151.7006  144.7762  158.8690 C   0  0  0  0  0  0  0  0  0  0  0  0
  152.8559  141.6582  161.1944 H   0  0  0  0  0  0  0  0  0  0  0  0
  152.0557  143.2249  161.2909 H   0  0  0  0  0  0  0  0  0  0  0  0
  153.5839  143.0604  160.4123 H   0  0  0  0  0  0  0  0  0  0  0  0
  151.9486  140.1281  159.6570 H   0  0  0  0  0  0  0  0  0  0  0  0
  149.4706  139.0072  155.5377 H   0  0  0  0  0  0  0  0  0  0  0  0
  148.8789  142.7165  155.0909 H   0  0  0  0  0  0  0  0  0  0  0  0
  149.8896  141.7777  154.0143 H   0  0  0  0  0  0  0  0  0  0  0  0
  147.3451  141.5461  153.6525 H   0  0  0  0  0  0  0  0  0  0  0  0
  148.9779  140.0615  152.9475 H   0  0  0  0  0  0  0  0  0  0  0  0
  146.5590  139.4895  155.2715 H   0  0  0  0  0  0  0  0  0  0  0  0
  147.6776  140.2094  156.3636 H   0  0  0  0  0  0  0  0  0  0  0  0
  145.0993  141.2414  154.0551 H   0  0  0  0  0  0  0  0  0  0  0  0
  142.1095  143.8567  156.6634 H   0  0  0  0  0  0  0  0  0  0  0  0
  143.0237  145.0764  154.6982 H   0  0  0  0  0  0  0  0  0  0  0  0
  144.0283  146.0570  155.7627 H   0  0  0  0  0  0  0  0  0  0  0  0
  142.2734  146.1764  155.8481 H   0  0  0  0  0  0  0  0  0  0  0  0
  143.1089  144.1281  158.9265 H   0  0  0  0  0  0  0  0  0  0  0  0
  142.3053  145.5965  158.3850 H   0  0  0  0  0  0  0  0  0  0  0  0
  144.0612  145.4948  158.3501 H   0  0  0  0  0  0  0  0  0  0  0  0
  145.1409  143.6014  158.3528 H   0  0  0  0  0  0  0  0  0  0  0  0
  150.3655  143.8127  156.6914 H   0  0  0  0  0  0  0  0  0  0  0  0
  151.3544  145.4463  158.0816 H   0  0  0  0  0  0  0  0  0  0  0  0
  152.7697  144.9434  159.0020 H   0  0  0  0  0  0  0  0  0  0  0  0
  151.1891  145.0496  159.7922 H   0  0  0  0  0  0  0  0  0  0  0  0
  1  2  1  0  0  0  0
  1 26  1  0  0  0  0
  1 27  1  0  0  0  0
  1 28  1  0  0  0  0
  2 24  1  0  0  0  0
  2  3  2  0  0  0  0
  3  4  1  0  0  0  0
  3 29  1  0  0  0  0
  4 22  2  0  0  0  0
  4  5  1  0  0  0  0
  5  6  2  0  0  0  0
  6  7  1  0  0  0  0
  6 30  1  0  0  0  0
  7  8  1  0  0  0  0
  7 22  1  0  0  0  0
  8  9  1  0  0  0  0
  8 31  1  0  0  0  0
  8 32  1  0  0  0  0
  9 10  1  0  0  0  0
  9 11  1  0  0  0  0
  9 33  1  0  0  0  0
 10 34  1  0  0  0  0
 11 12  1  0  0  0  0
 11 35  1  0  0  0  0
 11 36  1  0  0  0  0
 12 20  1  0  0  0  0
 12 13  1  0  0  0  0
 13 14  2  0  0  0  0
 13 37  1  0  0  0  0
 14 15  1  0  0  0  0
 15 16  1  0  0  0  0
 15 19  2  0  0  0  0
 16 17  1  0  0  0  0
 16 18  1  0  0  0  0
 16 38  1  0  0  0  0
 17 39  1  0  0  0  0
 17 40  1  0  0  0  0
 17 41  1  0  0  0  0
 18 42  1  0  0  0  0
 18 43  1  0  0  0  0
 18 44  1  0  0  0  0
 19 20  1  0  0  0  0
 19 45  1  0  0  0  0
 20 21  2  0  0  0  0
 22 23  1  0  0  0  0
 23 24  2  0  0  0  0
 23 46  1  0  0  0  0
 24 25  1  0  0  0  0
 25 47  1  0  0  0  0
 25 48  1  0  0  0  0
 25 49  1  0  0  0  0
M  END
> <s_m_source_file>
AV-unprocessed.smi

> <i_m_source_file_index>
2691

> <i_lp_mmshare_version>
43012

> <i_f3d_flags>
0

> <s_epik_input>
W0NIM11jKFtjSF0xKWMoW0NIM10pW2NIXWMoYzEyKW4oW2NIXW4yKVtDSDJdW0NASF0oW09IXSlbQ0gyXW4zW2NIXW5jKFtDSF0oW0NIM10pW0NIM10pW2NIXWMzPU8=

> <s_epik_cmdline>
J2VwaWtfcHl0aG9uJywgJy1waCcsICc3LjAnLCAnLXRuJywgJzgnLCAnLW1hJywgJzIwMCcsICctbWV0YWxfYmluZGluZycsICctaW1hZScsICc8aW5maWxlLm1hZT4nLCAnLW9tYWUnLCAnPG91dGZpbGUubWFlPic=

> <r_lp_tautomer_probability>
1

> <r_epik_Ionization_Penalty>
0.113357

> <r_epik_Ionization_Penalty_Charging>
3.84185e-08

> <r_epik_Ionization_Penalty_Neutral>
0.113357

> <r_epik_State_Penalty>
0.103025

> <r_epik_Charging_Adjusted_Penalty>
0.103025

> <i_epik_Tot_Q>
0

> <i_epik_Tot_abs_Q>
0

> <r_epik_Metal_State_Penalty>
0.0863451

> <b_epik_Metal_Only>
0

> <s_lp_Force_Field>
OPLS_2005

> <r_lp_Energy>
17.2292

> <b_lp_Chiralities_Consistent>
1

> <s_lp_Variant>
AV-unprocessed.smi:2691-2

> <Gold.Version>
5.8.1

> <Gold.Id.Protein>
6NUR|6NUR_protein|mol2

> <Gold.PLP.Fitness>
48.8907

> <Gold.PLP.PLP>
-44.5273

> <Gold.PLP.part.hbond>
-1.0000

> <Gold.PLP.part.metal>
0.0000

> <Gold.PLP.part.buried>
-3.9977

> <Gold.PLP.part.nonpolar>
-39.2441

> <Gold.PLP.part.repulsive>
0.2946

> <Gold.PLP.ligand.clash>
0.0000

> <Gold.PLP.ligand.torsion>
0.8559

> <Gold.PLP.Chemscore.Hbond>
1.0000

> <Gold.PLP.Chemscore.CHOScore>
1.0000

> <Gold.PLP.Chemscore.Metal>
0.0000

> <Gold.Chemscore.Hbonds>
donor molecule, donor type, donor heavy atom, donor atom, acceptor molecule, acceptor atom, score
      L1  H    10    34       P1  7957  1.00
      L1  C    13    37       P1 10175  1.00

> <Gold.PLP.Chemscore.Internal.Correction>
0.0752

> <Gold.Rescore>
     Score         DG    S(hbond)    S(metal)    S(lipo)     H(rot)  DE(clash)    DE(int)     intcor
     13.31     -15.04       1.00        0.00     106.90       2.45       0.14       1.59       ----

> <Gold.Chemscore.Fitness>
13.3070

> <Gold.Chemscore.DG>
-15.0412

> <Gold.Chemscore.ZeroCoef>
-5.4800

> <Gold.Chemscore.Hbond>
0.9986

> <Gold.Chemscore.Metal>
0.0000

> <Gold.Chemscore.Lipo>
106.8996

> <Gold.Chemscore.Internal_Hbond>
0.0000

> <Gold.Chemscore.DEClash>
0.1416

> <Gold.Chemscore.DEInternal>
1.5926

> <Gold.Chemscore.Rot>
2.4536

> <Gold.Chemscore.Internal.Correction>
   9.000000E+99

> <Gold.Chemscore.Hbonds>
donor molecule, donor type, donor heavy atom, donor atom, acceptor molecule, acceptor atom, score
      L1  H    10    34       P1  7957  0.95

> <Gold.Chemscore.Hbond.Weighted>
-3.3352

> <Gold.Chemscore.Metal.Weighted>
-0.0000

> <Gold.Chemscore.Lipo.Weighted>
-12.5072

> <Gold.Chemscore.Internal_Hbond.Weighted>
0.0000

> <Gold.Chemscore.DEClash.Weighted>
0.1416

> <Gold.Chemscore.DEInternal.Weighted>
1.5926

> <Gold.Chemscore.Rot.Weighted>
6.2812

> <Gold.Chemscore.Internal.Correction.Weighted>
   9.000000E+99

> <Gold.Protein.RotatedTorsions>
[ 6907 6896 6895 6894 ] final  -14.81 input  -60.11 | X-H torsion
[ 7974 7965 7964 7962 ] final  111.66 input  175.53 | X-H torsion
[ 8008 7997 7996 7995 ] final -137.28 input   59.86 | X-H torsion
[ 10167 10162 10161 10158 ] final  -27.70 input  -65.29 | X-H torsion
[ 10718 10713 10712 10709 ] final   -5.76 input   66.30 | X-H torsion
[ 10763 10752 10751 10750 ] final -100.33 input  -60.55 | X-H torsion
[ 11005 11000 10999 10996 ] final   72.82 input  -57.11 | X-H torsion

> <Gold.Protein.ActiveResidues>
 VAL166  LYS551  ARG553  GLY616  TRP617  ASP618  TYR619  PRO620  LYS621  CYS622 
 ASP623  PHE694  ASN695  SER759  ASP760  ASP761  ALA762  ILE779  LEU786  VAL792 
 PHE793  MET794  SER795  GLU796  ALA797  LYS798  CYS799  TRP800  GLU811  SER814 

> <Gold.Protein.RotatedAtoms>
  151.3336  135.0847  159.9346 H   0  0  0  0  0  0  0  0  0  0  0  0  # atno 6907 bound_to 6896
  152.5228  133.9517  159.7685 H   0  0  0  0  0  0  0  0  0  0  0  0  # atno 6908 bound_to 6896
  150.9861  133.6143  159.2745 H   0  0  0  0  0  0  0  0  0  0  0  0  # atno 6909 bound_to 6896
  145.2395  139.2785  143.4125 H   0  0  0  0  0  0  0  0  0  0  0  0  # atno 7974 bound_to 7965
  155.4092  140.0511  157.3032 H   0  0  0  0  0  0  0  0  0  0  0  0  # atno 8008 bound_to 7997
  154.4954  140.2136  155.9418 H   0  0  0  0  0  0  0  0  0  0  0  0  # atno 8009 bound_to 7997
  156.1398  140.3156  155.8483 H   0  0  0  0  0  0  0  0  0  0  0  0  # atno 8010 bound_to 7997
  140.7275  143.4071  151.1167 H   0  0  0  0  0  0  0  0  0  0  0  0  # atno 10167 bound_to 10162
  156.7419  130.5212  149.5822 H   0  0  0  0  0  0  0  0  0  0  0  0  # atno 10718 bound_to 10713
  154.7570  135.4939  153.9394 H   0  0  0  0  0  0  0  0  0  0  0  0  # atno 10763 bound_to 10752
  153.1208  135.6731  153.9348 H   0  0  0  0  0  0  0  0  0  0  0  0  # atno 10764 bound_to 10752
  153.9080  135.3102  155.3427 H   0  0  0  0  0  0  0  0  0  0  0  0  # atno 10765 bound_to 10752
  139.9471  134.7293  156.0952 H   0  0  0  0  0  0  0  0  0  0  0  0  # atno 11005 bound_to 11000
  146.3332  140.2754  142.8608 LP  0  0  0  0  0  0  0  0  0  0  0  0  # atno 17320 bound_to 7965
  144.9602  140.8268  143.5518 LP  0  0  0  0  0  0  0  0  0  0  0  0  # atno 17321 bound_to 7965
  139.7699  143.8510  152.3118 LP  0  0  0  0  0  0  0  0  0  0  0  0  # atno 17342 bound_to 10162
  139.8424  144.7203  150.9314 LP  0  0  0  0  0  0  0  0  0  0  0  0  # atno 17343 bound_to 10162
  156.1459  130.6277  151.0530 LP  0  0  0  0  0  0  0  0  0  0  0  0  # atno 17370 bound_to 10713
  157.6815  131.0837  150.7357 LP  0  0  0  0  0  0  0  0  0  0  0  0  # atno 17371 bound_to 10713
  141.1125  133.6638  156.3012 LP  0  0  0  0  0  0  0  0  0  0  0  0  # atno 17394 bound_to 11000
  140.5808  134.5748  157.5479 LP  0  0  0  0  0  0  0  0  0  0  0  0  # atno 17395 bound_to 11000

$$$$
