AV-unprocessed.smi:653|AV-procd|sdf|3210|dock10
  -GOLD-   22720 0143D 1   1.00000     0.00000
 Structure written by MMmdl.
 45 46  0  0  0  0  0  0  0  0  2 V2000
  151.6419  145.3221  158.9651 C   0  0  0  0  0  0  0  0  0  0  0  0
  151.5457  143.8701  158.5461 C   0  0  0  0  0  0  0  0  0  0  0  0
  152.3079  142.8570  159.1663 C   0  0  0  0  0  0  0  0  0  0  0  0
  152.1641  141.5230  158.7318 C   0  0  0  0  0  0  0  0  0  0  0  0
  151.2615  141.2279  157.6861 C   0  0  0  0  0  0  0  0  0  0  0  0
  151.0787  139.7994  157.1996 C   0  0  0  0  0  0  0  0  0  0  0  0
  150.4969  139.7524  155.7822 C   0  0  0  0  0  0  0  0  0  0  0  0
  150.8790  140.5424  154.9176 O   0  0  0  0  0  0  0  0  0  0  0  0
  149.5690  138.8102  155.5574 N   0  0  0  0  0  0  0  0  0  0  0  0
  148.8851  138.5929  154.2866 C   0  0  0  0  0  0  0  0  0  0  0  0
  147.3455  138.7065  154.4200 C   0  0  2  0  0  0  0  0  0  0  0  0
  146.6087  137.7233  153.5200 C   0  0  0  0  0  0  0  0  0  0  0  0
  146.4731  138.4815  152.1968 C   0  0  0  0  0  0  0  0  0  0  0  0
  146.7573  139.8460  152.4924 O   0  0  0  0  0  0  0  0  0  0  0  0
  146.7560  140.0297  153.9019 C   0  0  2  0  0  0  0  0  0  0  0  0
  147.4738  141.3370  154.3080 C   0  0  0  0  0  0  0  0  0  0  0  0
  147.8764  141.3270  155.7929 C   0  0  0  0  0  0  0  0  0  0  0  0
  146.5958  142.5632  154.0105 C   0  0  0  0  0  0  0  0  0  0  0  0
  150.5272  142.2831  157.1023 C   0  0  0  0  0  0  0  0  0  0  0  0
  150.6919  143.5475  157.5487 N   0  3  0  0  0  0  0  0  0  0  0  0
  152.6092  145.5297  159.4235 H   0  0  0  0  0  0  0  0  0  0  0  0
  150.8614  145.5578  159.6889 H   0  0  0  0  0  0  0  0  0  0  0  0
  151.5263  145.9832  158.1056 H   0  0  0  0  0  0  0  0  0  0  0  0
  152.9928  143.0965  159.9670 H   0  0  0  0  0  0  0  0  0  0  0  0
  152.7377  140.7361  159.1998 H   0  0  0  0  0  0  0  0  0  0  0  0
  152.0379  139.2806  157.2076 H   0  0  0  0  0  0  0  0  0  0  0  0
  150.4241  139.2655  157.8904 H   0  0  0  0  0  0  0  0  0  0  0  0
  149.3161  138.1986  156.3201 H   0  0  0  0  0  0  0  0  0  0  0  0
  149.2692  139.3070  153.5578 H   0  0  0  0  0  0  0  0  0  0  0  0
  149.1619  137.6047  153.9181 H   0  0  0  0  0  0  0  0  0  0  0  0
  147.0644  138.5529  155.4626 H   0  0  0  0  0  0  0  0  0  0  0  0
  147.1079  136.7610  153.4058 H   0  0  0  0  0  0  0  0  0  0  0  0
  145.6169  137.5278  153.9300 H   0  0  0  0  0  0  0  0  0  0  0  0
  147.1881  138.1219  151.4566 H   0  0  0  0  0  0  0  0  0  0  0  0
  145.4709  138.3774  151.7801 H   0  0  0  0  0  0  0  0  0  0  0  0
  145.7128  140.0916  154.2200 H   0  0  0  0  0  0  0  0  0  0  0  0
  148.3792  141.4432  153.7104 H   0  0  0  0  0  0  0  0  0  0  0  0
  147.0024  141.2296  156.4376 H   0  0  0  0  0  0  0  0  0  0  0  0
  148.3893  142.2494  156.0663 H   0  0  0  0  0  0  0  0  0  0  0  0
  148.5508  140.5027  156.0243 H   0  0  0  0  0  0  0  0  0  0  0  0
  145.6557  142.5227  154.5614 H   0  0  0  0  0  0  0  0  0  0  0  0
  146.3567  142.6314  152.9490 H   0  0  0  0  0  0  0  0  0  0  0  0
  147.1040  143.4871  154.2880 H   0  0  0  0  0  0  0  0  0  0  0  0
  149.8126  142.1546  156.3022 H   0  0  0  0  0  0  0  0  0  0  0  0
  150.1456  144.2920  157.1147 H   0  0  0  0  0  0  0  0  0  0  0  0
  1  2  1  0  0  0  0
  1 21  1  0  0  0  0
  1 22  1  0  0  0  0
  1 23  1  0  0  0  0
  2 20  1  0  0  0  0
  2  3  2  0  0  0  0
  3  4  1  0  0  0  0
  3 24  1  0  0  0  0
  4  5  2  0  0  0  0
  4 25  1  0  0  0  0
  5  6  1  0  0  0  0
  5 19  1  0  0  0  0
  6  7  1  0  0  0  0
  6 26  1  0  0  0  0
  6 27  1  0  0  0  0
  7  8  2  0  0  0  0
  7  9  1  0  0  0  0
  9 10  1  0  0  0  0
  9 28  1  0  0  0  0
 10 11  1  0  0  0  0
 10 29  1  0  0  0  0
 10 30  1  0  0  0  0
 11 15  1  0  0  0  0
 11 12  1  0  0  0  0
 11 31  1  0  0  0  0
 12 13  1  0  0  0  0
 12 32  1  0  0  0  0
 12 33  1  0  0  0  0
 13 14  1  0  0  0  0
 13 34  1  0  0  0  0
 13 35  1  0  0  0  0
 14 15  1  0  0  0  0
 15 16  1  0  0  0  0
 15 36  1  0  0  0  0
 16 17  1  0  0  0  0
 16 18  1  0  0  0  0
 16 37  1  0  0  0  0
 17 38  1  0  0  0  0
 17 39  1  0  0  0  0
 17 40  1  0  0  0  0
 18 41  1  0  0  0  0
 18 42  1  0  0  0  0
 18 43  1  0  0  0  0
 19 20  2  0  0  0  0
 19 44  1  0  0  0  0
 20 45  1  0  0  0  0
M  CHG  1  20   1
M  END
> <s_m_source_file>
AV-unprocessed.smi

> <i_m_source_file_index>
653

> <i_lp_mmshare_version>
43012

> <i_f3d_flags>
0

> <s_epik_input>
W0NIM11jMVtjSF1bY0hdYyhbY0hdbjEpW0NIMl1DKD1PKVtOSF1bQ0gyXVtDQEBIXTJbQ0gyXVtDSDJdT1tDQEhdMltDSF0oW0NIM10pW0NIM10=

> <s_epik_cmdline>
J2VwaWtfcHl0aG9uJywgJy1waCcsICc3LjAnLCAnLXRuJywgJzgnLCAnLW1hJywgJzIwMCcsICctbWV0YWxfYmluZGluZycsICctaW1hZScsICc8aW5maWxlLm1hZT4nLCAnLW9tYWUnLCAnPG91dGZpbGUubWFlPic=

> <r_epik_Ionization_Penalty>
2.12486

> <r_epik_Ionization_Penalty_Charging>
2.12486

> <r_epik_Ionization_Penalty_Neutral>
9.0873e-08

> <r_epik_State_Penalty>
2.26279

> <r_epik_Charging_Adjusted_Penalty>
4.38765

> <i_epik_Tot_Q>
1

> <i_epik_Tot_abs_Q>
1

> <r_epik_Metal_State_Penalty>
2.27914

> <b_epik_Metal_Only>
0

> <s_lp_Force_Field>
OPLS_2005

> <r_lp_Energy>
28.354

> <b_lp_Chiralities_Consistent>
1

> <s_lp_Variant>
AV-unprocessed.smi:653-7

> <Gold.Version>
5.8.1

> <Gold.Id.Protein>
6NUR|6NUR_protein|mol2

> <Gold.PLP.Fitness>
44.5402

> <Gold.PLP.PLP>
-38.7608

> <Gold.PLP.part.hbond>
-1.9264

> <Gold.PLP.part.metal>
0.0000

> <Gold.PLP.part.buried>
-6.5610

> <Gold.PLP.part.nonpolar>
-33.0826

> <Gold.PLP.part.repulsive>
1.1198

> <Gold.PLP.ligand.clash>
0.0000

> <Gold.PLP.ligand.torsion>
1.3754

> <Gold.PLP.Chemscore.Hbond>
2.8240

> <Gold.PLP.Chemscore.CHOScore>
0.0000

> <Gold.PLP.Chemscore.Metal>
0.0000

> <Gold.Chemscore.Hbonds>
donor molecule, donor type, donor heavy atom, donor atom, acceptor molecule, acceptor atom, score
      L1  H    20    45       P1  8028  1.86
      P1  H  7989  7998       L1     8  1.00

> <Gold.PLP.Chemscore.Internal.Correction>
0.0582

> <Gold.Rescore>
     Score         DG    S(hbond)    S(metal)    S(lipo)     H(rot)  DE(clash)    DE(int)     intcor
     16.96     -20.00       1.83        0.00     106.23       1.57       0.43       2.60       ----

> <Gold.Chemscore.Fitness>
16.9612

> <Gold.Chemscore.DG>
-19.9951

> <Gold.Chemscore.ZeroCoef>
-5.4800

> <Gold.Chemscore.Hbond>
1.8282

> <Gold.Chemscore.Metal>
0.0000

> <Gold.Chemscore.Lipo>
106.2275

> <Gold.Chemscore.Internal_Hbond>
0.0000

> <Gold.Chemscore.DEClash>
0.4305

> <Gold.Chemscore.DEInternal>
2.6034

> <Gold.Chemscore.Rot>
1.5701

> <Gold.Chemscore.Internal.Correction>
   9.000000E+99

> <Gold.Chemscore.Hbonds>
donor molecule, donor type, donor heavy atom, donor atom, acceptor molecule, acceptor atom, score
      L1  H    20    45       P1  8028  0.70
      P1  H  7989  7998       L1     8  0.95

> <Gold.Chemscore.Hbond.Weighted>
-6.1061

> <Gold.Chemscore.Metal.Weighted>
-0.0000

> <Gold.Chemscore.Lipo.Weighted>
-12.4286

> <Gold.Chemscore.Internal_Hbond.Weighted>
0.0000

> <Gold.Chemscore.DEClash.Weighted>
0.4305

> <Gold.Chemscore.DEInternal.Weighted>
2.6034

> <Gold.Chemscore.Rot.Weighted>
4.0196

> <Gold.Chemscore.Internal.Correction.Weighted>
   9.000000E+99

> <Gold.Protein.RotatedTorsions>
[ 6907 6896 6895 6894 ] final   -7.41 input  -60.11 | X-H torsion
[ 7974 7965 7964 7962 ] final    4.29 input  175.53 | X-H torsion
[ 8008 7997 7996 7995 ] final  -15.51 input   59.86 | X-H torsion
[ 10167 10162 10161 10158 ] final  143.84 input  -65.29 | X-H torsion
[ 10718 10713 10712 10709 ] final   10.68 input   66.30 | X-H torsion
[ 10763 10752 10751 10750 ] final  176.88 input  -60.55 | X-H torsion
[ 11005 11000 10999 10996 ] final  -93.69 input  -57.11 | X-H torsion

> <Gold.Protein.ActiveResidues>
 VAL166  LYS551  ARG553  GLY616  TRP617  ASP618  TYR619  PRO620  LYS621  CYS622 
 ASP623  PHE694  ASN695  SER759  ASP760  ASP761  ALA762  ILE779  LEU786  VAL792 
 PHE793  MET794  SER795  GLU796  ALA797  LYS798  CYS799  TRP800  GLU811  SER814 

> <Gold.Protein.RotatedAtoms>
  151.4500  135.1029  159.9694 H   0  0  0  0  0  0  0  0  0  0  0  0  # atno 6907 bound_to 6896
  152.4891  133.8449  159.7182 H   0  0  0  0  0  0  0  0  0  0  0  0  # atno 6908 bound_to 6896
  150.9028  133.7037  159.2902 H   0  0  0  0  0  0  0  0  0  0  0  0  # atno 6909 bound_to 6896
  146.2444  140.0556  142.8372 H   0  0  0  0  0  0  0  0  0  0  0  0  # atno 7974 bound_to 7965
  154.5125  140.2194  155.9129 H   0  0  0  0  0  0  0  0  0  0  0  0  # atno 8008 bound_to 7997
  156.1568  140.3150  155.8706 H   0  0  0  0  0  0  0  0  0  0  0  0  # atno 8009 bound_to 7997
  155.3830  140.0473  157.3034 H   0  0  0  0  0  0  0  0  0  0  0  0  # atno 8010 bound_to 7997
  139.4960  144.6013  151.6475 H   0  0  0  0  0  0  0  0  0  0  0  0  # atno 10167 bound_to 10162
  156.9846  130.6019  149.5680 H   0  0  0  0  0  0  0  0  0  0  0  0  # atno 10718 bound_to 10713
  154.4870  135.2777  155.1526 H   0  0  0  0  0  0  0  0  0  0  0  0  # atno 10763 bound_to 10752
  154.3213  135.6209  153.5513 H   0  0  0  0  0  0  0  0  0  0  0  0  # atno 10764 bound_to 10752
  152.9883  135.5743  154.5283 H   0  0  0  0  0  0  0  0  0  0  0  0  # atno 10765 bound_to 10752
  141.1490  133.7905  157.0194 H   0  0  0  0  0  0  0  0  0  0  0  0  # atno 11005 bound_to 11000
  145.0945  140.9306  143.4749 LP  0  0  0  0  0  0  0  0  0  0  0  0  # atno 17320 bound_to 7965
  145.0736  139.3013  143.5819 LP  0  0  0  0  0  0  0  0  0  0  0  0  # atno 17321 bound_to 7965
  140.5663  144.0184  150.6194 LP  0  0  0  0  0  0  0  0  0  0  0  0  # atno 17342 bound_to 10162
  140.3287  143.3091  152.0710 LP  0  0  0  0  0  0  0  0  0  0  0  0  # atno 17343 bound_to 10162
  156.0231  130.5325  150.8331 LP  0  0  0  0  0  0  0  0  0  0  0  0  # atno 17370 bound_to 10713
  157.5502  131.0943  150.9706 LP  0  0  0  0  0  0  0  0  0  0  0  0  # atno 17371 bound_to 10713
  140.0825  134.9640  157.1648 LP  0  0  0  0  0  0  0  0  0  0  0  0  # atno 17394 bound_to 11000
  140.3556  134.2550  155.7193 LP  0  0  0  0  0  0  0  0  0  0  0  0  # atno 17395 bound_to 11000

$$$$
