AV-unprocessed.smi:1639|AV-procd|sdf|6553|dock1
  -GOLD-   22720 7233D 1   1.00000     0.00000
 Structure written by MMmdl.
 38 39  0  0  0  0  0  0  0  0  2 V2000
  152.4684  142.2628  159.6225 C   0  0  0  0  0  0  0  0  0  0  0  0
  151.7569  141.9382  158.3068 C   0  0  0  0  0  0  0  0  0  0  0  0
  152.0624  140.6005  157.9419 O   0  0  0  0  0  0  0  0  0  0  0  0
  151.9974  140.3396  156.5462 C   0  0  1  0  0  0  0  0  0  0  0  0
  152.7379  139.0364  156.1872 C   0  0  0  0  0  0  0  0  0  0  0  0
  152.5242  138.6999  154.7043 C   0  0  0  0  0  0  0  0  0  0  0  0
  151.0271  138.6284  154.3609 C   0  0  0  0  0  0  0  0  0  0  0  0
  150.3335  139.8518  154.7678 N   0  0  0  0  0  0  0  0  0  0  0  0
  149.0620  140.0508  154.1875 C   0  0  0  0  0  0  0  0  0  0  0  0
  148.3773  141.2746  154.3418 C   0  0  0  0  0  0  0  0  0  0  0  0
  147.1132  141.3943  153.7319 C   0  0  0  0  0  0  0  0  0  0  0  0
  146.2895  142.6606  153.8330 C   0  0  0  0  0  0  0  0  0  0  0  0
  146.5978  140.3575  153.0272 N   0  3  0  0  0  0  0  0  0  0  0  0
  147.2949  139.2182  152.9215 C   0  0  0  0  0  0  0  0  0  0  0  0
  146.7503  138.1773  152.2082 N   0  0  0  0  0  0  0  0  0  0  0  0
  148.4976  139.0445  153.4787 N   0  0  0  0  0  0  0  0  0  0  0  0
  150.5084  140.2291  156.1730 C   0  0  0  0  0  0  0  0  0  0  0  0
  152.2531  143.2830  159.9402 H   0  0  0  0  0  0  0  0  0  0  0  0
  153.5492  142.1663  159.5170 H   0  0  0  0  0  0  0  0  0  0  0  0
  152.1470  141.5899  160.4179 H   0  0  0  0  0  0  0  0  0  0  0  0
  150.6798  142.0580  158.4317 H   0  0  0  0  0  0  0  0  0  0  0  0
  152.0797  142.6361  157.5345 H   0  0  0  0  0  0  0  0  0  0  0  0
  152.4279  141.1747  155.9902 H   0  0  0  0  0  0  0  0  0  0  0  0
  153.8050  139.1247  156.3889 H   0  0  0  0  0  0  0  0  0  0  0  0
  152.3681  138.2184  156.8069 H   0  0  0  0  0  0  0  0  0  0  0  0
  153.0047  139.4590  154.0856 H   0  0  0  0  0  0  0  0  0  0  0  0
  153.0072  137.7528  154.4629 H   0  0  0  0  0  0  0  0  0  0  0  0
  150.9197  138.4374  153.2942 H   0  0  0  0  0  0  0  0  0  0  0  0
  150.5690  137.7830  154.8760 H   0  0  0  0  0  0  0  0  0  0  0  0
  148.7905  142.0902  154.9172 H   0  0  0  0  0  0  0  0  0  0  0  0
  146.6537  143.3009  154.6369 H   0  0  0  0  0  0  0  0  0  0  0  0
  145.2442  142.4253  154.0356 H   0  0  0  0  0  0  0  0  0  0  0  0
  146.3418  143.2202  152.8988 H   0  0  0  0  0  0  0  0  0  0  0  0
  145.8433  138.2751  151.7750 H   0  0  0  0  0  0  0  0  0  0  0  0
  147.2739  137.3270  152.0590 H   0  0  0  0  0  0  0  0  0  0  0  0
  150.0190  139.4857  156.8041 H   0  0  0  0  0  0  0  0  0  0  0  0
  150.0252  141.1872  156.3691 H   0  0  0  0  0  0  0  0  0  0  0  0
  145.6821  140.4543  152.5881 H   0  0  0  0  0  0  0  0  0  0  0  0
  1  2  1  0  0  0  0
  1 18  1  0  0  0  0
  1 19  1  0  0  0  0
  1 20  1  0  0  0  0
  2  3  1  0  0  0  0
  2 21  1  0  0  0  0
  2 22  1  0  0  0  0
  3  4  1  0  0  0  0
  4 17  1  0  0  0  0
  4  5  1  0  0  0  0
  4 23  1  0  0  0  0
  5  6  1  0  0  0  0
  5 24  1  0  0  0  0
  5 25  1  0  0  0  0
  6  7  1  0  0  0  0
  6 26  1  0  0  0  0
  6 27  1  0  0  0  0
  7  8  1  0  0  0  0
  7 28  1  0  0  0  0
  7 29  1  0  0  0  0
  8  9  1  0  0  0  0
  8 17  1  0  0  0  0
  9 16  1  0  0  0  0
  9 10  2  0  0  0  0
 10 11  1  0  0  0  0
 10 30  1  0  0  0  0
 11 12  1  0  0  0  0
 11 13  2  0  0  0  0
 12 31  1  0  0  0  0
 12 32  1  0  0  0  0
 12 33  1  0  0  0  0
 13 14  1  0  0  0  0
 13 38  1  0  0  0  0
 14 15  1  0  0  0  0
 14 16  2  0  0  0  0
 15 34  1  0  0  0  0
 15 35  1  0  0  0  0
 17 36  1  0  0  0  0
 17 37  1  0  0  0  0
M  CHG  1  13   1
M  END
> <s_m_source_file>
AV-unprocessed.smi

> <i_m_source_file_index>
1639

> <i_lp_mmshare_version>
43012

> <i_f3d_flags>
0

> <s_epik_input>
W0NIM11bQ0gyXU9bQ0BASF0xW0NIMl1bQ0gyXVtDSDJdTihbQ0gyXTEpYzJbY0hdYyhbQ0gzXSluYyhuMilbTkgyXQ==

> <s_epik_cmdline>
J2VwaWtfcHl0aG9uJywgJy1waCcsICc3LjAnLCAnLXRuJywgJzgnLCAnLW1hJywgJzIwMCcsICctbWV0YWxfYmluZGluZycsICctaW1hZScsICc8aW5maWxlLm1hZT4nLCAnLW9tYWUnLCAnPG91dGZpbGUubWFlPic=

> <r_lp_tautomer_probability>
0.575011

> <r_epik_Ionization_Penalty>
2.98813

> <r_epik_Ionization_Penalty_Charging>
2.98813

> <r_epik_Ionization_Penalty_Neutral>
3.21773e-06

> <r_epik_State_Penalty>
2.17402

> <r_epik_Charging_Adjusted_Penalty>
5.16215

> <i_epik_Tot_Q>
1

> <i_epik_Tot_abs_Q>
1

> <r_epik_Metal_State_Penalty>
2.51158

> <b_epik_Metal_Only>
0

> <s_lp_Force_Field>
OPLS_2005

> <r_lp_Energy>
14.4858

> <b_lp_Chiralities_Consistent>
1

> <s_lp_Variant>
AV-unprocessed.smi:1639-6

> <Gold.Version>
5.8.1

> <Gold.Id.Protein>
6NUR|6NUR_protein|mol2

> <Gold.PLP.Fitness>
45.5801

> <Gold.PLP.PLP>
-33.0438

> <Gold.PLP.part.hbond>
-2.8086

> <Gold.PLP.part.metal>
0.0000

> <Gold.PLP.part.buried>
-2.2431

> <Gold.PLP.part.nonpolar>
-29.0229

> <Gold.PLP.part.repulsive>
2.3712

> <Gold.PLP.ligand.clash>
0.0000

> <Gold.PLP.ligand.torsion>
0.5077

> <Gold.PLP.Chemscore.Hbond>
4.3729

> <Gold.PLP.Chemscore.CHOScore>
0.0000

> <Gold.PLP.Chemscore.Metal>
0.0000

> <Gold.Chemscore.Hbonds>
donor molecule, donor type, donor heavy atom, donor atom, acceptor molecule, acceptor atom, score
      L1  H    13    38       P1 10175  2.00
      L1  H    15    35       P1  7948  2.00
      P1  H  7989  7998       L1     8  0.31

> <Gold.PLP.Chemscore.Internal.Correction>
0.4330

> <Gold.Rescore>
     Score         DG    S(hbond)    S(metal)    S(lipo)     H(rot)  DE(clash)    DE(int)     intcor
     15.76     -16.62       1.90        0.00      72.92       1.46       0.39       0.48       ----

> <Gold.Chemscore.Fitness>
15.7575

> <Gold.Chemscore.DG>
-16.6239

> <Gold.Chemscore.ZeroCoef>
-5.4800

> <Gold.Chemscore.Hbond>
1.8981

> <Gold.Chemscore.Metal>
0.0000

> <Gold.Chemscore.Lipo>
72.9172

> <Gold.Chemscore.Internal_Hbond>
0.0000

> <Gold.Chemscore.DEClash>
0.3901

> <Gold.Chemscore.DEInternal>
0.4763

> <Gold.Chemscore.Rot>
1.4560

> <Gold.Chemscore.Internal.Correction>
   9.000000E+99

> <Gold.Chemscore.Hbonds>
donor molecule, donor type, donor heavy atom, donor atom, acceptor molecule, acceptor atom, score
      L1  H    13    38       P1 10175  0.58
      L1  H    15    35       P1  7948  0.95

> <Gold.Chemscore.Hbond.Weighted>
-6.3398

> <Gold.Chemscore.Metal.Weighted>
-0.0000

> <Gold.Chemscore.Lipo.Weighted>
-8.5313

> <Gold.Chemscore.Internal_Hbond.Weighted>
0.0000

> <Gold.Chemscore.DEClash.Weighted>
0.3901

> <Gold.Chemscore.DEInternal.Weighted>
0.4763

> <Gold.Chemscore.Rot.Weighted>
3.7272

> <Gold.Chemscore.Internal.Correction.Weighted>
   9.000000E+99

> <Gold.Protein.RotatedTorsions>
[ 6907 6896 6895 6894 ] final -165.51 input  -60.11 | X-H torsion
[ 7974 7965 7964 7962 ] final  -91.60 input  175.53 | X-H torsion
[ 8008 7997 7996 7995 ] final -139.97 input   59.86 | X-H torsion
[ 10167 10162 10161 10158 ] final   -4.16 input  -65.29 | X-H torsion
[ 10718 10713 10712 10709 ] final   21.78 input   66.30 | X-H torsion
[ 10763 10752 10751 10750 ] final   11.14 input  -60.55 | X-H torsion
[ 11005 11000 10999 10996 ] final  -46.08 input  -57.11 | X-H torsion

> <Gold.Protein.ActiveResidues>
 VAL166  LYS551  ARG553  GLY616  TRP617  ASP618  TYR619  PRO620  LYS621  CYS622 
 ASP623  PHE694  ASN695  SER759  ASP760  ASP761  ALA762  ILE779  LEU786  VAL792 
 PHE793  MET794  SER795  GLU796  ALA797  LYS798  CYS799  TRP800  GLU811  SER814 

> <Gold.Protein.RotatedAtoms>
  151.4288  133.3676  159.2765 H   0  0  0  0  0  0  0  0  0  0  0  0  # atno 6907 bound_to 6896
  150.9240  134.8658  159.7518 H   0  0  0  0  0  0  0  0  0  0  0  0  # atno 6908 bound_to 6896
  152.4996  134.4228  159.9538 H   0  0  0  0  0  0  0  0  0  0  0  0  # atno 6909 bound_to 6896
  145.4110  140.9545  143.2234 H   0  0  0  0  0  0  0  0  0  0  0  0  # atno 7974 bound_to 7965
  155.4536  140.0540  157.2998 H   0  0  0  0  0  0  0  0  0  0  0  0  # atno 8008 bound_to 7997
  154.4767  140.2064  155.9817 H   0  0  0  0  0  0  0  0  0  0  0  0  # atno 8009 bound_to 7997
  156.1142  140.3199  155.8120 H   0  0  0  0  0  0  0  0  0  0  0  0  # atno 8010 bound_to 7997
  140.6917  143.6456  150.8396 H   0  0  0  0  0  0  0  0  0  0  0  0  # atno 10167 bound_to 10162
  157.1431  130.6641  149.5987 H   0  0  0  0  0  0  0  0  0  0  0  0  # atno 10718 bound_to 10713
  153.1958  135.6849  153.8294 H   0  0  0  0  0  0  0  0  0  0  0  0  # atno 10763 bound_to 10752
  153.7578  135.3214  155.3333 H   0  0  0  0  0  0  0  0  0  0  0  0  # atno 10764 bound_to 10752
  154.8143  135.4696  154.0701 H   0  0  0  0  0  0  0  0  0  0  0  0  # atno 10765 bound_to 10752
  141.0556  133.6727  156.3103 H   0  0  0  0  0  0  0  0  0  0  0  0  # atno 11005 bound_to 11000
  144.8309  139.5630  143.6944 LP  0  0  0  0  0  0  0  0  0  0  0  0  # atno 17320 bound_to 7965
  146.2705  139.6623  142.9299 LP  0  0  0  0  0  0  0  0  0  0  0  0  # atno 17321 bound_to 7965
  140.0169  143.5583  152.2816 LP  0  0  0  0  0  0  0  0  0  0  0  0  # atno 17342 bound_to 10162
  139.6327  144.7646  151.2502 LP  0  0  0  0  0  0  0  0  0  0  0  0  # atno 17343 bound_to 10162
  155.9784  130.4770  150.6657 LP  0  0  0  0  0  0  0  0  0  0  0  0  # atno 17370 bound_to 10713
  157.4288  131.0846  151.1058 LP  0  0  0  0  0  0  0  0  0  0  0  0  # atno 17371 bound_to 10713
  140.5970  134.5593  157.5510 LP  0  0  0  0  0  0  0  0  0  0  0  0  # atno 17394 bound_to 11000
  139.9387  134.7827  156.0734 LP  0  0  0  0  0  0  0  0  0  0  0  0  # atno 17395 bound_to 11000

$$$$
