AV-unprocessed.smi:2367|AV-procd|sdf|9424|dock2
  -GOLD-   2272013 63D 1   1.00000     0.00000
 Structure written by MMmdl.
 34 35  0  0  0  0  0  0  0  0  1 V2000
  146.1627  137.7233  162.8380 C   0  0  0  0  0  0  0  0  0  0  0  0
  147.1794  137.3455  161.9187 O   0  0  0  0  0  0  0  0  0  0  0  0
  147.3081  135.9457  161.6676 C   0  0  0  0  0  0  0  0  0  0  0  0
  148.4223  135.6457  160.6539 C   0  0  0  0  0  0  0  0  0  0  0  0
  148.2218  136.4000  159.4204 N   0  0  0  0  0  0  0  0  0  0  0  0
  149.1873  136.9878  158.7006 C   0  0  0  0  0  0  0  0  0  0  0  0
  150.3784  136.9795  159.0122 O   0  0  0  0  0  0  0  0  0  0  0  0
  148.6909  137.5600  157.5915 N   0  0  0  0  0  0  0  0  0  0  0  0
  149.4268  138.2481  156.5932 C   0  0  0  0  0  0  0  0  0  0  0  0
  149.0565  138.0702  155.2442 C   0  0  0  0  0  0  0  0  0  0  0  0
  149.7725  138.7657  154.2495 C   0  0  0  0  0  0  0  0  0  0  0  0
  150.7897  139.6108  154.5210 N   0  0  0  0  0  0  0  0  0  0  0  0
  151.1245  139.7991  155.8156 C   0  0  0  0  0  0  0  0  0  0  0  0
  150.4744  139.1546  156.8875 C   0  0  0  0  0  0  0  0  0  0  0  0
  150.8395  139.4329  158.1622 F   0  0  0  0  0  0  0  0  0  0  0  0
  147.3604  135.2216  163.0265 C   0  0  0  0  0  0  0  0  0  0  0  0
  146.3481  134.2110  162.4842 C   0  0  0  0  0  0  0  0  0  0  0  0
  145.9303  135.2804  161.4738 C   0  0  0  0  0  0  0  0  0  0  0  0
  146.2310  138.7946  163.0250 H   0  0  0  0  0  0  0  0  0  0  0  0
  146.2678  137.2142  163.7962 H   0  0  0  0  0  0  0  0  0  0  0  0
  145.1659  137.5264  162.4452 H   0  0  0  0  0  0  0  0  0  0  0  0
  149.3893  135.9425  161.0608 H   0  0  0  0  0  0  0  0  0  0  0  0
  148.5072  134.5744  160.4693 H   0  0  0  0  0  0  0  0  0  0  0  0
  147.2745  136.4554  159.0764 H   0  0  0  0  0  0  0  0  0  0  0  0
  147.7191  137.3831  157.3846 H   0  0  0  0  0  0  0  0  0  0  0  0
  148.2490  137.4062  154.9720 H   0  0  0  0  0  0  0  0  0  0  0  0
  149.5194  138.6409  153.2069 H   0  0  0  0  0  0  0  0  0  0  0  0
  151.9278  140.4958  156.0046 H   0  0  0  0  0  0  0  0  0  0  0  0
  148.3290  134.7929  163.2850 H   0  0  0  0  0  0  0  0  0  0  0  0
  146.9563  135.8165  163.8477 H   0  0  0  0  0  0  0  0  0  0  0  0
  146.8200  133.3454  162.0168 H   0  0  0  0  0  0  0  0  0  0  0  0
  145.5698  133.9189  163.1897 H   0  0  0  0  0  0  0  0  0  0  0  0
  145.0997  135.8889  161.8360 H   0  0  0  0  0  0  0  0  0  0  0  0
  145.7414  134.9034  160.4682 H   0  0  0  0  0  0  0  0  0  0  0  0
  1  2  1  0  0  0  0
  1 19  1  0  0  0  0
  1 20  1  0  0  0  0
  1 21  1  0  0  0  0
  2  3  1  0  0  0  0
  3 18  1  0  0  0  0
  3  4  1  0  0  0  0
  3 16  1  0  0  0  0
  4  5  1  0  0  0  0
  4 22  1  0  0  0  0
  4 23  1  0  0  0  0
  5  6  1  0  0  0  0
  5 24  1  0  0  0  0
  6  7  2  0  0  0  0
  6  8  1  0  0  0  0
  8  9  1  0  0  0  0
  8 25  1  0  0  0  0
  9 14  1  0  0  0  0
  9 10  2  0  0  0  0
 10 11  1  0  0  0  0
 10 26  1  0  0  0  0
 11 12  2  0  0  0  0
 11 27  1  0  0  0  0
 12 13  1  0  0  0  0
 13 14  2  0  0  0  0
 13 28  1  0  0  0  0
 14 15  1  0  0  0  0
 16 17  1  0  0  0  0
 16 29  1  0  0  0  0
 16 30  1  0  0  0  0
 17 18  1  0  0  0  0
 17 31  1  0  0  0  0
 17 32  1  0  0  0  0
 18 33  1  0  0  0  0
 18 34  1  0  0  0  0
M  END
> <s_m_source_file>
AV-unprocessed.smi

> <i_m_source_file_index>
2367

> <i_lp_mmshare_version>
43012

> <i_f3d_flags>
0

> <s_epik_input>
W0NIMl0xW0NIMl1bQ0gyXUMxKE9bQ0gzXSlbQ0gyXVtOSF1DKD1PKVtOSF1jMltjSF1bY0hdbltjSF1jMkY=

> <s_epik_cmdline>
J2VwaWtfcHl0aG9uJywgJy1waCcsICc3LjAnLCAnLXRuJywgJzgnLCAnLW1hJywgJzIwMCcsICctbWV0YWxfYmluZGluZycsICctaW1hZScsICc8aW5maWxlLm1hZT4nLCAnLW9tYWUnLCAnPG91dGZpbGUubWFlPic=

> <r_epik_Ionization_Penalty>
0.00342397

> <r_epik_Ionization_Penalty_Charging>
0

> <r_epik_Ionization_Penalty_Neutral>
0.00342397

> <r_epik_State_Penalty>
0.00239946

> <r_epik_Charging_Adjusted_Penalty>
0.00239946

> <i_epik_Tot_Q>
0

> <i_epik_Tot_abs_Q>
0

> <r_epik_Metal_State_Penalty>
-0

> <b_epik_Metal_Only>
0

> <s_lp_Force_Field>
OPLS_2005

> <r_lp_Energy>
23.3759

> <b_lp_Chiralities_Consistent>
1

> <s_lp_Variant>
AV-unprocessed.smi:2367-1

> <Gold.Version>
5.8.1

> <Gold.Id.Protein>
6NUR|6NUR_protein|mol2

> <Gold.PLP.Fitness>
41.9525

> <Gold.PLP.PLP>
-27.5770

> <Gold.PLP.part.hbond>
-3.8300

> <Gold.PLP.part.metal>
0.0000

> <Gold.PLP.part.buried>
-3.4413

> <Gold.PLP.part.nonpolar>
-22.1257

> <Gold.PLP.part.repulsive>
0.3192

> <Gold.PLP.ligand.clash>
0.0100

> <Gold.PLP.ligand.torsion>
0.6303

> <Gold.PLP.Chemscore.Hbond>
3.0829

> <Gold.PLP.Chemscore.CHOScore>
1.9900

> <Gold.PLP.Chemscore.Metal>
0.0000

> <Gold.Chemscore.Hbonds>
donor molecule, donor type, donor heavy atom, donor atom, acceptor molecule, acceptor atom, score
      P1  H  6896  6908       L1     7  0.57
      P1  H  6931  6943       L1     2  0.72
      P1  H  6934  6947       L1     2  0.58
      P1  H  7989  7998       L1    12  1.00
      L1  C    11    27       P1  7948  0.37
      L1  C    11    27       P1  7957  1.00

> <Gold.PLP.Chemscore.Internal.Correction>
0.4274

> <Gold.Rescore>
     Score         DG    S(hbond)    S(metal)    S(lipo)     H(rot)  DE(clash)    DE(int)     intcor
     15.56     -17.41       2.34        0.00      68.20       1.51       0.06       1.79       ----

> <Gold.Chemscore.Fitness>
15.5594

> <Gold.Chemscore.DG>
-17.4117

> <Gold.Chemscore.ZeroCoef>
-5.4800

> <Gold.Chemscore.Hbond>
2.3381

> <Gold.Chemscore.Metal>
0.0000

> <Gold.Chemscore.Lipo>
68.1954

> <Gold.Chemscore.Internal_Hbond>
0.0000

> <Gold.Chemscore.DEClash>
0.0641

> <Gold.Chemscore.DEInternal>
1.7882

> <Gold.Chemscore.Rot>
1.5064

> <Gold.Chemscore.Internal.Correction>
   9.000000E+99

> <Gold.Chemscore.Hbonds>
donor molecule, donor type, donor heavy atom, donor atom, acceptor molecule, acceptor atom, score
      P1  H  6896  6908       L1     7  0.46
      P1  H  6931  6943       L1     2  0.54
      P1  H  6934  6947       L1     2  0.07
      P1  H  7989  7998       L1    12  0.70

> <Gold.Chemscore.Hbond.Weighted>
-7.8092

> <Gold.Chemscore.Metal.Weighted>
-0.0000

> <Gold.Chemscore.Lipo.Weighted>
-7.9789

> <Gold.Chemscore.Internal_Hbond.Weighted>
0.0000

> <Gold.Chemscore.DEClash.Weighted>
0.0641

> <Gold.Chemscore.DEInternal.Weighted>
1.7882

> <Gold.Chemscore.Rot.Weighted>
3.8563

> <Gold.Chemscore.Internal.Correction.Weighted>
   9.000000E+99

> <Gold.Protein.RotatedTorsions>
[ 6907 6896 6895 6894 ] final -156.33 input  -60.11 | X-H torsion
[ 7974 7965 7964 7962 ] final -161.32 input  175.53 | X-H torsion
[ 8008 7997 7996 7995 ] final   52.34 input   59.86 | X-H torsion
[ 10167 10162 10161 10158 ] final  -71.83 input  -65.29 | X-H torsion
[ 10718 10713 10712 10709 ] final   41.32 input   66.30 | X-H torsion
[ 10763 10752 10751 10750 ] final  -19.35 input  -60.55 | X-H torsion
[ 11005 11000 10999 10996 ] final  -83.64 input  -57.11 | X-H torsion

> <Gold.Protein.ActiveResidues>
 VAL166  LYS551  ARG553  GLY616  TRP617  ASP618  TYR619  PRO620  LYS621  CYS622 
 ASP623  PHE694  ASN695  SER759  ASP760  ASP761  ALA762  ILE779  LEU786  VAL792 
 PHE793  MET794  SER795  GLU796  ALA797  LYS798  CYS799  TRP800  GLU811  SER814 

> <Gold.Protein.RotatedAtoms>
  151.2859  133.4188  159.2629 H   0  0  0  0  0  0  0  0  0  0  0  0  # atno 6907 bound_to 6896
  151.0319  134.9546  159.8126 H   0  0  0  0  0  0  0  0  0  0  0  0  # atno 6908 bound_to 6896
  152.5347  134.2820  159.9063 H   0  0  0  0  0  0  0  0  0  0  0  0  # atno 6909 bound_to 6896
  144.7395  140.3415  143.6134 H   0  0  0  0  0  0  0  0  0  0  0  0  # atno 7974 bound_to 7965
  155.4502  140.3458  155.4300 H   0  0  0  0  0  0  0  0  0  0  0  0  # atno 8008 bound_to 7997
  156.1225  140.1491  156.9214 H   0  0  0  0  0  0  0  0  0  0  0  0  # atno 8009 bound_to 7997
  154.4833  140.0863  156.7409 H   0  0  0  0  0  0  0  0  0  0  0  0  # atno 8010 bound_to 7997
  140.5241  143.2328  151.7378 H   0  0  0  0  0  0  0  0  0  0  0  0  # atno 10167 bound_to 10162
  157.3922  130.7813  149.7279 H   0  0  0  0  0  0  0  0  0  0  0  0  # atno 10718 bound_to 10713
  153.6034  135.6998  153.5375 H   0  0  0  0  0  0  0  0  0  0  0  0  # atno 10763 bound_to 10752
  153.3078  135.4110  155.1308 H   0  0  0  0  0  0  0  0  0  0  0  0  # atno 10764 bound_to 10752
  154.8578  135.3664  154.5570 H   0  0  0  0  0  0  0  0  0  0  0  0  # atno 10765 bound_to 10752
  141.1656  133.7305  156.8750 H   0  0  0  0  0  0  0  0  0  0  0  0  # atno 11005 bound_to 11000
  145.7369  139.1752  143.2398 LP  0  0  0  0  0  0  0  0  0  0  0  0  # atno 17320 bound_to 7965
  146.1163  140.7365  142.9479 LP  0  0  0  0  0  0  0  0  0  0  0  0  # atno 17321 bound_to 7965
  139.4932  144.4211  151.9976 LP  0  0  0  0  0  0  0  0  0  0  0  0  # atno 17342 bound_to 10162
  140.3310  144.3317  150.5987 LP  0  0  0  0  0  0  0  0  0  0  0  0  # atno 17343 bound_to 10162
  155.9801  130.4033  150.3547 LP  0  0  0  0  0  0  0  0  0  0  0  0  # atno 17370 bound_to 10713
  157.1665  131.0358  151.2816 LP  0  0  0  0  0  0  0  0  0  0  0  0  # atno 17371 bound_to 10713
  140.1755  134.9070  157.2885 LP  0  0  0  0  0  0  0  0  0  0  0  0  # atno 17394 bound_to 11000
  140.2454  134.3746  155.7463 LP  0  0  0  0  0  0  0  0  0  0  0  0  # atno 17395 bound_to 11000

$$$$
