AV-unprocessed.smi:757|AV-procd|sdf|3616|dock9
  -GOLD-   22720 1 13D 1   1.00000     0.00000
 Structure written by MMmdl.
 44 45  0  0  0  0  0  0  0  0  1 V2000
  152.1890  144.6954  158.1958 C   0  0  0  0  0  0  0  0  0  0  0  0
  151.6617  143.7446  157.6398 C   0  0  0  0  0  0  0  0  0  0  0  0
  151.0303  142.6047  156.9514 C   0  0  0  0  0  0  0  0  0  0  0  0
  151.3591  141.2283  157.5684 C   0  0  0  0  0  0  0  0  0  0  0  0
  150.8100  140.1009  156.8109 N   0  0  0  0  0  0  0  0  0  0  0  0
  151.3446  138.8543  157.3641 C   0  0  0  0  0  0  0  0  0  0  0  0
  150.7143  137.6380  156.6638 C   0  0  0  0  0  0  0  0  0  0  0  0
  150.9753  137.6787  155.1492 C   0  0  0  0  0  0  0  0  0  0  0  0
  150.2573  136.6072  154.4655 N   0  0  0  0  0  0  0  0  0  0  0  0
  150.2305  135.3244  154.8533 C   0  0  0  0  0  0  0  0  0  0  0  0
  150.8032  134.9075  155.8597 O   0  0  0  0  0  0  0  0  0  0  0  0
  149.4893  134.5809  154.0142 N   0  0  0  0  0  0  0  0  0  0  0  0
  149.2475  133.1806  154.0444 C   0  0  0  0  0  0  0  0  0  0  0  0
  150.0263  132.2496  154.7728 C   0  0  0  0  0  0  0  0  0  0  0  0
  149.6950  130.8830  154.7031 C   0  0  0  0  0  0  0  0  0  0  0  0
  148.6041  130.4854  153.9049 C   0  0  0  0  0  0  0  0  0  0  0  0
  148.2870  129.1440  153.8415 O   0  0  0  0  0  0  0  0  0  0  0  0
  147.3136  128.7238  152.8919 C   0  0  0  0  0  0  0  0  0  0  0  0
  147.8608  131.3699  153.1953 N   0  0  0  0  0  0  0  0  0  0  0  0
  148.1840  132.6783  153.2664 C   0  0  0  0  0  0  0  0  0  0  0  0
  150.5255  139.0403  154.6007 C   0  0  0  0  0  0  0  0  0  0  0  0
  151.1641  140.1957  155.3907 C   0  0  0  0  0  0  0  0  0  0  0  0
  152.6497  145.5279  158.6784 H   0  0  0  0  0  0  0  0  0  0  0  0
  149.9575  142.7864  156.9042 H   0  0  0  0  0  0  0  0  0  0  0  0
  151.3851  142.6270  155.9209 H   0  0  0  0  0  0  0  0  0  0  0  0
  152.4390  141.1108  157.6706 H   0  0  0  0  0  0  0  0  0  0  0  0
  150.9540  141.2099  158.5816 H   0  0  0  0  0  0  0  0  0  0  0  0
  152.4308  138.8313  157.2610 H   0  0  0  0  0  0  0  0  0  0  0  0
  151.1238  138.8017  158.4310 H   0  0  0  0  0  0  0  0  0  0  0  0
  151.1183  136.7196  157.0911 H   0  0  0  0  0  0  0  0  0  0  0  0
  149.6408  137.6241  156.8591 H   0  0  0  0  0  0  0  0  0  0  0  0
  152.0468  137.5723  154.9680 H   0  0  0  0  0  0  0  0  0  0  0  0
  149.7504  136.8628  153.6308 H   0  0  0  0  0  0  0  0  0  0  0  0
  149.0112  135.0848  153.2816 H   0  0  0  0  0  0  0  0  0  0  0  0
  150.8747  132.5488  155.3680 H   0  0  0  0  0  0  0  0  0  0  0  0
  150.2722  130.1515  155.2490 H   0  0  0  0  0  0  0  0  0  0  0  0
  147.1761  127.6455  152.9700 H   0  0  0  0  0  0  0  0  0  0  0  0
  147.6302  128.9435  151.8714 H   0  0  0  0  0  0  0  0  0  0  0  0
  146.3468  129.1945  153.0765 H   0  0  0  0  0  0  0  0  0  0  0  0
  147.5688  133.3472  152.6821 H   0  0  0  0  0  0  0  0  0  0  0  0
  150.7923  139.1242  153.5466 H   0  0  0  0  0  0  0  0  0  0  0  0
  149.4387  139.1255  154.6528 H   0  0  0  0  0  0  0  0  0  0  0  0
  150.8086  141.1358  154.9717 H   0  0  0  0  0  0  0  0  0  0  0  0
  152.2486  140.1828  155.2711 H   0  0  0  0  0  0  0  0  0  0  0  0
  1  2  3  0  0  0  0
  1 23  1  0  0  0  0
  2  3  1  0  0  0  0
  3  4  1  0  0  0  0
  3 24  1  0  0  0  0
  3 25  1  0  0  0  0
  4  5  1  0  0  0  0
  4 26  1  0  0  0  0
  4 27  1  0  0  0  0
  5 22  1  0  0  0  0
  5  6  1  0  0  0  0
  6  7  1  0  0  0  0
  6 28  1  0  0  0  0
  6 29  1  0  0  0  0
  7  8  1  0  0  0  0
  7 30  1  0  0  0  0
  7 31  1  0  0  0  0
  8  9  1  0  0  0  0
  8 21  1  0  0  0  0
  8 32  1  0  0  0  0
  9 10  1  0  0  0  0
  9 33  1  0  0  0  0
 10 11  2  0  0  0  0
 10 12  1  0  0  0  0
 12 13  1  0  0  0  0
 12 34  1  0  0  0  0
 13 20  1  0  0  0  0
 13 14  2  0  0  0  0
 14 15  1  0  0  0  0
 14 35  1  0  0  0  0
 15 16  2  0  0  0  0
 15 36  1  0  0  0  0
 16 17  1  0  0  0  0
 16 19  1  0  0  0  0
 17 18  1  0  0  0  0
 18 37  1  0  0  0  0
 18 38  1  0  0  0  0
 18 39  1  0  0  0  0
 19 20  2  0  0  0  0
 20 40  1  0  0  0  0
 21 22  1  0  0  0  0
 21 41  1  0  0  0  0
 21 42  1  0  0  0  0
 22 43  1  0  0  0  0
 22 44  1  0  0  0  0
M  END
> <s_m_source_file>
AV-unprocessed.smi

> <i_m_source_file_index>
757

> <i_lp_mmshare_version>
43012

> <i_f3d_flags>
0

> <s_epik_input>
W0NIXSNDW0NIMl1bQ0gyXU4xW0NIMl1bQ0gyXVtDSF0oW0NIMl1bQ0gyXTEpW05IXUMoPU8pW05IXWMyW2NIXVtjSF1jKE9bQ0gzXSluW2NIXTI=

> <s_epik_cmdline>
J2VwaWtfcHl0aG9uJywgJy1waCcsICc3LjAnLCAnLXRuJywgJzgnLCAnLW1hJywgJzIwMCcsICctbWV0YWxfYmluZGluZycsICctaW1hZScsICc8aW5maWxlLm1hZT4nLCAnLW9tYWUnLCAnPG91dGZpbGUubWFlPic=

> <r_lp_tautomer_probability>
1

> <r_epik_Ionization_Penalty>
1.61445

> <r_epik_Ionization_Penalty_Charging>
0

> <r_epik_Ionization_Penalty_Neutral>
1.61445

> <r_epik_State_Penalty>
1.71357

> <r_epik_Charging_Adjusted_Penalty>
1.71357

> <i_epik_Tot_Q>
0

> <i_epik_Tot_abs_Q>
0

> <r_epik_Metal_State_Penalty>
1.71356

> <b_epik_Metal_Only>
0

> <s_lp_Force_Field>
OPLS_2005

> <r_lp_Energy>
17.5598

> <b_lp_Chiralities_Consistent>
1

> <s_lp_Variant>
AV-unprocessed.smi:757-3

> <Gold.Version>
5.8.1

> <Gold.Id.Protein>
6NUR|6NUR_protein|mol2

> <Gold.PLP.Fitness>
45.9684

> <Gold.PLP.PLP>
-40.8385

> <Gold.PLP.part.hbond>
-2.6264

> <Gold.PLP.part.metal>
0.0000

> <Gold.PLP.part.buried>
-3.6895

> <Gold.PLP.part.nonpolar>
-35.2015

> <Gold.PLP.part.repulsive>
0.3378

> <Gold.PLP.ligand.clash>
0.0000

> <Gold.PLP.ligand.torsion>
0.3171

> <Gold.PLP.Chemscore.Hbond>
1.9199

> <Gold.PLP.Chemscore.CHOScore>
0.0000

> <Gold.PLP.Chemscore.Metal>
0.0000

> <Gold.Chemscore.Hbonds>
donor molecule, donor type, donor heavy atom, donor atom, acceptor molecule, acceptor atom, score
      L1  H     9    33       P1  7948  0.93
      L1  H    12    34       P1  7948  1.00

> <Gold.PLP.Chemscore.Internal.Correction>
0.0045

> <Gold.Rescore>
     Score         DG    S(hbond)    S(metal)    S(lipo)     H(rot)  DE(clash)    DE(int)     intcor
     14.57     -17.63       1.42        0.00      97.28       1.55       0.11       2.95       ----

> <Gold.Chemscore.Fitness>
14.5729

> <Gold.Chemscore.DG>
-17.6337

> <Gold.Chemscore.ZeroCoef>
-5.4800

> <Gold.Chemscore.Hbond>
1.4203

> <Gold.Chemscore.Metal>
0.0000

> <Gold.Chemscore.Lipo>
97.2839

> <Gold.Chemscore.Internal_Hbond>
0.0000

> <Gold.Chemscore.DEClash>
0.1120

> <Gold.Chemscore.DEInternal>
2.9489

> <Gold.Chemscore.Rot>
1.5517

> <Gold.Chemscore.Internal.Correction>
   9.000000E+99

> <Gold.Chemscore.Hbonds>
donor molecule, donor type, donor heavy atom, donor atom, acceptor molecule, acceptor atom, score
      L1  H     9    33       P1  7948  0.52
      L1  H    12    34       P1  7948  0.29

> <Gold.Chemscore.Hbond.Weighted>
-4.7439

> <Gold.Chemscore.Metal.Weighted>
-0.0000

> <Gold.Chemscore.Lipo.Weighted>
-11.3822

> <Gold.Chemscore.Internal_Hbond.Weighted>
0.0000

> <Gold.Chemscore.DEClash.Weighted>
0.1120

> <Gold.Chemscore.DEInternal.Weighted>
2.9489

> <Gold.Chemscore.Rot.Weighted>
3.9725

> <Gold.Chemscore.Internal.Correction.Weighted>
   9.000000E+99

> <Gold.Protein.RotatedTorsions>
[ 6907 6896 6895 6894 ] final  -52.30 input  -60.11 | X-H torsion
[ 7974 7965 7964 7962 ] final   98.64 input  175.53 | X-H torsion
[ 8008 7997 7996 7995 ] final  120.22 input   59.86 | X-H torsion
[ 10167 10162 10161 10158 ] final -121.46 input  -65.29 | X-H torsion
[ 10718 10713 10712 10709 ] final  -55.24 input   66.30 | X-H torsion
[ 10763 10752 10751 10750 ] final  -48.63 input  -60.55 | X-H torsion
[ 11005 11000 10999 10996 ] final   42.18 input  -57.11 | X-H torsion

> <Gold.Protein.ActiveResidues>
 VAL166  LYS551  ARG553  GLY616  TRP617  ASP618  TYR619  PRO620  LYS621  CYS622 
 ASP623  PHE694  ASN695  SER759  ASP760  ASP761  ALA762  ILE779  LEU786  VAL792 
 PHE793  MET794  SER795  GLU796  ALA797  LYS798  CYS799  TRP800  GLU811  SER814 

> <Gold.Protein.RotatedAtoms>
  150.8531  134.7861  159.7023 H   0  0  0  0  0  0  0  0  0  0  0  0  # atno 6907 bound_to 6896
  152.4590  134.5224  159.9796 H   0  0  0  0  0  0  0  0  0  0  0  0  # atno 6908 bound_to 6896
  151.5341  133.3406  159.2959 H   0  0  0  0  0  0  0  0  0  0  0  0  # atno 6909 bound_to 6896
  145.4095  139.2336  143.3256 H   0  0  0  0  0  0  0  0  0  0  0  0  # atno 7974 bound_to 7965
  156.2632  140.2835  156.1114 H   0  0  0  0  0  0  0  0  0  0  0  0  # atno 8008 bound_to 7997
  155.1253  140.0393  157.2778 H   0  0  0  0  0  0  0  0  0  0  0  0  # atno 8009 bound_to 7997
  154.6640  140.2573  155.7084 H   0  0  0  0  0  0  0  0  0  0  0  0  # atno 8010 bound_to 7997
  140.0247  143.5308  152.2204 H   0  0  0  0  0  0  0  0  0  0  0  0  # atno 10167 bound_to 10162
  156.1385  130.4155  150.0144 H   0  0  0  0  0  0  0  0  0  0  0  0  # atno 10718 bound_to 10713
  154.0809  135.6591  153.4838 H   0  0  0  0  0  0  0  0  0  0  0  0  # atno 10763 bound_to 10752
  153.0356  135.5179  154.7475 H   0  0  0  0  0  0  0  0  0  0  0  0  # atno 10764 bound_to 10752
  154.6569  135.3009  154.9884 H   0  0  0  0  0  0  0  0  0  0  0  0  # atno 10765 bound_to 10752
  140.1764  134.4158  155.8226 H   0  0  0  0  0  0  0  0  0  0  0  0  # atno 11005 bound_to 11000
  146.2712  140.4804  142.8814 LP  0  0  0  0  0  0  0  0  0  0  0  0  # atno 17320 bound_to 7965
  144.8319  140.6720  143.6285 LP  0  0  0  0  0  0  0  0  0  0  0  0  # atno 17321 bound_to 7965
  139.6116  144.7610  151.2940 LP  0  0  0  0  0  0  0  0  0  0  0  0  # atno 17342 bound_to 10162
  140.7327  143.6815  150.7997 LP  0  0  0  0  0  0  0  0  0  0  0  0  # atno 17343 bound_to 10162
  156.8036  130.9299  151.3645 LP  0  0  0  0  0  0  0  0  0  0  0  0  # atno 17370 bound_to 10713
  157.6554  130.8920  149.9718 LP  0  0  0  0  0  0  0  0  0  0  0  0  # atno 17371 bound_to 10713
  141.2220  133.6980  156.7854 LP  0  0  0  0  0  0  0  0  0  0  0  0  # atno 17394 bound_to 11000
  140.2318  134.8680  157.3484 LP  0  0  0  0  0  0  0  0  0  0  0  0  # atno 17395 bound_to 11000

$$$$
