AV-unprocessed.smi:2133|AV-procd|sdf|8692|dock5
  -GOLD-   2272011453D 1   1.00000     0.00000
 Structure written by MMmdl.
 45 47  0  0  0  0  0  0  0  0  1 V2000
  154.2349  139.6093  160.3401 C   0  0  0  0  0  0  0  0  0  0  0  0
  153.3859  140.7976  160.1318 N   0  0  0  0  0  0  0  0  0  0  0  0
  152.7076  140.9100  158.9464 C   0  0  0  0  0  0  0  0  0  0  0  0
  152.7434  140.0835  158.0345 O   0  0  0  0  0  0  0  0  0  0  0  0
  151.9022  142.1308  158.8369 C   0  0  0  0  0  0  0  0  0  0  0  0
  151.8281  143.0544  159.8258 C   0  0  0  0  0  0  0  0  0  0  0  0
  150.9952  144.1101  159.4737 N   0  0  0  0  0  0  0  0  0  0  0  0
  150.6013  143.7559  158.2503 C   0  0  0  0  0  0  0  0  0  0  0  0
  151.0963  142.5873  157.7939 N   0  0  0  0  0  0  0  0  0  0  0  0
  150.8149  141.9928  156.4959 C   0  0  0  0  0  0  0  0  0  0  0  0
  149.4892  141.2064  156.4808 C   0  0  2  0  0  0  0  0  0  0  0  0
  149.7333  139.8317  156.7038 O   0  0  0  0  0  0  0  0  0  0  0  0
  148.7345  141.3601  155.1526 C   0  0  0  0  0  0  0  0  0  0  0  0
  147.5599  142.1217  155.3784 O   0  0  0  0  0  0  0  0  0  0  0  0
  146.6883  142.1427  154.2597 C   0  0  0  0  0  0  0  0  0  0  0  0
  145.8089  143.3794  154.2443 C   0  0  0  0  0  0  0  0  0  0  0  0
  145.0432  143.7282  155.3779 C   0  0  0  0  0  0  0  0  0  0  0  0
  144.2167  144.8686  155.3515 C   0  0  0  0  0  0  0  0  0  0  0  0
  144.1462  145.6613  154.1897 C   0  0  0  0  0  0  0  0  0  0  0  0
  144.9008  145.3120  153.0533 C   0  0  0  0  0  0  0  0  0  0  0  0
  145.7279  144.1719  153.0796 C   0  0  0  0  0  0  0  0  0  0  0  0
  152.5638  142.8375  161.0168 N   0  0  0  0  0  0  0  0  0  0  0  0
  152.4566  143.8578  162.0640 C   0  0  0  0  0  0  0  0  0  0  0  0
  153.3426  141.7156  161.1680 C   0  0  0  0  0  0  0  0  0  0  0  0
  153.9879  141.5321  162.2037 O   0  0  0  0  0  0  0  0  0  0  0  0
  154.2487  138.9026  159.5099 H   0  0  0  0  0  0  0  0  0  0  0  0
  153.8991  139.0508  161.2153 H   0  0  0  0  0  0  0  0  0  0  0  0
  155.2710  139.9070  160.5096 H   0  0  0  0  0  0  0  0  0  0  0  0
  149.9276  144.3655  157.6659 H   0  0  0  0  0  0  0  0  0  0  0  0
  150.7710  142.8015  155.7652 H   0  0  0  0  0  0  0  0  0  0  0  0
  151.6482  141.3633  156.1882 H   0  0  0  0  0  0  0  0  0  0  0  0
  148.8497  141.5586  157.2912 H   0  0  0  0  0  0  0  0  0  0  0  0
  150.0056  139.4393  155.8885 H   0  0  0  0  0  0  0  0  0  0  0  0
  149.3666  141.8444  154.4064 H   0  0  0  0  0  0  0  0  0  0  0  0
  148.4593  140.3781  154.7639 H   0  0  0  0  0  0  0  0  0  0  0  0
  147.2733  142.1055  153.3391 H   0  0  0  0  0  0  0  0  0  0  0  0
  146.0446  141.2620  154.2737 H   0  0  0  0  0  0  0  0  0  0  0  0
  145.0861  143.1238  156.2722 H   0  0  0  0  0  0  0  0  0  0  0  0
  143.6354  145.1338  156.2223 H   0  0  0  0  0  0  0  0  0  0  0  0
  143.5112  146.5348  154.1694 H   0  0  0  0  0  0  0  0  0  0  0  0
  144.8443  145.9175  152.1608 H   0  0  0  0  0  0  0  0  0  0  0  0
  146.3010  143.9090  152.2025 H   0  0  0  0  0  0  0  0  0  0  0  0
  153.0418  143.6488  162.9599 H   0  0  0  0  0  0  0  0  0  0  0  0
  151.4164  143.9625  162.3741 H   0  0  0  0  0  0  0  0  0  0  0  0
  152.7887  144.8224  161.6783 H   0  0  0  0  0  0  0  0  0  0  0  0
  1  2  1  0  0  0  0
  1 26  1  0  0  0  0
  1 27  1  0  0  0  0
  1 28  1  0  0  0  0
  2 24  1  0  0  0  0
  2  3  1  0  0  0  0
  3  4  2  0  0  0  0
  3  5  1  0  0  0  0
  5  9  1  0  0  0  0
  5  6  2  0  0  0  0
  6  7  1  0  0  0  0
  6 22  1  0  0  0  0
  7  8  2  0  0  0  0
  8  9  1  0  0  0  0
  8 29  1  0  0  0  0
  9 10  1  0  0  0  0
 10 11  1  0  0  0  0
 10 30  1  0  0  0  0
 10 31  1  0  0  0  0
 11 12  1  0  0  0  0
 11 13  1  0  0  0  0
 11 32  1  0  0  0  0
 12 33  1  0  0  0  0
 13 14  1  0  0  0  0
 13 34  1  0  0  0  0
 13 35  1  0  0  0  0
 14 15  1  0  0  0  0
 15 16  1  0  0  0  0
 15 36  1  0  0  0  0
 15 37  1  0  0  0  0
 16 21  1  0  0  0  0
 16 17  2  0  0  0  0
 17 18  1  0  0  0  0
 17 38  1  0  0  0  0
 18 19  2  0  0  0  0
 18 39  1  0  0  0  0
 19 20  1  0  0  0  0
 19 40  1  0  0  0  0
 20 21  2  0  0  0  0
 20 41  1  0  0  0  0
 21 42  1  0  0  0  0
 22 23  1  0  0  0  0
 22 24  1  0  0  0  0
 23 43  1  0  0  0  0
 23 44  1  0  0  0  0
 23 45  1  0  0  0  0
 24 25  2  0  0  0  0
M  END
> <s_m_source_file>
AV-unprocessed.smi

> <i_m_source_file_index>
2133

> <i_lp_mmshare_version>
43012

> <i_f3d_flags>
0

> <s_epik_input>
Tz1jMW4oW0NIM10pYyg9TyluKFtDSDNdKWMoYzEyKW5bY0hdbjJbQ0gyXVtDQEhdKFtPSF0pW0NIMl1PW0NIMl1jM1tjSF1bY0hdW2NIXVtjSF1bY0hdMw==

> <s_epik_cmdline>
J2VwaWtfcHl0aG9uJywgJy1waCcsICc3LjAnLCAnLXRuJywgJzgnLCAnLW1hJywgJzIwMCcsICctbWV0YWxfYmluZGluZycsICctaW1hZScsICc8aW5maWxlLm1hZT4nLCAnLW9tYWUnLCAnPG91dGZpbGUubWFlPic=

> <r_lp_tautomer_probability>
1

> <r_epik_Ionization_Penalty>
1.52174e-06

> <r_epik_Ionization_Penalty_Charging>
3.83535e-09

> <r_epik_Ionization_Penalty_Neutral>
1.5179e-06

> <r_epik_State_Penalty>
-0

> <r_epik_Charging_Adjusted_Penalty>
3.83535e-09

> <i_epik_Tot_Q>
0

> <i_epik_Tot_abs_Q>
0

> <r_epik_Metal_State_Penalty>
-0

> <b_epik_Metal_Only>
0

> <s_lp_Force_Field>
OPLS_2005

> <r_lp_Energy>
38.2919

> <b_lp_Chiralities_Consistent>
1

> <s_lp_Variant>
AV-unprocessed.smi:2133-1

> <Gold.Version>
5.8.1

> <Gold.Id.Protein>
6NUR|6NUR_protein|mol2

> <Gold.PLP.Fitness>
58.8764

> <Gold.PLP.PLP>
-56.1248

> <Gold.PLP.part.hbond>
-2.0000

> <Gold.PLP.part.metal>
0.0000

> <Gold.PLP.part.buried>
-7.5971

> <Gold.PLP.part.nonpolar>
-47.6298

> <Gold.PLP.part.repulsive>
1.0468

> <Gold.PLP.ligand.clash>
0.0000

> <Gold.PLP.ligand.torsion>
1.7771

> <Gold.PLP.Chemscore.Hbond>
0.9760

> <Gold.PLP.Chemscore.CHOScore>
1.0874

> <Gold.PLP.Chemscore.Metal>
0.0000

> <Gold.Chemscore.Hbonds>
donor molecule, donor type, donor heavy atom, donor atom, acceptor molecule, acceptor atom, score
      P1  H  7997  8009       L1     4  0.86
      L1  C     8    29       P1  8028  0.93
      L1  C     8    29       P1  8029  0.15

> <Gold.PLP.Chemscore.Internal.Correction>
0.1156

> <Gold.Rescore>
     Score         DG    S(hbond)    S(metal)    S(lipo)     H(rot)  DE(clash)    DE(int)     intcor
      9.94     -11.77       0.95        0.00      90.49       2.91       0.07       1.76       ----

> <Gold.Chemscore.Fitness>
9.9431

> <Gold.Chemscore.DG>
-11.7733

> <Gold.Chemscore.ZeroCoef>
-5.4800

> <Gold.Chemscore.Hbond>
0.9472

> <Gold.Chemscore.Metal>
0.0000

> <Gold.Chemscore.Lipo>
90.4914

> <Gold.Chemscore.Internal_Hbond>
0.0000

> <Gold.Chemscore.DEClash>
0.0706

> <Gold.Chemscore.DEInternal>
1.7596

> <Gold.Chemscore.Rot>
2.9132

> <Gold.Chemscore.Internal.Correction>
   9.000000E+99

> <Gold.Chemscore.Hbonds>
donor molecule, donor type, donor heavy atom, donor atom, acceptor molecule, acceptor atom, score
      P1  H  7997  8009       L1     4  0.71

> <Gold.Chemscore.Hbond.Weighted>
-3.1635

> <Gold.Chemscore.Metal.Weighted>
-0.0000

> <Gold.Chemscore.Lipo.Weighted>
-10.5875

> <Gold.Chemscore.Internal_Hbond.Weighted>
0.0000

> <Gold.Chemscore.DEClash.Weighted>
0.0706

> <Gold.Chemscore.DEInternal.Weighted>
1.7596

> <Gold.Chemscore.Rot.Weighted>
7.4578

> <Gold.Chemscore.Internal.Correction.Weighted>
   9.000000E+99

> <Gold.Protein.RotatedTorsions>
[ 6907 6896 6895 6894 ] final  -16.39 input  -60.11 | X-H torsion
[ 7974 7965 7964 7962 ] final  -64.45 input  175.53 | X-H torsion
[ 8008 7997 7996 7995 ] final  159.25 input   59.86 | X-H torsion
[ 10167 10162 10161 10158 ] final   62.41 input  -65.29 | X-H torsion
[ 10718 10713 10712 10709 ] final  101.52 input   66.30 | X-H torsion
[ 10763 10752 10751 10750 ] final  -57.40 input  -60.55 | X-H torsion
[ 11005 11000 10999 10996 ] final  -14.55 input  -57.11 | X-H torsion

> <Gold.Protein.ActiveResidues>
 VAL166  LYS551  ARG553  GLY616  TRP617  ASP618  TYR619  PRO620  LYS621  CYS622 
 ASP623  PHE694  ASN695  SER759  ASP760  ASP761  ALA762  ILE779  LEU786  VAL792 
 PHE793  MET794  SER795  GLU796  ALA797  LYS798  CYS799  TRP800  GLU811  SER814 

> <Gold.Protein.RotatedAtoms>
  151.3093  135.0790  159.9266 H   0  0  0  0  0  0  0  0  0  0  0  0  # atno 6907 bound_to 6896
  152.5281  133.9752  159.7791 H   0  0  0  0  0  0  0  0  0  0  0  0  # atno 6908 bound_to 6896
  151.0053  133.5965  159.2720 H   0  0  0  0  0  0  0  0  0  0  0  0  # atno 6909 bound_to 6896
  145.7666  140.8834  143.0402 H   0  0  0  0  0  0  0  0  0  0  0  0  # atno 7974 bound_to 7965
  156.2251  140.1836  156.7383 H   0  0  0  0  0  0  0  0  0  0  0  0  # atno 8008 bound_to 7997
  154.5927  140.0648  156.9290 H   0  0  0  0  0  0  0  0  0  0  0  0  # atno 8009 bound_to 7997
  155.2308  140.3314  155.4306 H   0  0  0  0  0  0  0  0  0  0  0  0  # atno 8010 bound_to 7997
  140.1442  144.4525  150.6794 H   0  0  0  0  0  0  0  0  0  0  0  0  # atno 10167 bound_to 10162
  157.6827  131.0728  150.5265 H   0  0  0  0  0  0  0  0  0  0  0  0  # atno 10718 bound_to 10713
  154.2218  135.6376  153.5147 H   0  0  0  0  0  0  0  0  0  0  0  0  # atno 10763 bound_to 10752
  152.9967  135.5498  154.6106 H   0  0  0  0  0  0  0  0  0  0  0  0  # atno 10764 bound_to 10752
  154.5568  135.2906  155.0931 H   0  0  0  0  0  0  0  0  0  0  0  0  # atno 10765 bound_to 10752
  140.7876  133.8313  155.9349 H   0  0  0  0  0  0  0  0  0  0  0  0  # atno 11005 bound_to 11000
  144.6820  139.9797  143.7483 LP  0  0  0  0  0  0  0  0  0  0  0  0  # atno 17320 bound_to 7965
  146.0212  139.3252  143.0812 LP  0  0  0  0  0  0  0  0  0  0  0  0  # atno 17321 bound_to 7965
  140.6742  143.2298  151.5549 LP  0  0  0  0  0  0  0  0  0  0  0  0  # atno 17342 bound_to 10162
  139.5457  144.2527  152.1438 LP  0  0  0  0  0  0  0  0  0  0  0  0  # atno 17343 bound_to 10162
  156.5577  130.4247  149.6078 LP  0  0  0  0  0  0  0  0  0  0  0  0  # atno 17370 bound_to 10713
  156.2848  130.7091  151.1925 LP  0  0  0  0  0  0  0  0  0  0  0  0  # atno 17371 bound_to 10713
  140.9421  134.1887  157.4790 LP  0  0  0  0  0  0  0  0  0  0  0  0  # atno 17394 bound_to 11000
  139.8735  134.9876  156.5375 LP  0  0  0  0  0  0  0  0  0  0  0  0  # atno 17395 bound_to 11000

$$$$
