AV-unprocessed.smi:1824|AV-procd|sdf|7399|dock5
  -GOLD-   22720 9 73D 1   1.00000     0.00000
 Structure written by MMmdl.
 45 47  0  0  0  0  0  0  0  0  2 V2000
  147.3898  135.9567  156.4293 C   0  0  0  0  0  0  0  0  0  0  0  0
  147.9248  136.8125  155.2758 C   0  0  2  0  0  0  0  0  0  0  0  0
  149.4595  136.9276  155.3060 C   0  0  0  0  0  0  0  0  0  0  0  0
  149.9314  137.8309  154.2314 N   0  3  2  0  0  0  0  0  0  0  0  0
  151.4129  137.8873  154.1421 C   0  0  0  0  0  0  0  0  0  0  0  0
  152.0187  138.9766  155.0491 C   0  0  2  0  0  0  0  0  0  0  0  0
  153.4244  138.8138  155.0801 O   0  0  0  0  0  0  0  0  0  0  0  0
  151.4600  138.8990  156.4832 C   0  0  0  0  0  0  0  0  0  0  0  0
  151.1218  140.2045  157.0223 N   0  0  0  0  0  0  0  0  0  0  0  0
  150.2339  141.0835  156.5188 C   0  0  0  0  0  0  0  0  0  0  0  0
  150.0739  142.2305  157.1724 N   0  0  0  0  0  0  0  0  0  0  0  0
  150.9600  142.0790  158.2252 C   0  0  0  0  0  0  0  0  0  0  0  0
  151.2724  142.9492  159.2941 C   0  0  0  0  0  0  0  0  0  0  0  0
  152.2240  142.5756  160.2660 C   0  0  0  0  0  0  0  0  0  0  0  0
  152.5106  143.4209  161.2843 F   0  0  0  0  0  0  0  0  0  0  0  0
  152.8774  141.3279  160.1829 C   0  0  0  0  0  0  0  0  0  0  0  0
  153.7897  140.9762  161.1199 F   0  0  0  0  0  0  0  0  0  0  0  0
  152.5833  140.4445  159.1266 C   0  0  0  0  0  0  0  0  0  0  0  0
  151.6320  140.8210  158.1602 C   0  0  0  0  0  0  0  0  0  0  0  0
  149.2916  139.1631  154.3617 C   0  0  0  0  0  0  0  0  0  0  0  0
  147.7554  139.0399  154.3839 C   0  0  1  0  0  0  0  0  0  0  0  0
  147.1453  138.7156  153.0086 C   0  0  0  0  0  0  0  0  0  0  0  0
  147.3497  138.1117  155.3900 O   0  0  0  0  0  0  0  0  0  0  0  0
  147.7894  134.9431  156.3860 H   0  0  0  0  0  0  0  0  0  0  0  0
  146.3024  135.8862  156.3896 H   0  0  0  0  0  0  0  0  0  0  0  0
  147.6599  136.3821  157.3964 H   0  0  0  0  0  0  0  0  0  0  0  0
  147.6102  136.3509  154.3396 H   0  0  0  0  0  0  0  0  0  0  0  0
  149.7954  137.3050  156.2734 H   0  0  0  0  0  0  0  0  0  0  0  0
  149.9007  135.9383  155.1769 H   0  0  0  0  0  0  0  0  0  0  0  0
  151.8247  136.9078  154.3905 H   0  0  0  0  0  0  0  0  0  0  0  0
  151.7126  138.0890  153.1125 H   0  0  0  0  0  0  0  0  0  0  0  0
  151.8024  139.9667  154.6488 H   0  0  0  0  0  0  0  0  0  0  0  0
  153.7490  138.8037  154.1923 H   0  0  0  0  0  0  0  0  0  0  0  0
  150.5618  138.2805  156.5031 H   0  0  0  0  0  0  0  0  0  0  0  0
  152.1794  138.4212  157.1496 H   0  0  0  0  0  0  0  0  0  0  0  0
  149.6736  140.8694  155.6202 H   0  0  0  0  0  0  0  0  0  0  0  0
  150.7791  143.9071  159.3678 H   0  0  0  0  0  0  0  0  0  0  0  0
  153.0836  139.4903  159.0621 H   0  0  0  0  0  0  0  0  0  0  0  0
  149.6321  139.6318  155.2864 H   0  0  0  0  0  0  0  0  0  0  0  0
  149.5929  139.8224  153.5483 H   0  0  0  0  0  0  0  0  0  0  0  0
  147.3507  140.0064  154.6862 H   0  0  0  0  0  0  0  0  0  0  0  0
  147.3642  139.5084  152.2927 H   0  0  0  0  0  0  0  0  0  0  0  0
  146.0609  138.6252  153.0766 H   0  0  0  0  0  0  0  0  0  0  0  0
  147.5333  137.7874  152.5900 H   0  0  0  0  0  0  0  0  0  0  0  0
  149.6100  137.4292  153.3618 H   0  0  0  0  0  0  0  0  0  0  0  0
  1  2  1  0  0  0  0
  1 24  1  0  0  0  0
  1 25  1  0  0  0  0
  1 26  1  0  0  0  0
  2 23  1  0  0  0  0
  2  3  1  0  0  0  0
  2 27  1  0  0  0  0
  3  4  1  0  0  0  0
  3 28  1  0  0  0  0
  3 29  1  0  0  0  0
  4  5  1  0  0  0  0
  4 20  1  0  0  0  0
  4 45  1  0  0  0  0
  5  6  1  0  0  0  0
  5 30  1  0  0  0  0
  5 31  1  0  0  0  0
  6  7  1  0  0  0  0
  6  8  1  0  0  0  0
  6 32  1  0  0  0  0
  7 33  1  0  0  0  0
  8  9  1  0  0  0  0
  8 34  1  0  0  0  0
  8 35  1  0  0  0  0
  9 19  1  0  0  0  0
  9 10  1  0  0  0  0
 10 11  2  0  0  0  0
 10 36  1  0  0  0  0
 11 12  1  0  0  0  0
 12 19  2  0  0  0  0
 12 13  1  0  0  0  0
 13 14  2  0  0  0  0
 13 37  1  0  0  0  0
 14 15  1  0  0  0  0
 14 16  1  0  0  0  0
 16 17  1  0  0  0  0
 16 18  2  0  0  0  0
 18 19  1  0  0  0  0
 18 38  1  0  0  0  0
 20 21  1  0  0  0  0
 20 39  1  0  0  0  0
 20 40  1  0  0  0  0
 21 22  1  0  0  0  0
 21 23  1  0  0  0  0
 21 41  1  0  0  0  0
 22 42  1  0  0  0  0
 22 43  1  0  0  0  0
 22 44  1  0  0  0  0
M  CHG  1   4   1
M  END
> <s_m_source_file>
AV-unprocessed.smi

> <i_m_source_file_index>
1824

> <i_lp_mmshare_version>
43012

> <i_f3d_flags>
0

> <s_epik_input>
W0NIM11bQ0BASF0xW0NIMl1OKFtDSDJdW0NASF0oTzEpW0NIM10pW0NIMl1bQ0BIXShbT0hdKVtDSDJdbihbY0hdbjIpYyhjMjMpW2NIXWMoRiljKEYpW2NIXTM=

> <s_epik_cmdline>
J2VwaWtfcHl0aG9uJywgJy1waCcsICc3LjAnLCAnLXRuJywgJzgnLCAnLW1hJywgJzIwMCcsICctbWV0YWxfYmluZGluZycsICctaW1hZScsICc8aW5maWxlLm1hZT4nLCAnLW9tYWUnLCAnPG91dGZpbGUubWFlPic=

> <r_epik_Ionization_Penalty>
0.61967

> <r_epik_Ionization_Penalty_Charging>
0.608065

> <r_epik_Ionization_Penalty_Neutral>
0.0116057

> <r_epik_State_Penalty>
0.664205

> <r_epik_Charging_Adjusted_Penalty>
1.27227

> <i_epik_Tot_Q>
1

> <i_epik_Tot_abs_Q>
1

> <r_epik_Metal_State_Penalty>
0.654947

> <b_epik_Metal_Only>
0

> <s_lp_Force_Field>
OPLS_2005

> <r_lp_Energy>
23.0723

> <b_lp_Chiralities_Consistent>
1

> <s_lp_Variant>
AV-unprocessed.smi:1824-7

> <Gold.Version>
5.8.1

> <Gold.Id.Protein>
6NUR|6NUR_protein|mol2

> <Gold.PLP.Fitness>
48.7658

> <Gold.PLP.PLP>
-41.6468

> <Gold.PLP.part.hbond>
-2.0000

> <Gold.PLP.part.metal>
0.0000

> <Gold.PLP.part.buried>
-6.4477

> <Gold.PLP.part.nonpolar>
-34.9609

> <Gold.PLP.part.repulsive>
0.7332

> <Gold.PLP.ligand.clash>
0.0000

> <Gold.PLP.ligand.torsion>
0.9602

> <Gold.PLP.Chemscore.Hbond>
3.0000

> <Gold.PLP.Chemscore.CHOScore>
0.0000

> <Gold.PLP.Chemscore.Metal>
0.0000

> <Gold.Chemscore.Hbonds>
donor molecule, donor type, donor heavy atom, donor atom, acceptor molecule, acceptor atom, score
      L1  H     4    45       P1  7948  2.00
      P1  H  7997  8009       L1     7  1.00

> <Gold.PLP.Chemscore.Internal.Correction>
0.0394

> <Gold.Rescore>
     Score         DG    S(hbond)    S(metal)    S(lipo)     H(rot)  DE(clash)    DE(int)     intcor
     15.59     -16.44       1.81        0.00      92.89       2.33       0.03       0.81       ----

> <Gold.Chemscore.Fitness>
15.5948

> <Gold.Chemscore.DG>
-16.4359

> <Gold.Chemscore.ZeroCoef>
-5.4800

> <Gold.Chemscore.Hbond>
1.8084

> <Gold.Chemscore.Metal>
0.0000

> <Gold.Chemscore.Lipo>
92.8902

> <Gold.Chemscore.Internal_Hbond>
0.0000

> <Gold.Chemscore.DEClash>
0.0312

> <Gold.Chemscore.DEInternal>
0.8098

> <Gold.Chemscore.Rot>
2.3251

> <Gold.Chemscore.Internal.Correction>
   9.000000E+99

> <Gold.Chemscore.Hbonds>
donor molecule, donor type, donor heavy atom, donor atom, acceptor molecule, acceptor atom, score
      L1  H     4    45       P1  7948  0.79
      P1  H  7997  8009       L1     7  0.41

> <Gold.Chemscore.Hbond.Weighted>
-6.0401

> <Gold.Chemscore.Metal.Weighted>
-0.0000

> <Gold.Chemscore.Lipo.Weighted>
-10.8681

> <Gold.Chemscore.Internal_Hbond.Weighted>
0.0000

> <Gold.Chemscore.DEClash.Weighted>
0.0312

> <Gold.Chemscore.DEInternal.Weighted>
0.8098

> <Gold.Chemscore.Rot.Weighted>
5.9523

> <Gold.Chemscore.Internal.Correction.Weighted>
   9.000000E+99

> <Gold.Protein.RotatedTorsions>
[ 6907 6896 6895 6894 ] final  -11.56 input  -60.11 | X-H torsion
[ 7974 7965 7964 7962 ] final   40.28 input  175.53 | X-H torsion
[ 8008 7997 7996 7995 ] final -138.56 input   59.86 | X-H torsion
[ 10167 10162 10161 10158 ] final  -38.04 input  -65.29 | X-H torsion
[ 10718 10713 10712 10709 ] final   84.57 input   66.30 | X-H torsion
[ 10763 10752 10751 10750 ] final  158.06 input  -60.55 | X-H torsion
[ 11005 11000 10999 10996 ] final  178.38 input  -57.11 | X-H torsion

> <Gold.Protein.ActiveResidues>
 VAL166  LYS551  ARG553  GLY616  TRP617  ASP618  TYR619  PRO620  LYS621  CYS622 
 ASP623  PHE694  ASN695  SER759  ASP760  ASP761  ALA762  ILE779  LEU786  VAL792 
 PHE793  MET794  SER795  GLU796  ALA797  LYS798  CYS799  TRP800  GLU811  SER814 

> <Gold.Protein.RotatedAtoms>
  151.3842  135.0945  159.9505 H   0  0  0  0  0  0  0  0  0  0  0  0  # atno 6907 bound_to 6896
  152.5099  133.9042  159.7466 H   0  0  0  0  0  0  0  0  0  0  0  0  # atno 6908 bound_to 6896
  150.9482  133.6524  159.2806 H   0  0  0  0  0  0  0  0  0  0  0  0  # atno 6909 bound_to 6896
  146.0917  139.5551  142.9471 H   0  0  0  0  0  0  0  0  0  0  0  0  # atno 7974 bound_to 7965
  155.4304  140.0524  157.3019 H   0  0  0  0  0  0  0  0  0  0  0  0  # atno 8008 bound_to 7997
  154.4862  140.2102  155.9608 H   0  0  0  0  0  0  0  0  0  0  0  0  # atno 8009 bound_to 7997
  156.1278  140.3177  155.8309 H   0  0  0  0  0  0  0  0  0  0  0  0  # atno 8010 bound_to 7997
  140.7103  143.3303  151.2585 H   0  0  0  0  0  0  0  0  0  0  0  0  # atno 10167 bound_to 10162
  157.6900  131.0139  150.2693 H   0  0  0  0  0  0  0  0  0  0  0  0  # atno 10718 bound_to 10713
  154.2101  135.2786  155.2961 H   0  0  0  0  0  0  0  0  0  0  0  0  # atno 10763 bound_to 10752
  154.5785  135.5597  153.7166 H   0  0  0  0  0  0  0  0  0  0  0  0  # atno 10764 bound_to 10752
  153.0066  135.6339  154.2240 H   0  0  0  0  0  0  0  0  0  0  0  0  # atno 10765 bound_to 10752
  140.3945  134.6833  157.4526 H   0  0  0  0  0  0  0  0  0  0  0  0  # atno 11005 bound_to 11000
  145.6026  141.0353  143.2010 LP  0  0  0  0  0  0  0  0  0  0  0  0  # atno 17320 bound_to 7965
  144.7365  139.7570  143.7327 LP  0  0  0  0  0  0  0  0  0  0  0  0  # atno 17321 bound_to 7965
  139.6783  143.9899  152.2794 LP  0  0  0  0  0  0  0  0  0  0  0  0  # atno 17342 bound_to 10162
  139.9521  144.6614  150.8162 LP  0  0  0  0  0  0  0  0  0  0  0  0  # atno 17343 bound_to 10162
  156.3259  130.3793  149.7534 LP  0  0  0  0  0  0  0  0  0  0  0  0  # atno 17370 bound_to 10713
  156.5089  130.8163  151.3161 LP  0  0  0  0  0  0  0  0  0  0  0  0  # atno 17371 bound_to 10713
  140.0382  134.6306  155.9015 LP  0  0  0  0  0  0  0  0  0  0  0  0  # atno 17394 bound_to 11000
  141.1879  133.6561  156.5301 LP  0  0  0  0  0  0  0  0  0  0  0  0  # atno 17395 bound_to 11000

$$$$
