AV-unprocessed.smi:670|AV-procd|sdf|3267|dock10
  -GOLD-   22720 0223D 1   1.00000     0.00000
 Structure written by MMmdl.
 44 45  0  0  0  0  0  0  0  0  2 V2000
  153.9496  141.5907  160.4678 C   0  0  0  0  0  0  0  0  0  0  0  0
  153.2149  142.7476  159.7736 C   0  0  2  0  0  0  0  0  0  0  0  0
  152.5726  143.7066  160.7959 C   0  0  0  0  0  0  0  0  0  0  0  0
  151.8818  144.8914  160.1024 C   0  0  0  0  0  0  0  0  0  0  0  0
  150.8457  144.4110  159.0752 C   0  0  0  0  0  0  0  0  0  0  0  0
  151.4752  143.4491  158.0533 C   0  0  0  0  0  0  0  0  0  0  0  0
  152.1745  142.2598  158.7376 C   0  0  2  0  0  0  0  0  0  0  0  0
  151.1731  141.4810  159.3824 O   0  0  0  0  0  0  0  0  0  0  0  0
  150.2294  140.8904  158.5017 C   0  0  0  0  0  0  0  0  0  0  0  0
  150.6414  139.4361  158.2329 C   0  0  0  0  0  0  0  0  0  0  0  0
  149.4994  138.5320  158.3011 N   0  0  0  0  0  0  0  0  0  0  0  0
  149.4306  137.4231  159.0529 C   0  0  0  0  0  0  0  0  0  0  0  0
  150.3457  137.0390  159.7818 O   0  0  0  0  0  0  0  0  0  0  0  0
  148.1168  136.6371  158.9832 C   0  0  0  0  0  0  0  0  0  0  0  0
  147.7019  136.1378  160.3005 N   0  0  0  0  0  0  0  0  0  0  0  0
  147.5616  137.1870  161.3072 N   0  5  0  0  0  0  0  0  0  0  0  0
  147.1560  136.8529  162.5610 C   0  0  0  0  0  0  0  0  0  0  0  0
  147.0028  137.6820  163.4549 O   0  0  0  0  0  0  0  0  0  0  0  0
  146.8974  135.4513  162.8454 C   0  0  0  0  0  0  0  0  0  0  0  0
  147.0498  134.5021  161.9011 C   0  0  0  0  0  0  0  0  0  0  0  0
  147.4763  134.8147  160.5423 C   0  0  0  0  0  0  0  0  0  0  0  0
  147.6202  133.9509  159.6774 O   0  0  0  0  0  0  0  0  0  0  0  0
  153.2710  141.0008  161.0839 H   0  0  0  0  0  0  0  0  0  0  0  0
  154.7414  141.9645  161.1174 H   0  0  0  0  0  0  0  0  0  0  0  0
  154.4089  140.9215  159.7399 H   0  0  0  0  0  0  0  0  0  0  0  0
  153.9703  143.3144  159.2272 H   0  0  0  0  0  0  0  0  0  0  0  0
  151.8468  143.1661  161.4052 H   0  0  0  0  0  0  0  0  0  0  0  0
  153.3317  144.0808  161.4837 H   0  0  0  0  0  0  0  0  0  0  0  0
  151.3997  145.5264  160.8462 H   0  0  0  0  0  0  0  0  0  0  0  0
  152.6295  145.5105  159.6055 H   0  0  0  0  0  0  0  0  0  0  0  0
  150.0252  143.9112  159.5917 H   0  0  0  0  0  0  0  0  0  0  0  0
  150.4088  145.2665  158.5600 H   0  0  0  0  0  0  0  0  0  0  0  0
  150.7115  143.0860  157.3648 H   0  0  0  0  0  0  0  0  0  0  0  0
  152.1999  143.9935  157.4464 H   0  0  0  0  0  0  0  0  0  0  0  0
  152.6813  141.6783  157.9644 H   0  0  0  0  0  0  0  0  0  0  0  0
  149.2402  140.9179  158.9604 H   0  0  0  0  0  0  0  0  0  0  0  0
  150.1675  141.4472  157.5660 H   0  0  0  0  0  0  0  0  0  0  0  0
  151.0897  139.3528  157.2426 H   0  0  0  0  0  0  0  0  0  0  0  0
  151.4044  139.1229  158.9471 H   0  0  0  0  0  0  0  0  0  0  0  0
  148.6987  138.7605  157.7292 H   0  0  0  0  0  0  0  0  0  0  0  0
  147.3392  137.2740  158.5581 H   0  0  0  0  0  0  0  0  0  0  0  0
  148.2305  135.8123  158.2768 H   0  0  0  0  0  0  0  0  0  0  0  0
  146.5776  135.1648  163.8366 H   0  0  0  0  0  0  0  0  0  0  0  0
  146.8471  133.4729  162.1576 H   0  0  0  0  0  0  0  0  0  0  0  0
  1  2  1  0  0  0  0
  1 23  1  0  0  0  0
  1 24  1  0  0  0  0
  1 25  1  0  0  0  0
  2  7  1  0  0  0  0
  2  3  1  0  0  0  0
  2 26  1  0  0  0  0
  3  4  1  0  0  0  0
  3 27  1  0  0  0  0
  3 28  1  0  0  0  0
  4  5  1  0  0  0  0
  4 29  1  0  0  0  0
  4 30  1  0  0  0  0
  5  6  1  0  0  0  0
  5 31  1  0  0  0  0
  5 32  1  0  0  0  0
  6  7  1  0  0  0  0
  6 33  1  0  0  0  0
  6 34  1  0  0  0  0
  7  8  1  0  0  0  0
  7 35  1  0  0  0  0
  8  9  1  0  0  0  0
  9 10  1  0  0  0  0
  9 36  1  0  0  0  0
  9 37  1  0  0  0  0
 10 11  1  0  0  0  0
 10 38  1  0  0  0  0
 10 39  1  0  0  0  0
 11 12  1  0  0  0  0
 11 40  1  0  0  0  0
 12 13  2  0  0  0  0
 12 14  1  0  0  0  0
 14 41  1  0  0  0  0
 14 42  1  0  0  0  0
 14 15  1  0  0  0  0
 15 16  1  0  0  0  0
 15 21  1  0  0  0  0
 16 17  1  0  0  0  0
 17 18  2  0  0  0  0
 17 19  1  0  0  0  0
 19 43  1  0  0  0  0
 19 20  2  0  0  0  0
 20 44  1  0  0  0  0
 20 21  1  0  0  0  0
 21 22  2  0  0  0  0
M  CHG  1  16  -1
M  END
> <s_m_source_file>
AV-unprocessed.smi

> <i_m_source_file_index>
670

> <i_lp_mmshare_version>
43012

> <i_f3d_flags>
0

> <s_epik_input>
W0NIM11bQ0BASF0xW0NIMl1bQ0gyXVtDSDJdW0NIMl1bQ0BIXTFPW0NIMl1bQ0gyXVtOSF1DKD1PKVtDSDJdbjJbbkhdYyg9TylbY0hdW2NIXWMyPU8=

> <s_epik_cmdline>
J2VwaWtfcHl0aG9uJywgJy1waCcsICc3LjAnLCAnLXRuJywgJzgnLCAnLW1hJywgJzIwMCcsICctbWV0YWxfYmluZGluZycsICctaW1hZScsICc8aW5maWxlLm1hZT4nLCAnLW9tYWUnLCAnPG91dGZpbGUubWFlPic=

> <r_lp_tautomer_probability>
1

> <r_epik_Ionization_Penalty>
0.0975638

> <r_epik_Ionization_Penalty_Charging>
0.0975637

> <r_epik_Ionization_Penalty_Neutral>
2.78599e-08

> <r_epik_State_Penalty>
0.0343507

> <r_epik_Charging_Adjusted_Penalty>
0.131914

> <i_epik_Tot_Q>
-1

> <i_epik_Tot_abs_Q>
1

> <r_epik_Metal_State_Penalty>
0.0343507

> <b_epik_Metal_Only>
0

> <s_lp_Force_Field>
OPLS_2005

> <r_lp_Energy>
29.4365

> <b_lp_Chiralities_Consistent>
1

> <s_lp_Variant>
AV-unprocessed.smi:670-3

> <Gold.Version>
5.8.1

> <Gold.Id.Protein>
6NUR|6NUR_protein|mol2

> <Gold.PLP.Fitness>
57.7863

> <Gold.PLP.PLP>
-46.7127

> <Gold.PLP.part.hbond>
-4.8441

> <Gold.PLP.part.metal>
0.0000

> <Gold.PLP.part.buried>
-5.9379

> <Gold.PLP.part.nonpolar>
-39.2195

> <Gold.PLP.part.repulsive>
0.1461

> <Gold.PLP.ligand.clash>
0.0000

> <Gold.PLP.ligand.torsion>
0.9037

> <Gold.PLP.Chemscore.Hbond>
4.2800

> <Gold.PLP.Chemscore.CHOScore>
0.0000

> <Gold.PLP.Chemscore.Metal>
0.0000

> <Gold.Chemscore.Hbonds>
donor molecule, donor type, donor heavy atom, donor atom, acceptor molecule, acceptor atom, score
      P1  H  6896  6908       L1    13  0.70
      P1  H  6931  6943       L1    16  1.30
      P1  H  6934  6947       L1    16  1.79

> <Gold.PLP.Chemscore.Internal.Correction>
0.0411

> <Gold.Rescore>
     Score         DG    S(hbond)    S(metal)    S(lipo)     H(rot)  DE(clash)    DE(int)     intcor
     16.76     -17.72       1.74        0.00     108.54       2.45       0.12       0.84       ----

> <Gold.Chemscore.Fitness>
16.7567

> <Gold.Chemscore.DG>
-17.7217

> <Gold.Chemscore.ZeroCoef>
-5.4800

> <Gold.Chemscore.Hbond>
1.7402

> <Gold.Chemscore.Metal>
0.0000

> <Gold.Chemscore.Lipo>
108.5363

> <Gold.Chemscore.Internal_Hbond>
0.0000

> <Gold.Chemscore.DEClash>
0.1218

> <Gold.Chemscore.DEInternal>
0.8432

> <Gold.Chemscore.Rot>
2.4490

> <Gold.Chemscore.Internal.Correction>
   9.000000E+99

> <Gold.Chemscore.Hbonds>
donor molecule, donor type, donor heavy atom, donor atom, acceptor molecule, acceptor atom, score
      P1  H  6896  6908       L1    13  0.69
      P1  H  6931  6943       L1    16  0.07
      P1  H  6934  6947       L1    16  0.69

> <Gold.Chemscore.Hbond.Weighted>
-5.8123

> <Gold.Chemscore.Metal.Weighted>
-0.0000

> <Gold.Chemscore.Lipo.Weighted>
-12.6987

> <Gold.Chemscore.Internal_Hbond.Weighted>
0.0000

> <Gold.Chemscore.DEClash.Weighted>
0.1218

> <Gold.Chemscore.DEInternal.Weighted>
0.8432

> <Gold.Chemscore.Rot.Weighted>
6.2694

> <Gold.Chemscore.Internal.Correction.Weighted>
   9.000000E+99

> <Gold.Protein.RotatedTorsions>
[ 6907 6896 6895 6894 ] final -160.97 input  -60.11 | X-H torsion
[ 7974 7965 7964 7962 ] final -169.31 input  175.53 | X-H torsion
[ 8008 7997 7996 7995 ] final  -58.34 input   59.86 | X-H torsion
[ 10167 10162 10161 10158 ] final -173.13 input  -65.29 | X-H torsion
[ 10718 10713 10712 10709 ] final  -60.31 input   66.30 | X-H torsion
[ 10763 10752 10751 10750 ] final   73.25 input  -60.55 | X-H torsion
[ 11005 11000 10999 10996 ] final  121.02 input  -57.11 | X-H torsion

> <Gold.Protein.ActiveResidues>
 VAL166  LYS551  ARG553  GLY616  TRP617  ASP618  TYR619  PRO620  LYS621  CYS622 
 ASP623  PHE694  ASN695  SER759  ASP760  ASP761  ALA762  ILE779  LEU786  VAL792 
 PHE793  MET794  SER795  GLU796  ALA797  LYS798  CYS799  TRP800  GLU811  SER814 

> <Gold.Protein.RotatedAtoms>
  151.3574  133.3902  159.2685 H   0  0  0  0  0  0  0  0  0  0  0  0  # atno 6907 bound_to 6896
  150.9753  134.9119  159.7823 H   0  0  0  0  0  0  0  0  0  0  0  0  # atno 6908 bound_to 6896
  152.5199  134.3536  159.9312 H   0  0  0  0  0  0  0  0  0  0  0  0  # atno 6909 bound_to 6896
  144.7187  140.2240  143.6312 H   0  0  0  0  0  0  0  0  0  0  0  0  # atno 7974 bound_to 7965
  154.4305  140.1086  156.5941 H   0  0  0  0  0  0  0  0  0  0  0  0  # atno 8008 bound_to 7997
  155.5980  140.3493  155.4567 H   0  0  0  0  0  0  0  0  0  0  0  0  # atno 8009 bound_to 7997
  156.0195  140.1236  157.0361 H   0  0  0  0  0  0  0  0  0  0  0  0  # atno 8010 bound_to 7997
  139.5705  144.1652  152.1377 H   0  0  0  0  0  0  0  0  0  0  0  0  # atno 10167 bound_to 10162
  156.0999  130.4187  150.0836 H   0  0  0  0  0  0  0  0  0  0  0  0  # atno 10718 bound_to 10713
  153.0509  135.5070  154.7865 H   0  0  0  0  0  0  0  0  0  0  0  0  # atno 10763 bound_to 10752
  154.6728  135.2955  154.9721 H   0  0  0  0  0  0  0  0  0  0  0  0  # atno 10764 bound_to 10752
  154.0534  135.6701  153.4855 H   0  0  0  0  0  0  0  0  0  0  0  0  # atno 10765 bound_to 10752
  139.9209  134.9637  156.7895 H   0  0  0  0  0  0  0  0  0  0  0  0  # atno 11005 bound_to 11000
  145.8474  139.2158  143.1792 LP  0  0  0  0  0  0  0  0  0  0  0  0  # atno 17320 bound_to 7965
  146.0292  140.8274  142.9884 LP  0  0  0  0  0  0  0  0  0  0  0  0  # atno 17321 bound_to 7965
  140.1184  144.5395  150.6878 LP  0  0  0  0  0  0  0  0  0  0  0  0  # atno 17342 bound_to 10162
  140.6989  143.2422  151.4920 LP  0  0  0  0  0  0  0  0  0  0  0  0  # atno 17343 bound_to 10162
  156.8826  130.9562  151.3597 LP  0  0  0  0  0  0  0  0  0  0  0  0  # atno 17370 bound_to 10713
  157.6168  130.8624  149.9041 LP  0  0  0  0  0  0  0  0  0  0  0  0  # atno 17371 bound_to 10713
  140.6478  133.9759  155.7740 LP  0  0  0  0  0  0  0  0  0  0  0  0  # atno 17394 bound_to 11000
  141.0728  134.0180  157.3501 LP  0  0  0  0  0  0  0  0  0  0  0  0  # atno 17395 bound_to 11000

$$$$
