AV-unprocessed.smi:809|AV-procd|sdf|3807|dock3
  -GOLD-   22720 1243D 1   1.00000     0.00000
 Structure written by MMmdl.
 39 40  0  0  0  0  0  0  0  0  3 V2000
  153.1450  142.2794  160.2379 C   0  0  0  0  0  0  0  0  0  0  0  0
  152.5832  141.4943  159.0944 C   0  0  0  0  0  0  0  0  0  0  0  0
  153.1700  140.4280  158.4646 C   0  0  0  0  0  0  0  0  0  0  0  0
  152.1689  139.8075  157.1834 S   0  0  0  0  0  0  0  0  0  0  0  0
  150.9620  141.0445  157.5423 C   0  0  0  0  0  0  0  0  0  0  0  0
  149.7944  141.1931  156.8959 N   0  5  0  0  0  0  0  0  0  0  0  0
  149.6975  140.8561  155.5900 C   0  0  0  0  0  0  0  0  0  0  0  0
  150.6329  140.6061  154.8269 O   0  0  0  0  0  0  0  0  0  0  0  0
  148.4357  140.8153  155.1409 N   0  0  0  0  0  0  0  0  0  0  0  0
  148.0178  140.5373  153.7691 C   0  0  0  0  0  0  0  0  0  0  0  0
  147.1100  139.2846  153.6327 C   0  0  1  0  0  0  0  0  0  0  0  0
  145.8800  139.5894  154.2660 O   0  0  0  0  0  0  0  0  0  0  0  0
  146.7956  139.0245  152.1419 C   0  0  0  0  0  0  0  0  0  0  0  0
  145.9794  137.7387  151.9172 C   0  0  0  0  0  0  0  0  0  0  0  0
  146.6562  136.5661  152.5213 N   0  3  2  0  0  0  0  0  0  0  0  0
  145.9666  135.2956  152.2097 C   0  0  0  0  0  0  0  0  0  0  0  0
  146.8764  136.7469  153.9761 C   0  0  0  0  0  0  0  0  0  0  0  0
  147.7164  138.0048  154.2592 C   0  0  0  0  0  0  0  0  0  0  0  0
  151.3339  141.8250  158.5633 N   0  0  0  0  0  0  0  0  0  0  0  0
  153.2862  141.6472  161.1145 H   0  0  0  0  0  0  0  0  0  0  0  0
  152.4871  143.0999  160.5266 H   0  0  0  0  0  0  0  0  0  0  0  0
  154.1130  142.7090  159.9799 H   0  0  0  0  0  0  0  0  0  0  0  0
  154.1247  139.9705  158.6753 H   0  0  0  0  0  0  0  0  0  0  0  0
  147.7054  141.0185  155.8073 H   0  0  0  0  0  0  0  0  0  0  0  0
  147.5598  141.4163  153.3115 H   0  0  0  0  0  0  0  0  0  0  0  0
  148.9439  140.3715  153.2182 H   0  0  0  0  0  0  0  0  0  0  0  0
  145.3211  140.0415  153.6538 H   0  0  0  0  0  0  0  0  0  0  0  0
  146.2682  139.8771  151.7113 H   0  0  0  0  0  0  0  0  0  0  0  0
  147.7301  138.9382  151.5857 H   0  0  0  0  0  0  0  0  0  0  0  0
  144.9783  137.8430  152.3385 H   0  0  0  0  0  0  0  0  0  0  0  0
  145.8536  137.5742  150.8463 H   0  0  0  0  0  0  0  0  0  0  0  0
  144.9611  135.2823  152.6323 H   0  0  0  0  0  0  0  0  0  0  0  0
  146.5195  134.4476  152.6145 H   0  0  0  0  0  0  0  0  0  0  0  0
  145.8868  135.1553  151.1312 H   0  0  0  0  0  0  0  0  0  0  0  0
  145.9149  136.8090  154.4880 H   0  0  0  0  0  0  0  0  0  0  0  0
  147.3904  135.8729  154.3782 H   0  0  0  0  0  0  0  0  0  0  0  0
  148.7224  137.8539  153.8653 H   0  0  0  0  0  0  0  0  0  0  0  0
  147.8261  138.1180  155.3386 H   0  0  0  0  0  0  0  0  0  0  0  0
  147.5710  136.5078  152.0968 H   0  0  0  0  0  0  0  0  0  0  0  0
  1  2  1  0  0  0  0
  1 20  1  0  0  0  0
  1 21  1  0  0  0  0
  1 22  1  0  0  0  0
  2 19  1  0  0  0  0
  2  3  2  0  0  0  0
  3  4  1  0  0  0  0
  3 23  1  0  0  0  0
  4  5  1  0  0  0  0
  5  6  1  0  0  0  0
  5 19  2  0  0  0  0
  6  7  1  0  0  0  0
  7  8  2  0  0  0  0
  7  9  1  0  0  0  0
  9 10  1  0  0  0  0
  9 24  1  0  0  0  0
 10 11  1  0  0  0  0
 10 25  1  0  0  0  0
 10 26  1  0  0  0  0
 11 18  1  0  0  0  0
 11 12  1  0  0  0  0
 11 13  1  0  0  0  0
 12 27  1  0  0  0  0
 13 14  1  0  0  0  0
 13 28  1  0  0  0  0
 13 29  1  0  0  0  0
 14 15  1  0  0  0  0
 14 30  1  0  0  0  0
 14 31  1  0  0  0  0
 15 16  1  0  0  0  0
 15 17  1  0  0  0  0
 15 39  1  0  0  0  0
 16 32  1  0  0  0  0
 16 33  1  0  0  0  0
 16 34  1  0  0  0  0
 17 18  1  0  0  0  0
 17 35  1  0  0  0  0
 17 36  1  0  0  0  0
 18 37  1  0  0  0  0
 18 38  1  0  0  0  0
M  CHG  1   6  -1
M  CHG  1  15   1
M  END
> <s_m_source_file>
AV-unprocessed.smi

> <i_m_source_file_index>
809

> <i_lp_mmshare_version>
43012

> <i_f3d_flags>
0

> <s_epik_input>
W0NIM11jMVtjSF1zYyhuMSlbTkhdQyg9TylbTkhdW0NIMl1DMihbT0hdKVtDSDJdW0NIMl1OKFtDSDNdKVtDSDJdW0NIMl0y

> <s_epik_cmdline>
J2VwaWtfcHl0aG9uJywgJy1waCcsICc3LjAnLCAnLXRuJywgJzgnLCAnLW1hJywgJzIwMCcsICctbWV0YWxfYmluZGluZycsICctaW1hZScsICc8aW5maWxlLm1hZT4nLCAnLW9tYWUnLCAnPG91dGZpbGUubWFlPic=

> <r_lp_tautomer_probability>
0.999

> <r_epik_Ionization_Penalty>
8.50704

> <r_epik_Ionization_Penalty_Charging>
6.65046

> <r_epik_Ionization_Penalty_Neutral>
1.85657

> <r_epik_State_Penalty>
6.64992

> <r_epik_Charging_Adjusted_Penalty>
13.3004

> <i_epik_Tot_Q>
0

> <i_epik_Tot_abs_Q>
2

> <r_epik_Metal_State_Penalty>
2.57297

> <b_epik_Metal_Only>
1

> <s_lp_Force_Field>
OPLS_2005

> <r_lp_Energy>
10.5193

> <b_lp_Chiralities_Consistent>
1

> <s_lp_Variant>
AV-unprocessed.smi:809-3

> <Gold.Version>
5.8.1

> <Gold.Id.Protein>
6NUR|6NUR_protein|mol2

> <Gold.PLP.Fitness>
40.3001

> <Gold.PLP.PLP>
-28.8626

> <Gold.PLP.part.hbond>
-3.0000

> <Gold.PLP.part.metal>
0.0000

> <Gold.PLP.part.buried>
-2.0633

> <Gold.PLP.part.nonpolar>
-24.6285

> <Gold.PLP.part.repulsive>
0.2621

> <Gold.PLP.ligand.clash>
0.0000

> <Gold.PLP.ligand.torsion>
0.2520

> <Gold.PLP.Chemscore.Hbond>
3.9760

> <Gold.PLP.Chemscore.CHOScore>
0.0000

> <Gold.PLP.Chemscore.Metal>
0.0000

> <Gold.Chemscore.Hbonds>
donor molecule, donor type, donor heavy atom, donor atom, acceptor molecule, acceptor atom, score
      L1  H    12    27       P1 10175  0.91
      L1  H    15    39       P1  7948  1.43
      P1  H  7989  7998       L1     8  0.98

> <Gold.PLP.Chemscore.Internal.Correction>
0.0134

> <Gold.Rescore>
     Score         DG    S(hbond)    S(metal)    S(lipo)     H(rot)  DE(clash)    DE(int)     intcor
     18.15     -18.63       2.96        0.00      67.73       1.82       0.05       0.44       ----

> <Gold.Chemscore.Fitness>
18.1478

> <Gold.Chemscore.DG>
-18.6292

> <Gold.Chemscore.ZeroCoef>
-5.4800

> <Gold.Chemscore.Hbond>
2.9582

> <Gold.Chemscore.Metal>
0.0000

> <Gold.Chemscore.Lipo>
67.7309

> <Gold.Chemscore.Internal_Hbond>
0.0000

> <Gold.Chemscore.DEClash>
0.0462

> <Gold.Chemscore.DEInternal>
0.4353

> <Gold.Chemscore.Rot>
1.8186

> <Gold.Chemscore.Internal.Correction>
   9.000000E+99

> <Gold.Chemscore.Hbonds>
donor molecule, donor type, donor heavy atom, donor atom, acceptor molecule, acceptor atom, score
      L1  H    12    27       P1 10175  0.88
      L1  H    15    39       P1  7948  0.71
      P1  H  7989  7998       L1     8  0.92

> <Gold.Chemscore.Hbond.Weighted>
-9.8804

> <Gold.Chemscore.Metal.Weighted>
-0.0000

> <Gold.Chemscore.Lipo.Weighted>
-7.9245

> <Gold.Chemscore.Internal_Hbond.Weighted>
0.0000

> <Gold.Chemscore.DEClash.Weighted>
0.0462

> <Gold.Chemscore.DEInternal.Weighted>
0.4353

> <Gold.Chemscore.Rot.Weighted>
4.6557

> <Gold.Chemscore.Internal.Correction.Weighted>
   9.000000E+99

> <Gold.Protein.RotatedTorsions>
[ 6907 6896 6895 6894 ] final -160.76 input  -60.11 | X-H torsion
[ 7974 7965 7964 7962 ] final  -51.38 input  175.53 | X-H torsion
[ 8008 7997 7996 7995 ] final -175.84 input   59.86 | X-H torsion
[ 10167 10162 10161 10158 ] final   -5.87 input  -65.29 | X-H torsion
[ 10718 10713 10712 10709 ] final -173.15 input   66.30 | X-H torsion
[ 10763 10752 10751 10750 ] final -155.61 input  -60.55 | X-H torsion
[ 11005 11000 10999 10996 ] final    5.82 input  -57.11 | X-H torsion

> <Gold.Protein.ActiveResidues>
 VAL166  LYS551  ARG553  GLY616  TRP617  ASP618  TYR619  PRO620  LYS621  CYS622 
 ASP623  PHE694  ASN695  SER759  ASP760  ASP761  ALA762  ILE779  LEU786  VAL792 
 PHE793  MET794  SER795  GLU796  ALA797  LYS798  CYS799  TRP800  GLU811  SER814 

> <Gold.Protein.RotatedAtoms>
  151.3541  133.3914  159.2682 H   0  0  0  0  0  0  0  0  0  0  0  0  # atno 6907 bound_to 6896
  150.9778  134.9139  159.7836 H   0  0  0  0  0  0  0  0  0  0  0  0  # atno 6908 bound_to 6896
  152.5206  134.3504  159.9301 H   0  0  0  0  0  0  0  0  0  0  0  0  # atno 6909 bound_to 6896
  145.9196  140.7845  142.9654 H   0  0  0  0  0  0  0  0  0  0  0  0  # atno 7974 bound_to 7965
  155.9875  140.1194  157.0669 H   0  0  0  0  0  0  0  0  0  0  0  0  # atno 8008 bound_to 7997
  154.4201  140.1132  156.5588 H   0  0  0  0  0  0  0  0  0  0  0  0  # atno 8009 bound_to 7997
  155.6387  140.3473  155.4710 H   0  0  0  0  0  0  0  0  0  0  0  0  # atno 8010 bound_to 7997
  140.6978  143.6258  150.8569 H   0  0  0  0  0  0  0  0  0  0  0  0  # atno 10167 bound_to 10162
  156.7661  130.9431  151.3119 H   0  0  0  0  0  0  0  0  0  0  0  0  # atno 10718 bound_to 10713
  154.7774  135.3164  154.8062 H   0  0  0  0  0  0  0  0  0  0  0  0  # atno 10763 bound_to 10752
  153.8782  135.6837  153.4773 H   0  0  0  0  0  0  0  0  0  0  0  0  # atno 10764 bound_to 10752
  153.1401  135.4742  154.9420 H   0  0  0  0  0  0  0  0  0  0  0  0  # atno 10765 bound_to 10752
  140.5664  134.0144  155.7991 H   0  0  0  0  0  0  0  0  0  0  0  0  # atno 11005 bound_to 11000
  144.6751  140.1954  143.7392 LP  0  0  0  0  0  0  0  0  0  0  0  0  # atno 17320 bound_to 7965
  145.8567  139.2202  143.1740 LP  0  0  0  0  0  0  0  0  0  0  0  0  # atno 17321 bound_to 7965
  139.9978  143.5777  152.2887 LP  0  0  0  0  0  0  0  0  0  0  0  0  # atno 17342 bound_to 10162
  139.6455  144.7658  151.2252 LP  0  0  0  0  0  0  0  0  0  0  0  0  # atno 17343 bound_to 10162
  157.6712  130.9053  150.0045 LP  0  0  0  0  0  0  0  0  0  0  0  0  # atno 17370 bound_to 10713
  156.1308  130.3643  149.9736 LP  0  0  0  0  0  0  0  0  0  0  0  0  # atno 17371 bound_to 10713
  141.1083  133.9657  157.2956 LP  0  0  0  0  0  0  0  0  0  0  0  0  # atno 17394 bound_to 11000
  139.9383  135.0194  156.8627 LP  0  0  0  0  0  0  0  0  0  0  0  0  # atno 17395 bound_to 11000

$$$$
