AV-unprocessed.smi:1362|AV-procd|sdf|5559|dock3
  -GOLD-   22720 5153D 1   1.00000     0.00000
 Structure written by MMmdl.
 39 39  0  0  0  0  0  0  0  0  1 V2000
  151.7534  144.5509  159.7859 C   0  0  0  0  0  0  0  0  0  0  0  0
  152.1409  143.0907  159.6835 C   0  0  0  0  0  0  0  0  0  0  0  0
  152.8677  142.4750  160.5569 N   0  0  0  0  0  0  0  0  0  0  0  0
  153.1641  141.1203  160.3522 C   0  0  0  0  0  0  0  0  0  0  0  0
  154.0290  140.4701  161.4187 C   0  0  0  0  0  0  0  0  0  0  0  0
  152.7020  140.4433  159.2603 C   0  0  0  0  0  0  0  0  0  0  0  0
  153.0129  138.9687  159.0088 C   0  0  0  0  0  0  0  0  0  0  0  0
  151.7982  138.0393  158.9597 C   0  0  0  0  0  0  0  0  0  0  0  0
  151.6931  137.1154  159.7667 O   0  0  0  0  0  0  0  0  0  0  0  0
  150.8824  138.3048  158.0153 N   0  0  0  0  0  0  0  0  0  0  0  0
  149.6349  137.5706  157.8079 C   0  0  1  0  0  0  0  0  0  0  0  0
  148.8847  137.4837  159.1508 C   0  0  0  0  0  0  0  0  0  0  0  0
  148.8018  138.2377  156.6813 C   0  0  0  0  0  0  0  0  0  0  0  0
  149.5635  138.2981  155.3446 C   0  0  0  0  0  0  0  0  0  0  0  0
  148.3280  139.6532  157.0661 C   0  0  0  0  0  0  0  0  0  0  0  0
  151.8715  141.1561  158.2699 C   0  0  0  0  0  0  0  0  0  0  0  0
  151.4074  140.6462  157.2513 O   0  0  0  0  0  0  0  0  0  0  0  0
  151.6387  142.4585  158.5473 N   0  0  0  0  0  0  0  0  0  0  0  0
  151.0770  142.9900  157.8985 H   0  0  0  0  0  0  0  0  0  0  0  0
  152.6470  145.1751  159.8126 H   0  0  0  0  0  0  0  0  0  0  0  0
  151.1863  144.7252  160.7006 H   0  0  0  0  0  0  0  0  0  0  0  0
  151.1421  144.8663  158.9390 H   0  0  0  0  0  0  0  0  0  0  0  0
  153.4921  139.6553  161.9048 H   0  0  0  0  0  0  0  0  0  0  0  0
  154.3142  141.1877  162.1889 H   0  0  0  0  0  0  0  0  0  0  0  0
  154.9446  140.0718  160.9816 H   0  0  0  0  0  0  0  0  0  0  0  0
  153.5615  138.8897  158.0695 H   0  0  0  0  0  0  0  0  0  0  0  0
  153.7011  138.5855  159.7627 H   0  0  0  0  0  0  0  0  0  0  0  0
  151.0561  139.0842  157.3972 H   0  0  0  0  0  0  0  0  0  0  0  0
  149.8746  136.5551  157.4870 H   0  0  0  0  0  0  0  0  0  0  0  0
  148.0105  136.8368  159.0849 H   0  0  0  0  0  0  0  0  0  0  0  0
  148.5515  138.4673  159.4837 H   0  0  0  0  0  0  0  0  0  0  0  0
  149.5222  137.0693  159.9327 H   0  0  0  0  0  0  0  0  0  0  0  0
  147.9086  137.6329  156.5182 H   0  0  0  0  0  0  0  0  0  0  0  0
  150.5084  138.8322  155.4504 H   0  0  0  0  0  0  0  0  0  0  0  0
  148.9774  138.8115  154.5819 H   0  0  0  0  0  0  0  0  0  0  0  0
  149.7810  137.3038  154.9557 H   0  0  0  0  0  0  0  0  0  0  0  0
  149.1732  140.3064  157.2852 H   0  0  0  0  0  0  0  0  0  0  0  0
  147.6796  139.6430  157.9423 H   0  0  0  0  0  0  0  0  0  0  0  0
  147.7581  140.1101  156.2566 H   0  0  0  0  0  0  0  0  0  0  0  0
  1  2  1  0  0  0  0
  1 20  1  0  0  0  0
  1 21  1  0  0  0  0
  1 22  1  0  0  0  0
  2 18  1  0  0  0  0
  2  3  2  0  0  0  0
  3  4  1  0  0  0  0
  4  5  1  0  0  0  0
  4  6  2  0  0  0  0
  5 23  1  0  0  0  0
  5 24  1  0  0  0  0
  5 25  1  0  0  0  0
  6  7  1  0  0  0  0
  6 16  1  0  0  0  0
  7  8  1  0  0  0  0
  7 26  1  0  0  0  0
  7 27  1  0  0  0  0
  8  9  2  0  0  0  0
  8 10  1  0  0  0  0
 10 11  1  0  0  0  0
 10 28  1  0  0  0  0
 11 12  1  0  0  0  0
 11 13  1  0  0  0  0
 11 29  1  0  0  0  0
 12 30  1  0  0  0  0
 12 31  1  0  0  0  0
 12 32  1  0  0  0  0
 13 14  1  0  0  0  0
 13 15  1  0  0  0  0
 13 33  1  0  0  0  0
 14 34  1  0  0  0  0
 14 35  1  0  0  0  0
 14 36  1  0  0  0  0
 15 37  1  0  0  0  0
 15 38  1  0  0  0  0
 15 39  1  0  0  0  0
 16 17  2  0  0  0  0
 16 18  1  0  0  0  0
 18 19  1  0  0  0  0
M  END
> <s_m_source_file>
AV-unprocessed.smi

> <i_m_source_file_index>
1362

> <i_lp_mmshare_version>
43012

> <i_f3d_flags>
0

> <s_epik_input>
W0NIM11jMW5jKFtDSDNdKWMoYyg9TylbbkhdMSlbQ0gyXUMoPU8pW05IXVtDQEhdKFtDSDNdKVtDSF0oW0NIM10pW0NIM10=

> <s_epik_cmdline>
J2VwaWtfcHl0aG9uJywgJy1waCcsICc3LjAnLCAnLXRuJywgJzgnLCAnLW1hJywgJzIwMCcsICctbWV0YWxfYmluZGluZycsICctaW1hZScsICc8aW5maWxlLm1hZT4nLCAnLW9tYWUnLCAnPG91dGZpbGUubWFlPic=

> <r_lp_tautomer_probability>
0.839158

> <r_epik_Ionization_Penalty>
0.000388977

> <r_epik_Ionization_Penalty_Charging>
0.000356458

> <r_epik_Ionization_Penalty_Neutral>
3.25191e-05

> <r_epik_State_Penalty>
0.0469868

> <r_epik_Charging_Adjusted_Penalty>
0.0473433

> <i_epik_Tot_Q>
0

> <i_epik_Tot_abs_Q>
0

> <r_epik_Metal_State_Penalty>
0.223288

> <b_epik_Metal_Only>
0

> <s_lp_Force_Field>
OPLS_2005

> <r_lp_Energy>
7.84192

> <b_lp_Chiralities_Consistent>
1

> <s_lp_Variant>
AV-unprocessed.smi:1362-2

> <Gold.Version>
5.8.1

> <Gold.Id.Protein>
6NUR|6NUR_protein|mol2

> <Gold.PLP.Fitness>
30.5672

> <Gold.PLP.PLP>
-27.6456

> <Gold.PLP.part.hbond>
-1.0000

> <Gold.PLP.part.metal>
0.0000

> <Gold.PLP.part.buried>
-5.8727

> <Gold.PLP.part.nonpolar>
-21.5388

> <Gold.PLP.part.repulsive>
0.1286

> <Gold.PLP.ligand.clash>
0.0000

> <Gold.PLP.ligand.torsion>
0.0546

> <Gold.PLP.Chemscore.Hbond>
1.0000

> <Gold.PLP.Chemscore.CHOScore>
0.0000

> <Gold.PLP.Chemscore.Metal>
0.0000

> <Gold.Chemscore.Hbonds>
donor molecule, donor type, donor heavy atom, donor atom, acceptor molecule, acceptor atom, score
      P1  H  6896  6907       L1     9  1.00

> <Gold.PLP.Chemscore.Internal.Correction>
0.0309

> <Gold.Rescore>
     Score         DG    S(hbond)    S(metal)    S(lipo)     H(rot)  DE(clash)    DE(int)     intcor
     12.48     -14.12       1.79        0.00      59.79       1.69       0.02       1.61       ----

> <Gold.Chemscore.Fitness>
12.4835

> <Gold.Chemscore.DG>
-14.1202

> <Gold.Chemscore.ZeroCoef>
-5.4800

> <Gold.Chemscore.Hbond>
1.7888

> <Gold.Chemscore.Metal>
0.0000

> <Gold.Chemscore.Lipo>
59.7949

> <Gold.Chemscore.Internal_Hbond>
0.0000

> <Gold.Chemscore.DEClash>
0.0250

> <Gold.Chemscore.DEInternal>
1.6117

> <Gold.Chemscore.Rot>
1.6916

> <Gold.Chemscore.Internal.Correction>
   9.000000E+99

> <Gold.Chemscore.Hbonds>
donor molecule, donor type, donor heavy atom, donor atom, acceptor molecule, acceptor atom, score
      P1  H  6896  6907       L1     9  0.97

> <Gold.Chemscore.Hbond.Weighted>
-5.9747

> <Gold.Chemscore.Metal.Weighted>
-0.0000

> <Gold.Chemscore.Lipo.Weighted>
-6.9960

> <Gold.Chemscore.Internal_Hbond.Weighted>
0.0000

> <Gold.Chemscore.DEClash.Weighted>
0.0250

> <Gold.Chemscore.DEInternal.Weighted>
1.6117

> <Gold.Chemscore.Rot.Weighted>
4.3305

> <Gold.Chemscore.Internal.Correction.Weighted>
   9.000000E+99

> <Gold.Protein.RotatedTorsions>
[ 6907 6896 6895 6894 ] final   11.13 input  -60.11 | X-H torsion
[ 7974 7965 7964 7962 ] final  128.59 input  175.53 | X-H torsion
[ 8008 7997 7996 7995 ] final   54.22 input   59.86 | X-H torsion
[ 10167 10162 10161 10158 ] final -170.08 input  -65.29 | X-H torsion
[ 10718 10713 10712 10709 ] final   81.01 input   66.30 | X-H torsion
[ 10763 10752 10751 10750 ] final  143.42 input  -60.55 | X-H torsion
[ 11005 11000 10999 10996 ] final  -50.57 input  -57.11 | X-H torsion

> <Gold.Protein.ActiveResidues>
 VAL166  LYS551  ARG553  GLY616  TRP617  ASP618  TYR619  PRO620  LYS621  CYS622 
 ASP623  PHE694  ASN695  SER759  ASP760  ASP761  ALA762  ILE779  LEU786  VAL792 
 PHE793  MET794  SER795  GLU796  ALA797  LYS798  CYS799  TRP800  GLU811  SER814 

> <Gold.Protein.RotatedAtoms>
  151.7494  135.0836  160.0328 H   0  0  0  0  0  0  0  0  0  0  0  0  # atno 6907 bound_to 6896
  152.3427  133.6081  159.5896 H   0  0  0  0  0  0  0  0  0  0  0  0  # atno 6908 bound_to 6896
  150.7489  133.9613  159.3558 H   0  0  0  0  0  0  0  0  0  0  0  0  # atno 6909 bound_to 6896
  145.0379  139.3988  143.5116 H   0  0  0  0  0  0  0  0  0  0  0  0  # atno 7974 bound_to 7965
  155.4812  140.3468  155.4340 H   0  0  0  0  0  0  0  0  0  0  0  0  # atno 8008 bound_to 7997
  156.1038  140.1442  156.9460 H   0  0  0  0  0  0  0  0  0  0  0  0  # atno 8009 bound_to 7997
  154.4711  140.0900  156.7124 H   0  0  0  0  0  0  0  0  0  0  0  0  # atno 8010 bound_to 7997
  139.5883  144.1269  152.1603 H   0  0  0  0  0  0  0  0  0  0  0  0  # atno 10167 bound_to 10162
  157.6821  130.9985  150.2163 H   0  0  0  0  0  0  0  0  0  0  0  0  # atno 10718 bound_to 10713
  153.9720  135.2949  155.3426 H   0  0  0  0  0  0  0  0  0  0  0  0  # atno 10763 bound_to 10752
  154.7317  135.5065  153.8978 H   0  0  0  0  0  0  0  0  0  0  0  0  # atno 10764 bound_to 10752
  153.0895  135.6703  153.9994 H   0  0  0  0  0  0  0  0  0  0  0  0  # atno 10765 bound_to 10752
  141.0823  133.6650  156.3750 H   0  0  0  0  0  0  0  0  0  0  0  0  # atno 11005 bound_to 11000
  146.3506  139.9965  142.8680 LP  0  0  0  0  0  0  0  0  0  0  0  0  # atno 17320 bound_to 7965
  145.1685  140.9709  143.4335 LP  0  0  0  0  0  0  0  0  0  0  0  0  # atno 17321 bound_to 7965
  140.0837  144.5679  150.7104 LP  0  0  0  0  0  0  0  0  0  0  0  0  # atno 17342 bound_to 10162
  140.7151  143.2538  151.4459 LP  0  0  0  0  0  0  0  0  0  0  0  0  # atno 17343 bound_to 10162
  156.2824  130.3735  149.7922 LP  0  0  0  0  0  0  0  0  0  0  0  0  # atno 17370 bound_to 10713
  156.5607  130.8382  151.3327 LP  0  0  0  0  0  0  0  0  0  0  0  0  # atno 17371 bound_to 10713
  140.5441  134.6092  157.5388 LP  0  0  0  0  0  0  0  0  0  0  0  0  # atno 17394 bound_to 11000
  139.9638  134.7407  156.0181 LP  0  0  0  0  0  0  0  0  0  0  0  0  # atno 17395 bound_to 11000

$$$$
