AV-unprocessed.smi:1965|AV-procd|sdf|7940|dock1
  -GOLD-   2272010103D 1   1.00000     0.00000
 Structure written by MMmdl.
 36 38  0  0  0  0  0  0  0  0  3 V2000
  150.8761  141.2870  158.3168 O   0  0  0  0  0  0  0  0  0  0  0  0
  150.7017  142.3111  157.6579 C   0  0  0  0  0  0  0  0  0  0  0  0
  151.0349  143.5515  158.0998 N   0  5  0  0  0  0  0  0  0  0  0  0
  151.6265  143.7627  159.2901 C   0  0  0  0  0  0  0  0  0  0  0  0
  152.0157  142.7719  160.1008 N   0  0  0  0  0  0  0  0  0  0  0  0
  152.6067  143.2216  161.2830 C   0  0  0  0  0  0  0  0  0  0  0  0
  152.6652  144.5871  161.3763 C   0  0  0  0  0  0  0  0  0  0  0  0
  151.9748  145.3530  159.9742 S   0  0  0  0  0  0  0  0  0  0  0  0
  150.1529  142.2097  156.4330 N   0  0  0  0  0  0  0  0  0  0  0  0
  149.7031  140.9782  155.7963 C   0  0  2  0  0  0  0  0  0  0  0  0
  150.7902  139.8995  155.6721 C   0  0  0  0  0  0  0  0  0  0  0  0
  150.5495  139.2348  154.3022 C   0  0  0  0  0  0  0  0  0  0  0  0
  149.3451  139.8740  153.7227 N   0  3  1  0  0  0  0  0  0  0  0  0
  148.1210  139.0522  153.9298 C   0  0  0  0  0  0  0  0  0  0  0  0
  146.8432  139.8110  153.5485 C   0  0  0  0  0  0  0  0  0  0  0  0
  146.7337  141.1031  154.3618 C   0  0  0  0  0  0  0  0  0  0  0  0
  147.9695  141.9724  154.1069 C   0  0  0  0  0  0  0  0  0  0  0  0
  149.2990  141.2207  154.3407 C   0  0  1  0  0  0  0  0  0  0  0  0
  152.9564  142.4985  162.0046 H   0  0  0  0  0  0  0  0  0  0  0  0
  153.0666  145.1860  162.1799 H   0  0  0  0  0  0  0  0  0  0  0  0
  150.0295  143.0652  155.9114 H   0  0  0  0  0  0  0  0  0  0  0  0
  148.8537  140.5737  156.3493 H   0  0  0  0  0  0  0  0  0  0  0  0
  151.7895  140.3369  155.7007 H   0  0  0  0  0  0  0  0  0  0  0  0
  150.7240  139.1814  156.4903 H   0  0  0  0  0  0  0  0  0  0  0  0
  151.3958  139.4364  153.6445 H   0  0  0  0  0  0  0  0  0  0  0  0
  150.4518  138.1509  154.3782 H   0  0  0  0  0  0  0  0  0  0  0  0
  148.2009  138.1417  153.3350 H   0  0  0  0  0  0  0  0  0  0  0  0
  148.0556  138.7380  154.9728 H   0  0  0  0  0  0  0  0  0  0  0  0
  146.8481  140.0390  152.4818 H   0  0  0  0  0  0  0  0  0  0  0  0
  145.9702  139.1831  153.7290 H   0  0  0  0  0  0  0  0  0  0  0  0
  145.8296  141.6471  154.0864 H   0  0  0  0  0  0  0  0  0  0  0  0
  146.6472  140.8724  155.4242 H   0  0  0  0  0  0  0  0  0  0  0  0
  147.9415  142.3174  153.0725 H   0  0  0  0  0  0  0  0  0  0  0  0
  147.9311  142.8714  154.7232 H   0  0  0  0  0  0  0  0  0  0  0  0
  150.0918  141.8059  153.8696 H   0  0  0  0  0  0  0  0  0  0  0  0
  149.4701  139.9808  152.7263 H   0  0  0  0  0  0  0  0  0  0  0  0
  1  2  2  0  0  0  0
  2  3  1  0  0  0  0
  2  9  1  0  0  0  0
  3  4  1  0  0  0  0
  4  8  1  0  0  0  0
  4  5  2  0  0  0  0
  5  6  1  0  0  0  0
  6  7  2  0  0  0  0
  6 19  1  0  0  0  0
  7  8  1  0  0  0  0
  7 20  1  0  0  0  0
  9 10  1  0  0  0  0
  9 21  1  0  0  0  0
 10 18  1  0  0  0  0
 10 11  1  0  0  0  0
 10 22  1  0  0  0  0
 11 12  1  0  0  0  0
 11 23  1  0  0  0  0
 11 24  1  0  0  0  0
 12 13  1  0  0  0  0
 12 25  1  0  0  0  0
 12 26  1  0  0  0  0
 13 18  1  0  0  0  0
 13 14  1  0  0  0  0
 13 36  1  0  0  0  0
 14 15  1  0  0  0  0
 14 27  1  0  0  0  0
 14 28  1  0  0  0  0
 15 16  1  0  0  0  0
 15 29  1  0  0  0  0
 15 30  1  0  0  0  0
 16 17  1  0  0  0  0
 16 31  1  0  0  0  0
 16 32  1  0  0  0  0
 17 18  1  0  0  0  0
 17 33  1  0  0  0  0
 17 34  1  0  0  0  0
 18 35  1  0  0  0  0
M  CHG  1   3  -1
M  CHG  1  13   1
M  END
> <s_m_source_file>
AV-unprocessed.smi

> <i_m_source_file_index>
1965

> <i_lp_mmshare_version>
43012

> <i_f3d_flags>
0

> <s_epik_input>
czFbY0hdW2NIXW5jMVtOSF1DKD1PKVtOSF1bQ0BIXShbQ0gyXVtDSDJdMilbQ0BASF0oTjIzKVtDSDJdW0NIMl1bQ0gyXVtDSDJdMw==

> <s_epik_cmdline>
J2VwaWtfcHl0aG9uJywgJy1waCcsICc3LjAnLCAnLXRuJywgJzgnLCAnLW1hJywgJzIwMCcsICctbWV0YWxfYmluZGluZycsICctaW1hZScsICc8aW5maWxlLm1hZT4nLCAnLW9tYWUnLCAnPG91dGZpbGUubWFlPic=

> <r_lp_tautomer_probability>
1

> <r_epik_Ionization_Penalty>
7.4116

> <r_epik_Ionization_Penalty_Charging>
6.13869

> <r_epik_Ionization_Penalty_Neutral>
1.27291

> <r_epik_State_Penalty>
6.13761

> <r_epik_Charging_Adjusted_Penalty>
12.2763

> <i_epik_Tot_Q>
0

> <i_epik_Tot_abs_Q>
2

> <r_epik_Metal_State_Penalty>
2.08142

> <b_epik_Metal_Only>
1

> <s_lp_Force_Field>
OPLS_2005

> <r_lp_Energy>
29.0892

> <b_lp_Chiralities_Consistent>
1

> <s_lp_Variant>
AV-unprocessed.smi:1965-9

> <Gold.Version>
5.8.1

> <Gold.Id.Protein>
6NUR|6NUR_protein|mol2

> <Gold.PLP.Fitness>
43.4756

> <Gold.PLP.PLP>
-37.5311

> <Gold.PLP.part.hbond>
-2.5935

> <Gold.PLP.part.metal>
0.0000

> <Gold.PLP.part.buried>
-3.9277

> <Gold.PLP.part.nonpolar>
-31.1597

> <Gold.PLP.part.repulsive>
0.3878

> <Gold.PLP.ligand.clash>
0.0000

> <Gold.PLP.ligand.torsion>
0.0370

> <Gold.PLP.Chemscore.Hbond>
2.0000

> <Gold.PLP.Chemscore.CHOScore>
0.0000

> <Gold.PLP.Chemscore.Metal>
0.0000

> <Gold.Chemscore.Hbonds>
donor molecule, donor type, donor heavy atom, donor atom, acceptor molecule, acceptor atom, score
      L1  H     9    21       P1  8028  0.93
      L1  H    13    36       P1  7957  1.00

> <Gold.PLP.Chemscore.Internal.Correction>
0.0185

> <Gold.Rescore>
     Score         DG    S(hbond)    S(metal)    S(lipo)     H(rot)  DE(clash)    DE(int)     intcor
     16.52     -19.57       1.96        0.00      86.28       1.00       0.10       2.94       ----

> <Gold.Chemscore.Fitness>
16.5215

> <Gold.Chemscore.DG>
-19.5682

> <Gold.Chemscore.ZeroCoef>
-5.4800

> <Gold.Chemscore.Hbond>
1.9619

> <Gold.Chemscore.Metal>
0.0000

> <Gold.Chemscore.Lipo>
86.2845

> <Gold.Chemscore.Internal_Hbond>
0.0000

> <Gold.Chemscore.DEClash>
0.1033

> <Gold.Chemscore.DEInternal>
2.9434

> <Gold.Chemscore.Rot>
1.0000

> <Gold.Chemscore.Internal.Correction>
   9.000000E+99

> <Gold.Chemscore.Hbonds>
donor molecule, donor type, donor heavy atom, donor atom, acceptor molecule, acceptor atom, score
      L1  H     9    21       P1  8028  0.84
      L1  H    13    36       P1  7957  0.97

> <Gold.Chemscore.Hbond.Weighted>
-6.5529

> <Gold.Chemscore.Metal.Weighted>
-0.0000

> <Gold.Chemscore.Lipo.Weighted>
-10.0953

> <Gold.Chemscore.Internal_Hbond.Weighted>
0.0000

> <Gold.Chemscore.DEClash.Weighted>
0.1033

> <Gold.Chemscore.DEInternal.Weighted>
2.9434

> <Gold.Chemscore.Rot.Weighted>
2.5600

> <Gold.Chemscore.Internal.Correction.Weighted>
   9.000000E+99

> <Gold.Protein.RotatedTorsions>
[ 6907 6896 6895 6894 ] final  -97.91 input  -60.11 | X-H torsion
[ 7974 7965 7964 7962 ] final -149.27 input  175.53 | X-H torsion
[ 8008 7997 7996 7995 ] final   13.37 input   59.86 | X-H torsion
[ 10167 10162 10161 10158 ] final   -4.38 input  -65.29 | X-H torsion
[ 10718 10713 10712 10709 ] final   70.36 input   66.30 | X-H torsion
[ 10763 10752 10751 10750 ] final -168.54 input  -60.55 | X-H torsion
[ 11005 11000 10999 10996 ] final  163.21 input  -57.11 | X-H torsion

> <Gold.Protein.ActiveResidues>
 VAL166  LYS551  ARG553  GLY616  TRP617  ASP618  TYR619  PRO620  LYS621  CYS622 
 ASP623  PHE694  ASN695  SER759  ASP760  ASP761  ALA762  ILE779  LEU786  VAL792 
 PHE793  MET794  SER795  GLU796  ALA797  LYS798  CYS799  TRP800  GLU811  SER814 

> <Gold.Protein.RotatedAtoms>
  150.7030  134.1276  159.4057 H   0  0  0  0  0  0  0  0  0  0  0  0  # atno 6907 bound_to 6896
  151.9262  135.0274  160.0535 H   0  0  0  0  0  0  0  0  0  0  0  0  # atno 6908 bound_to 6896
  152.2214  133.4951  159.5201 H   0  0  0  0  0  0  0  0  0  0  0  0  # atno 6909 bound_to 6896
  144.7977  140.5086  143.5728 H   0  0  0  0  0  0  0  0  0  0  0  0  # atno 7974 bound_to 7965
  154.8335  140.2903  155.5706 H   0  0  0  0  0  0  0  0  0  0  0  0  # atno 8008 bound_to 7997
  156.3007  140.2527  156.3196 H   0  0  0  0  0  0  0  0  0  0  0  0  # atno 8009 bound_to 7997
  154.9204  140.0386  157.1984 H   0  0  0  0  0  0  0  0  0  0  0  0  # atno 8010 bound_to 7997
  140.6925  143.6431  150.8418 H   0  0  0  0  0  0  0  0  0  0  0  0  # atno 10167 bound_to 10162
  157.6395  130.9473  150.0639 H   0  0  0  0  0  0  0  0  0  0  0  0  # atno 10718 bound_to 10713
  154.6618  135.2926  154.9857 H   0  0  0  0  0  0  0  0  0  0  0  0  # atno 10763 bound_to 10752
  154.0914  135.6590  153.4857 H   0  0  0  0  0  0  0  0  0  0  0  0  # atno 10764 bound_to 10752
  153.0434  135.5221  154.7572 H   0  0  0  0  0  0  0  0  0  0  0  0  # atno 10765 bound_to 10752
  140.2335  134.8105  157.3341 H   0  0  0  0  0  0  0  0  0  0  0  0  # atno 11005 bound_to 11000
  145.5630  139.1480  143.3330 LP  0  0  0  0  0  0  0  0  0  0  0  0  # atno 17320 bound_to 7965
  146.2250  140.5766  142.9000 LP  0  0  0  0  0  0  0  0  0  0  0  0  # atno 17321 bound_to 7965
  140.0145  143.5607  152.2825 LP  0  0  0  0  0  0  0  0  0  0  0  0  # atno 17342 bound_to 10162
  139.6343  144.7648  151.2470 LP  0  0  0  0  0  0  0  0  0  0  0  0  # atno 17343 bound_to 10162
  156.1664  130.3645  149.9227 LP  0  0  0  0  0  0  0  0  0  0  0  0  # atno 17370 bound_to 10713
  156.7213  130.9008  151.3618 LP  0  0  0  0  0  0  0  0  0  0  0  0  # atno 17371 bound_to 10713
  140.1726  134.4590  155.7822 LP  0  0  0  0  0  0  0  0  0  0  0  0  # atno 17394 bound_to 11000
  141.2216  133.6948  156.7732 LP  0  0  0  0  0  0  0  0  0  0  0  0  # atno 17395 bound_to 11000

$$$$
