AV-unprocessed.smi:3172|AV-procd|sdf|12115|dock1
  -GOLD-   2272017553D 1   1.00000     0.00000
 Structure written by MMmdl.
 43 44  0  0  0  0  0  0  0  0  2 V2000
  143.3987  134.6108  152.7837 C   0  0  0  0  0  0  0  0  0  0  0  0
  144.1796  135.8806  152.9225 C   0  0  0  0  0  0  0  0  0  0  0  0
  144.0257  136.7045  154.0343 N   0  0  0  0  0  0  0  0  0  0  0  0
  144.8625  137.7055  153.8046 C   0  0  0  0  0  0  0  0  0  0  0  0
  145.5327  137.6173  152.6471 N   0  0  0  0  0  0  0  0  0  0  0  0
  146.4869  138.5844  152.1278 C   0  0  0  0  0  0  0  0  0  0  0  0
  147.2924  139.2600  153.2534 C   0  0  2  0  0  0  0  0  0  0  0  0
  147.1752  140.7892  153.1882 C   0  0  0  0  0  0  0  0  0  0  0  0
  148.7152  138.8538  153.1802 N   0  3  0  0  0  0  0  0  0  0  0  0
  149.4857  138.9925  154.4349 C   0  0  0  0  0  0  0  0  0  0  0  0
  149.7274  140.4834  154.7368 C   0  0  0  0  0  0  0  0  0  0  0  0
  150.5609  140.6716  156.0148 C   0  0  0  0  0  0  0  0  0  0  0  0
  151.8966  139.9177  155.9222 C   0  0  0  0  0  0  0  0  0  0  0  0
  151.6720  138.4293  155.6156 C   0  0  0  0  0  0  0  0  0  0  0  0
  150.8327  138.2420  154.3416 C   0  0  0  0  0  0  0  0  0  0  0  0
  145.1102  136.4244  152.0622 C   0  0  0  0  0  0  0  0  0  0  0  0
  145.6144  135.9157  150.7494 C   0  0  0  0  0  0  0  0  0  0  0  0
  143.9972  133.7488  153.0788 H   0  0  0  0  0  0  0  0  0  0  0  0
  143.0785  134.4542  151.7535 H   0  0  0  0  0  0  0  0  0  0  0  0
  142.5036  134.6214  153.4063 H   0  0  0  0  0  0  0  0  0  0  0  0
  144.9804  138.5318  154.4906 H   0  0  0  0  0  0  0  0  0  0  0  0
  147.1553  138.0789  151.4287 H   0  0  0  0  0  0  0  0  0  0  0  0
  145.9413  139.3289  151.5475 H   0  0  0  0  0  0  0  0  0  0  0  0
  146.8712  138.9370  154.2050 H   0  0  0  0  0  0  0  0  0  0  0  0
  146.1343  141.1053  153.2629 H   0  0  0  0  0  0  0  0  0  0  0  0
  147.5738  141.1788  152.2509 H   0  0  0  0  0  0  0  0  0  0  0  0
  147.7201  141.2637  154.0049 H   0  0  0  0  0  0  0  0  0  0  0  0
  148.7575  137.8820  152.9078 H   0  0  0  0  0  0  0  0  0  0  0  0
  148.8946  138.5751  155.2519 H   0  0  0  0  0  0  0  0  0  0  0  0
  150.2423  140.9534  153.8975 H   0  0  0  0  0  0  0  0  0  0  0  0
  148.7741  141.0025  154.8444 H   0  0  0  0  0  0  0  0  0  0  0  0
  150.7449  141.7327  156.1862 H   0  0  0  0  0  0  0  0  0  0  0  0
  149.9969  140.3125  156.8767 H   0  0  0  0  0  0  0  0  0  0  0  0
  152.5146  140.3629  155.1415 H   0  0  0  0  0  0  0  0  0  0  0  0
  152.4512  140.0261  156.8547 H   0  0  0  0  0  0  0  0  0  0  0  0
  152.6325  137.9248  155.5050 H   0  0  0  0  0  0  0  0  0  0  0  0
  151.1685  137.9539  156.4582 H   0  0  0  0  0  0  0  0  0  0  0  0
  150.6735  137.1768  154.1745 H   0  0  0  0  0  0  0  0  0  0  0  0
  151.3969  138.6034  153.4804 H   0  0  0  0  0  0  0  0  0  0  0  0
  145.3910  134.8557  150.6302 H   0  0  0  0  0  0  0  0  0  0  0  0
  146.6946  136.0334  150.6663 H   0  0  0  0  0  0  0  0  0  0  0  0
  145.1480  136.4486  149.9213 H   0  0  0  0  0  0  0  0  0  0  0  0
  149.1585  139.4058  152.4597 H   0  0  0  0  0  0  0  0  0  0  0  0
  1  2  1  0  0  0  0
  1 18  1  0  0  0  0
  1 19  1  0  0  0  0
  1 20  1  0  0  0  0
  2 16  2  0  0  0  0
  2  3  1  0  0  0  0
  3  4  2  0  0  0  0
  4  5  1  0  0  0  0
  4 21  1  0  0  0  0
  5  6  1  0  0  0  0
  5 16  1  0  0  0  0
  6  7  1  0  0  0  0
  6 22  1  0  0  0  0
  6 23  1  0  0  0  0
  7  8  1  0  0  0  0
  7  9  1  0  0  0  0
  7 24  1  0  0  0  0
  8 25  1  0  0  0  0
  8 26  1  0  0  0  0
  8 27  1  0  0  0  0
  9 10  1  0  0  0  0
  9 28  1  0  0  0  0
  9 43  1  0  0  0  0
 10 15  1  0  0  0  0
 10 11  1  0  0  0  0
 10 29  1  0  0  0  0
 11 12  1  0  0  0  0
 11 30  1  0  0  0  0
 11 31  1  0  0  0  0
 12 13  1  0  0  0  0
 12 32  1  0  0  0  0
 12 33  1  0  0  0  0
 13 14  1  0  0  0  0
 13 34  1  0  0  0  0
 13 35  1  0  0  0  0
 14 15  1  0  0  0  0
 14 36  1  0  0  0  0
 14 37  1  0  0  0  0
 15 38  1  0  0  0  0
 15 39  1  0  0  0  0
 16 17  1  0  0  0  0
 17 40  1  0  0  0  0
 17 41  1  0  0  0  0
 17 42  1  0  0  0  0
M  CHG  1   9   1
M  END
> <s_m_source_file>
AV-unprocessed.smi

> <i_m_source_file_index>
3172

> <i_lp_mmshare_version>
43012

> <i_f3d_flags>
0

> <s_epik_input>
W0NIM11jMW5bY0hdbihjMVtDSDNdKVtDSDJdW0NASF0oW0NIM10pW05IXVtDSF0yW0NIMl1bQ0gyXVtDSDJdW0NIMl1bQ0gyXTI=

> <s_epik_cmdline>
J2VwaWtfcHl0aG9uJywgJy1waCcsICc3LjAnLCAnLXRuJywgJzgnLCAnLW1hJywgJzIwMCcsICctbWV0YWxfYmluZGluZycsICctaW1hZScsICc8aW5maWxlLm1hZT4nLCAnLW9tYWUnLCAnPG91dGZpbGUubWFlPic=

> <r_lp_tautomer_probability>
1

> <r_epik_Ionization_Penalty>
0.328572

> <r_epik_Ionization_Penalty_Charging>
0.328572

> <r_epik_Ionization_Penalty_Neutral>
3.58496e-13

> <r_epik_State_Penalty>
0.596179

> <r_epik_Charging_Adjusted_Penalty>
0.924751

> <i_epik_Tot_Q>
1

> <i_epik_Tot_abs_Q>
1

> <r_epik_Metal_State_Penalty>
0.00102252

> <b_epik_Metal_Only>
0

> <s_lp_Force_Field>
OPLS_2005

> <r_lp_Energy>
15.8324

> <b_lp_Chiralities_Consistent>
1

> <s_lp_Variant>
AV-unprocessed.smi:3172-3

> <Gold.Version>
5.8.1

> <Gold.Id.Protein>
6NUR|6NUR_protein|mol2

> <Gold.PLP.Fitness>
41.7931

> <Gold.PLP.PLP>
-35.5896

> <Gold.PLP.part.hbond>
-1.8659

> <Gold.PLP.part.metal>
0.0000

> <Gold.PLP.part.buried>
-3.3404

> <Gold.PLP.part.nonpolar>
-31.7403

> <Gold.PLP.part.repulsive>
0.1493

> <Gold.PLP.ligand.clash>
0.0000

> <Gold.PLP.ligand.torsion>
1.3644

> <Gold.PLP.Chemscore.Hbond>
2.9263

> <Gold.PLP.Chemscore.CHOScore>
0.0000

> <Gold.PLP.Chemscore.Metal>
0.0000

> <Gold.Chemscore.Hbonds>
donor molecule, donor type, donor heavy atom, donor atom, acceptor molecule, acceptor atom, score
      L1  H     9    28       P1  7948  2.00
      L1  H     9    43       P1  7957  0.94

> <Gold.PLP.Chemscore.Internal.Correction>
0.1536

> <Gold.Rescore>
     Score         DG    S(hbond)    S(metal)    S(lipo)     H(rot)  DE(clash)    DE(int)     intcor
     16.72     -18.07       1.93        0.00      85.42       1.50       0.06       1.29       ----

> <Gold.Chemscore.Fitness>
16.7216

> <Gold.Chemscore.DG>
-18.0715

> <Gold.Chemscore.ZeroCoef>
-5.4800

> <Gold.Chemscore.Hbond>
1.9272

> <Gold.Chemscore.Metal>
0.0000

> <Gold.Chemscore.Lipo>
85.4209

> <Gold.Chemscore.Internal_Hbond>
0.0000

> <Gold.Chemscore.DEClash>
0.0595

> <Gold.Chemscore.DEInternal>
1.2904

> <Gold.Chemscore.Rot>
1.4999

> <Gold.Chemscore.Internal.Correction>
   9.000000E+99

> <Gold.Chemscore.Hbonds>
donor molecule, donor type, donor heavy atom, donor atom, acceptor molecule, acceptor atom, score
      L1  H     9    28       P1  7948  0.99
      L1  H     9    43       P1  7957  0.90

> <Gold.Chemscore.Hbond.Weighted>
-6.4370

> <Gold.Chemscore.Metal.Weighted>
-0.0000

> <Gold.Chemscore.Lipo.Weighted>
-9.9942

> <Gold.Chemscore.Internal_Hbond.Weighted>
0.0000

> <Gold.Chemscore.DEClash.Weighted>
0.0595

> <Gold.Chemscore.DEInternal.Weighted>
1.2904

> <Gold.Chemscore.Rot.Weighted>
3.8397

> <Gold.Chemscore.Internal.Correction.Weighted>
   9.000000E+99

> <Gold.Protein.RotatedTorsions>
[ 6907 6896 6895 6894 ] final   35.09 input  -60.11 | X-H torsion
[ 7974 7965 7964 7962 ] final  148.93 input  175.53 | X-H torsion
[ 8008 7997 7996 7995 ] final   87.53 input   59.86 | X-H torsion
[ 10167 10162 10161 10158 ] final   62.34 input  -65.29 | X-H torsion
[ 10718 10713 10712 10709 ] final   65.42 input   66.30 | X-H torsion
[ 10763 10752 10751 10750 ] final   89.32 input  -60.55 | X-H torsion
[ 11005 11000 10999 10996 ] final   41.56 input  -57.11 | X-H torsion

> <Gold.Protein.ActiveResidues>
 VAL166  LYS551  ARG553  GLY616  TRP617  ASP618  TYR619  PRO620  LYS621  CYS622 
 ASP623  PHE694  ASN695  SER759  ASP760  ASP761  ALA762  ILE779  LEU786  VAL792 
 PHE793  MET794  SER795  GLU796  ALA797  LYS798  CYS799  TRP800  GLU811  SER814 

> <Gold.Protein.RotatedAtoms>
  152.1114  134.9272  160.0566 H   0  0  0  0  0  0  0  0  0  0  0  0  # atno 6907 bound_to 6896
  152.0448  133.3988  159.4360 H   0  0  0  0  0  0  0  0  0  0  0  0  # atno 6908 bound_to 6896
  150.6844  134.3295  159.4864 H   0  0  0  0  0  0  0  0  0  0  0  0  # atno 6909 bound_to 6896
  144.8476  139.6217  143.5988 H   0  0  0  0  0  0  0  0  0  0  0  0  # atno 7974 bound_to 7965
  155.9766  140.3381  155.6624 H   0  0  0  0  0  0  0  0  0  0  0  0  # atno 8008 bound_to 7997
  155.6605  140.0715  157.2574 H   0  0  0  0  0  0  0  0  0  0  0  0  # atno 8009 bound_to 7997
  154.4180  140.1709  156.1758 H   0  0  0  0  0  0  0  0  0  0  0  0  # atno 8010 bound_to 7997
  140.1450  144.4517  150.6790 H   0  0  0  0  0  0  0  0  0  0  0  0  # atno 10167 bound_to 10162
  157.6104  130.9213  149.9975 H   0  0  0  0  0  0  0  0  0  0  0  0  # atno 10718 bound_to 10713
  153.1859  135.4474  155.0088 H   0  0  0  0  0  0  0  0  0  0  0  0  # atno 10763 bound_to 10752
  154.8060  135.3274  154.7432 H   0  0  0  0  0  0  0  0  0  0  0  0  # atno 10764 bound_to 10752
  153.7891  135.6971  153.4930 H   0  0  0  0  0  0  0  0  0  0  0  0  # atno 10765 bound_to 10752
  140.1822  134.4089  155.8193 H   0  0  0  0  0  0  0  0  0  0  0  0  # atno 11005 bound_to 11000
  146.2757  139.6747  142.9264 LP  0  0  0  0  0  0  0  0  0  0  0  0  # atno 17320 bound_to 7965
  145.4565  141.0431  143.2775 LP  0  0  0  0  0  0  0  0  0  0  0  0  # atno 17321 bound_to 7965
  140.6737  143.2296  151.5561 LP  0  0  0  0  0  0  0  0  0  0  0  0  # atno 17342 bound_to 10162
  139.5453  144.2537  152.1430 LP  0  0  0  0  0  0  0  0  0  0  0  0  # atno 17343 bound_to 10162
  156.1205  130.3646  149.9895 LP  0  0  0  0  0  0  0  0  0  0  0  0  # atno 17370 bound_to 10713
  156.7976  130.9279  151.3646 LP  0  0  0  0  0  0  0  0  0  0  0  0  # atno 17371 bound_to 10713
  141.2223  133.7006  156.7951 LP  0  0  0  0  0  0  0  0  0  0  0  0  # atno 17394 bound_to 11000
  140.2254  134.8726  157.3421 LP  0  0  0  0  0  0  0  0  0  0  0  0  # atno 17395 bound_to 11000

$$$$
