AV-unprocessed.smi:244|AV-procd|sdf|1872|dock4
  -GOLD-   2262020513D 1   1.00000     0.00000
 Structure written by MMmdl.
 56 60  0  0  0  0  0  0  0  0  1 V2000
  153.4550  142.2413  162.2581 C   0  0  0  0  0  0  0  0  0  0  0  0
  152.4674  142.4729  161.2135 N   0  0  0  0  0  0  0  0  0  0  0  0
  152.6511  143.8192  160.6673 C   0  0  0  0  0  0  0  0  0  0  0  0
  151.6017  144.1049  159.5788 C   0  0  0  0  0  0  0  0  0  0  0  0
  151.7009  143.0561  158.4672 C   0  0  2  0  0  0  0  0  0  0  0  0
  150.6943  143.2778  157.4869 O   0  0  0  0  0  0  0  0  0  0  0  0
  150.8183  142.3620  156.4042 C   0  0  0  0  0  0  0  0  0  0  0  0
  150.6524  140.9245  156.9235 C   0  0  0  0  0  0  0  0  0  0  0  0
  151.5911  140.6495  158.0091 N   0  0  0  0  0  0  0  0  0  0  0  0
  151.5384  139.3405  158.3560 C   0  0  0  0  0  0  0  0  0  0  0  0
  152.6750  138.6588  158.6607 N   0  0  0  0  0  0  0  0  0  0  0  0
  152.6092  137.3749  159.0267 C   0  0  0  0  0  0  0  0  0  0  0  0
  151.5312  136.5991  159.1609 N   0  0  0  0  0  0  0  0  0  0  0  0
  150.3887  137.2844  158.8681 C   0  0  0  0  0  0  0  0  0  0  0  0
  150.3042  138.6455  158.4631 C   0  0  0  0  0  0  0  0  0  0  0  0
  148.9776  139.0008  158.2553 N   0  0  0  0  0  0  0  0  0  0  0  0
  148.3133  137.9097  158.5233 C   0  0  0  0  0  0  0  0  0  0  0  0
  149.0820  136.8291  158.8943 N   0  0  0  0  0  0  0  0  0  0  0  0
  148.6034  135.5014  159.2471 C   0  0  0  0  0  0  0  0  0  0  0  0
  147.6481  135.4816  160.4655 C   0  0  0  0  0  0  0  0  0  0  0  0
  146.3914  135.9768  160.0349 O   0  0  0  0  0  0  0  0  0  0  0  0
  147.4447  134.0618  161.0386 C   0  0  0  0  0  0  0  0  0  0  0  0
  146.6638  134.0799  162.3646 C   0  0  0  0  0  0  0  0  0  0  0  0
  147.3104  134.9323  163.3021 O   0  0  0  0  0  0  0  0  0  0  0  0
  147.3540  136.2881  162.8740 C   0  0  0  0  0  0  0  0  0  0  0  0
  148.1788  136.4058  161.5800 C   0  0  0  0  0  0  0  0  0  0  0  0
  151.5341  141.6507  159.0797 C   0  0  1  0  0  0  0  0  0  0  0  0
  152.6213  141.4600  160.1662 C   0  0  0  0  0  0  0  0  0  0  0  0
  153.3497  142.9776  163.0556 H   0  0  0  0  0  0  0  0  0  0  0  0
  154.4713  142.3046  161.8661 H   0  0  0  0  0  0  0  0  0  0  0  0
  153.3205  141.2536  162.7003 H   0  0  0  0  0  0  0  0  0  0  0  0
  152.5547  144.5543  161.4673 H   0  0  0  0  0  0  0  0  0  0  0  0
  153.6565  143.9226  160.2558 H   0  0  0  0  0  0  0  0  0  0  0  0
  150.6015  144.0963  160.0140 H   0  0  0  0  0  0  0  0  0  0  0  0
  151.7550  145.1023  159.1662 H   0  0  0  0  0  0  0  0  0  0  0  0
  152.6817  143.1435  157.9945 H   0  0  0  0  0  0  0  0  0  0  0  0
  150.0520  142.5837  155.6614 H   0  0  0  0  0  0  0  0  0  0  0  0
  151.7840  142.4883  155.9118 H   0  0  0  0  0  0  0  0  0  0  0  0
  149.6336  140.7791  157.2857 H   0  0  0  0  0  0  0  0  0  0  0  0
  150.8023  140.2226  156.1021 H   0  0  0  0  0  0  0  0  0  0  0  0
  153.5557  136.9034  159.2461 H   0  0  0  0  0  0  0  0  0  0  0  0
  147.2363  137.8607  158.4541 H   0  0  0  0  0  0  0  0  0  0  0  0
  148.1042  135.0792  158.3740 H   0  0  0  0  0  0  0  0  0  0  0  0
  149.4706  134.8665  159.4351 H   0  0  0  0  0  0  0  0  0  0  0  0
  146.5226  136.8246  159.6385 H   0  0  0  0  0  0  0  0  0  0  0  0
  146.9317  133.4208  160.3207 H   0  0  0  0  0  0  0  0  0  0  0  0
  148.4186  133.6041  161.2168 H   0  0  0  0  0  0  0  0  0  0  0  0
  145.6337  134.4051  162.2103 H   0  0  0  0  0  0  0  0  0  0  0  0
  146.6162  133.0736  162.7813 H   0  0  0  0  0  0  0  0  0  0  0  0
  146.3419  136.6706  162.7330 H   0  0  0  0  0  0  0  0  0  0  0  0
  147.8104  136.8885  163.6611 H   0  0  0  0  0  0  0  0  0  0  0  0
  149.2123  136.1403  161.8064 H   0  0  0  0  0  0  0  0  0  0  0  0
  148.1978  137.4429  161.2418 H   0  0  0  0  0  0  0  0  0  0  0  0
  150.5500  141.5892  159.5482 H   0  0  0  0  0  0  0  0  0  0  0  0
  153.6174  141.5208  159.7241 H   0  0  0  0  0  0  0  0  0  0  0  0
  152.5370  140.4753  160.6255 H   0  0  0  0  0  0  0  0  0  0  0  0
  1  2  1  0  0  0  0
  1 29  1  0  0  0  0
  1 30  1  0  0  0  0
  1 31  1  0  0  0  0
  2 28  1  0  0  0  0
  2  3  1  0  0  0  0
  3  4  1  0  0  0  0
  3 32  1  0  0  0  0
  3 33  1  0  0  0  0
  4  5  1  0  0  0  0
  4 34  1  0  0  0  0
  4 35  1  0  0  0  0
  5 27  1  0  0  0  0
  5  6  1  0  0  0  0
  5 36  1  0  0  0  0
  6  7  1  0  0  0  0
  7  8  1  0  0  0  0
  7 37  1  0  0  0  0
  7 38  1  0  0  0  0
  8  9  1  0  0  0  0
  8 39  1  0  0  0  0
  8 40  1  0  0  0  0
  9 10  1  0  0  0  0
  9 27  1  0  0  0  0
 10 15  1  0  0  0  0
 10 11  2  0  0  0  0
 11 12  1  0  0  0  0
 12 13  2  0  0  0  0
 12 41  1  0  0  0  0
 13 14  1  0  0  0  0
 14 18  1  0  0  0  0
 14 15  2  0  0  0  0
 15 16  1  0  0  0  0
 16 17  2  0  0  0  0
 17 18  1  0  0  0  0
 17 42  1  0  0  0  0
 18 19  1  0  0  0  0
 19 20  1  0  0  0  0
 19 43  1  0  0  0  0
 19 44  1  0  0  0  0
 20 26  1  0  0  0  0
 20 21  1  0  0  0  0
 20 22  1  0  0  0  0
 21 45  1  0  0  0  0
 22 23  1  0  0  0  0
 22 46  1  0  0  0  0
 22 47  1  0  0  0  0
 23 24  1  0  0  0  0
 23 48  1  0  0  0  0
 23 49  1  0  0  0  0
 24 25  1  0  0  0  0
 25 26  1  0  0  0  0
 25 50  1  0  0  0  0
 25 51  1  0  0  0  0
 26 52  1  0  0  0  0
 26 53  1  0  0  0  0
 27 28  1  0  0  0  0
 27 54  1  0  0  0  0
 28 55  1  0  0  0  0
 28 56  1  0  0  0  0
M  END
> <s_m_source_file>
AV-unprocessed.smi

> <i_m_source_file_index>
244

> <i_lp_mmshare_version>
43012

> <i_f3d_flags>
0

> <s_epik_input>
W0NIMl0xW0NIMl1OKFtDSDNdKVtDSDJdW0NAQEhdKFtDQEhdMTIpTihbQ0gyXVtDSDJdTzIpYyhuW2NIXW4zKWMoYzM0KW5bY0hdbjRbQ0gyXUM1KFtPSF0pW0NIMl1bQ0gyXU9bQ0gyXVtDSDJdNQ==

> <s_epik_cmdline>
J2VwaWtfcHl0aG9uJywgJy1waCcsICc3LjAnLCAnLXRuJywgJzgnLCAnLW1hJywgJzIwMCcsICctbWV0YWxfYmluZGluZycsICctaW1hZScsICc8aW5maWxlLm1hZT4nLCAnLW9tYWUnLCAnPG91dGZpbGUubWFlPic=

> <r_lp_tautomer_probability>
1

> <r_epik_Ionization_Penalty>
2.27765

> <r_epik_Ionization_Penalty_Charging>
0

> <r_epik_Ionization_Penalty_Neutral>
2.27765

> <r_epik_State_Penalty>
2.4114

> <r_epik_Charging_Adjusted_Penalty>
2.4114

> <i_epik_Tot_Q>
0

> <i_epik_Tot_abs_Q>
0

> <r_epik_Metal_State_Penalty>
2.39769

> <b_epik_Metal_Only>
0

> <s_lp_Force_Field>
OPLS_2005

> <r_lp_Energy>
38.8348

> <b_lp_Chiralities_Consistent>
1

> <s_lp_Variant>
AV-unprocessed.smi:244-9

> <Gold.Version>
5.8.1

> <Gold.Id.Protein>
6NUR|6NUR_protein|mol2

> <Gold.PLP.Fitness>
49.6807

> <Gold.PLP.PLP>
-48.1839

> <Gold.PLP.part.hbond>
-2.3472

> <Gold.PLP.part.metal>
0.0000

> <Gold.PLP.part.buried>
-6.3570

> <Gold.PLP.part.nonpolar>
-40.5213

> <Gold.PLP.part.repulsive>
1.3432

> <Gold.PLP.ligand.clash>
0.0000

> <Gold.PLP.ligand.torsion>
0.8165

> <Gold.PLP.Chemscore.Hbond>
0.9920

> <Gold.PLP.Chemscore.CHOScore>
0.0000

> <Gold.PLP.Chemscore.Metal>
0.0000

> <Gold.Chemscore.Hbonds>
donor molecule, donor type, donor heavy atom, donor atom, acceptor molecule, acceptor atom, score
      P1  H  6896  6907       L1    13  1.00

> <Gold.PLP.Chemscore.Internal.Correction>
0.1539

> <Gold.Rescore>
     Score         DG    S(hbond)    S(metal)    S(lipo)     H(rot)  DE(clash)    DE(int)     intcor
     14.64     -16.10       0.71        0.00     115.69       2.06       0.27       1.20       ----

> <Gold.Chemscore.Fitness>
14.6402

> <Gold.Chemscore.DG>
-16.1025

> <Gold.Chemscore.ZeroCoef>
-5.4800

> <Gold.Chemscore.Hbond>
0.7074

> <Gold.Chemscore.Metal>
0.0000

> <Gold.Chemscore.Lipo>
115.6943

> <Gold.Chemscore.Internal_Hbond>
0.0000

> <Gold.Chemscore.DEClash>
0.2661

> <Gold.Chemscore.DEInternal>
1.1962

> <Gold.Chemscore.Rot>
2.0611

> <Gold.Chemscore.Internal.Correction>
   9.000000E+99

> <Gold.Chemscore.Hbonds>
donor molecule, donor type, donor heavy atom, donor atom, acceptor molecule, acceptor atom, score
      P1  H  6896  6907       L1    13  0.92

> <Gold.Chemscore.Hbond.Weighted>
-2.3628

> <Gold.Chemscore.Metal.Weighted>
-0.0000

> <Gold.Chemscore.Lipo.Weighted>
-13.5362

> <Gold.Chemscore.Internal_Hbond.Weighted>
0.0000

> <Gold.Chemscore.DEClash.Weighted>
0.2661

> <Gold.Chemscore.DEInternal.Weighted>
1.1962

> <Gold.Chemscore.Rot.Weighted>
5.2765

> <Gold.Chemscore.Internal.Correction.Weighted>
   9.000000E+99

> <Gold.Protein.RotatedTorsions>
[ 6907 6896 6895 6894 ] final   -8.48 input  -60.11 | X-H torsion
[ 7974 7965 7964 7962 ] final -123.52 input  175.53 | X-H torsion
[ 8008 7997 7996 7995 ] final   85.21 input   59.86 | X-H torsion
[ 10167 10162 10161 10158 ] final   21.55 input  -65.29 | X-H torsion
[ 10718 10713 10712 10709 ] final  179.04 input   66.30 | X-H torsion
[ 10763 10752 10751 10750 ] final -134.46 input  -60.55 | X-H torsion
[ 11005 11000 10999 10996 ] final  179.66 input  -57.11 | X-H torsion

> <Gold.Protein.ActiveResidues>
 VAL166  LYS551  ARG553  GLY616  TRP617  ASP618  TYR619  PRO620  LYS621  CYS622 
 ASP623  PHE694  ASN695  SER759  ASP760  ASP761  ALA762  ILE779  LEU786  VAL792 
 PHE793  MET794  SER795  GLU796  ALA797  LYS798  CYS799  TRP800  GLU811  SER814 

> <Gold.Protein.RotatedAtoms>
  151.4329  135.1011  159.9647 H   0  0  0  0  0  0  0  0  0  0  0  0  # atno 6907 bound_to 6896
  152.4950  133.8600  159.7256 H   0  0  0  0  0  0  0  0  0  0  0  0  # atno 6908 bound_to 6896
  150.9142  133.6901  159.2875 H   0  0  0  0  0  0  0  0  0  0  0  0  # atno 6909 bound_to 6896
  145.0178  140.7962  143.4399 H   0  0  0  0  0  0  0  0  0  0  0  0  # atno 7974 bound_to 7965
  155.9470  140.3404  155.6376 H   0  0  0  0  0  0  0  0  0  0  0  0  # atno 8008 bound_to 7997
  155.6967  140.0755  157.2445 H   0  0  0  0  0  0  0  0  0  0  0  0  # atno 8009 bound_to 7997
  154.4114  140.1647  156.2134 H   0  0  0  0  0  0  0  0  0  0  0  0  # atno 8010 bound_to 7997
  140.5418  143.9663  150.6524 H   0  0  0  0  0  0  0  0  0  0  0  0  # atno 10167 bound_to 10162
  156.8817  130.9818  151.3061 H   0  0  0  0  0  0  0  0  0  0  0  0  # atno 10718 bound_to 10713
  154.8719  135.3734  154.4739 H   0  0  0  0  0  0  0  0  0  0  0  0  # atno 10763 bound_to 10752
  153.5398  135.7026  153.5647 H   0  0  0  0  0  0  0  0  0  0  0  0  # atno 10764 bound_to 10752
  153.3814  135.3995  155.1824 H   0  0  0  0  0  0  0  0  0  0  0  0  # atno 10765 bound_to 10752
  140.4086  134.6712  157.4602 H   0  0  0  0  0  0  0  0  0  0  0  0  # atno 11005 bound_to 11000
  145.1936  139.2288  143.5230 LP  0  0  0  0  0  0  0  0  0  0  0  0  # atno 17320 bound_to 7965
  146.3481  140.1737  142.8589 LP  0  0  0  0  0  0  0  0  0  0  0  0  # atno 17321 bound_to 7965
  140.3066  143.3225  152.0920 LP  0  0  0  0  0  0  0  0  0  0  0  0  # atno 17342 bound_to 10162
  139.4992  144.6663  151.6348 LP  0  0  0  0  0  0  0  0  0  0  0  0  # atno 17343 bound_to 10162
  157.6136  130.8602  149.8992 LP  0  0  0  0  0  0  0  0  0  0  0  0  # atno 17370 bound_to 10713
  156.0674  130.3690  150.0849 LP  0  0  0  0  0  0  0  0  0  0  0  0  # atno 17371 bound_to 10713
  140.0284  134.6443  155.9141 LP  0  0  0  0  0  0  0  0  0  0  0  0  # atno 17394 bound_to 11000
  141.1829  133.6550  156.5097 LP  0  0  0  0  0  0  0  0  0  0  0  0  # atno 17395 bound_to 11000

$$$$
