AV-unprocessed.smi:3237|AV-procd|sdf|12371|dock2
  -GOLD-   2272018233D 1   1.00000     0.00000
 Structure written by MMmdl.
 36 38  0  0  0  0  0  0  0  0  3 V2000
  151.9937  145.6827  160.0693 C   0  0  0  0  0  0  0  0  0  0  0  0
  151.7849  144.5380  159.1382 C   0  0  0  0  0  0  0  0  0  0  0  0
  151.0500  144.3913  157.9956 C   0  0  0  0  0  0  0  0  0  0  0  0
  151.3032  143.0446  157.6215 C   0  0  0  0  0  0  0  0  0  0  0  0
  150.7071  142.4936  156.4565 N   0  0  0  0  0  0  0  0  0  0  0  0
  150.7881  141.2373  155.9817 C   0  0  0  0  0  0  0  0  0  0  0  0
  151.4455  140.3814  156.5855 O   0  0  0  0  0  0  0  0  0  0  0  0
  150.0874  141.0783  154.8250 N   0  5  0  0  0  0  0  0  0  0  0  0
  149.5424  139.8065  154.3479 C   0  0  2  0  0  0  0  0  0  0  0  0
  148.5751  139.1772  155.3536 C   0  0  0  0  0  0  0  0  0  0  0  0
  148.6686  137.6693  155.0796 C   0  0  0  0  0  0  0  0  0  0  0  0
  149.8970  137.4573  154.2779 N   0  3  2  0  0  0  0  0  0  0  0  0
  150.7180  136.3059  154.7109 C   0  0  0  0  0  0  0  0  0  0  0  0
  149.9057  135.0818  155.0599 C   0  0  0  0  0  0  0  0  0  0  0  0
  150.5127  135.9284  156.1582 C   0  0  0  0  0  0  0  0  0  0  0  0
  150.6285  138.7388  154.2370 C   0  0  0  0  0  0  0  0  0  0  0  0
  152.1220  142.4266  158.4600 N   0  0  0  0  0  0  0  0  0  0  0  0
  152.4347  143.3804  159.4360 O   0  0  0  0  0  0  0  0  0  0  0  0
  151.2571  146.4667  159.8933 H   0  0  0  0  0  0  0  0  0  0  0  0
  152.9856  146.1133  159.9334 H   0  0  0  0  0  0  0  0  0  0  0  0
  151.9025  145.3604  161.1066 H   0  0  0  0  0  0  0  0  0  0  0  0
  150.4307  145.1292  157.5078 H   0  0  0  0  0  0  0  0  0  0  0  0
  150.1457  143.1314  155.9121 H   0  0  0  0  0  0  0  0  0  0  0  0
  149.0442  139.8943  153.3808 H   0  0  0  0  0  0  0  0  0  0  0  0
  148.9011  139.3768  156.3763 H   0  0  0  0  0  0  0  0  0  0  0  0
  147.5587  139.5596  155.2507 H   0  0  0  0  0  0  0  0  0  0  0  0
  148.6926  137.1116  156.0174 H   0  0  0  0  0  0  0  0  0  0  0  0
  147.8092  137.3133  154.5089 H   0  0  0  0  0  0  0  0  0  0  0  0
  151.6975  136.2060  154.2462 H   0  0  0  0  0  0  0  0  0  0  0  0
  148.8258  135.1256  154.9292 H   0  0  0  0  0  0  0  0  0  0  0  0
  150.3570  134.1096  154.8719 H   0  0  0  0  0  0  0  0  0  0  0  0
  151.3635  135.5132  156.6943 H   0  0  0  0  0  0  0  0  0  0  0  0
  149.8364  136.5358  156.7572 H   0  0  0  0  0  0  0  0  0  0  0  0
  151.2185  138.8335  153.3251 H   0  0  0  0  0  0  0  0  0  0  0  0
  151.3098  138.7951  155.0889 H   0  0  0  0  0  0  0  0  0  0  0  0
  149.5891  137.2801  153.3327 H   0  0  0  0  0  0  0  0  0  0  0  0
  1  2  1  0  0  0  0
  1 19  1  0  0  0  0
  1 20  1  0  0  0  0
  1 21  1  0  0  0  0
  2 18  1  0  0  0  0
  2  3  2  0  0  0  0
  3  4  1  0  0  0  0
  3 22  1  0  0  0  0
  4  5  1  0  0  0  0
  4 17  2  0  0  0  0
  5  6  1  0  0  0  0
  5 23  1  0  0  0  0
  6  7  2  0  0  0  0
  6  8  1  0  0  0  0
  8  9  1  0  0  0  0
  9 16  1  0  0  0  0
  9 10  1  0  0  0  0
  9 24  1  0  0  0  0
 10 11  1  0  0  0  0
 10 25  1  0  0  0  0
 10 26  1  0  0  0  0
 11 12  1  0  0  0  0
 11 27  1  0  0  0  0
 11 28  1  0  0  0  0
 12 13  1  0  0  0  0
 12 16  1  0  0  0  0
 12 36  1  0  0  0  0
 13 15  1  0  0  0  0
 13 14  1  0  0  0  0
 13 29  1  0  0  0  0
 14 15  1  0  0  0  0
 14 30  1  0  0  0  0
 14 31  1  0  0  0  0
 15 32  1  0  0  0  0
 15 33  1  0  0  0  0
 16 34  1  0  0  0  0
 16 35  1  0  0  0  0
 17 18  1  0  0  0  0
M  CHG  1   8  -1
M  CHG  1  12   1
M  END
> <s_m_source_file>
AV-unprocessed.smi

> <i_m_source_file_index>
3237

> <i_lp_mmshare_version>
43012

> <i_f3d_flags>
0

> <s_epik_input>
W0NIM11jMVtjSF1jKG5vMSlbTkhdQyg9TylbTkhdW0NAQEhdMltDSDJdW0NIMl1OKFtDSDJdMilbQ0hdM1tDSDJdW0NIMl0z

> <s_epik_cmdline>
J2VwaWtfcHl0aG9uJywgJy1waCcsICc3LjAnLCAnLXRuJywgJzgnLCAnLW1hJywgJzIwMCcsICctbWV0YWxfYmluZGluZycsICctaW1hZScsICc8aW5maWxlLm1hZT4nLCAnLW9tYWUnLCAnPG91dGZpbGUubWFlPic=

> <r_epik_Ionization_Penalty>
6.76456

> <r_epik_Ionization_Penalty_Charging>
6.76456

> <r_epik_Ionization_Penalty_Neutral>
5.76722e-06

> <r_epik_State_Penalty>
6.78919

> <r_epik_Charging_Adjusted_Penalty>
13.5538

> <i_epik_Tot_Q>
0

> <i_epik_Tot_abs_Q>
2

> <r_epik_Metal_State_Penalty>
2.728

> <b_epik_Metal_Only>
1

> <s_lp_Force_Field>
OPLS_2005

> <r_lp_Energy>
30.701

> <b_lp_Chiralities_Consistent>
1

> <s_lp_Variant>
AV-unprocessed.smi:3237-9

> <Gold.Version>
5.8.1

> <Gold.Id.Protein>
6NUR|6NUR_protein|mol2

> <Gold.PLP.Fitness>
43.4587

> <Gold.PLP.PLP>
-33.8322

> <Gold.PLP.part.hbond>
-3.0000

> <Gold.PLP.part.metal>
0.0000

> <Gold.PLP.part.buried>
-4.3314

> <Gold.PLP.part.nonpolar>
-26.1411

> <Gold.PLP.part.repulsive>
0.2336

> <Gold.PLP.ligand.clash>
0.0000

> <Gold.PLP.ligand.torsion>
0.7973

> <Gold.PLP.Chemscore.Hbond>
3.3085

> <Gold.PLP.Chemscore.CHOScore>
0.0000

> <Gold.PLP.Chemscore.Metal>
0.0000

> <Gold.Chemscore.Hbonds>
donor molecule, donor type, donor heavy atom, donor atom, acceptor molecule, acceptor atom, score
      L1  H     5    23       P1  8028  0.98
      L1  H    12    36       P1  7948  2.00
      P1  H  7989  7998       L1     8  0.32

> <Gold.PLP.Chemscore.Internal.Correction>
1.2959

> <Gold.Rescore>
     Score         DG    S(hbond)    S(metal)    S(lipo)     H(rot)  DE(clash)    DE(int)     intcor
     13.69     -17.06       1.90        0.00      72.04       1.25       0.12       3.24       ----

> <Gold.Chemscore.Fitness>
13.6912

> <Gold.Chemscore.DG>
-17.0556

> <Gold.Chemscore.ZeroCoef>
-5.4800

> <Gold.Chemscore.Hbond>
1.8974

> <Gold.Chemscore.Metal>
0.0000

> <Gold.Chemscore.Lipo>
72.0434

> <Gold.Chemscore.Internal_Hbond>
0.0000

> <Gold.Chemscore.DEClash>
0.1236

> <Gold.Chemscore.DEInternal>
3.2408

> <Gold.Chemscore.Rot>
1.2464

> <Gold.Chemscore.Internal.Correction>
   9.000000E+99

> <Gold.Chemscore.Hbonds>
donor molecule, donor type, donor heavy atom, donor atom, acceptor molecule, acceptor atom, score
      L1  H     5    23       P1  8028  0.90
      L1  H    12    36       P1  7948  0.81

> <Gold.Chemscore.Hbond.Weighted>
-6.3374

> <Gold.Chemscore.Metal.Weighted>
-0.0000

> <Gold.Chemscore.Lipo.Weighted>
-8.4291

> <Gold.Chemscore.Internal_Hbond.Weighted>
0.0000

> <Gold.Chemscore.DEClash.Weighted>
0.1236

> <Gold.Chemscore.DEInternal.Weighted>
3.2408

> <Gold.Chemscore.Rot.Weighted>
3.1909

> <Gold.Chemscore.Internal.Correction.Weighted>
   9.000000E+99

> <Gold.Protein.RotatedTorsions>
[ 6907 6896 6895 6894 ] final   -7.81 input  -60.11 | X-H torsion
[ 7974 7965 7964 7962 ] final  146.23 input  175.53 | X-H torsion
[ 8008 7997 7996 7995 ] final  153.95 input   59.86 | X-H torsion
[ 10167 10162 10161 10158 ] final -119.92 input  -65.29 | X-H torsion
[ 10718 10713 10712 10709 ] final -111.32 input   66.30 | X-H torsion
[ 10763 10752 10751 10750 ] final  -57.80 input  -60.55 | X-H torsion
[ 11005 11000 10999 10996 ] final   10.25 input  -57.11 | X-H torsion

> <Gold.Protein.ActiveResidues>
 VAL166  LYS551  ARG553  GLY616  TRP617  ASP618  TYR619  PRO620  LYS621  CYS622 
 ASP623  PHE694  ASN695  SER759  ASP760  ASP761  ALA762  ILE779  LEU786  VAL792 
 PHE793  MET794  SER795  GLU796  ALA797  LYS798  CYS799  TRP800  GLU811  SER814 

> <Gold.Protein.RotatedAtoms>
  151.4437  135.1023  159.9677 H   0  0  0  0  0  0  0  0  0  0  0  0  # atno 6907 bound_to 6896
  152.4913  133.8504  159.7209 H   0  0  0  0  0  0  0  0  0  0  0  0  # atno 6908 bound_to 6896
  150.9070  133.6986  159.2892 H   0  0  0  0  0  0  0  0  0  0  0  0  # atno 6909 bound_to 6896
  144.8688  139.5880  143.5897 H   0  0  0  0  0  0  0  0  0  0  0  0  # atno 7974 bound_to 7965
  156.2556  140.1980  156.6570 H   0  0  0  0  0  0  0  0  0  0  0  0  # atno 8008 bound_to 7997
  154.6493  140.0574  156.9962 H   0  0  0  0  0  0  0  0  0  0  0  0  # atno 8009 bound_to 7997
  155.1442  140.3245  155.4448 H   0  0  0  0  0  0  0  0  0  0  0  0  # atno 8010 bound_to 7997
  140.0415  143.5149  152.2128 H   0  0  0  0  0  0  0  0  0  0  0  0  # atno 10167 bound_to 10162
  156.0640  130.5861  150.8357 H   0  0  0  0  0  0  0  0  0  0  0  0  # atno 10718 bound_to 10713
  154.2281  135.6365  153.5166 H   0  0  0  0  0  0  0  0  0  0  0  0  # atno 10763 bound_to 10752
  152.9954  135.5513  154.6042 H   0  0  0  0  0  0  0  0  0  0  0  0  # atno 10764 bound_to 10752
  154.5518  135.2902  155.0975 H   0  0  0  0  0  0  0  0  0  0  0  0  # atno 10765 bound_to 10752
  140.5165  134.0600  155.7833 H   0  0  0  0  0  0  0  0  0  0  0  0  # atno 11005 bound_to 11000
  146.2915  139.7153  142.9157 LP  0  0  0  0  0  0  0  0  0  0  0  0  # atno 17320 bound_to 7965
  145.4171  141.0402  143.2985 LP  0  0  0  0  0  0  0  0  0  0  0  0  # atno 17321 bound_to 7965
  139.6011  144.7582  151.3170 LP  0  0  0  0  0  0  0  0  0  0  0  0  # atno 17342 bound_to 10162
  140.7258  143.7008  150.7847 LP  0  0  0  0  0  0  0  0  0  0  0  0  # atno 17343 bound_to 10162
  157.5669  131.0946  150.9475 LP  0  0  0  0  0  0  0  0  0  0  0  0  # atno 17370 bound_to 10713
  156.9700  130.5487  149.5290 LP  0  0  0  0  0  0  0  0  0  0  0  0  # atno 17371 bound_to 10713
  141.1357  133.9225  157.2439 LP  0  0  0  0  0  0  0  0  0  0  0  0  # atno 17394 bound_to 11000
  139.9629  135.0149  156.9310 LP  0  0  0  0  0  0  0  0  0  0  0  0  # atno 17395 bound_to 11000

$$$$
