AV-unprocessed.smi:130|AV-procd|sdf|1160|dock1
  -GOLD-   2262018293D 1   1.00000     0.00000
 Structure written by MMmdl.
 44 47  0  0  0  0  0  0  0  0  1 V2000
  151.2969  138.9796  159.0718 O   0  0  0  0  0  0  0  0  0  0  0  0
  150.6248  139.3427  158.1057 C   0  0  0  0  0  0  0  0  0  0  0  0
  149.7744  138.2946  157.3541 C   0  0  0  0  0  0  0  0  0  0  0  0
  148.6058  137.8130  158.1247 N   0  0  0  0  0  0  0  0  0  0  0  0
  147.3049  138.1043  157.6435 C   0  0  0  0  0  0  0  0  0  0  0  0
  147.1367  138.7314  156.5966 O   0  0  0  0  0  0  0  0  0  0  0  0
  146.2045  137.6246  158.4721 C   0  0  0  0  0  0  0  0  0  0  0  0
  144.9361  137.8615  158.0965 F   0  0  0  0  0  0  0  0  0  0  0  0
  146.4391  136.9489  159.6158 C   0  0  0  0  0  0  0  0  0  0  0  0
  147.7145  136.6678  160.0711 N   0  0  0  0  0  0  0  0  0  0  0  0
  147.9428  135.9176  161.3649 C   0  0  1  0  0  0  0  0  0  0  0  0
  147.2411  136.6332  162.5249 C   0  0  0  0  0  0  0  0  0  0  0  0
  145.9160  135.9050  162.5834 C   0  0  0  0  0  0  0  0  0  0  0  0
  146.3291  134.4871  162.2053 C   0  0  0  0  0  0  0  0  0  0  0  0
  147.3835  134.6399  161.2586 O   0  0  0  0  0  0  0  0  0  0  0  0
  148.8330  137.1123  159.3336 C   0  0  0  0  0  0  0  0  0  0  0  0
  149.9781  136.9041  159.7406 O   0  0  0  0  0  0  0  0  0  0  0  0
  150.5891  140.6244  157.6633 N   0  0  0  0  0  0  0  0  0  0  0  0
  149.7847  141.0643  156.5099 C   0  0  0  0  0  0  0  0  0  0  0  0
  150.0309  142.5819  156.3615 C   0  0  0  0  0  0  0  0  0  0  0  0
  150.9846  142.8817  157.4797 C   0  0  0  0  0  0  0  0  0  0  0  0
  151.5364  144.1342  157.8002 C   0  0  0  0  0  0  0  0  0  0  0  0
  152.4216  144.2129  158.8959 C   0  0  0  0  0  0  0  0  0  0  0  0
  152.7376  143.0551  159.6431 C   0  0  0  0  0  0  0  0  0  0  0  0
  152.1738  141.8046  159.3071 C   0  0  0  0  0  0  0  0  0  0  0  0
  151.2870  141.7352  158.2085 C   0  0  0  0  0  0  0  0  0  0  0  0
  149.4559  138.7191  156.4013 H   0  0  0  0  0  0  0  0  0  0  0  0
  150.4092  137.4529  157.0742 H   0  0  0  0  0  0  0  0  0  0  0  0
  145.5855  136.6257  160.1924 H   0  0  0  0  0  0  0  0  0  0  0  0
  149.0245  135.8357  161.4825 H   0  0  0  0  0  0  0  0  0  0  0  0
  147.8132  136.4598  163.4372 H   0  0  0  0  0  0  0  0  0  0  0  0
  147.1528  137.7080  162.3616 H   0  0  0  0  0  0  0  0  0  0  0  0
  145.4366  135.9634  163.5609 H   0  0  0  0  0  0  0  0  0  0  0  0
  145.2291  136.3109  161.8398 H   0  0  0  0  0  0  0  0  0  0  0  0
  146.7173  133.9603  163.0779 H   0  0  0  0  0  0  0  0  0  0  0  0
  145.5045  133.9036  161.7950 H   0  0  0  0  0  0  0  0  0  0  0  0
  150.0904  140.5419  155.6027 H   0  0  0  0  0  0  0  0  0  0  0  0
  148.7254  140.8670  156.6792 H   0  0  0  0  0  0  0  0  0  0  0  0
  150.4822  142.8279  155.3998 H   0  0  0  0  0  0  0  0  0  0  0  0
  149.1119  143.1571  156.4780 H   0  0  0  0  0  0  0  0  0  0  0  0
  151.2899  145.0135  157.2234 H   0  0  0  0  0  0  0  0  0  0  0  0
  152.8602  145.1625  159.1651 H   0  0  0  0  0  0  0  0  0  0  0  0
  153.4167  143.1272  160.4796 H   0  0  0  0  0  0  0  0  0  0  0  0
  152.4351  140.9399  159.8960 H   0  0  0  0  0  0  0  0  0  0  0  0
  1  2  2  0  0  0  0
  2  3  1  0  0  0  0
  2 18  1  0  0  0  0
  3  4  1  0  0  0  0
  3 27  1  0  0  0  0
  3 28  1  0  0  0  0
  4 16  1  0  0  0  0
  4  5  1  0  0  0  0
  5  6  2  0  0  0  0
  5  7  1  0  0  0  0
  7  8  1  0  0  0  0
  7  9  2  0  0  0  0
  9 10  1  0  0  0  0
  9 29  1  0  0  0  0
 10 11  1  0  0  0  0
 10 16  1  0  0  0  0
 11 15  1  0  0  0  0
 11 12  1  0  0  0  0
 11 30  1  0  0  0  0
 12 13  1  0  0  0  0
 12 31  1  0  0  0  0
 12 32  1  0  0  0  0
 13 14  1  0  0  0  0
 13 33  1  0  0  0  0
 13 34  1  0  0  0  0
 14 15  1  0  0  0  0
 14 35  1  0  0  0  0
 14 36  1  0  0  0  0
 16 17  2  0  0  0  0
 18 26  1  0  0  0  0
 18 19  1  0  0  0  0
 19 20  1  0  0  0  0
 19 37  1  0  0  0  0
 19 38  1  0  0  0  0
 20 21  1  0  0  0  0
 20 39  1  0  0  0  0
 20 40  1  0  0  0  0
 21 26  2  0  0  0  0
 21 22  1  0  0  0  0
 22 23  2  0  0  0  0
 22 41  1  0  0  0  0
 23 24  1  0  0  0  0
 23 42  1  0  0  0  0
 24 25  2  0  0  0  0
 24 43  1  0  0  0  0
 25 26  1  0  0  0  0
 25 44  1  0  0  0  0
M  END
> <s_m_source_file>
AV-unprocessed.smi

> <i_m_source_file_index>
130

> <i_lp_mmshare_version>
43012

> <i_f3d_flags>
0

> <s_epik_input>
W2NIXTFbY0hdW2NIXVtjSF1jKGMxMilOKFtDSDJdW0NIMl0yKUMoPU8pW0NIMl1uM2MoPU8pYyhGKVtjSF1uKGMzPU8pW0NAQEhdNFtDSDJdW0NIMl1bQ0gyXU80

> <s_epik_cmdline>
J2VwaWtfcHl0aG9uJywgJy1waCcsICc3LjAnLCAnLXRuJywgJzgnLCAnLW1hJywgJzIwMCcsICctbWV0YWxfYmluZGluZycsICctaW1hZScsICc8aW5maWxlLm1hZT4nLCAnLW9tYWUnLCAnPG91dGZpbGUubWFlPic=

> <r_lp_tautomer_probability>
1

> <r_epik_Ionization_Penalty>
1.67926e-06

> <r_epik_Ionization_Penalty_Charging>
3.62822e-09

> <r_epik_Ionization_Penalty_Neutral>
1.67563e-06

> <r_epik_State_Penalty>
-0

> <r_epik_Charging_Adjusted_Penalty>
3.62822e-09

> <i_epik_Tot_Q>
0

> <i_epik_Tot_abs_Q>
0

> <r_epik_Metal_State_Penalty>
-0

> <b_epik_Metal_Only>
0

> <s_epik_Chemistry_Notes>
This compound contains an acetal/aminal-like group ( X-CH(R)-Y where X, Y are N, S, or O) that may be acid/base labile, releasing an aldehyde.

> <s_lp_Force_Field>
OPLS_2005

> <r_lp_Energy>
53.4438

> <b_lp_Chiralities_Consistent>
1

> <s_lp_Variant>
AV-unprocessed.smi:130-2

> <Gold.Version>
5.8.1

> <Gold.Id.Protein>
6NUR|6NUR_protein|mol2

> <Gold.PLP.Fitness>
47.5739

> <Gold.PLP.PLP>
-44.8393

> <Gold.PLP.part.hbond>
-1.7485

> <Gold.PLP.part.metal>
0.0000

> <Gold.PLP.part.buried>
-3.9212

> <Gold.PLP.part.nonpolar>
-40.2421

> <Gold.PLP.part.repulsive>
0.0000

> <Gold.PLP.ligand.clash>
0.0000

> <Gold.PLP.ligand.torsion>
0.1379

> <Gold.PLP.Chemscore.Hbond>
1.0000

> <Gold.PLP.Chemscore.CHOScore>
0.0000

> <Gold.PLP.Chemscore.Metal>
0.0000

> <Gold.Chemscore.Hbonds>
donor molecule, donor type, donor heavy atom, donor atom, acceptor molecule, acceptor atom, score
      P1  H  6896  6908       L1    17  0.67

> <Gold.PLP.Chemscore.Internal.Correction>
0.0103

> <Gold.Rescore>
     Score         DG    S(hbond)    S(metal)    S(lipo)     H(rot)  DE(clash)    DE(int)     intcor
     14.57     -17.66       0.98        0.00     110.39       1.57       0.21       2.89       ----

> <Gold.Chemscore.Fitness>
14.5656

> <Gold.Chemscore.DG>
-17.6619

> <Gold.Chemscore.ZeroCoef>
-5.4800

> <Gold.Chemscore.Hbond>
0.9841

> <Gold.Chemscore.Metal>
0.0000

> <Gold.Chemscore.Lipo>
110.3874

> <Gold.Chemscore.Internal_Hbond>
0.0000

> <Gold.Chemscore.DEClash>
0.2061

> <Gold.Chemscore.DEInternal>
2.8901

> <Gold.Chemscore.Rot>
1.5704

> <Gold.Chemscore.Internal.Correction>
   9.000000E+99

> <Gold.Chemscore.Hbonds>
donor molecule, donor type, donor heavy atom, donor atom, acceptor molecule, acceptor atom, score
      P1  H  6896  6908       L1    17  0.67

> <Gold.Chemscore.Hbond.Weighted>
-3.2869

> <Gold.Chemscore.Metal.Weighted>
-0.0000

> <Gold.Chemscore.Lipo.Weighted>
-12.9153

> <Gold.Chemscore.Internal_Hbond.Weighted>
0.0000

> <Gold.Chemscore.DEClash.Weighted>
0.2061

> <Gold.Chemscore.DEInternal.Weighted>
2.8901

> <Gold.Chemscore.Rot.Weighted>
4.0203

> <Gold.Chemscore.Internal.Correction.Weighted>
   9.000000E+99

> <Gold.Protein.RotatedTorsions>
[ 6907 6896 6895 6894 ] final -142.97 input  -60.11 | X-H torsion
[ 7974 7965 7964 7962 ] final -137.38 input  175.53 | X-H torsion
[ 8008 7997 7996 7995 ] final   88.41 input   59.86 | X-H torsion
[ 10167 10162 10161 10158 ] final   37.29 input  -65.29 | X-H torsion
[ 10718 10713 10712 10709 ] final -129.24 input   66.30 | X-H torsion
[ 10763 10752 10751 10750 ] final  -76.81 input  -60.55 | X-H torsion
[ 11005 11000 10999 10996 ] final  -15.94 input  -57.11 | X-H torsion

> <Gold.Protein.ActiveResidues>
 VAL166  LYS551  ARG553  GLY616  TRP617  ASP618  TYR619  PRO620  LYS621  CYS622 
 ASP623  PHE694  ASN695  SER759  ASP760  ASP761  ALA762  ILE779  LEU786  VAL792 
 PHE793  MET794  SER795  GLU796  ALA797  LYS798  CYS799  TRP800  GLU811  SER814 

> <Gold.Protein.RotatedAtoms>
  151.0942  133.5292  159.2613 H   0  0  0  0  0  0  0  0  0  0  0  0  # atno 6907 bound_to 6896
  151.2148  135.0495  159.8936 H   0  0  0  0  0  0  0  0  0  0  0  0  # atno 6908 bound_to 6896
  152.5437  134.0753  159.8265 H   0  0  0  0  0  0  0  0  0  0  0  0  # atno 6909 bound_to 6896
  144.8847  140.6557  143.5184 H   0  0  0  0  0  0  0  0  0  0  0  0  # atno 7974 bound_to 7965
  155.9874  140.3372  155.6721 H   0  0  0  0  0  0  0  0  0  0  0  0  # atno 8008 bound_to 7997
  155.6466  140.0701  157.2619 H   0  0  0  0  0  0  0  0  0  0  0  0  # atno 8009 bound_to 7997
  154.4209  140.1733  156.1617 H   0  0  0  0  0  0  0  0  0  0  0  0  # atno 8010 bound_to 7997
  140.4046  144.1676  150.6135 H   0  0  0  0  0  0  0  0  0  0  0  0  # atno 10167 bound_to 10162
  156.2028  130.6868  151.0559 H   0  0  0  0  0  0  0  0  0  0  0  0  # atno 10718 bound_to 10713
  154.5047  135.5785  153.6558 H   0  0  0  0  0  0  0  0  0  0  0  0  # atno 10763 bound_to 10752
  152.9885  135.6144  154.2957 H   0  0  0  0  0  0  0  0  0  0  0  0  # atno 10764 bound_to 10752
  154.2867  135.2849  155.2652 H   0  0  0  0  0  0  0  0  0  0  0  0  # atno 10765 bound_to 10752
  140.8018  133.8208  155.9477 H   0  0  0  0  0  0  0  0  0  0  0  0  # atno 11005 bound_to 11000
  145.3891  139.1620  143.4239 LP  0  0  0  0  0  0  0  0  0  0  0  0  # atno 17320 bound_to 7965
  146.3016  140.3979  142.8702 LP  0  0  0  0  0  0  0  0  0  0  0  0  # atno 17321 bound_to 7965
  140.4703  143.2415  151.9098 LP  0  0  0  0  0  0  0  0  0  0  0  0  # atno 17342 bound_to 10162
  139.4784  144.5376  151.8575 LP  0  0  0  0  0  0  0  0  0  0  0  0  # atno 17343 bound_to 10162
  157.6995  131.0781  150.6864 LP  0  0  0  0  0  0  0  0  0  0  0  0  # atno 17370 bound_to 10713
  156.6922  130.4598  149.5596 LP  0  0  0  0  0  0  0  0  0  0  0  0  # atno 17371 bound_to 10713
  140.9287  134.2049  157.4878 LP  0  0  0  0  0  0  0  0  0  0  0  0  # atno 17394 bound_to 11000
  139.8721  134.9823  156.5153 LP  0  0  0  0  0  0  0  0  0  0  0  0  # atno 17395 bound_to 11000

$$$$
