#       Name:                AV-unprocessed.smi:476
#       Creating user name   scv26
#       Creation time:       Thu Mar 26 23:08:28 2020


#       File generated by GOLD software.
#

@<TRIPOS>MOLECULE
AV-unprocessed.smi:476
    43    44     1
SMALL
NO_CHARGES


@<TRIPOS>ATOM
      1 ****        -2.3411   2.1983   3.8193 C.3            1 S1                 0.0000
      2 ****        -2.5289   2.4775   2.3385 C.2            1 S1                 0.0000
      3 ****        -3.0922   3.5733   1.8188 C.2            1 S1                 0.0000
      4 ****        -3.0964   3.5677   0.0720 S.3            1 S1                 0.0000
      5 ****        -2.2719   1.9677   0.0669 C.2            1 S1                 0.0000
      6 ****        -1.9676   1.3773  -0.9683 O.2            1 S1                 0.0000
      7 ****        -2.0665   1.5599   1.3849 N.am           1 S1                 0.0000
      8 ****        -1.4316   0.2798   1.7247 C.3            1 S1                 0.0000
      9 ****         0.0996   0.3451   1.6736 C.2            1 S1                 0.0000
     10 ****         0.6936   1.4066   1.8674 O.2            1 S1                 0.0000
     11 ****         0.7273  -0.8119   1.4160 N.am           1 S1                 0.0000
     12 ****         2.1704  -0.9707   1.2628 C.3            1 S1                 0.0000
     13 ****         2.6935  -0.3996  -0.0716 C.3            1 S1                 0.0000
     14 ****         1.8862  -0.8365  -1.2857 C.2            1 S1                 0.0000
     15 ****         1.1690   0.0386  -2.0177 C.2            1 S1                 0.0000
     16 ****         0.3197  -0.3469  -3.2155 C.3            1 S1                 0.0000
     17 ****         0.0734  -1.8626  -3.2925 C.3            1 S1                 0.0000
     18 ****         1.3607  -2.6471  -3.0092 C.3            1 S1                 0.0000
     19 ****         1.9186  -2.3253  -1.6111 C.3            1 S1                 0.0000
     20 ****        -2.4734   3.1130   4.3978 H              1 S1                 0.0000
     21 ****        -1.3410   1.8198   4.0310 H              1 S1                 0.0000
     22 ****        -3.0752   1.4700   4.1642 H              1 S1                 0.0000
     23 ****        -3.5022   4.4060   2.3712 H              1 S1                 0.0000
     24 ****        -1.7426  -0.0777   2.7056 H              1 S1                 0.0000
     25 ****        -1.7764  -0.4800   1.0206 H              1 S1                 0.0000
     26 ****         0.1619  -1.6373   1.2782 H              1 S1                 0.0000
     27 ****         2.6903  -0.5077   2.1028 H              1 S1                 0.0000
     28 ****         2.3921  -2.0367   1.3174 H              1 S1                 0.0000
     29 ****         2.6929   0.6899  -0.0182 H              1 S1                 0.0000
     30 ****         3.7342  -0.6905  -0.2164 H              1 S1                 0.0000
     31 ****         1.1773   1.0882  -1.7615 H              1 S1                 0.0000
     32 ****        -0.6330   0.1806  -3.1660 H              1 S1                 0.0000
     33 ****         0.8284  -0.0002  -4.1154 H              1 S1                 0.0000
     34 ****        -0.6860  -2.1452  -2.5622 H              1 S1                 0.0000
     35 ****        -0.3262  -2.1261  -4.2721 H              1 S1                 0.0000
     36 ****         1.1803  -3.7187  -3.0997 H              1 S1                 0.0000
     37 ****         2.1061  -2.3949  -3.7646 H              1 S1                 0.0000
     38 ****         2.9417  -2.6941  -1.5332 H              1 S1                 0.0000
     39 ****         1.3354  -2.8499  -0.8536 H              1 S1                 0.0000
     40 ****        -2.1778   1.7852  -1.8568 LP             1 S1                 0.0000
     41 ****        -1.5100   0.4894  -0.9214 LP             1 S1                 0.0000
     42 ****         0.1769   2.2406   2.0611 LP             1 S1                 0.0000
     43 ****         1.6925   1.4344   1.8310 LP             1 S1                 0.0000
@<TRIPOS>BOND
    1    1    2 1     
    2    1   20 1     
    3    1   21 1     
    4    1   22 1     
    5    2    7 1     
    6    2    3 2     
    7    3    4 1     
    8    3   23 1     
    9    4    5 1     
   10    5    6 2     
   11    5    7 am    
   12    7    8 1     
   13    8    9 1     
   14    8   24 1     
   15    8   25 1     
   16    9   10 2     
   17    9   11 am    
   18   11   12 1     
   19   11   26 1     
   20   12   13 1     
   21   12   27 1     
   22   12   28 1     
   23   13   14 1     
   24   13   29 1     
   25   13   30 1     
   26   14   19 1     
   27   14   15 2     
   28   15   16 1     
   29   15   31 1     
   30   16   17 1     
   31   16   32 1     
   32   16   33 1     
   33   17   18 1     
   34   17   34 1     
   35   17   35 1     
   36   18   19 1     
   37   18   36 1     
   38   18   37 1     
   39   19   38 1     
   40   19   39 1     
   41    6   40 1     
   42    6   41 1     
   43   10   42 1     
   44   10   43 1     
@<TRIPOS>SUBSTRUCTURE
      1 S1             1
@<TRIPOS>SET
LONE_PAIRS      STATIC     ATOMS    <user>   **** ""
4 40 41 42 43
DONOR_HYDROGENS      STATIC     ATOMS    <user>   **** ""
1 26
ATOM$BLUE        STATIC     ATOMS    COLORGROUP SYSTEM
4 40 41 42 43
ATOM$RED        STATIC     ATOMS    COLORGROUP SYSTEM
1 26
