AV-unprocessed.smi:1066|AV-procd|sdf|4668|dock8
  -GOLD-   22720 3183D 1   1.00000     0.00000
 Structure written by MMmdl.
 38 40  0  0  0  0  0  0  0  0  2 V2000
  155.9977  137.0416  157.7434 C   0  0  0  0  0  0  0  0  0  0  0  0
  154.5051  136.9532  157.8833 C   0  0  0  0  0  0  0  0  0  0  0  0
  153.8111  136.2155  157.0266 N   0  0  0  0  0  0  0  0  0  0  0  0
  152.4685  136.3293  157.4051 O   0  0  0  0  0  0  0  0  0  0  0  0
  152.4297  137.1400  158.4871 C   0  0  0  0  0  0  0  0  0  0  0  0
  150.9573  137.5592  159.2702 Cl  0  0  0  0  0  0  0  0  0  0  0  0
  153.6695  137.5782  158.8548 C   0  0  0  0  0  0  0  0  0  0  0  0
  154.0712  138.4896  159.9865 C   0  0  0  0  0  0  0  0  0  0  0  0
  153.6391  139.9217  159.6721 C   0  0  0  0  0  0  0  0  0  0  0  0
  153.2133  140.2069  158.5534 O   0  0  0  0  0  0  0  0  0  0  0  0
  153.7482  140.8120  160.6698 N   0  0  0  0  0  0  0  0  0  0  0  0
  153.3586  142.2136  160.5824 C   0  0  2  0  0  0  0  0  0  0  0  0
  153.0272  142.8640  161.9214 C   0  0  0  0  0  0  0  0  0  0  0  0
  152.1699  144.0664  161.5070 C   0  0  0  0  0  0  0  0  0  0  0  0
  151.5288  143.7129  160.2151 N   0  3  1  0  0  0  0  0  0  0  0  0
  151.6822  144.7545  159.1758 C   0  0  0  0  0  0  0  0  0  0  0  0
  151.5361  144.2298  157.7675 C   0  0  0  0  0  0  0  0  0  0  0  0
  152.9068  144.5694  158.3120 C   0  0  0  0  0  0  0  0  0  0  0  0
  152.0552  142.3923  159.8066 C   0  0  0  0  0  0  0  0  0  0  0  0
  156.3555  138.0432  157.9824 H   0  0  0  0  0  0  0  0  0  0  0  0
  156.3213  136.8115  156.7277 H   0  0  0  0  0  0  0  0  0  0  0  0
  156.4932  136.3427  158.4171 H   0  0  0  0  0  0  0  0  0  0  0  0
  153.6222  138.1798  160.9309 H   0  0  0  0  0  0  0  0  0  0  0  0
  155.1500  138.4695  160.1457 H   0  0  0  0  0  0  0  0  0  0  0  0
  154.1102  140.4881  161.5555 H   0  0  0  0  0  0  0  0  0  0  0  0
  154.1444  142.7860  160.0844 H   0  0  0  0  0  0  0  0  0  0  0  0
  152.4396  142.1827  162.5390 H   0  0  0  0  0  0  0  0  0  0  0  0
  153.9143  143.1520  162.4866 H   0  0  0  0  0  0  0  0  0  0  0  0
  151.4205  144.3108  162.2602 H   0  0  0  0  0  0  0  0  0  0  0  0
  152.8079  144.9433  161.3848 H   0  0  0  0  0  0  0  0  0  0  0  0
  151.3356  145.7536  159.4348 H   0  0  0  0  0  0  0  0  0  0  0  0
  151.2970  143.1768  157.6308 H   0  0  0  0  0  0  0  0  0  0  0  0
  151.1148  144.9023  157.0230 H   0  0  0  0  0  0  0  0  0  0  0  0
  153.3885  145.4646  157.9237 H   0  0  0  0  0  0  0  0  0  0  0  0
  153.5771  143.7426  158.5403 H   0  0  0  0  0  0  0  0  0  0  0  0
  152.1963  142.3054  158.7279 H   0  0  0  0  0  0  0  0  0  0  0  0
  151.3282  141.6352  160.1046 H   0  0  0  0  0  0  0  0  0  0  0  0
  150.5386  143.6007  160.3794 H   0  0  0  0  0  0  0  0  0  0  0  0
  1  2  1  0  0  0  0
  1 20  1  0  0  0  0
  1 21  1  0  0  0  0
  1 22  1  0  0  0  0
  2  7  1  0  0  0  0
  2  3  2  0  0  0  0
  3  4  1  0  0  0  0
  4  5  1  0  0  0  0
  5  6  1  0  0  0  0
  5  7  2  0  0  0  0
  7  8  1  0  0  0  0
  8  9  1  0  0  0  0
  8 23  1  0  0  0  0
  8 24  1  0  0  0  0
  9 10  2  0  0  0  0
  9 11  1  0  0  0  0
 11 12  1  0  0  0  0
 11 25  1  0  0  0  0
 12 19  1  0  0  0  0
 12 13  1  0  0  0  0
 12 26  1  0  0  0  0
 13 14  1  0  0  0  0
 13 27  1  0  0  0  0
 13 28  1  0  0  0  0
 14 15  1  0  0  0  0
 14 29  1  0  0  0  0
 14 30  1  0  0  0  0
 15 16  1  0  0  0  0
 15 19  1  0  0  0  0
 15 38  1  0  0  0  0
 16 18  1  0  0  0  0
 16 17  1  0  0  0  0
 16 31  1  0  0  0  0
 17 18  1  0  0  0  0
 17 32  1  0  0  0  0
 17 33  1  0  0  0  0
 18 34  1  0  0  0  0
 18 35  1  0  0  0  0
 19 36  1  0  0  0  0
 19 37  1  0  0  0  0
M  CHG  1  15   1
M  END
> <s_m_source_file>
AV-unprocessed.smi

> <i_m_source_file_index>
1066

> <i_lp_mmshare_version>
43012

> <i_f3d_flags>
0

> <s_epik_input>
W0NIM11jMW5vYyhDbCljMVtDSDJdQyg9TylbTkhdW0NAQEhdMltDSDJdW0NIMl1OKFtDSDJdMilbQ0hdM1tDSDJdW0NIMl0z

> <s_epik_cmdline>
J2VwaWtfcHl0aG9uJywgJy1waCcsICc3LjAnLCAnLXRuJywgJzgnLCAnLW1hJywgJzIwMCcsICctbWV0YWxfYmluZGluZycsICctaW1hZScsICc8aW5maWxlLm1hZT4nLCAnLW9tYWUnLCAnPG91dGZpbGUubWFlPic=

> <r_epik_Ionization_Penalty>
0.00108138

> <r_epik_Ionization_Penalty_Charging>
0.00108128

> <r_epik_Ionization_Penalty_Neutral>
9.66632e-08

> <r_epik_State_Penalty>
0.000708577

> <r_epik_Charging_Adjusted_Penalty>
0.00178986

> <i_epik_Tot_Q>
1

> <i_epik_Tot_abs_Q>
1

> <r_epik_Metal_State_Penalty>
-0

> <b_epik_Metal_Only>
0

> <s_lp_Force_Field>
OPLS_2005

> <r_lp_Energy>
31.6954

> <b_lp_Chiralities_Consistent>
1

> <s_lp_Variant>
AV-unprocessed.smi:1066-1

> <Gold.Version>
5.8.1

> <Gold.Id.Protein>
6NUR|6NUR_protein|mol2

> <Gold.PLP.Fitness>
44.2517

> <Gold.PLP.PLP>
-39.5012

> <Gold.PLP.part.hbond>
-2.0000

> <Gold.PLP.part.metal>
0.0000

> <Gold.PLP.part.buried>
-5.5826

> <Gold.PLP.part.nonpolar>
-31.1486

> <Gold.PLP.part.repulsive>
0.1257

> <Gold.PLP.ligand.clash>
0.0000

> <Gold.PLP.ligand.torsion>
1.1510

> <Gold.PLP.Chemscore.Hbond>
1.9280

> <Gold.PLP.Chemscore.CHOScore>
0.0000

> <Gold.PLP.Chemscore.Metal>
0.0000

> <Gold.Chemscore.Hbonds>
donor molecule, donor type, donor heavy atom, donor atom, acceptor molecule, acceptor atom, score
      P1  H  7997  8008       L1    10  0.87
      P1  H 10752 10765       L1     3  1.00

> <Gold.PLP.Chemscore.Internal.Correction>
1.2685

> <Gold.Rescore>
     Score         DG    S(hbond)    S(metal)    S(lipo)     H(rot)  DE(clash)    DE(int)     intcor
     17.99     -20.60       1.84        0.00     111.13       1.57       0.03       2.58       ----

> <Gold.Chemscore.Fitness>
17.9899

> <Gold.Chemscore.DG>
-20.6008

> <Gold.Chemscore.ZeroCoef>
-5.4800

> <Gold.Chemscore.Hbond>
1.8384

> <Gold.Chemscore.Metal>
0.0000

> <Gold.Chemscore.Lipo>
111.1347

> <Gold.Chemscore.Internal_Hbond>
0.0000

> <Gold.Chemscore.DEClash>
0.0323

> <Gold.Chemscore.DEInternal>
2.5786

> <Gold.Chemscore.Rot>
1.5711

> <Gold.Chemscore.Internal.Correction>
   9.000000E+99

> <Gold.Chemscore.Hbonds>
donor molecule, donor type, donor heavy atom, donor atom, acceptor molecule, acceptor atom, score
      P1  H  7997  8008       L1    10  0.75
      P1  H 10752 10765       L1     3  0.78

> <Gold.Chemscore.Hbond.Weighted>
-6.1401

> <Gold.Chemscore.Metal.Weighted>
-0.0000

> <Gold.Chemscore.Lipo.Weighted>
-13.0028

> <Gold.Chemscore.Internal_Hbond.Weighted>
0.0000

> <Gold.Chemscore.DEClash.Weighted>
0.0323

> <Gold.Chemscore.DEInternal.Weighted>
2.5786

> <Gold.Chemscore.Rot.Weighted>
4.0221

> <Gold.Chemscore.Internal.Correction.Weighted>
   9.000000E+99

> <Gold.Protein.RotatedTorsions>
[ 6907 6896 6895 6894 ] final  172.08 input  -60.11 | X-H torsion
[ 7974 7965 7964 7962 ] final   39.94 input  175.53 | X-H torsion
[ 8008 7997 7996 7995 ] final  -83.32 input   59.86 | X-H torsion
[ 10167 10162 10161 10158 ] final  -47.92 input  -65.29 | X-H torsion
[ 10718 10713 10712 10709 ] final   93.80 input   66.30 | X-H torsion
[ 10763 10752 10751 10750 ] final  -96.85 input  -60.55 | X-H torsion
[ 11005 11000 10999 10996 ] final   -0.75 input  -57.11 | X-H torsion

> <Gold.Protein.ActiveResidues>
 VAL166  LYS551  ARG553  GLY616  TRP617  ASP618  TYR619  PRO620  LYS621  CYS622 
 ASP623  PHE694  ASN695  SER759  ASP760  ASP761  ALA762  ILE779  LEU786  VAL792 
 PHE793  MET794  SER795  GLU796  ALA797  LYS798  CYS799  TRP800  GLU811  SER814 

> <Gold.Protein.RotatedAtoms>
  151.7900  133.3358  159.3496 H   0  0  0  0  0  0  0  0  0  0  0  0  # atno 6907 bound_to 6896
  150.7395  134.5851  159.5968 H   0  0  0  0  0  0  0  0  0  0  0  0  # atno 6908 bound_to 6896
  152.3216  134.7374  160.0363 H   0  0  0  0  0  0  0  0  0  0  0  0  # atno 6909 bound_to 6896
  146.0944  139.5592  142.9455 H   0  0  0  0  0  0  0  0  0  0  0  0  # atno 7974 bound_to 7965
  154.6179  140.0620  156.9577 H   0  0  0  0  0  0  0  0  0  0  0  0  # atno 8008 bound_to 7997
  155.1866  140.3303  155.4347 H   0  0  0  0  0  0  0  0  0  0  0  0  # atno 8009 bound_to 7997
  156.2415  140.1888  156.6958 H   0  0  0  0  0  0  0  0  0  0  0  0  # atno 8010 bound_to 7997
  140.6754  143.2763  151.3996 H   0  0  0  0  0  0  0  0  0  0  0  0  # atno 10167 bound_to 10162
  157.6952  131.0491  150.4089 H   0  0  0  0  0  0  0  0  0  0  0  0  # atno 10718 bound_to 10713
  154.7276  135.5068  153.8912 H   0  0  0  0  0  0  0  0  0  0  0  0  # atno 10763 bound_to 10752
  153.0920  135.6662  153.9845 H   0  0  0  0  0  0  0  0  0  0  0  0  # atno 10764 bound_to 10752
  153.9654  135.3043  155.3410 H   0  0  0  0  0  0  0  0  0  0  0  0  # atno 10765 bound_to 10752
  140.6397  133.9501  155.8319 H   0  0  0  0  0  0  0  0  0  0  0  0  # atno 11005 bound_to 11000
  145.5976  141.0360  143.2036 LP  0  0  0  0  0  0  0  0  0  0  0  0  # atno 17320 bound_to 7965
  144.7384  139.7518  143.7320 LP  0  0  0  0  0  0  0  0  0  0  0  0  # atno 17321 bound_to 7965
  139.6044  144.1229  152.2233 LP  0  0  0  0  0  0  0  0  0  0  0  0  # atno 17342 bound_to 10162
  140.0623  144.5847  150.7254 LP  0  0  0  0  0  0  0  0  0  0  0  0  # atno 17343 bound_to 10162
  156.4475  130.4004  149.6657 LP  0  0  0  0  0  0  0  0  0  0  0  0  # atno 17370 bound_to 10713
  156.3818  130.7583  151.2576 LP  0  0  0  0  0  0  0  0  0  0  0  0  # atno 17371 bound_to 10713
  141.0616  134.0338  157.3651 LP  0  0  0  0  0  0  0  0  0  0  0  0  # atno 17394 bound_to 11000
  139.9085  135.0185  156.7590 LP  0  0  0  0  0  0  0  0  0  0  0  0  # atno 17395 bound_to 11000

$$$$
