AV-unprocessed.smi:2569|AV-procd|sdf|10105|dock3
  -GOLD-   2272014123D 1   1.00000     0.00000
 Structure written by MMmdl.
 40 42  0  0  0  0  0  0  0  0  2 V2000
  152.1414  145.0266  160.7121 C   0  0  0  0  0  0  0  0  0  0  0  0
  151.9594  143.8533  159.7641 C   0  0  0  0  0  0  0  0  0  0  0  0
  151.2536  144.0634  158.5581 C   0  0  0  0  0  0  0  0  0  0  0  0
  151.1071  142.9717  157.7104 C   0  0  0  0  0  0  0  0  0  0  0  0
  150.4793  142.8563  156.4683 N   0  3  0  0  0  0  0  0  0  0  0  0
  150.5957  141.5767  156.0172 C   0  0  0  0  0  0  0  0  0  0  0  0
  151.2910  140.8735  156.9518 N   0  0  0  0  0  0  0  0  0  0  0  0
  151.6807  139.4563  156.9593 C   0  0  0  0  0  0  0  0  0  0  0  0
  151.2711  138.7098  155.6710 C   0  0  1  0  0  0  0  0  0  0  0  0
  151.9114  139.2818  154.5485 O   0  0  0  0  0  0  0  0  0  0  0  0
  151.6080  137.2060  155.6953 C   0  0  0  0  0  0  0  0  0  0  0  0
  150.8508  136.4772  156.6991 N   0  0  0  0  0  0  0  0  0  0  0  0
  150.8715  136.8539  158.0018 N   0  0  0  0  0  0  0  0  0  0  0  0
  150.0983  136.0256  158.6431 N   0  0  0  0  0  0  0  0  0  0  0  0
  149.5528  135.0841  157.7902 N   0  0  0  0  0  0  0  0  0  0  0  0
  150.0521  135.4061  156.6042 C   0  0  0  0  0  0  0  0  0  0  0  0
  149.7711  134.6918  155.3236 C   0  0  0  0  0  0  0  0  0  0  0  0
  151.6305  141.7030  158.0274 C   0  0  0  0  0  0  0  0  0  0  0  0
  152.3276  141.4790  159.2123 C   0  0  0  0  0  0  0  0  0  0  0  0
  152.4898  142.5773  160.0865 C   0  0  0  0  0  0  0  0  0  0  0  0
  153.2491  142.3630  161.3847 C   0  0  0  0  0  0  0  0  0  0  0  0
  151.6889  145.9352  160.3141 H   0  0  0  0  0  0  0  0  0  0  0  0
  153.2005  145.2271  160.8745 H   0  0  0  0  0  0  0  0  0  0  0  0
  151.6759  144.8166  161.6754 H   0  0  0  0  0  0  0  0  0  0  0  0
  150.8477  145.0323  158.3058 H   0  0  0  0  0  0  0  0  0  0  0  0
  150.2052  141.1892  155.0872 H   0  0  0  0  0  0  0  0  0  0  0  0
  152.7536  139.3791  157.1374 H   0  0  0  0  0  0  0  0  0  0  0  0
  151.1963  139.0052  157.8259 H   0  0  0  0  0  0  0  0  0  0  0  0
  150.1974  138.8291  155.5230 H   0  0  0  0  0  0  0  0  0  0  0  0
  152.8452  139.2576  154.6913 H   0  0  0  0  0  0  0  0  0  0  0  0
  151.4073  136.7565  154.7219 H   0  0  0  0  0  0  0  0  0  0  0  0
  152.6726  137.0607  155.8868 H   0  0  0  0  0  0  0  0  0  0  0  0
  149.2237  133.7686  155.5157 H   0  0  0  0  0  0  0  0  0  0  0  0
  150.7032  134.4405  154.8172 H   0  0  0  0  0  0  0  0  0  0  0  0
  149.1706  135.3216  154.6674 H   0  0  0  0  0  0  0  0  0  0  0  0
  152.7368  140.5099  159.4567 H   0  0  0  0  0  0  0  0  0  0  0  0
  153.5786  141.3288  161.4880 H   0  0  0  0  0  0  0  0  0  0  0  0
  152.6175  142.5981  162.2417 H   0  0  0  0  0  0  0  0  0  0  0  0
  154.1338  142.9989  161.4201 H   0  0  0  0  0  0  0  0  0  0  0  0
  150.0043  143.5940  155.9638 H   0  0  0  0  0  0  0  0  0  0  0  0
  1  2  1  0  0  0  0
  1 22  1  0  0  0  0
  1 23  1  0  0  0  0
  1 24  1  0  0  0  0
  2 20  1  0  0  0  0
  2  3  2  0  0  0  0
  3  4  1  0  0  0  0
  3 25  1  0  0  0  0
  4 18  2  0  0  0  0
  4  5  1  0  0  0  0
  5  6  2  0  0  0  0
  5 40  1  0  0  0  0
  6  7  1  0  0  0  0
  6 26  1  0  0  0  0
  7  8  1  0  0  0  0
  7 18  1  0  0  0  0
  8  9  1  0  0  0  0
  8 27  1  0  0  0  0
  8 28  1  0  0  0  0
  9 10  1  0  0  0  0
  9 11  1  0  0  0  0
  9 29  1  0  0  0  0
 10 30  1  0  0  0  0
 11 12  1  0  0  0  0
 11 31  1  0  0  0  0
 11 32  1  0  0  0  0
 12 16  1  0  0  0  0
 12 13  1  0  0  0  0
 13 14  2  0  0  0  0
 14 15  1  0  0  0  0
 15 16  2  0  0  0  0
 16 17  1  0  0  0  0
 17 33  1  0  0  0  0
 17 34  1  0  0  0  0
 17 35  1  0  0  0  0
 18 19  1  0  0  0  0
 19 20  2  0  0  0  0
 19 36  1  0  0  0  0
 20 21  1  0  0  0  0
 21 37  1  0  0  0  0
 21 38  1  0  0  0  0
 21 39  1  0  0  0  0
M  CHG  1   5   1
M  END
> <s_m_source_file>
AV-unprocessed.smi

> <i_m_source_file_index>
2569

> <i_lp_mmshare_version>
43012

> <i_f3d_flags>
0

> <s_epik_input>
W0NIM11jKFtjSF0xKWMoW0NIM10pW2NIXWMoYzEyKW4oW2NIXW4yKVtDSDJdW0NASF0oW09IXSlbQ0gyXW4zbm5uYzNbQ0gzXQ==

> <s_epik_cmdline>
J2VwaWtfcHl0aG9uJywgJy1waCcsICc3LjAnLCAnLXRuJywgJzgnLCAnLW1hJywgJzIwMCcsICctbWV0YWxfYmluZGluZycsICctaW1hZScsICc8aW5maWxlLm1hZT4nLCAnLW9tYWUnLCAnPG91dGZpbGUubWFlPic=

> <r_lp_tautomer_probability>
1

> <r_epik_Ionization_Penalty>
1.13338

> <r_epik_Ionization_Penalty_Charging>
1.13335

> <r_epik_Ionization_Penalty_Neutral>
3.02334e-05

> <r_epik_State_Penalty>
1.19324

> <r_epik_Charging_Adjusted_Penalty>
2.3266

> <i_epik_Tot_Q>
1

> <i_epik_Tot_abs_Q>
1

> <r_epik_Metal_State_Penalty>
1.27602

> <b_epik_Metal_Only>
0

> <s_lp_Force_Field>
OPLS_2005

> <r_lp_Energy>
16.0623

> <b_lp_Chiralities_Consistent>
1

> <s_lp_Variant>
AV-unprocessed.smi:2569-4

> <Gold.Version>
5.8.1

> <Gold.Id.Protein>
6NUR|6NUR_protein|mol2

> <Gold.PLP.Fitness>
53.5519

> <Gold.PLP.PLP>
-41.7953

> <Gold.PLP.part.hbond>
-4.0000

> <Gold.PLP.part.metal>
0.0000

> <Gold.PLP.part.buried>
-6.0923

> <Gold.PLP.part.nonpolar>
-32.3799

> <Gold.PLP.part.repulsive>
0.0785

> <Gold.PLP.ligand.clash>
0.0000

> <Gold.PLP.ligand.torsion>
0.0565

> <Gold.PLP.Chemscore.Hbond>
3.9520

> <Gold.PLP.Chemscore.CHOScore>
0.0000

> <Gold.PLP.Chemscore.Metal>
0.0000

> <Gold.Chemscore.Hbonds>
donor molecule, donor type, donor heavy atom, donor atom, acceptor molecule, acceptor atom, score
      L1  H     5    40       P1  8028  2.00
      P1  H  6896  6908       L1    14  0.99
      P1  H  7989  7998       L1    10  0.94

> <Gold.PLP.Chemscore.Internal.Correction>
0.0135

> <Gold.Rescore>
     Score         DG    S(hbond)    S(metal)    S(lipo)     H(rot)  DE(clash)    DE(int)     intcor
     18.00     -19.37       2.59        0.00     101.43       2.59       0.07       1.31       ----

> <Gold.Chemscore.Fitness>
17.9968

> <Gold.Chemscore.DG>
-19.3739

> <Gold.Chemscore.ZeroCoef>
-5.4800

> <Gold.Chemscore.Hbond>
2.5883

> <Gold.Chemscore.Metal>
0.0000

> <Gold.Chemscore.Lipo>
101.4319

> <Gold.Chemscore.Internal_Hbond>
0.0000

> <Gold.Chemscore.DEClash>
0.0650

> <Gold.Chemscore.DEInternal>
1.3121

> <Gold.Chemscore.Rot>
2.5854

> <Gold.Chemscore.Internal.Correction>
   9.000000E+99

> <Gold.Chemscore.Hbonds>
donor molecule, donor type, donor heavy atom, donor atom, acceptor molecule, acceptor atom, score
      L1  H     5    40       P1  8028  0.98
      P1  H  6896  6908       L1    14  0.21
      P1  H  7989  7998       L1    10  0.36

> <Gold.Chemscore.Hbond.Weighted>
-8.6450

> <Gold.Chemscore.Metal.Weighted>
-0.0000

> <Gold.Chemscore.Lipo.Weighted>
-11.8675

> <Gold.Chemscore.Internal_Hbond.Weighted>
0.0000

> <Gold.Chemscore.DEClash.Weighted>
0.0650

> <Gold.Chemscore.DEInternal.Weighted>
1.3121

> <Gold.Chemscore.Rot.Weighted>
6.6187

> <Gold.Chemscore.Internal.Correction.Weighted>
   9.000000E+99

> <Gold.Protein.RotatedTorsions>
[ 6907 6896 6895 6894 ] final -158.32 input  -60.11 | X-H torsion
[ 7974 7965 7964 7962 ] final  -36.84 input  175.53 | X-H torsion
[ 8008 7997 7996 7995 ] final    4.98 input   59.86 | X-H torsion
[ 10167 10162 10161 10158 ] final   88.88 input  -65.29 | X-H torsion
[ 10718 10713 10712 10709 ] final  173.57 input   66.30 | X-H torsion
[ 10763 10752 10751 10750 ] final   21.10 input  -60.55 | X-H torsion
[ 11005 11000 10999 10996 ] final -112.70 input  -57.11 | X-H torsion

> <Gold.Protein.ActiveResidues>
 VAL166  LYS551  ARG553  GLY616  TRP617  ASP618  TYR619  PRO620  LYS621  CYS622 
 ASP623  PHE694  ASN695  SER759  ASP760  ASP761  ALA762  ILE779  LEU786  VAL792 
 PHE793  MET794  SER795  GLU796  ALA797  LYS798  CYS799  TRP800  GLU811  SER814 

> <Gold.Protein.RotatedAtoms>
  151.3163  133.4059  159.2650 H   0  0  0  0  0  0  0  0  0  0  0  0  # atno 6907 bound_to 6896
  151.0072  134.9369  159.7997 H   0  0  0  0  0  0  0  0  0  0  0  0  # atno 6908 bound_to 6896
  152.5291  134.3128  159.9172 H   0  0  0  0  0  0  0  0  0  0  0  0  # atno 6909 bound_to 6896
  146.0627  140.6325  142.8989 H   0  0  0  0  0  0  0  0  0  0  0  0  # atno 7974 bound_to 7965
  154.7226  140.2715  155.6528 H   0  0  0  0  0  0  0  0  0  0  0  0  # atno 8008 bound_to 7997
  156.2828  140.2731  156.1827 H   0  0  0  0  0  0  0  0  0  0  0  0  # atno 8009 bound_to 7997
  155.0487  140.0371  157.2526 H   0  0  0  0  0  0  0  0  0  0  0  0  # atno 8010 bound_to 7997
  139.8628  144.6535  150.9039 H   0  0  0  0  0  0  0  0  0  0  0  0  # atno 10167 bound_to 10162
  156.9623  131.0064  151.2924 H   0  0  0  0  0  0  0  0  0  0  0  0  # atno 10718 bound_to 10713
  153.1022  135.6675  153.9651 H   0  0  0  0  0  0  0  0  0  0  0  0  # atno 10763 bound_to 10752
  153.9219  135.3013  155.3449 H   0  0  0  0  0  0  0  0  0  0  0  0  # atno 10764 bound_to 10752
  154.7443  135.5065  153.9252 H   0  0  0  0  0  0  0  0  0  0  0  0  # atno 10765 bound_to 10752
  141.0659  133.9459  157.2579 H   0  0  0  0  0  0  0  0  0  0  0  0  # atno 11005 bound_to 11000
  144.7184  140.4290  143.7026 LP  0  0  0  0  0  0  0  0  0  0  0  0  # atno 17320 bound_to 7965
  145.6531  139.1568  143.2850 LP  0  0  0  0  0  0  0  0  0  0  0  0  # atno 17321 bound_to 7965
  140.7772  143.3730  151.1615 LP  0  0  0  0  0  0  0  0  0  0  0  0  # atno 17342 bound_to 10162
  139.7357  143.9002  152.3034 LP  0  0  0  0  0  0  0  0  0  0  0  0  # atno 17343 bound_to 10162
  157.5649  130.8271  149.8314 LP  0  0  0  0  0  0  0  0  0  0  0  0  # atno 17370 bound_to 10713
  156.0317  130.3763  150.1670 LP  0  0  0  0  0  0  0  0  0  0  0  0  # atno 17371 bound_to 10713
  139.9476  135.0181  156.8899 LP  0  0  0  0  0  0  0  0  0  0  0  0  # atno 17394 bound_to 11000
  140.5773  134.0385  155.7451 LP  0  0  0  0  0  0  0  0  0  0  0  0  # atno 17395 bound_to 11000

$$$$
