AV-unprocessed.smi:21|AV-procd|sdf|132|dock2
  -GOLD-   2262015323D 1   1.00000     0.00000
 Structure written by MMmdl.
 62 65  0  0  0  0  0  0  0  0  2 V2000
  145.7888  130.2686  151.6028 C   0  0  0  0  0  0  0  0  0  0  0  0
  145.3827  131.6265  151.6638 O   0  0  0  0  0  0  0  0  0  0  0  0
  146.4528  132.5310  151.8950 C   0  0  2  0  0  0  0  0  0  0  0  0
  147.2375  132.2215  153.1650 C   0  0  0  0  0  0  0  0  0  0  0  0
  147.8734  133.5662  153.5529 C   0  0  2  0  0  0  0  0  0  0  0  0
  148.1602  133.7044  155.0709 C   0  0  0  0  0  0  0  0  0  0  0  0
  149.3566  134.4945  155.3679 N   0  0  0  0  0  0  0  0  0  0  0  0
  150.5757  133.7630  155.7047 C   0  0  0  0  0  0  0  0  0  0  0  0
  149.2187  135.7659  155.8390 C   0  0  0  0  0  0  0  0  0  0  0  0
  148.0702  136.1012  156.4873 N   0  0  0  0  0  0  0  0  0  0  0  0
  147.8779  137.3419  156.9419 C   0  0  0  0  0  0  0  0  0  0  0  0
  148.6922  138.3937  156.8594 N   0  0  0  0  0  0  0  0  0  0  0  0
  149.8524  138.0699  156.2218 C   0  0  0  0  0  0  0  0  0  0  0  0
  150.1982  136.7939  155.6884 C   0  0  0  0  0  0  0  0  0  0  0  0
  151.4702  136.8573  155.1285 N   0  0  0  0  0  0  0  0  0  0  0  0
  151.8460  138.0935  155.3074 C   0  0  0  0  0  0  0  0  0  0  0  0
  150.9363  138.8901  155.9617 N   0  0  0  0  0  0  0  0  0  0  0  0
  151.0966  140.2966  156.2911 C   0  0  0  0  0  0  0  0  0  0  0  0
  152.1239  140.5529  157.4230 C   0  0  2  0  0  0  0  0  0  0  0  0
  152.3321  139.2846  158.2912 C   0  0  0  0  0  0  0  0  0  0  0  0
  153.4310  138.5180  157.8453 O   0  0  0  0  0  0  0  0  0  0  0  0
  151.6937  141.7831  158.2697 C   0  0  1  0  0  0  0  0  0  0  0  0
  152.7449  142.3320  159.2200 C   0  0  0  0  0  0  0  0  0  0  0  0
  152.2252  143.7343  159.5165 C   0  0  0  0  0  0  0  0  0  0  0  0
  151.5446  144.1493  158.3387 O   0  0  0  0  0  0  0  0  0  0  0  0
  151.3861  143.0450  157.4543 C   0  0  0  0  0  0  0  0  0  0  0  0
  146.9824  134.6116  152.9648 N   0  3  2  0  0  0  0  0  0  0  0  0
  146.4636  135.6704  153.8628 C   0  0  0  0  0  0  0  0  0  0  0  0
  145.9187  133.9280  152.1959 C   0  0  0  0  0  0  0  0  0  0  0  0
  147.1226  132.5757  151.0340 H   0  0  0  0  0  0  0  0  0  0  0  0
  148.8163  133.6625  153.0129 H   0  0  0  0  0  0  0  0  0  0  0  0
  144.9271  129.6415  151.3747 H   0  0  0  0  0  0  0  0  0  0  0  0
  146.2023  129.9305  152.5534 H   0  0  0  0  0  0  0  0  0  0  0  0
  146.5331  130.1128  150.8211 H   0  0  0  0  0  0  0  0  0  0  0  0
  146.5450  131.8966  153.9427 H   0  0  0  0  0  0  0  0  0  0  0  0
  147.9764  131.4324  153.0226 H   0  0  0  0  0  0  0  0  0  0  0  0
  147.3294  134.2195  155.5525 H   0  0  0  0  0  0  0  0  0  0  0  0
  148.1992  132.7254  155.5404 H   0  0  0  0  0  0  0  0  0  0  0  0
  151.4608  134.3604  155.4819 H   0  0  0  0  0  0  0  0  0  0  0  0
  150.6467  132.8415  155.1266 H   0  0  0  0  0  0  0  0  0  0  0  0
  150.5913  133.5002  156.7632 H   0  0  0  0  0  0  0  0  0  0  0  0
  146.9365  137.5166  157.4419 H   0  0  0  0  0  0  0  0  0  0  0  0
  152.8049  138.4601  154.9706 H   0  0  0  0  0  0  0  0  0  0  0  0
  151.3954  140.8050  155.3745 H   0  0  0  0  0  0  0  0  0  0  0  0
  150.1246  140.7071  156.5673 H   0  0  0  0  0  0  0  0  0  0  0  0
  153.0752  140.7869  156.9420 H   0  0  0  0  0  0  0  0  0  0  0  0
  152.4707  139.5506  159.3395 H   0  0  0  0  0  0  0  0  0  0  0  0
  151.4692  138.6216  158.2493 H   0  0  0  0  0  0  0  0  0  0  0  0
  153.1262  137.6473  157.6393 H   0  0  0  0  0  0  0  0  0  0  0  0
  150.8070  141.5262  158.8522 H   0  0  0  0  0  0  0  0  0  0  0  0
  152.8600  141.7381  160.1268 H   0  0  0  0  0  0  0  0  0  0  0  0
  153.7145  142.3911  158.7230 H   0  0  0  0  0  0  0  0  0  0  0  0
  151.5107  143.7100  160.3402 H   0  0  0  0  0  0  0  0  0  0  0  0
  153.0241  144.4270  159.7811 H   0  0  0  0  0  0  0  0  0  0  0  0
  152.0982  143.1593  156.6356 H   0  0  0  0  0  0  0  0  0  0  0  0
  150.3823  143.0338  157.0288 H   0  0  0  0  0  0  0  0  0  0  0  0
  145.8558  135.2526  154.6662 H   0  0  0  0  0  0  0  0  0  0  0  0
  145.8396  136.3642  153.2985 H   0  0  0  0  0  0  0  0  0  0  0  0
  147.2765  136.2510  154.2988 H   0  0  0  0  0  0  0  0  0  0  0  0
  145.6535  134.4797  151.2936 H   0  0  0  0  0  0  0  0  0  0  0  0
  145.0213  133.8462  152.8126 H   0  0  0  0  0  0  0  0  0  0  0  0
  147.5537  135.0864  152.2801 H   0  0  0  0  0  0  0  0  0  0  0  0
  1  2  1  0  0  0  0
  1 32  1  0  0  0  0
  1 33  1  0  0  0  0
  1 34  1  0  0  0  0
  2  3  1  0  0  0  0
  3 30  1  0  0  0  0
  3 29  1  0  0  0  0
  3  4  1  0  0  0  0
  4  5  1  0  0  0  0
  4 35  1  0  0  0  0
  4 36  1  0  0  0  0
  5 31  1  0  0  0  0
  5  6  1  0  0  0  0
  5 27  1  0  0  0  0
  6  7  1  0  0  0  0
  6 37  1  0  0  0  0
  6 38  1  0  0  0  0
  7  8  1  0  0  0  0
  7  9  1  0  0  0  0
  8 39  1  0  0  0  0
  8 40  1  0  0  0  0
  8 41  1  0  0  0  0
  9 14  1  0  0  0  0
  9 10  2  0  0  0  0
 10 11  1  0  0  0  0
 11 12  2  0  0  0  0
 11 42  1  0  0  0  0
 12 13  1  0  0  0  0
 13 17  1  0  0  0  0
 13 14  2  0  0  0  0
 14 15  1  0  0  0  0
 15 16  2  0  0  0  0
 16 17  1  0  0  0  0
 16 43  1  0  0  0  0
 17 18  1  0  0  0  0
 18 19  1  0  0  0  0
 18 44  1  0  0  0  0
 18 45  1  0  0  0  0
 19 20  1  0  0  0  0
 19 22  1  0  0  0  0
 19 46  1  0  0  0  0
 20 21  1  0  0  0  0
 20 47  1  0  0  0  0
 20 48  1  0  0  0  0
 21 49  1  0  0  0  0
 22 26  1  0  0  0  0
 22 23  1  0  0  0  0
 22 50  1  0  0  0  0
 23 24  1  0  0  0  0
 23 51  1  0  0  0  0
 23 52  1  0  0  0  0
 24 25  1  0  0  0  0
 24 53  1  0  0  0  0
 24 54  1  0  0  0  0
 25 26  1  0  0  0  0
 26 55  1  0  0  0  0
 26 56  1  0  0  0  0
 27 28  1  0  0  0  0
 27 29  1  0  0  0  0
 27 62  1  0  0  0  0
 28 57  1  0  0  0  0
 28 58  1  0  0  0  0
 28 59  1  0  0  0  0
 29 60  1  0  0  0  0
 29 61  1  0  0  0  0
M  CHG  1  27   1
M  END
> <s_m_source_file>
AV-unprocessed.smi

> <i_m_source_file_index>
21

> <i_lp_mmshare_version>
43012

> <i_f3d_flags>
0

> <s_epik_input>
W0NIM11PW0NASF0xW0NIMl1bQ0BIXShOKFtDSDNdKVtDSDJdMSlbQ0gyXU4oW0NIM10pYyhuW2NIXW4yKWMoYzIzKW5bY0hdbjNbQ0gyXVtDQEhdKFtDSDJdW09IXSlbQ0BASF00W0NIMl1bQ0gyXU9bQ0gyXTQ=

> <s_epik_cmdline>
J2VwaWtfcHl0aG9uJywgJy1waCcsICc3LjAnLCAnLXRuJywgJzgnLCAnLW1hJywgJzIwMCcsICctbWV0YWxfYmluZGluZycsICctaW1hZScsICc8aW5maWxlLm1hZT4nLCAnLW9tYWUnLCAnPG91dGZpbGUubWFlPic=

> <r_lp_tautomer_probability>
1

> <r_epik_Ionization_Penalty>
0.0157465

> <r_epik_Ionization_Penalty_Charging>
0.015354

> <r_epik_Ionization_Penalty_Neutral>
0.000392529

> <r_epik_State_Penalty>
0.0120612

> <r_epik_Charging_Adjusted_Penalty>
0.0274152

> <i_epik_Tot_Q>
1

> <i_epik_Tot_abs_Q>
1

> <r_epik_Metal_State_Penalty>
0.0121253

> <b_epik_Metal_Only>
0

> <s_lp_Force_Field>
OPLS_2005

> <r_lp_Energy>
62.0887

> <b_lp_Chiralities_Consistent>
1

> <s_lp_Variant>
AV-unprocessed.smi:21-12

> <Gold.Version>
5.8.1

> <Gold.Id.Protein>
6NUR|6NUR_protein|mol2

> <Gold.PLP.Fitness>
50.5666

> <Gold.PLP.PLP>
-41.9415

> <Gold.PLP.part.hbond>
-3.0000

> <Gold.PLP.part.metal>
0.0000

> <Gold.PLP.part.buried>
-6.1763

> <Gold.PLP.part.nonpolar>
-33.1499

> <Gold.PLP.part.repulsive>
0.3935

> <Gold.PLP.ligand.clash>
0.0000

> <Gold.PLP.ligand.torsion>
2.4286

> <Gold.PLP.Chemscore.Hbond>
4.0000

> <Gold.PLP.Chemscore.CHOScore>
0.0000

> <Gold.PLP.Chemscore.Metal>
0.0000

> <Gold.Chemscore.Hbonds>
donor molecule, donor type, donor heavy atom, donor atom, acceptor molecule, acceptor atom, score
      L1  H    27    62       P1  7948  2.00
      P1  H  7997  8008       L1    21  0.85
      P1  H 10752 10764       L1    15  0.93

> <Gold.PLP.Chemscore.Internal.Correction>
1.4823

> <Gold.Rescore>
     Score         DG    S(hbond)    S(metal)    S(lipo)     H(rot)  DE(clash)    DE(int)     intcor
     16.35     -19.01       2.75        0.00     104.40       3.08       0.02       2.64       ----

> <Gold.Chemscore.Fitness>
16.3469

> <Gold.Chemscore.DG>
-19.0081

> <Gold.Chemscore.ZeroCoef>
-5.4800

> <Gold.Chemscore.Hbond>
2.7506

> <Gold.Chemscore.Metal>
0.0000

> <Gold.Chemscore.Lipo>
104.4030

> <Gold.Chemscore.Internal_Hbond>
0.0000

> <Gold.Chemscore.DEClash>
0.0172

> <Gold.Chemscore.DEInternal>
2.6439

> <Gold.Chemscore.Rot>
3.0758

> <Gold.Chemscore.Internal.Correction>
   9.000000E+99

> <Gold.Chemscore.Hbonds>
donor molecule, donor type, donor heavy atom, donor atom, acceptor molecule, acceptor atom, score
      L1  H    27    62       P1  7948  0.94
      P1  H  7997  8008       L1    21  0.19
      P1  H 10752 10764       L1    15  0.75

> <Gold.Chemscore.Hbond.Weighted>
-9.1871

> <Gold.Chemscore.Metal.Weighted>
-0.0000

> <Gold.Chemscore.Lipo.Weighted>
-12.2152

> <Gold.Chemscore.Internal_Hbond.Weighted>
0.0000

> <Gold.Chemscore.DEClash.Weighted>
0.0172

> <Gold.Chemscore.DEInternal.Weighted>
2.6439

> <Gold.Chemscore.Rot.Weighted>
7.8741

> <Gold.Chemscore.Internal.Correction.Weighted>
   9.000000E+99

> <Gold.Protein.RotatedTorsions>
[ 6907 6896 6895 6894 ] final  -50.37 input  -60.11 | X-H torsion
[ 7974 7965 7964 7962 ] final  109.52 input  175.53 | X-H torsion
[ 8008 7997 7996 7995 ] final  -80.46 input   59.86 | X-H torsion
[ 10167 10162 10161 10158 ] final   83.05 input  -65.29 | X-H torsion
[ 10718 10713 10712 10709 ] final -167.11 input   66.30 | X-H torsion
[ 10763 10752 10751 10750 ] final  -76.99 input  -60.55 | X-H torsion
[ 11005 11000 10999 10996 ] final  -67.85 input  -57.11 | X-H torsion

> <Gold.Protein.ActiveResidues>
 VAL166  LYS551  ARG553  GLY616  TRP617  ASP618  TYR619  PRO620  LYS621  CYS622 
 ASP623  PHE694  ASN695  SER759  ASP760  ASP761  ALA762  ILE779  LEU786  VAL792 
 PHE793  MET794  SER795  GLU796  ALA797  LYS798  CYS799  TRP800  GLU811  SER814 

> <Gold.Protein.RotatedAtoms>
  150.8713  134.8088  159.7156 H   0  0  0  0  0  0  0  0  0  0  0  0  # atno 6907 bound_to 6896
  152.4717  134.4942  159.9714 H   0  0  0  0  0  0  0  0  0  0  0  0  # atno 6908 bound_to 6896
  151.5030  133.3462  159.2907 H   0  0  0  0  0  0  0  0  0  0  0  0  # atno 6909 bound_to 6896
  145.2667  139.2682  143.3988 H   0  0  0  0  0  0  0  0  0  0  0  0  # atno 7974 bound_to 7965
  154.5885  140.0662  156.9205 H   0  0  0  0  0  0  0  0  0  0  0  0  # atno 8008 bound_to 7997
  155.2337  140.3339  155.4282 H   0  0  0  0  0  0  0  0  0  0  0  0  # atno 8009 bound_to 7997
  156.2239  140.1811  156.7394 H   0  0  0  0  0  0  0  0  0  0  0  0  # atno 8010 bound_to 7997
  139.9224  144.6204  150.8426 H   0  0  0  0  0  0  0  0  0  0  0  0  # atno 10167 bound_to 10162
  156.6776  130.9109  151.3052 H   0  0  0  0  0  0  0  0  0  0  0  0  # atno 10718 bound_to 10713
  154.5071  135.5779  153.6576 H   0  0  0  0  0  0  0  0  0  0  0  0  # atno 10763 bound_to 10752
  152.9890  135.6150  154.2927 H   0  0  0  0  0  0  0  0  0  0  0  0  # atno 10764 bound_to 10752
  154.2839  135.2850  155.2664 H   0  0  0  0  0  0  0  0  0  0  0  0  # atno 10765 bound_to 10752
  141.1518  133.6728  156.6356 H   0  0  0  0  0  0  0  0  0  0  0  0  # atno 11005 bound_to 11000
  146.3259  140.3099  142.8626 LP  0  0  0  0  0  0  0  0  0  0  0  0  # atno 17320 bound_to 7965
  144.9370  140.8038  143.5654 LP  0  0  0  0  0  0  0  0  0  0  0  0  # atno 17321 bound_to 7965
  140.7659  143.3287  151.2458 LP  0  0  0  0  0  0  0  0  0  0  0  0  # atno 17342 bound_to 10162
  139.6850  143.9789  152.2829 LP  0  0  0  0  0  0  0  0  0  0  0  0  # atno 17343 bound_to 10162
  157.7055  130.9380  150.0917 LP  0  0  0  0  0  0  0  0  0  0  0  0  # atno 17370 bound_to 10713
  156.1891  130.3654  149.8933 LP  0  0  0  0  0  0  0  0  0  0  0  0  # atno 17371 bound_to 10713
  140.3433  134.7830  157.4414 LP  0  0  0  0  0  0  0  0  0  0  0  0  # atno 17394 bound_to 11000
  140.0920  134.5588  155.8435 LP  0  0  0  0  0  0  0  0  0  0  0  0  # atno 17395 bound_to 11000

$$$$
