AV-unprocessed.smi:2597|AV-procd|sdf|10174|dock4
  -GOLD-   2272014183D 1   1.00000     0.00000
 Structure written by MMmdl.
 30 31  0  0  0  0  0  0  0  0  1 V2000
  147.5750  138.5928  151.6990 N   0  0  0  0  0  0  0  0  0  0  0  0
  146.7162  139.0753  152.7664 C   0  0  1  0  0  0  0  0  0  0  0  0
  146.2177  137.8949  153.6262 C   0  0  0  0  0  0  0  0  0  0  0  0
  145.3272  138.3862  154.7789 C   0  0  0  0  0  0  0  0  0  0  0  0
  146.0338  139.4534  155.6303 C   0  0  0  0  0  0  0  0  0  0  0  0
  146.5013  140.6378  154.7648 C   0  0  0  0  0  0  0  0  0  0  0  0
  147.3998  140.2077  153.5842 C   0  0  1  0  0  0  0  0  0  0  0  0
  148.7711  139.9308  154.0198 N   0  0  0  0  0  0  0  0  0  0  0  0
  149.3877  138.6978  154.0941 C   0  0  0  0  0  0  0  0  0  0  0  0
  150.6563  138.9877  154.5145 C   0  0  0  0  0  0  0  0  0  0  0  0
  151.8239  138.0830  154.7864 C   0  0  0  0  0  0  0  0  0  0  0  0
  151.5707  136.8456  154.1531 O   0  0  0  0  0  0  0  0  0  0  0  0
  150.7646  140.3683  154.6626 N   0  0  0  0  0  0  0  0  0  0  0  0
  149.6342  140.9214  154.3565 N   0  0  0  0  0  0  0  0  0  0  0  0
  145.8415  139.5105  152.2814 H   0  0  0  0  0  0  0  0  0  0  0  0
  147.4754  141.0694  152.9191 H   0  0  0  0  0  0  0  0  0  0  0  0
  148.4316  139.1274  151.6809 H   0  0  0  0  0  0  0  0  0  0  0  0
  147.8348  137.6329  151.8754 H   0  0  0  0  0  0  0  0  0  0  0  0
  145.6498  137.2010  153.0054 H   0  0  0  0  0  0  0  0  0  0  0  0
  147.0509  137.3183  154.0263 H   0  0  0  0  0  0  0  0  0  0  0  0
  144.4053  138.8021  154.3710 H   0  0  0  0  0  0  0  0  0  0  0  0
  145.0341  137.5439  155.4061 H   0  0  0  0  0  0  0  0  0  0  0  0
  145.3547  139.8122  156.4042 H   0  0  0  0  0  0  0  0  0  0  0  0
  146.8795  139.0097  156.1551 H   0  0  0  0  0  0  0  0  0  0  0  0
  145.6212  141.1461  154.3692 H   0  0  0  0  0  0  0  0  0  0  0  0
  147.0179  141.3726  155.3835 H   0  0  0  0  0  0  0  0  0  0  0  0
  148.8952  137.7673  153.8541 H   0  0  0  0  0  0  0  0  0  0  0  0
  152.7492  138.5089  154.3982 H   0  0  0  0  0  0  0  0  0  0  0  0
  151.9564  137.9191  155.8561 H   0  0  0  0  0  0  0  0  0  0  0  0
  151.3981  137.0079  153.2383 H   0  0  0  0  0  0  0  0  0  0  0  0
  1  2  1  0  0  0  0
  1 17  1  0  0  0  0
  1 18  1  0  0  0  0
  2 15  1  0  0  0  0
  2  7  1  0  0  0  0
  2  3  1  0  0  0  0
  3  4  1  0  0  0  0
  3 19  1  0  0  0  0
  3 20  1  0  0  0  0
  4  5  1  0  0  0  0
  4 21  1  0  0  0  0
  4 22  1  0  0  0  0
  5  6  1  0  0  0  0
  5 23  1  0  0  0  0
  5 24  1  0  0  0  0
  6  7  1  0  0  0  0
  6 25  1  0  0  0  0
  6 26  1  0  0  0  0
  7 16  1  0  0  0  0
  7  8  1  0  0  0  0
  8 14  1  0  0  0  0
  8  9  1  0  0  0  0
  9 10  2  0  0  0  0
  9 27  1  0  0  0  0
 10 11  1  0  0  0  0
 10 13  1  0  0  0  0
 11 12  1  0  0  0  0
 11 28  1  0  0  0  0
 11 29  1  0  0  0  0
 12 30  1  0  0  0  0
 13 14  2  0  0  0  0
M  END
> <s_m_source_file>
AV-unprocessed.smi

> <i_m_source_file_index>
2597

> <i_lp_mmshare_version>
43012

> <i_f3d_flags>
0

> <s_epik_input>
W05IMl1bQ0BIXTFbQ0gyXVtDSDJdW0NIMl1bQ0gyXVtDQEhdMW4yW2NIXWMobm4yKVtDSDJdW09IXQ==

> <s_epik_cmdline>
J2VwaWtfcHl0aG9uJywgJy1waCcsICc3LjAnLCAnLXRuJywgJzgnLCAnLW1hJywgJzIwMCcsICctbWV0YWxfYmluZGluZycsICctaW1hZScsICc8aW5maWxlLm1hZT4nLCAnLW9tYWUnLCAnPG91dGZpbGUubWFlPic=

> <r_lp_tautomer_probability>
1

> <r_epik_Ionization_Penalty>
2.21303

> <r_epik_Ionization_Penalty_Charging>
0

> <r_epik_Ionization_Penalty_Neutral>
2.21303

> <r_epik_State_Penalty>
2.3573

> <r_epik_Charging_Adjusted_Penalty>
2.3573

> <i_epik_Tot_Q>
0

> <i_epik_Tot_abs_Q>
0

> <r_epik_Metal_State_Penalty>
2.35724

> <b_epik_Metal_Only>
0

> <s_lp_Force_Field>
OPLS_2005

> <r_lp_Energy>
16.8416

> <b_lp_Chiralities_Consistent>
1

> <s_lp_Variant>
AV-unprocessed.smi:2597-5

> <Gold.Version>
5.8.1

> <Gold.Id.Protein>
6NUR|6NUR_protein|mol2

> <Gold.PLP.Fitness>
41.4794

> <Gold.PLP.PLP>
-25.3597

> <Gold.PLP.part.hbond>
-6.8224

> <Gold.PLP.part.metal>
0.0000

> <Gold.PLP.part.buried>
-1.9791

> <Gold.PLP.part.nonpolar>
-16.9587

> <Gold.PLP.part.repulsive>
0.2269

> <Gold.PLP.ligand.clash>
0.0000

> <Gold.PLP.ligand.torsion>
0.6612

> <Gold.PLP.Chemscore.Hbond>
4.7930

> <Gold.PLP.Chemscore.CHOScore>
1.0000

> <Gold.PLP.Chemscore.Metal>
0.0000

> <Gold.Chemscore.Hbonds>
donor molecule, donor type, donor heavy atom, donor atom, acceptor molecule, acceptor atom, score
      L1  H     1    17       P1  7957  1.00
      L1  H     1    18       P1  7948  1.00
      L1  H    12    30       P1  7949  0.79
      P1  H  7989  7998       L1    13  1.00
      P1  H 10752 10763       L1    12  1.00
      L1  C     9    27       P1  7948  1.00

> <Gold.PLP.Chemscore.Internal.Correction>
0.0631

> <Gold.Rescore>
     Score         DG    S(hbond)    S(metal)    S(lipo)     H(rot)  DE(clash)    DE(int)     intcor
     15.37     -17.16       3.32        0.00      44.83       1.82       0.06       1.72       ----

> <Gold.Chemscore.Fitness>
15.3707

> <Gold.Chemscore.DG>
-17.1551

> <Gold.Chemscore.ZeroCoef>
-5.4800

> <Gold.Chemscore.Hbond>
3.3219

> <Gold.Chemscore.Metal>
0.0000

> <Gold.Chemscore.Lipo>
44.8275

> <Gold.Chemscore.Internal_Hbond>
0.0000

> <Gold.Chemscore.DEClash>
0.0605

> <Gold.Chemscore.DEInternal>
1.7240

> <Gold.Chemscore.Rot>
1.8222

> <Gold.Chemscore.Internal.Correction>
   9.000000E+99

> <Gold.Chemscore.Hbonds>
donor molecule, donor type, donor heavy atom, donor atom, acceptor molecule, acceptor atom, score
      L1  H     1    17       P1  7957  0.85
      L1  H     1    18       P1  7948  0.97
      L1  H    12    30       P1  7949  0.60
      P1  H  7989  7998       L1    13  0.14
      P1  H 10752 10763       L1    12  0.45

> <Gold.Chemscore.Hbond.Weighted>
-11.0952

> <Gold.Chemscore.Metal.Weighted>
-0.0000

> <Gold.Chemscore.Lipo.Weighted>
-5.2448

> <Gold.Chemscore.Internal_Hbond.Weighted>
0.0000

> <Gold.Chemscore.DEClash.Weighted>
0.0605

> <Gold.Chemscore.DEInternal.Weighted>
1.7240

> <Gold.Chemscore.Rot.Weighted>
4.6649

> <Gold.Chemscore.Internal.Correction.Weighted>
   9.000000E+99

> <Gold.Protein.RotatedTorsions>
[ 6907 6896 6895 6894 ] final  -21.34 input  -60.11 | X-H torsion
[ 7974 7965 7964 7962 ] final   30.43 input  175.53 | X-H torsion
[ 8008 7997 7996 7995 ] final -143.82 input   59.86 | X-H torsion
[ 10167 10162 10161 10158 ] final  -72.25 input  -65.29 | X-H torsion
[ 10718 10713 10712 10709 ] final  -18.44 input   66.30 | X-H torsion
[ 10763 10752 10751 10750 ] final   33.64 input  -60.55 | X-H torsion
[ 11005 11000 10999 10996 ] final   91.55 input  -57.11 | X-H torsion

> <Gold.Protein.ActiveResidues>
 VAL166  LYS551  ARG553  GLY616  TRP617  ASP618  TYR619  PRO620  LYS621  CYS622 
 ASP623  PHE694  ASN695  SER759  ASP760  ASP761  ALA762  ILE779  LEU786  VAL792 
 PHE793  MET794  SER795  GLU796  ALA797  LYS798  CYS799  TRP800  GLU811  SER814 

> <Gold.Protein.RotatedAtoms>
  151.2347  135.0567  159.9001 H   0  0  0  0  0  0  0  0  0  0  0  0  # atno 6907 bound_to 6896
  152.5400  134.0498  159.8115 H   0  0  0  0  0  0  0  0  0  0  0  0  # atno 6908 bound_to 6896
  151.0683  133.5438  159.2660 H   0  0  0  0  0  0  0  0  0  0  0  0  # atno 6909 bound_to 6896
  146.1612  139.6789  142.9032 H   0  0  0  0  0  0  0  0  0  0  0  0  # atno 7974 bound_to 7965
  155.5168  140.0588  157.2914 H   0  0  0  0  0  0  0  0  0  0  0  0  # atno 8008 bound_to 7997
  154.4532  140.1959  156.0405 H   0  0  0  0  0  0  0  0  0  0  0  0  # atno 8009 bound_to 7997
  156.0746  140.3255  155.7622 H   0  0  0  0  0  0  0  0  0  0  0  0  # atno 8010 bound_to 7997
  140.5208  143.2332  151.7433 H   0  0  0  0  0  0  0  0  0  0  0  0  # atno 10167 bound_to 10162
  156.5595  130.4722  149.6413 H   0  0  0  0  0  0  0  0  0  0  0  0  # atno 10718 bound_to 10713
  153.0202  135.6382  154.1543 H   0  0  0  0  0  0  0  0  0  0  0  0  # atno 10763 bound_to 10752
  154.1278  135.2842  155.3194 H   0  0  0  0  0  0  0  0  0  0  0  0  # atno 10764 bound_to 10752
  154.6217  135.5523  153.7644 H   0  0  0  0  0  0  0  0  0  0  0  0  # atno 10765 bound_to 10752
  139.8837  134.8680  156.3444 H   0  0  0  0  0  0  0  0  0  0  0  0  # atno 11005 bound_to 11000
  145.4584  141.0432  143.2765 LP  0  0  0  0  0  0  0  0  0  0  0  0  # atno 17320 bound_to 7965
  144.8029  139.6106  143.7063 LP  0  0  0  0  0  0  0  0  0  0  0  0  # atno 17321 bound_to 7965
  139.4923  144.4258  151.9928 LP  0  0  0  0  0  0  0  0  0  0  0  0  # atno 17342 bound_to 10162
  140.3354  144.3266  150.5978 LP  0  0  0  0  0  0  0  0  0  0  0  0  # atno 17343 bound_to 10162
  156.2812  130.7072  151.1896 LP  0  0  0  0  0  0  0  0  0  0  0  0  # atno 17370 bound_to 10713
  157.7371  131.0555  150.5373 LP  0  0  0  0  0  0  0  0  0  0  0  0  # atno 17371 bound_to 10713
  140.9637  133.7372  156.0437 LP  0  0  0  0  0  0  0  0  0  0  0  0  # atno 17394 bound_to 11000
  140.7958  134.3566  157.5453 LP  0  0  0  0  0  0  0  0  0  0  0  0  # atno 17395 bound_to 11000

$$$$
