AV-unprocessed.smi:2474|AV-procd|sdf|9752|dock7
  -GOLD-   2272013393D 1   1.00000     0.00000
 Structure written by MMmdl.
 40 41  0  0  0  0  0  0  0  0  1 V2000
  144.0425  144.7400  154.5776 C   0  0  0  0  0  0  0  0  0  0  0  0
  144.8443  143.4966  154.7618 C   0  0  0  0  0  0  0  0  0  0  0  0
  144.8269  142.6359  155.8313 C   0  0  0  0  0  0  0  0  0  0  0  0
  145.6971  141.5519  155.6977 N   0  0  0  0  0  0  0  0  0  0  0  0
  146.3791  141.5825  154.5491 C   0  0  0  0  0  0  0  0  0  0  0  0
  147.3660  140.5325  154.1366 C   0  0  1  0  0  0  0  0  0  0  0  0
  146.8365  139.6561  152.9925 C   0  0  0  0  0  0  0  0  0  0  0  0
  148.7776  141.0976  153.8591 C   0  0  0  0  0  0  0  0  0  0  0  0
  149.2809  141.9405  154.9406 N   0  0  0  0  0  0  0  0  0  0  0  0
  150.3669  141.6788  155.6801 C   0  0  0  0  0  0  0  0  0  0  0  0
  151.0992  140.7041  155.5096 O   0  0  0  0  0  0  0  0  0  0  0  0
  150.5440  142.5949  156.6419 N   0  0  0  0  0  0  0  0  0  0  0  0
  151.6006  142.5655  157.6487 C   0  0  2  0  0  0  0  0  0  0  0  0
  151.5723  141.2213  158.4061 C   0  0  0  0  0  0  0  0  0  0  0  0
  152.6962  141.1070  159.4487 C   0  0  0  0  0  0  0  0  0  0  0  0
  152.6075  142.1945  160.5285 C   0  0  0  0  0  0  0  0  0  0  0  0
  152.7777  143.8501  159.8089 S   0  0  0  0  0  0  0  0  0  0  0  0
  151.4268  143.7608  158.6015 C   0  0  0  0  0  0  0  0  0  0  0  0
  145.9733  142.9686  153.5422 S   0  0  0  0  0  0  0  0  0  0  0  0
  143.3984  144.9237  155.4378 H   0  0  0  0  0  0  0  0  0  0  0  0
  143.4096  144.6642  153.6931 H   0  0  0  0  0  0  0  0  0  0  0  0
  144.6945  145.6049  154.4547 H   0  0  0  0  0  0  0  0  0  0  0  0
  144.2262  142.7163  156.7251 H   0  0  0  0  0  0  0  0  0  0  0  0
  147.4640  139.8655  154.9939 H   0  0  0  0  0  0  0  0  0  0  0  0
  145.8925  139.1835  153.2650 H   0  0  0  0  0  0  0  0  0  0  0  0
  147.5436  138.8637  152.7455 H   0  0  0  0  0  0  0  0  0  0  0  0
  146.6670  140.2430  152.0892 H   0  0  0  0  0  0  0  0  0  0  0  0
  149.4822  140.2895  153.6565 H   0  0  0  0  0  0  0  0  0  0  0  0
  148.7511  141.7148  152.9606 H   0  0  0  0  0  0  0  0  0  0  0  0
  148.7428  142.7661  155.1602 H   0  0  0  0  0  0  0  0  0  0  0  0
  149.8856  143.3580  156.6976 H   0  0  0  0  0  0  0  0  0  0  0  0
  152.5655  142.6702  157.1485 H   0  0  0  0  0  0  0  0  0  0  0  0
  150.6055  141.0902  158.8941 H   0  0  0  0  0  0  0  0  0  0  0  0
  151.6681  140.3979  157.6970 H   0  0  0  0  0  0  0  0  0  0  0  0
  152.6468  140.1264  159.9229 H   0  0  0  0  0  0  0  0  0  0  0  0
  153.6663  141.1580  158.9527 H   0  0  0  0  0  0  0  0  0  0  0  0
  151.6546  142.1318  161.0554 H   0  0  0  0  0  0  0  0  0  0  0  0
  153.3933  142.0539  161.2709 H   0  0  0  0  0  0  0  0  0  0  0  0
  151.4096  144.6954  158.0401 H   0  0  0  0  0  0  0  0  0  0  0  0
  150.4791  143.6914  159.1369 H   0  0  0  0  0  0  0  0  0  0  0  0
  1  2  1  0  0  0  0
  1 20  1  0  0  0  0
  1 21  1  0  0  0  0
  1 22  1  0  0  0  0
  2 19  1  0  0  0  0
  2  3  2  0  0  0  0
  3  4  1  0  0  0  0
  3 23  1  0  0  0  0
  4  5  2  0  0  0  0
  5  6  1  0  0  0  0
  5 19  1  0  0  0  0
  6  7  1  0  0  0  0
  6  8  1  0  0  0  0
  6 24  1  0  0  0  0
  7 25  1  0  0  0  0
  7 26  1  0  0  0  0
  7 27  1  0  0  0  0
  8  9  1  0  0  0  0
  8 28  1  0  0  0  0
  8 29  1  0  0  0  0
  9 10  1  0  0  0  0
  9 30  1  0  0  0  0
 10 11  2  0  0  0  0
 10 12  1  0  0  0  0
 12 13  1  0  0  0  0
 12 31  1  0  0  0  0
 13 18  1  0  0  0  0
 13 14  1  0  0  0  0
 13 32  1  0  0  0  0
 14 15  1  0  0  0  0
 14 33  1  0  0  0  0
 14 34  1  0  0  0  0
 15 16  1  0  0  0  0
 15 35  1  0  0  0  0
 15 36  1  0  0  0  0
 16 17  1  0  0  0  0
 16 37  1  0  0  0  0
 16 38  1  0  0  0  0
 17 18  1  0  0  0  0
 18 39  1  0  0  0  0
 18 40  1  0  0  0  0
M  END
> <s_m_source_file>
AV-unprocessed.smi

> <i_m_source_file_index>
2474

> <i_lp_mmshare_version>
43012

> <i_f3d_flags>
0

> <s_epik_input>
W0NIM11jMVtjSF1uYyhzMSlbQ0BIXShbQ0gzXSlbQ0gyXVtOSF1DKD1PKVtOSF1bQ0BASF0yW0NIMl1bQ0gyXVtDSDJdU1tDSDJdMg==

> <s_epik_cmdline>
J2VwaWtfcHl0aG9uJywgJy1waCcsICc3LjAnLCAnLXRuJywgJzgnLCAnLW1hJywgJzIwMCcsICctbWV0YWxfYmluZGluZycsICctaW1hZScsICc8aW5maWxlLm1hZT4nLCAnLW9tYWUnLCAnPG91dGZpbGUubWFlPic=

> <r_epik_Ionization_Penalty>
0.000644338

> <r_epik_Ionization_Penalty_Charging>
0

> <r_epik_Ionization_Penalty_Neutral>
0.000644338

> <r_epik_State_Penalty>
0.000374131

> <r_epik_Charging_Adjusted_Penalty>
0.000374131

> <i_epik_Tot_Q>
0

> <i_epik_Tot_abs_Q>
0

> <r_epik_Metal_State_Penalty>
-0

> <b_epik_Metal_Only>
0

> <s_lp_Force_Field>
OPLS_2005

> <r_lp_Energy>
-6.48006

> <b_lp_Chiralities_Consistent>
1

> <s_lp_Variant>
AV-unprocessed.smi:2474-2

> <Gold.Version>
5.8.1

> <Gold.Id.Protein>
6NUR|6NUR_protein|mol2

> <Gold.PLP.Fitness>
47.6031

> <Gold.PLP.PLP>
-40.0317

> <Gold.PLP.part.hbond>
-3.0000

> <Gold.PLP.part.metal>
0.0000

> <Gold.PLP.part.buried>
-4.0492

> <Gold.PLP.part.nonpolar>
-32.1956

> <Gold.PLP.part.repulsive>
0.4186

> <Gold.PLP.ligand.clash>
0.0000

> <Gold.PLP.ligand.torsion>
0.1550

> <Gold.PLP.Chemscore.Hbond>
2.5853

> <Gold.PLP.Chemscore.CHOScore>
0.0000

> <Gold.PLP.Chemscore.Metal>
0.0000

> <Gold.Chemscore.Hbonds>
donor molecule, donor type, donor heavy atom, donor atom, acceptor molecule, acceptor atom, score
      L1  H     9    30       P1  8028  0.90
      L1  H    12    31       P1  8028  0.91
      P1  H  7989  7998       L1    11  0.72

> <Gold.PLP.Chemscore.Internal.Correction>
0.1255

> <Gold.Rescore>
     Score         DG    S(hbond)    S(metal)    S(lipo)     H(rot)  DE(clash)    DE(int)     intcor
     20.86     -21.30       2.04        0.00     108.96       1.46       0.22       0.21       ----

> <Gold.Chemscore.Fitness>
20.8596

> <Gold.Chemscore.DG>
-21.2975

> <Gold.Chemscore.ZeroCoef>
-5.4800

> <Gold.Chemscore.Hbond>
2.0392

> <Gold.Chemscore.Metal>
0.0000

> <Gold.Chemscore.Lipo>
108.9578

> <Gold.Chemscore.Internal_Hbond>
0.0000

> <Gold.Chemscore.DEClash>
0.2245

> <Gold.Chemscore.DEInternal>
0.2134

> <Gold.Chemscore.Rot>
1.4616

> <Gold.Chemscore.Internal.Correction>
   9.000000E+99

> <Gold.Chemscore.Hbonds>
donor molecule, donor type, donor heavy atom, donor atom, acceptor molecule, acceptor atom, score
      L1  H     9    30       P1  8028  0.82
      L1  H    12    31       P1  8028  0.86
      P1  H  7989  7998       L1    11  0.24

> <Gold.Chemscore.Hbond.Weighted>
-6.8111

> <Gold.Chemscore.Metal.Weighted>
-0.0000

> <Gold.Chemscore.Lipo.Weighted>
-12.7481

> <Gold.Chemscore.Internal_Hbond.Weighted>
0.0000

> <Gold.Chemscore.DEClash.Weighted>
0.2245

> <Gold.Chemscore.DEInternal.Weighted>
0.2134

> <Gold.Chemscore.Rot.Weighted>
3.7416

> <Gold.Chemscore.Internal.Correction.Weighted>
   9.000000E+99

> <Gold.Protein.RotatedTorsions>
[ 6907 6896 6895 6894 ] final -101.28 input  -60.11 | X-H torsion
[ 7974 7965 7964 7962 ] final   47.35 input  175.53 | X-H torsion
[ 8008 7997 7996 7995 ] final   -5.83 input   59.86 | X-H torsion
[ 10167 10162 10161 10158 ] final  -80.92 input  -65.29 | X-H torsion
[ 10718 10713 10712 10709 ] final -159.82 input   66.30 | X-H torsion
[ 10763 10752 10751 10750 ] final  -28.32 input  -60.55 | X-H torsion
[ 11005 11000 10999 10996 ] final  178.04 input  -57.11 | X-H torsion

> <Gold.Protein.ActiveResidues>
 VAL166  LYS551  ARG553  GLY616  TRP617  ASP618  TYR619  PRO620  LYS621  CYS622 
 ASP623  PHE694  ASN695  SER759  ASP760  ASP761  ALA762  ILE779  LEU786  VAL792 
 PHE793  MET794  SER795  GLU796  ALA797  LYS798  CYS799  TRP800  GLU811  SER814 

> <Gold.Protein.RotatedAtoms>
  150.7148  134.0759  159.3880 H   0  0  0  0  0  0  0  0  0  0  0  0  # atno 6907 bound_to 6896
  151.8742  135.0476  160.0491 H   0  0  0  0  0  0  0  0  0  0  0  0  # atno 6908 bound_to 6896
  152.2619  133.5269  159.5423 H   0  0  0  0  0  0  0  0  0  0  0  0  # atno 6909 bound_to 6896
  146.0305  139.4758  142.9840 H   0  0  0  0  0  0  0  0  0  0  0  0  # atno 7974 bound_to 7965
  154.5999  140.2448  155.7807 H   0  0  0  0  0  0  0  0  0  0  0  0  # atno 8008 bound_to 7997
  156.2304  140.2968  156.0125 H   0  0  0  0  0  0  0  0  0  0  0  0  # atno 8009 bound_to 7997
  155.2229  140.0401  157.2941 H   0  0  0  0  0  0  0  0  0  0  0  0  # atno 8010 bound_to 7997
  140.4459  143.2499  151.8559 H   0  0  0  0  0  0  0  0  0  0  0  0  # atno 10167 bound_to 10162
  156.5734  130.8698  151.2844 H   0  0  0  0  0  0  0  0  0  0  0  0  # atno 10718 bound_to 10713
  153.7465  135.6929  153.4955 H   0  0  0  0  0  0  0  0  0  0  0  0  # atno 10763 bound_to 10752
  153.2033  135.4429  155.0291 H   0  0  0  0  0  0  0  0  0  0  0  0  # atno 10764 bound_to 10752
  154.8202  135.3418  154.6988 H   0  0  0  0  0  0  0  0  0  0  0  0  # atno 10765 bound_to 10752
  140.3907  134.6865  157.4506 H   0  0  0  0  0  0  0  0  0  0  0  0  # atno 11005 bound_to 11000
  145.7047  141.0125  143.1485 LP  0  0  0  0  0  0  0  0  0  0  0  0  # atno 17320 bound_to 7965
  144.7028  139.8686  143.7439 LP  0  0  0  0  0  0  0  0  0  0  0  0  # atno 17321 bound_to 7965
  139.4793  144.5176  151.8847 LP  0  0  0  0  0  0  0  0  0  0  0  0  # atno 17342 bound_to 10162
  140.4264  144.2175  150.5887 LP  0  0  0  0  0  0  0  0  0  0  0  0  # atno 17343 bound_to 10162
  157.7343  130.9744  150.2021 LP  0  0  0  0  0  0  0  0  0  0  0  0  # atno 17370 bound_to 10713
  156.2694  130.3720  149.8047 LP  0  0  0  0  0  0  0  0  0  0  0  0  # atno 17371 bound_to 10713
  140.0409  134.6269  155.8982 LP  0  0  0  0  0  0  0  0  0  0  0  0  # atno 17394 bound_to 11000
  141.1892  133.6564  156.5356 LP  0  0  0  0  0  0  0  0  0  0  0  0  # atno 17395 bound_to 11000

$$$$
