AV-unprocessed.smi:1852|AV-procd|sdf|7526|dock3
  -GOLD-   22720 9233D 1   1.00000     0.00000
 Structure written by MMmdl.
 46 48  0  0  0  0  0  0  0  0  2 V2000
  154.4560  139.6900  161.3893 C   0  0  0  0  0  0  0  0  0  0  0  0
  153.5674  140.7700  160.8071 C   0  0  0  0  0  0  0  0  0  0  0  0
  153.5613  142.0637  161.3637 C   0  0  0  0  0  0  0  0  0  0  0  0
  152.7344  143.0609  160.8156 C   0  0  0  0  0  0  0  0  0  0  0  0
  151.9098  142.7721  159.7087 C   0  0  0  0  0  0  0  0  0  0  0  0
  151.0283  143.8603  159.1240 C   0  0  0  0  0  0  0  0  0  0  0  0
  151.9063  141.4772  159.1411 C   0  0  0  0  0  0  0  0  0  0  0  0
  151.0734  141.2608  158.0641 O   0  0  0  0  0  0  0  0  0  0  0  0
  151.3302  140.1495  157.2164 C   0  0  0  0  0  0  0  0  0  0  0  0
  151.2579  140.6056  155.7526 C   0  0  0  0  0  0  0  0  0  0  0  0
  150.2378  139.8638  154.9943 N   0  0  0  0  0  0  0  0  0  0  0  0
  150.2130  138.5606  154.5903 C   0  0  0  0  0  0  0  0  0  0  0  0
  151.2579  137.5167  154.8358 C   0  0  0  0  0  0  0  0  0  0  0  0
  150.8514  136.1883  154.3934 N   0  0  0  0  0  0  0  0  0  0  0  0
  150.2758  135.2617  155.1731 C   0  0  0  0  0  0  0  0  0  0  0  0
  150.0036  135.4244  156.3614 O   0  0  0  0  0  0  0  0  0  0  0  0
  149.0485  138.3729  153.9069 N   0  3  0  0  0  0  0  0  0  0  0  0
  148.3264  139.5657  153.8647 C   0  0  0  0  0  0  0  0  0  0  0  0
  147.0988  139.8669  153.2827 C   0  0  0  0  0  0  0  0  0  0  0  0
  146.6443  141.1953  153.4155 C   0  0  0  0  0  0  0  0  0  0  0  0
  147.4017  142.1645  154.1041 C   0  0  0  0  0  0  0  0  0  0  0  0
  148.6431  141.8463  154.6924 C   0  0  0  0  0  0  0  0  0  0  0  0
  149.0852  140.5298  154.5591 C   0  0  0  0  0  0  0  0  0  0  0  0
  152.7434  140.4791  159.7013 C   0  0  0  0  0  0  0  0  0  0  0  0
  154.9282  140.0194  162.3154 H   0  0  0  0  0  0  0  0  0  0  0  0
  155.2412  139.4259  160.6806 H   0  0  0  0  0  0  0  0  0  0  0  0
  153.8731  138.7944  161.6062 H   0  0  0  0  0  0  0  0  0  0  0  0
  154.1887  142.2967  162.2115 H   0  0  0  0  0  0  0  0  0  0  0  0
  152.7380  144.0501  161.2495 H   0  0  0  0  0  0  0  0  0  0  0  0
  149.9773  143.5868  159.2191 H   0  0  0  0  0  0  0  0  0  0  0  0
  151.2521  144.0025  158.0663 H   0  0  0  0  0  0  0  0  0  0  0  0
  151.1791  144.8131  159.6320 H   0  0  0  0  0  0  0  0  0  0  0  0
  152.3226  139.7439  157.4195 H   0  0  0  0  0  0  0  0  0  0  0  0
  150.5987  139.3595  157.3914 H   0  0  0  0  0  0  0  0  0  0  0  0
  151.0137  141.6663  155.7000 H   0  0  0  0  0  0  0  0  0  0  0  0
  152.2242  140.4953  155.2613 H   0  0  0  0  0  0  0  0  0  0  0  0
  152.1632  137.7970  154.2967 H   0  0  0  0  0  0  0  0  0  0  0  0
  151.5266  137.4903  155.8923 H   0  0  0  0  0  0  0  0  0  0  0  0
  151.0351  135.9498  153.4296 H   0  0  0  0  0  0  0  0  0  0  0  0
  150.0806  134.3382  154.6064 H   0  0  0  0  0  0  0  0  0  0  0  0
  146.5182  139.1270  152.7518 H   0  0  0  0  0  0  0  0  0  0  0  0
  145.6969  141.4767  152.9789 H   0  0  0  0  0  0  0  0  0  0  0  0
  147.0242  143.1738  154.1823 H   0  0  0  0  0  0  0  0  0  0  0  0
  149.2164  142.5999  155.2115 H   0  0  0  0  0  0  0  0  0  0  0  0
  152.7669  139.4773  159.3000 H   0  0  0  0  0  0  0  0  0  0  0  0
  148.7716  137.4903  153.4971 H   0  0  0  0  0  0  0  0  0  0  0  0
  1  2  1  0  0  0  0
  1 25  1  0  0  0  0
  1 26  1  0  0  0  0
  1 27  1  0  0  0  0
  2 24  1  0  0  0  0
  2  3  2  0  0  0  0
  3  4  1  0  0  0  0
  3 28  1  0  0  0  0
  4  5  2  0  0  0  0
  4 29  1  0  0  0  0
  5  6  1  0  0  0  0
  5  7  1  0  0  0  0
  6 30  1  0  0  0  0
  6 31  1  0  0  0  0
  6 32  1  0  0  0  0
  7  8  1  0  0  0  0
  7 24  2  0  0  0  0
  8  9  1  0  0  0  0
  9 10  1  0  0  0  0
  9 33  1  0  0  0  0
  9 34  1  0  0  0  0
 10 11  1  0  0  0  0
 10 35  1  0  0  0  0
 10 36  1  0  0  0  0
 11 23  1  0  0  0  0
 11 12  1  0  0  0  0
 12 13  1  0  0  0  0
 12 17  2  0  0  0  0
 13 14  1  0  0  0  0
 13 37  1  0  0  0  0
 13 38  1  0  0  0  0
 14 15  1  0  0  0  0
 14 39  1  0  0  0  0
 15 16  2  0  0  0  0
 15 40  1  0  0  0  0
 17 18  1  0  0  0  0
 17 46  1  0  0  0  0
 18 23  2  0  0  0  0
 18 19  1  0  0  0  0
 19 20  2  0  0  0  0
 19 41  1  0  0  0  0
 20 21  1  0  0  0  0
 20 42  1  0  0  0  0
 21 22  2  0  0  0  0
 21 43  1  0  0  0  0
 22 23  1  0  0  0  0
 22 44  1  0  0  0  0
 24 45  1  0  0  0  0
M  CHG  1  17   1
M  END
> <s_m_source_file>
AV-unprocessed.smi

> <i_m_source_file_index>
1852

> <i_lp_mmshare_version>
43012

> <i_f3d_flags>
0

> <s_epik_input>
W0NIM11jMVtjSF1bY0hdYyhbQ0gzXSljKFtjSF0xKU9bQ0gyXVtDSDJdbihjKG4yKVtDSDJdW05IXVtDSF09TyljKGMyMylbY0hdW2NIXVtjSF1bY0hdMw==

> <s_epik_cmdline>
J2VwaWtfcHl0aG9uJywgJy1waCcsICc3LjAnLCAnLXRuJywgJzgnLCAnLW1hJywgJzIwMCcsICctbWV0YWxfYmluZGluZycsICctaW1hZScsICc8aW5maWxlLm1hZT4nLCAnLW9tYWUnLCAnPG91dGZpbGUubWFlPic=

> <r_lp_tautomer_probability>
1

> <r_epik_Ionization_Penalty>
1.39865

> <r_epik_Ionization_Penalty_Charging>
1.39865

> <r_epik_Ionization_Penalty_Neutral>
7.38905e-08

> <r_epik_State_Penalty>
1.48061

> <r_epik_Charging_Adjusted_Penalty>
2.87925

> <i_epik_Tot_Q>
1

> <i_epik_Tot_abs_Q>
1

> <r_epik_Metal_State_Penalty>
1.53473

> <b_epik_Metal_Only>
0

> <s_lp_Force_Field>
OPLS_2005

> <r_lp_Energy>
13.537

> <b_lp_Chiralities_Consistent>
1

> <s_lp_Variant>
AV-unprocessed.smi:1852-2

> <Gold.Version>
5.8.1

> <Gold.Id.Protein>
6NUR|6NUR_protein|mol2

> <Gold.PLP.Fitness>
58.1848

> <Gold.PLP.PLP>
-51.5420

> <Gold.PLP.part.hbond>
-3.5393

> <Gold.PLP.part.metal>
0.0000

> <Gold.PLP.part.buried>
0.7548

> <Gold.PLP.part.nonpolar>
-49.4042

> <Gold.PLP.part.repulsive>
0.7268

> <Gold.PLP.ligand.clash>
0.0000

> <Gold.PLP.ligand.torsion>
1.2830

> <Gold.PLP.Chemscore.Hbond>
2.9840

> <Gold.PLP.Chemscore.CHOScore>
0.0000

> <Gold.PLP.Chemscore.Metal>
0.0000

> <Gold.Chemscore.Hbonds>
donor molecule, donor type, donor heavy atom, donor atom, acceptor molecule, acceptor atom, score
      L1  H    14    39       P1  7949  0.95
      L1  H    17    46       P1  7948  1.66

> <Gold.PLP.Chemscore.Internal.Correction>
0.2568

> <Gold.Rescore>
     Score         DG    S(hbond)    S(metal)    S(lipo)     H(rot)  DE(clash)    DE(int)     intcor
     18.65     -21.25       1.84        0.00     135.79       2.44       1.22       1.37       ----

> <Gold.Chemscore.Fitness>
18.6516

> <Gold.Chemscore.DG>
-21.2467

> <Gold.Chemscore.ZeroCoef>
-5.4800

> <Gold.Chemscore.Hbond>
1.8350

> <Gold.Chemscore.Metal>
0.0000

> <Gold.Chemscore.Lipo>
135.7864

> <Gold.Chemscore.Internal_Hbond>
0.0000

> <Gold.Chemscore.DEClash>
1.2247

> <Gold.Chemscore.DEInternal>
1.3704

> <Gold.Chemscore.Rot>
2.4411

> <Gold.Chemscore.Internal.Correction>
   9.000000E+99

> <Gold.Chemscore.Hbonds>
donor molecule, donor type, donor heavy atom, donor atom, acceptor molecule, acceptor atom, score
      L1  H    14    39       P1  7949  0.21
      L1  H    17    46       P1  7948  0.78

> <Gold.Chemscore.Hbond.Weighted>
-6.1290

> <Gold.Chemscore.Metal.Weighted>
-0.0000

> <Gold.Chemscore.Lipo.Weighted>
-15.8870

> <Gold.Chemscore.Internal_Hbond.Weighted>
0.0000

> <Gold.Chemscore.DEClash.Weighted>
1.2247

> <Gold.Chemscore.DEInternal.Weighted>
1.3704

> <Gold.Chemscore.Rot.Weighted>
6.2493

> <Gold.Chemscore.Internal.Correction.Weighted>
   9.000000E+99

> <Gold.Protein.RotatedTorsions>
[ 6907 6896 6895 6894 ] final  128.31 input  -60.11 | X-H torsion
[ 7974 7965 7964 7962 ] final  118.39 input  175.53 | X-H torsion
[ 8008 7997 7996 7995 ] final -165.31 input   59.86 | X-H torsion
[ 10167 10162 10161 10158 ] final  -60.63 input  -65.29 | X-H torsion
[ 10718 10713 10712 10709 ] final  151.06 input   66.30 | X-H torsion
[ 10763 10752 10751 10750 ] final -176.97 input  -60.55 | X-H torsion
[ 11005 11000 10999 10996 ] final -143.09 input  -57.11 | X-H torsion

> <Gold.Protein.ActiveResidues>
 VAL166  LYS551  ARG553  GLY616  TRP617  ASP618  TYR619  PRO620  LYS621  CYS622 
 ASP623  PHE694  ASN695  SER759  ASP760  ASP761  ALA762  ILE779  LEU786  VAL792 
 PHE793  MET794  SER795  GLU796  ALA797  LYS798  CYS799  TRP800  GLU811  SER814 

> <Gold.Protein.RotatedAtoms>
  152.3732  133.6446  159.6102 H   0  0  0  0  0  0  0  0  0  0  0  0  # atno 6907 bound_to 6896
  150.7684  133.9237  159.3414 H   0  0  0  0  0  0  0  0  0  0  0  0  # atno 6908 bound_to 6896
  151.7056  135.0923  160.0310 H   0  0  0  0  0  0  0  0  0  0  0  0  # atno 6909 bound_to 6896
  145.1558  139.3184  143.4543 H   0  0  0  0  0  0  0  0  0  0  0  0  # atno 7974 bound_to 7965
  155.8480  140.0958  157.1693 H   0  0  0  0  0  0  0  0  0  0  0  0  # atno 8008 bound_to 7997
  154.3984  140.1388  156.3871 H   0  0  0  0  0  0  0  0  0  0  0  0  # atno 8009 bound_to 7997
  155.7993  140.3453  155.5396 H   0  0  0  0  0  0  0  0  0  0  0  0  # atno 8010 bound_to 7997
  140.6059  143.2373  151.5822 H   0  0  0  0  0  0  0  0  0  0  0  0  # atno 10167 bound_to 10162
  157.2755  131.0825  151.1569 H   0  0  0  0  0  0  0  0  0  0  0  0  # atno 10718 bound_to 10713
  154.5659  135.2824  155.0874 H   0  0  0  0  0  0  0  0  0  0  0  0  # atno 10763 bound_to 10752
  154.2265  135.6382  153.5165 H   0  0  0  0  0  0  0  0  0  0  0  0  # atno 10764 bound_to 10752
  153.0043  135.5527  154.6267 H   0  0  0  0  0  0  0  0  0  0  0  0  # atno 10765 bound_to 10752
  140.8160  134.2688  157.4921 H   0  0  0  0  0  0  0  0  0  0  0  0  # atno 11005 bound_to 11000
  146.3489  140.1649  142.8590 LP  0  0  0  0  0  0  0  0  0  0  0  0  # atno 17320 bound_to 7965
  145.0383  140.8925  143.5068 LP  0  0  0  0  0  0  0  0  0  0  0  0  # atno 17321 bound_to 7965
  139.5324  144.2876  152.1178 LP  0  0  0  0  0  0  0  0  0  0  0  0  # atno 17342 bound_to 10162
  140.2066  144.4605  150.6406 LP  0  0  0  0  0  0  0  0  0  0  0  0  # atno 17343 bound_to 10162
  157.3024  130.6849  149.6171 LP  0  0  0  0  0  0  0  0  0  0  0  0  # atno 17370 bound_to 10713
  155.9663  130.4388  150.5232 LP  0  0  0  0  0  0  0  0  0  0  0  0  # atno 17371 bound_to 10713
  139.8711  134.9509  156.4070 LP  0  0  0  0  0  0  0  0  0  0  0  0  # atno 17394 bound_to 11000
  140.9148  133.7686  155.9835 LP  0  0  0  0  0  0  0  0  0  0  0  0  # atno 17395 bound_to 11000

$$$$
