#       Name:                AV-unprocessed.smi:1843
#       Creating user name   scv26
#       Creation time:       Fri Mar 27 09:20:53 2020


#       File generated by GOLD software.
#

@<TRIPOS>MOLECULE
AV-unprocessed.smi:1843
    43    45     1
SMALL
NO_CHARGES


@<TRIPOS>ATOM
      1 ****         0.6128   0.5386  -0.2406 O.2            1 S1                 0.0000
      2 ****         0.0094  -0.3830   0.3139 C.2            1 S1                 0.0000
      3 ****         0.5571  -1.5187   0.8032 N.pl3          1 S1                -1.0000
      4 ****         1.8823  -1.7192   0.7120 C.2            1 S1                 0.0000
      5 ****         2.7163  -1.4832   1.7345 N.2            1 S1                 0.0000
      6 ****         4.0415  -1.7583   1.4307 N.2            1 S1                 0.0000
      7 ****         4.1895  -2.2073   0.1821 C.2            1 S1                 0.0000
      8 ****         5.5218  -2.5713  -0.3829 C.3            1 S1                 0.0000
      9 ****         6.5177  -1.4997  -0.7621 C.3            1 S1                 0.0000
     10 ****         5.8606  -2.3268  -1.8373 C.3            1 S1                 0.0000
     11 ****         2.6926  -2.3348  -0.7281 S.3            1 S1                 0.0000
     12 ****        -1.3193  -0.3113   0.4773 N.am           1 S1                 0.0000
     13 ****        -2.1835   0.7845   0.0416 C.3            1 S1                 0.0000
     14 ****        -2.1560   1.9029   1.1076 C.3            1 S1                 0.0000
     15 ****        -3.1582   3.0248   0.8003 C.3            1 S1                 0.0000
     16 ****        -4.5784   2.4645   0.6498 C.3            1 S1                 0.0000
     17 ****        -4.6221   1.3904  -0.4451 C.3            1 S1                 0.0000
     18 ****        -3.6206   0.2524  -0.1694 C.3            1 S1                 0.0000
     19 ****        -3.6487  -0.6151  -1.2855 O.3            1 S1                 0.0000
     20 ****         5.9011  -3.4790   0.0823 H              1 S1                 0.0000
     21 ****         6.2045  -0.4618  -0.6667 H              1 S1                 0.0000
     22 ****         7.5668  -1.6924  -0.5475 H              1 S1                 0.0000
     23 ****         6.4721  -3.0720  -2.3417 H              1 S1                 0.0000
     24 ****         5.1203  -1.8318  -2.4625 H              1 S1                 0.0000
     25 ****        -1.7708  -1.0910   0.9323 H              1 S1                 0.0000
     26 ****        -1.8195   1.1922  -0.9037 H              1 S1                 0.0000
     27 ****        -2.3859   1.4811   2.0873 H              1 S1                 0.0000
     28 ****        -1.1526   2.3234   1.1842 H              1 S1                 0.0000
     29 ****        -3.1346   3.7716   1.5942 H              1 S1                 0.0000
     30 ****        -2.8651   3.5374  -0.1168 H              1 S1                 0.0000
     31 ****        -4.9108   2.0395   1.5979 H              1 S1                 0.0000
     32 ****        -5.2731   3.2698   0.4091 H              1 S1                 0.0000
     33 ****        -5.6326   0.9876  -0.5247 H              1 S1                 0.0000
     34 ****        -4.3986   1.8545  -1.4070 H              1 S1                 0.0000
     35 ****        -3.9449  -0.3031   0.7120 H              1 S1                 0.0000
     36 ****        -3.2906  -0.1563  -2.0299 H              1 S1                 0.0000
     37 ****         1.6039   0.4853  -0.3627 LP             1 S1                 0.0000
     38 ****         0.1110   1.3392  -0.5681 LP             1 S1                 0.0000
     39 ****        -0.0246  -2.2093   1.2330 LP             1 S1                 0.0000
     40 ****         2.4140  -1.1435   2.6252 LP             1 S1                 0.0000
     41 ****         4.7983  -1.6346   2.0725 LP             1 S1                 0.0000
     42 ****        -4.5916  -0.8868  -1.4781 LP             1 S1                 0.0000
     43 ****        -3.0997  -1.4288  -1.0945 LP             1 S1                 0.0000
@<TRIPOS>BOND
    1    1    2 2     
    2    2    3 1     
    3    2   12 am    
    4    3    4 1     
    5    4   11 1     
    6    4    5 2     
    7    5    6 1     
    8    6    7 2     
    9    7    8 1     
   10    7   11 1     
   11    8   10 1     
   12    8    9 1     
   13    8   20 1     
   14    9   10 1     
   15    9   21 1     
   16    9   22 1     
   17   10   23 1     
   18   10   24 1     
   19   12   13 1     
   20   12   25 1     
   21   13   18 1     
   22   13   14 1     
   23   13   26 1     
   24   14   15 1     
   25   14   27 1     
   26   14   28 1     
   27   15   16 1     
   28   15   29 1     
   29   15   30 1     
   30   16   17 1     
   31   16   31 1     
   32   16   32 1     
   33   17   18 1     
   34   17   33 1     
   35   17   34 1     
   36   18   19 1     
   37   18   35 1     
   38   19   36 1     
   39    1   37 1     
   40    1   38 1     
   41    3   39 1     
   42    5   40 1     
   43    6   41 1     
   44   19   42 1     
   45   19   43 1     
@<TRIPOS>SUBSTRUCTURE
      1 S1             1
@<TRIPOS>SET
LONE_PAIRS      STATIC     ATOMS    <user>   **** ""
7 37 38 39 40 41 42 43
DONOR_HYDROGENS      STATIC     ATOMS    <user>   **** ""
2 25 36
ATOM$BLUE        STATIC     ATOMS    COLORGROUP SYSTEM
7 37 38 39 40 41 42 43
ATOM$RED        STATIC     ATOMS    COLORGROUP SYSTEM
2 25 36
