AV-unprocessed.smi:1010|AV-procd|sdf|4415|dock1
  -GOLD-   22720 2363D 1   1.00000     0.00000
 Structure written by MMmdl.
 55 57  0  0  0  0  0  0  0  0  2 V2000
  143.6590  135.5290  154.3352 C   0  0  0  0  0  0  0  0  0  0  0  0
  143.4882  134.3257  153.4820 N   0  3  0  0  0  0  0  0  0  0  0  0
  142.3047  134.4891  152.5973 C   0  0  0  0  0  0  0  0  0  0  0  0
  144.7289  133.7876  152.8064 C   0  0  0  0  0  0  0  0  0  0  0  0
  145.7784  133.4395  153.9132 C   0  0  0  0  0  0  0  0  0  0  0  0
  145.3414  132.3833  154.8253 N   0  0  0  0  0  0  0  0  0  0  0  0
  146.0109  131.9350  155.8957 C   0  0  0  0  0  0  0  0  0  0  0  0
  147.1067  132.3717  156.2459 O   0  0  0  0  0  0  0  0  0  0  0  0
  145.3427  130.9392  156.4987 N   0  0  0  0  0  0  0  0  0  0  0  0
  145.7822  130.1168  157.5728 C   0  0  0  0  0  0  0  0  0  0  0  0
  147.1466  129.7726  157.7326 C   0  0  0  0  0  0  0  0  0  0  0  0
  147.5395  129.0142  158.8487 C   0  0  0  0  0  0  0  0  0  0  0  0
  146.5545  128.6387  159.7773 C   0  0  0  0  0  0  0  0  0  0  0  0
  145.2545  128.9707  159.6466 N   0  0  0  0  0  0  0  0  0  0  0  0
  144.8577  129.6909  158.5689 C   0  0  0  0  0  0  0  0  0  0  0  0
  143.4807  129.9974  158.4752 N   0  0  0  0  0  0  0  0  0  0  0  0
  142.8449  130.8561  159.4689 C   0  0  0  0  0  0  0  0  0  0  0  0
  141.3467  130.6389  159.2767 C   0  0  0  0  0  0  0  0  0  0  0  0
  141.2777  129.1587  158.9141 C   0  0  0  0  0  0  0  0  0  0  0  0
  142.5629  128.9208  158.1134 C   0  0  0  0  0  0  0  0  0  0  0  0
  144.4009  132.5228  151.9647 C   0  0  0  0  0  0  0  0  0  0  0  0
  145.5778  132.0576  151.0832 C   0  0  0  0  0  0  0  0  0  0  0  0
  146.0278  133.1165  150.2485 O   0  0  0  0  0  0  0  0  0  0  0  0
  146.4999  134.2398  150.9802 C   0  0  0  0  0  0  0  0  0  0  0  0
  145.3446  134.8224  151.8124 C   0  0  0  0  0  0  0  0  0  0  0  0
  144.0897  136.3579  153.7729 H   0  0  0  0  0  0  0  0  0  0  0  0
  144.2864  135.3208  155.2015 H   0  0  0  0  0  0  0  0  0  0  0  0
  142.6983  135.8603  154.7314 H   0  0  0  0  0  0  0  0  0  0  0  0
  142.4164  135.3498  151.9369 H   0  0  0  0  0  0  0  0  0  0  0  0
  141.4086  134.6507  153.1971 H   0  0  0  0  0  0  0  0  0  0  0  0
  142.1147  133.6107  151.9835 H   0  0  0  0  0  0  0  0  0  0  0  0
  146.7454  133.1795  153.4832 H   0  0  0  0  0  0  0  0  0  0  0  0
  145.9923  134.3031  154.5391 H   0  0  0  0  0  0  0  0  0  0  0  0
  144.4464  131.9606  154.6240 H   0  0  0  0  0  0  0  0  0  0  0  0
  144.4878  130.6410  156.0519 H   0  0  0  0  0  0  0  0  0  0  0  0
  147.8995  130.0973  157.0305 H   0  0  0  0  0  0  0  0  0  0  0  0
  148.5732  128.7390  158.9961 H   0  0  0  0  0  0  0  0  0  0  0  0
  146.8170  128.0620  160.6517 H   0  0  0  0  0  0  0  0  0  0  0  0
  143.1268  130.5558  160.4787 H   0  0  0  0  0  0  0  0  0  0  0  0
  143.1253  131.9006  159.3300 H   0  0  0  0  0  0  0  0  0  0  0  0
  140.7634  130.8913  160.1625 H   0  0  0  0  0  0  0  0  0  0  0  0
  140.9835  131.2440  158.4449 H   0  0  0  0  0  0  0  0  0  0  0  0
  141.2966  128.5593  159.8255 H   0  0  0  0  0  0  0  0  0  0  0  0
  140.3768  128.8967  158.3588 H   0  0  0  0  0  0  0  0  0  0  0  0
  142.3512  128.9837  157.0458 H   0  0  0  0  0  0  0  0  0  0  0  0
  142.9834  127.9353  158.3190 H   0  0  0  0  0  0  0  0  0  0  0  0
  144.1021  131.6931  152.6058 H   0  0  0  0  0  0  0  0  0  0  0  0
  143.5509  132.7273  151.3128 H   0  0  0  0  0  0  0  0  0  0  0  0
  146.4045  131.6766  151.6829 H   0  0  0  0  0  0  0  0  0  0  0  0
  145.2562  131.2321  150.4480 H   0  0  0  0  0  0  0  0  0  0  0  0
  147.3579  133.9685  151.5951 H   0  0  0  0  0  0  0  0  0  0  0  0
  146.8545  134.9867  150.2697 H   0  0  0  0  0  0  0  0  0  0  0  0
  144.6050  135.1460  151.0809 H   0  0  0  0  0  0  0  0  0  0  0  0
  145.6718  135.7247  152.3300 H   0  0  0  0  0  0  0  0  0  0  0  0
  143.2236  133.5969  154.1300 H   0  0  0  0  0  0  0  0  0  0  0  0
  1  2  1  0  0  0  0
  1 26  1  0  0  0  0
  1 27  1  0  0  0  0
  1 28  1  0  0  0  0
  2  3  1  0  0  0  0
  2  4  1  0  0  0  0
  2 55  1  0  0  0  0
  3 29  1  0  0  0  0
  3 30  1  0  0  0  0
  3 31  1  0  0  0  0
  4 25  1  0  0  0  0
  4  5  1  0  0  0  0
  4 21  1  0  0  0  0
  5  6  1  0  0  0  0
  5 32  1  0  0  0  0
  5 33  1  0  0  0  0
  6  7  1  0  0  0  0
  6 34  1  0  0  0  0
  7  8  2  0  0  0  0
  7  9  1  0  0  0  0
  9 10  1  0  0  0  0
  9 35  1  0  0  0  0
 10 15  1  0  0  0  0
 10 11  2  0  0  0  0
 11 12  1  0  0  0  0
 11 36  1  0  0  0  0
 12 13  2  0  0  0  0
 12 37  1  0  0  0  0
 13 14  1  0  0  0  0
 13 38  1  0  0  0  0
 14 15  2  0  0  0  0
 15 16  1  0  0  0  0
 16 20  1  0  0  0  0
 16 17  1  0  0  0  0
 17 18  1  0  0  0  0
 17 39  1  0  0  0  0
 17 40  1  0  0  0  0
 18 19  1  0  0  0  0
 18 41  1  0  0  0  0
 18 42  1  0  0  0  0
 19 20  1  0  0  0  0
 19 43  1  0  0  0  0
 19 44  1  0  0  0  0
 20 45  1  0  0  0  0
 20 46  1  0  0  0  0
 21 22  1  0  0  0  0
 21 47  1  0  0  0  0
 21 48  1  0  0  0  0
 22 23  1  0  0  0  0
 22 49  1  0  0  0  0
 22 50  1  0  0  0  0
 23 24  1  0  0  0  0
 24 25  1  0  0  0  0
 24 51  1  0  0  0  0
 24 52  1  0  0  0  0
 25 53  1  0  0  0  0
 25 54  1  0  0  0  0
M  CHG  1   2   1
M  END
> <s_m_source_file>
AV-unprocessed.smi

> <i_m_source_file_index>
1010

> <i_lp_mmshare_version>
43012

> <i_f3d_flags>
0

> <s_epik_input>
W0NIMl0xW0NIMl1PW0NIMl1bQ0gyXUMxKE4oW0NIM10pW0NIM10pW0NIMl1bTkhdQyg9TylbTkhdYzJbY0hdW2NIXVtjSF1uYzJOM1tDSDJdW0NIMl1bQ0gyXVtDSDJdMw==

> <s_epik_cmdline>
J2VwaWtfcHl0aG9uJywgJy1waCcsICc3LjAnLCAnLXRuJywgJzgnLCAnLW1hJywgJzIwMCcsICctbWV0YWxfYmluZGluZycsICctaW1hZScsICc8aW5maWxlLm1hZT4nLCAnLW9tYWUnLCAnPG91dGZpbGUubWFlPic=

> <r_lp_tautomer_probability>
1

> <r_epik_Ionization_Penalty>
0.0977718

> <r_epik_Ionization_Penalty_Charging>
0.0128317

> <r_epik_Ionization_Penalty_Neutral>
0.0849401

> <r_epik_State_Penalty>
0.0837778

> <r_epik_Charging_Adjusted_Penalty>
0.0966095

> <i_epik_Tot_Q>
1

> <i_epik_Tot_abs_Q>
1

> <r_epik_Metal_State_Penalty>
0.0755623

> <b_epik_Metal_Only>
0

> <s_lp_Force_Field>
OPLS_2005

> <r_lp_Energy>
58.4563

> <b_lp_Chiralities_Consistent>
1

> <s_lp_Variant>
AV-unprocessed.smi:1010-1

> <Gold.Version>
5.8.1

> <Gold.Id.Protein>
6NUR|6NUR_protein|mol2

> <Gold.PLP.Fitness>
36.4698

> <Gold.PLP.PLP>
-25.4893

> <Gold.PLP.part.hbond>
-3.3802

> <Gold.PLP.part.metal>
0.0000

> <Gold.PLP.part.buried>
-5.3927

> <Gold.PLP.part.nonpolar>
-16.6745

> <Gold.PLP.part.repulsive>
0.5708

> <Gold.PLP.ligand.clash>
0.0000

> <Gold.PLP.ligand.torsion>
0.5141

> <Gold.PLP.Chemscore.Hbond>
3.8500

> <Gold.PLP.Chemscore.CHOScore>
0.0000

> <Gold.PLP.Chemscore.Metal>
0.0000

> <Gold.Chemscore.Hbonds>
donor molecule, donor type, donor heavy atom, donor atom, acceptor molecule, acceptor atom, score
      L1  H     2    55       P1 10957  2.00
      L1  H     6    34       P1 10957  0.95
      L1  H     9    35       P1 10956  0.85

> <Gold.PLP.Chemscore.Internal.Correction>
0.4586

> <Gold.Rescore>
     Score         DG    S(hbond)    S(metal)    S(lipo)     H(rot)  DE(clash)    DE(int)     intcor
     13.70     -15.44       1.80        0.00      68.78       1.60       0.16       1.57       ----

> <Gold.Chemscore.Fitness>
13.6992

> <Gold.Chemscore.DG>
-15.4367

> <Gold.Chemscore.ZeroCoef>
-5.4800

> <Gold.Chemscore.Hbond>
1.8007

> <Gold.Chemscore.Metal>
0.0000

> <Gold.Chemscore.Lipo>
68.7779

> <Gold.Chemscore.Internal_Hbond>
0.0000

> <Gold.Chemscore.DEClash>
0.1627

> <Gold.Chemscore.DEInternal>
1.5748

> <Gold.Chemscore.Rot>
1.6033

> <Gold.Chemscore.Internal.Correction>
   9.000000E+99

> <Gold.Chemscore.Hbonds>
donor molecule, donor type, donor heavy atom, donor atom, acceptor molecule, acceptor atom, score
      L1  H     2    55       P1 10957  0.93
      L1  H     6    34       P1 10957  0.21
      L1  H     9    35       P1 10956  0.14

> <Gold.Chemscore.Hbond.Weighted>
-6.0142

> <Gold.Chemscore.Metal.Weighted>
-0.0000

> <Gold.Chemscore.Lipo.Weighted>
-8.0470

> <Gold.Chemscore.Internal_Hbond.Weighted>
0.0000

> <Gold.Chemscore.DEClash.Weighted>
0.1627

> <Gold.Chemscore.DEInternal.Weighted>
1.5748

> <Gold.Chemscore.Rot.Weighted>
4.1046

> <Gold.Chemscore.Internal.Correction.Weighted>
   9.000000E+99

> <Gold.Protein.RotatedTorsions>
[ 6907 6896 6895 6894 ] final -135.83 input  -60.11 | X-H torsion
[ 7974 7965 7964 7962 ] final   -6.79 input  175.53 | X-H torsion
[ 8008 7997 7996 7995 ] final  -49.92 input   59.86 | X-H torsion
[ 10167 10162 10161 10158 ] final   -4.59 input  -65.29 | X-H torsion
[ 10718 10713 10712 10709 ] final   21.32 input   66.30 | X-H torsion
[ 10763 10752 10751 10750 ] final -142.55 input  -60.55 | X-H torsion
[ 11005 11000 10999 10996 ] final  117.59 input  -57.11 | X-H torsion

> <Gold.Protein.ActiveResidues>
 VAL166  LYS551  ARG553  GLY616  TRP617  ASP618  TYR619  PRO620  LYS621  CYS622 
 ASP623  PHE694  ASN695  SER759  ASP760  ASP761  ALA762  ILE779  LEU786  VAL792 
 PHE793  MET794  SER795  GLU796  ALA797  LYS798  CYS799  TRP800  GLU811  SER814 

> <Gold.Protein.RotatedAtoms>
  151.0026  133.6042  159.2692 H   0  0  0  0  0  0  0  0  0  0  0  0  # atno 6907 bound_to 6896
  151.3222  135.0820  159.9319 H   0  0  0  0  0  0  0  0  0  0  0  0  # atno 6908 bound_to 6896
  152.5278  133.9671  159.7799 H   0  0  0  0  0  0  0  0  0  0  0  0  # atno 6909 bound_to 6896
  146.2323  140.2222  142.8338 H   0  0  0  0  0  0  0  0  0  0  0  0  # atno 7974 bound_to 7965
  154.4052  140.1285  156.4581 H   0  0  0  0  0  0  0  0  0  0  0  0  # atno 8008 bound_to 7997
  155.7300  140.3491  155.5035 H   0  0  0  0  0  0  0  0  0  0  0  0  # atno 8009 bound_to 7997
  155.9136  140.1040  157.1251 H   0  0  0  0  0  0  0  0  0  0  0  0  # atno 8010 bound_to 7997
  140.6933  143.6406  150.8439 H   0  0  0  0  0  0  0  0  0  0  0  0  # atno 10167 bound_to 10162
  157.1369  130.6615  149.5969 H   0  0  0  0  0  0  0  0  0  0  0  0  # atno 10718 bound_to 10713
  154.8505  135.3493  154.6045 H   0  0  0  0  0  0  0  0  0  0  0  0  # atno 10763 bound_to 10752
  153.6654  135.6987  153.5168 H   0  0  0  0  0  0  0  0  0  0  0  0  # atno 10764 bound_to 10752
  153.2784  135.4271  155.1012 H   0  0  0  0  0  0  0  0  0  0  0  0  # atno 10765 bound_to 10752
  139.9080  134.9612  156.7375 H   0  0  0  0  0  0  0  0  0  0  0  0  # atno 11005 bound_to 11000
  144.9623  140.8287  143.5506 LP  0  0  0  0  0  0  0  0  0  0  0  0  # atno 17320 bound_to 7965
  145.2194  139.2166  143.5101 LP  0  0  0  0  0  0  0  0  0  0  0  0  # atno 17321 bound_to 7965
  140.0121  143.5632  152.2835 LP  0  0  0  0  0  0  0  0  0  0  0  0  # atno 17342 bound_to 10162
  139.6359  144.7650  151.2439 LP  0  0  0  0  0  0  0  0  0  0  0  0  # atno 17343 bound_to 10162
  155.9796  130.4791  150.6727 LP  0  0  0  0  0  0  0  0  0  0  0  0  # atno 17370 bound_to 10713
  157.4342  131.0853  151.1008 LP  0  0  0  0  0  0  0  0  0  0  0  0  # atno 17371 bound_to 10713
  140.6876  133.9418  155.7947 LP  0  0  0  0  0  0  0  0  0  0  0  0  # atno 17394 bound_to 11000
  141.0465  134.0547  157.3838 LP  0  0  0  0  0  0  0  0  0  0  0  0  # atno 17395 bound_to 11000

$$$$
