#       Name:                AV-unprocessed.smi:2625
#       Creating user name   scv26
#       Creation time:       Fri Mar 27 14:24:37 2020


#       File generated by GOLD software.
#

@<TRIPOS>MOLECULE
AV-unprocessed.smi:2625
    30    30     1
SMALL
NO_CHARGES


@<TRIPOS>ATOM
      1 ****        -2.6503   2.2183   0.5792 C.3            1 S1                 0.0000
      2 ****        -1.2894   1.8288   0.6275 O.3            1 S1                 0.0000
      3 ****        -1.0848   0.6558   1.3973 C.3            1 S1                 0.0000
      4 ****         0.4070   0.2833   1.4005 C.3            1 S1                 0.0000
      5 ****         0.8716  -0.2087   0.1188 N.am           1 S1                 0.0000
      6 ****         0.7505  -1.5418  -0.2817 C.2            1 S1                 0.0000
      7 ****         0.1602  -2.4543   0.5750 N.pl3          1 S1                 0.0000
      8 ****         1.1880  -1.9628  -1.4955 C.2            1 S1                 0.0000
      9 ****         1.8020  -1.0415  -2.4448 C.2            1 S1                 0.0000
     10 ****         2.2258  -1.3476  -3.5571 O.2            1 S1                 0.0000
     11 ****         1.8842   0.2778  -2.0001 N.am           1 S1                 0.0000
     12 ****         1.4409   0.7437  -0.7639 C.2            1 S1                 0.0000
     13 ****         1.5569   1.9396  -0.4939 O.2            1 S1                 0.0000
     14 ****         2.2943   0.9532  -2.6285 H              1 S1                 0.0000
     15 ****        -2.7505   3.1238  -0.0193 H              1 S1                 0.0000
     16 ****        -3.0359   2.4300   1.5773 H              1 S1                 0.0000
     17 ****        -3.2658   1.4429   0.1216 H              1 S1                 0.0000
     18 ****        -1.4129   0.8356   2.4219 H              1 S1                 0.0000
     19 ****        -1.6834  -0.1682   1.0056 H              1 S1                 0.0000
     20 ****         1.0406   1.1145   1.7137 H              1 S1                 0.0000
     21 ****         0.6073  -0.5114   2.1190 H              1 S1                 0.0000
     22 ****        -0.1869  -2.1846   1.4844 H              1 S1                 0.0000
     23 ****         0.0582  -3.4281   0.3279 H              1 S1                 0.0000
     24 ****         1.0825  -3.0009  -1.7791 H              1 S1                 0.0000
     25 ****        -0.7573   2.5733   1.0307 LP             1 S1                 0.0000
     26 ****        -0.9715   1.6592  -0.3054 LP             1 S1                 0.0000
     27 ****         2.1628  -2.2943  -3.8731 LP             1 S1                 0.0000
     28 ****         2.6337  -0.6500  -4.1462 LP             1 S1                 0.0000
     29 ****         1.2407   2.2857   0.3893 LP             1 S1                 0.0000
     30 ****         1.9674   2.5646  -1.1580 LP             1 S1                 0.0000
@<TRIPOS>BOND
    1    1    2 1     
    2    1   15 1     
    3    1   16 1     
    4    1   17 1     
    5    2    3 1     
    6    3    4 1     
    7    3   18 1     
    8    3   19 1     
    9    4    5 1     
   10    4   20 1     
   11    4   21 1     
   12    5   12 1     
   13    5    6 1     
   14    6    7 1     
   15    6    8 2     
   16    7   22 1     
   17    7   23 1     
   18    8    9 1     
   19    8   24 1     
   20    9   10 2     
   21    9   11 1     
   22   11   14 1     
   23   11   12 1     
   24   12   13 2     
   25    2   25 1     
   26    2   26 1     
   27   10   27 1     
   28   10   28 1     
   29   13   29 1     
   30   13   30 1     
@<TRIPOS>SUBSTRUCTURE
      1 S1             1
@<TRIPOS>SET
LONE_PAIRS      STATIC     ATOMS    <user>   **** ""
6 25 26 27 28 29 30
DONOR_HYDROGENS      STATIC     ATOMS    <user>   **** ""
3 22 23 14
ATOM$BLUE        STATIC     ATOMS    COLORGROUP SYSTEM
6 25 26 27 28 29 30
ATOM$RED        STATIC     ATOMS    COLORGROUP SYSTEM
3 22 23 14
