AV-unprocessed.smi:1533|AV-procd|sdf|6162|dock8
  -GOLD-   22720 6313D 1   1.00000     0.00000
 Structure written by MMmdl.
 37 39  0  0  0  0  0  0  0  0  1 V2000
  154.9769  133.8456  157.6110 C   0  0  0  0  0  0  0  0  0  0  0  0
  154.3702  135.0956  158.1494 C   0  0  0  0  0  0  0  0  0  0  0  0
  154.0662  135.2192  159.4355 N   0  0  0  0  0  0  0  0  0  0  0  0
  153.4998  136.5000  159.5121 O   0  0  0  0  0  0  0  0  0  0  0  0
  153.5454  136.9998  158.2541 C   0  0  0  0  0  0  0  0  0  0  0  0
  152.9158  138.3279  157.9815 C   0  0  0  0  0  0  0  0  0  0  0  0
  152.1639  138.9230  159.1889 C   0  0  0  0  0  0  0  0  0  0  0  0
  152.3125  140.3744  159.2798 N   0  0  0  0  0  0  0  0  0  0  0  0
  153.4787  141.0353  159.3596 C   0  0  0  0  0  0  0  0  0  0  0  0
  154.5728  140.4732  159.3041 O   0  0  0  0  0  0  0  0  0  0  0  0
  153.3812  142.5582  159.5566 C   0  0  2  0  0  0  0  0  0  0  0  0
  152.7715  142.9783  160.9181 C   0  0  0  0  0  0  0  0  0  0  0  0
  151.5745  143.8608  160.5103 C   0  0  1  0  0  0  0  0  0  0  0  0
  152.0948  145.1826  159.9144 C   0  0  0  0  0  0  0  0  0  0  0  0
  152.6521  144.7416  158.5471 C   0  0  0  0  0  0  0  0  0  0  0  0
  152.4017  143.2217  158.5561 C   0  0  2  0  0  0  0  0  0  0  0  0
  151.0539  143.1448  159.2710 C   0  0  0  0  0  0  0  0  0  0  0  0
  154.0765  136.1660  157.3623 N   0  0  0  0  0  0  0  0  0  0  0  0
  155.3692  133.2243  158.4169 H   0  0  0  0  0  0  0  0  0  0  0  0
  155.7951  134.0842  156.9313 H   0  0  0  0  0  0  0  0  0  0  0  0
  154.2278  133.2716  157.0652 H   0  0  0  0  0  0  0  0  0  0  0  0
  153.6927  139.0193  157.6539 H   0  0  0  0  0  0  0  0  0  0  0  0
  152.2302  138.2166  157.1407 H   0  0  0  0  0  0  0  0  0  0  0  0
  151.1086  138.6490  159.1417 H   0  0  0  0  0  0  0  0  0  0  0  0
  152.5486  138.4844  160.1095 H   0  0  0  0  0  0  0  0  0  0  0  0
  151.4615  140.9152  159.3326 H   0  0  0  0  0  0  0  0  0  0  0  0
  154.3791  142.9864  159.4466 H   0  0  0  0  0  0  0  0  0  0  0  0
  152.4298  142.1251  161.5061 H   0  0  0  0  0  0  0  0  0  0  0  0
  153.4870  143.5253  161.5332 H   0  0  0  0  0  0  0  0  0  0  0  0
  150.8416  143.9986  161.3056 H   0  0  0  0  0  0  0  0  0  0  0  0
  151.2815  145.8975  159.7834 H   0  0  0  0  0  0  0  0  0  0  0  0
  152.8538  145.6498  160.5430 H   0  0  0  0  0  0  0  0  0  0  0  0
  152.1005  145.2195  157.7367 H   0  0  0  0  0  0  0  0  0  0  0  0
  153.7065  144.9917  158.4247 H   0  0  0  0  0  0  0  0  0  0  0  0
  152.4122  142.7783  157.5598 H   0  0  0  0  0  0  0  0  0  0  0  0
  150.7084  142.1297  159.4683 H   0  0  0  0  0  0  0  0  0  0  0  0
  150.2610  143.6913  158.7569 H   0  0  0  0  0  0  0  0  0  0  0  0
  1  2  1  0  0  0  0
  1 19  1  0  0  0  0
  1 20  1  0  0  0  0
  1 21  1  0  0  0  0
  2 18  1  0  0  0  0
  2  3  2  0  0  0  0
  3  4  1  0  0  0  0
  4  5  1  0  0  0  0
  5  6  1  0  0  0  0
  5 18  2  0  0  0  0
  6  7  1  0  0  0  0
  6 22  1  0  0  0  0
  6 23  1  0  0  0  0
  7  8  1  0  0  0  0
  7 24  1  0  0  0  0
  7 25  1  0  0  0  0
  8  9  1  0  0  0  0
  8 26  1  0  0  0  0
  9 10  2  0  0  0  0
  9 11  1  0  0  0  0
 11 16  1  0  0  0  0
 11 12  1  0  0  0  0
 11 27  1  0  0  0  0
 12 13  1  0  0  0  0
 12 28  1  0  0  0  0
 12 29  1  0  0  0  0
 13 17  1  0  0  0  0
 13 14  1  0  0  0  0
 13 30  1  0  0  0  0
 14 15  1  0  0  0  0
 14 31  1  0  0  0  0
 14 32  1  0  0  0  0
 15 16  1  0  0  0  0
 15 33  1  0  0  0  0
 15 34  1  0  0  0  0
 16 17  1  0  0  0  0
 16 35  1  0  0  0  0
 17 36  1  0  0  0  0
 17 37  1  0  0  0  0
M  END
> <s_m_source_file>
AV-unprocessed.smi

> <i_m_source_file_index>
1533

> <i_lp_mmshare_version>
43012

> <i_f3d_flags>
0

> <s_epik_input>
W0NIM11jMW5vYyhuMSlbQ0gyXVtDSDJdW05IXUMoPU8pW0NASF0oW0NIMl1bQ0BASF0yMylbQ0BASF0oW0NIMl0zKVtDSDJdW0NIMl0y

> <s_epik_cmdline>
J2VwaWtfcHl0aG9uJywgJy1waCcsICc3LjAnLCAnLXRuJywgJzgnLCAnLW1hJywgJzIwMCcsICctbWV0YWxfYmluZGluZycsICctaW1hZScsICc8aW5maWxlLm1hZT4nLCAnLW9tYWUnLCAnPG91dGZpbGUubWFlPic=

> <r_lp_tautomer_probability>
1

> <r_epik_Ionization_Penalty>
1.90116e-08

> <r_epik_Ionization_Penalty_Charging>
0

> <r_epik_Ionization_Penalty_Neutral>
1.90116e-08

> <r_epik_State_Penalty>
-0

> <r_epik_Charging_Adjusted_Penalty>
0

> <i_epik_Tot_Q>
0

> <i_epik_Tot_abs_Q>
0

> <r_epik_Metal_State_Penalty>
-0

> <b_epik_Metal_Only>
0

> <s_lp_Force_Field>
OPLS_2005

> <r_lp_Energy>
43.4718

> <b_lp_Chiralities_Consistent>
1

> <s_lp_Variant>
AV-unprocessed.smi:1533-1

> <Gold.Version>
5.8.1

> <Gold.Id.Protein>
6NUR|6NUR_protein|mol2

> <Gold.PLP.Fitness>
42.0082

> <Gold.PLP.PLP>
-34.6985

> <Gold.PLP.part.hbond>
-4.0000

> <Gold.PLP.part.metal>
0.0000

> <Gold.PLP.part.buried>
-3.6545

> <Gold.PLP.part.nonpolar>
-26.2285

> <Gold.PLP.part.repulsive>
0.1342

> <Gold.PLP.ligand.clash>
0.0000

> <Gold.PLP.ligand.torsion>
0.4895

> <Gold.PLP.Chemscore.Hbond>
2.7440

> <Gold.PLP.Chemscore.CHOScore>
0.0000

> <Gold.PLP.Chemscore.Metal>
0.0000

> <Gold.Chemscore.Hbonds>
donor molecule, donor type, donor heavy atom, donor atom, acceptor molecule, acceptor atom, score
      P1  H  6896  6907       L1     3  0.93
      P1  H  7997  8008       L1    10  0.69
      P1  H 10752 10763       L1    18  0.73

> <Gold.PLP.Chemscore.Internal.Correction>
0.0567

> <Gold.Rescore>
     Score         DG    S(hbond)    S(metal)    S(lipo)     H(rot)  DE(clash)    DE(int)     intcor
     15.06     -17.57       1.77        0.00      93.11       1.85       0.07       2.44       ----

> <Gold.Chemscore.Fitness>
15.0630

> <Gold.Chemscore.DG>
-17.5680

> <Gold.Chemscore.ZeroCoef>
-5.4800

> <Gold.Chemscore.Hbond>
1.7746

> <Gold.Chemscore.Metal>
0.0000

> <Gold.Chemscore.Lipo>
93.1119

> <Gold.Chemscore.Internal_Hbond>
0.0000

> <Gold.Chemscore.DEClash>
0.0650

> <Gold.Chemscore.DEInternal>
2.4399

> <Gold.Chemscore.Rot>
1.8490

> <Gold.Chemscore.Internal.Correction>
   9.000000E+99

> <Gold.Chemscore.Hbonds>
donor molecule, donor type, donor heavy atom, donor atom, acceptor molecule, acceptor atom, score
      P1  H  6896  6907       L1     3  0.20
      P1  H  7997  8008       L1    10  0.57
      P1  H 10752 10763       L1    18  0.29

> <Gold.Chemscore.Hbond.Weighted>
-5.9272

> <Gold.Chemscore.Metal.Weighted>
-0.0000

> <Gold.Chemscore.Lipo.Weighted>
-10.8941

> <Gold.Chemscore.Internal_Hbond.Weighted>
0.0000

> <Gold.Chemscore.DEClash.Weighted>
0.0650

> <Gold.Chemscore.DEInternal.Weighted>
2.4399

> <Gold.Chemscore.Rot.Weighted>
4.7334

> <Gold.Chemscore.Internal.Correction.Weighted>
   9.000000E+99

> <Gold.Protein.RotatedTorsions>
[ 6907 6896 6895 6894 ] final   93.66 input  -60.11 | X-H torsion
[ 7974 7965 7964 7962 ] final  116.44 input  175.53 | X-H torsion
[ 8008 7997 7996 7995 ] final -123.75 input   59.86 | X-H torsion
[ 10167 10162 10161 10158 ] final    4.16 input  -65.29 | X-H torsion
[ 10718 10713 10712 10709 ] final -164.18 input   66.30 | X-H torsion
[ 10763 10752 10751 10750 ] final  148.06 input  -60.55 | X-H torsion
[ 11005 11000 10999 10996 ] final  111.98 input  -57.11 | X-H torsion

> <Gold.Protein.ActiveResidues>
 VAL166  LYS551  ARG553  GLY616  TRP617  ASP618  TYR619  PRO620  LYS621  CYS622 
 ASP623  PHE694  ASN695  SER759  ASP760  ASP761  ALA762  ILE779  LEU786  VAL792 
 PHE793  MET794  SER795  GLU796  ALA797  LYS798  CYS799  TRP800  GLU811  SER814 

> <Gold.Protein.RotatedAtoms>
  152.5452  134.1313  159.8439 H   0  0  0  0  0  0  0  0  0  0  0  0  # atno 6907 bound_to 6896
  151.1358  133.4998  159.2605 H   0  0  0  0  0  0  0  0  0  0  0  0  # atno 6908 bound_to 6896
  151.1625  135.0290  159.8771 H   0  0  0  0  0  0  0  0  0  0  0  0  # atno 6909 bound_to 6896
  145.1796  139.3057  143.4425 H   0  0  0  0  0  0  0  0  0  0  0  0  # atno 7974 bound_to 7965
  155.1856  140.0412  157.2890 H   0  0  0  0  0  0  0  0  0  0  0  0  # atno 8008 bound_to 7997
  154.6173  140.2492  155.7565 H   0  0  0  0  0  0  0  0  0  0  0  0  # atno 8009 bound_to 7997
  156.2414  140.2902  156.0465 H   0  0  0  0  0  0  0  0  0  0  0  0  # atno 8010 bound_to 7997
  140.6549  143.7452  150.7637 H   0  0  0  0  0  0  0  0  0  0  0  0  # atno 10167 bound_to 10162
  156.6354  130.8947  151.2986 H   0  0  0  0  0  0  0  0  0  0  0  0  # atno 10718 bound_to 10713
  154.0486  135.2883  155.3344 H   0  0  0  0  0  0  0  0  0  0  0  0  # atno 10763 bound_to 10752
  154.6884  135.5236  153.8361 H   0  0  0  0  0  0  0  0  0  0  0  0  # atno 10764 bound_to 10752
  153.0570  135.6599  154.0684 H   0  0  0  0  0  0  0  0  0  0  0  0  # atno 10765 bound_to 10752
  139.8916  134.9520  156.6515 H   0  0  0  0  0  0  0  0  0  0  0  0  # atno 11005 bound_to 11000
  146.3455  140.1971  142.8589 LP  0  0  0  0  0  0  0  0  0  0  0  0  # atno 17320 bound_to 7965
  145.0149  140.8745  143.5201 LP  0  0  0  0  0  0  0  0  0  0  0  0  # atno 17321 bound_to 7965
  140.1110  143.4699  152.2370 LP  0  0  0  0  0  0  0  0  0  0  0  0  # atno 17342 bound_to 10162
  139.5770  144.7492  151.3739 LP  0  0  0  0  0  0  0  0  0  0  0  0  # atno 17343 bound_to 10162
  157.7187  130.9530  150.1354 LP  0  0  0  0  0  0  0  0  0  0  0  0  # atno 17370 bound_to 10713
  156.2201  130.3673  149.8566 LP  0  0  0  0  0  0  0  0  0  0  0  0  # atno 17371 bound_to 10713
  140.7517  133.8892  155.8352 LP  0  0  0  0  0  0  0  0  0  0  0  0  # atno 17394 bound_to 11000
  140.9995  134.1169  157.4331 LP  0  0  0  0  0  0  0  0  0  0  0  0  # atno 17395 bound_to 11000

$$$$
