AV-unprocessed.smi:2822|AV-procd|sdf|10875|dock2
  -GOLD-   2272015313D 1   1.00000     0.00000
 Structure written by MMmdl.
 40 42  0  0  0  0  0  0  0  0  2 V2000
  155.8309  139.5086  164.9339 Cl  0  0  0  0  0  0  0  0  0  0  0  0
  155.1552  138.2283  163.9878 C   0  0  0  0  0  0  0  0  0  0  0  0
  154.6532  137.0763  164.6270 C   0  0  0  0  0  0  0  0  0  0  0  0
  154.1096  136.0347  163.9632 N   0  0  0  0  0  0  0  0  0  0  0  0
  154.0485  136.1104  162.6177 C   0  0  0  0  0  0  0  0  0  0  0  0
  154.5205  137.2145  161.8799 C   0  0  0  0  0  0  0  0  0  0  0  0
  155.0902  138.3058  162.5774 C   0  0  0  0  0  0  0  0  0  0  0  0
  155.5879  139.4440  161.9247 N   0  0  0  0  0  0  0  0  0  0  0  0
  155.0221  139.8928  160.6619 C   0  0  0  0  0  0  0  0  0  0  0  0
  154.4953  141.3312  160.7625 C   0  0  1  0  0  0  0  0  0  0  0  0
  153.7143  141.7435  159.5013 C   0  0  0  0  0  0  0  0  0  0  0  0
  153.1609  143.1091  159.6544 N   0  3  1  0  0  0  0  0  0  0  0  0
  152.4327  143.5651  158.4432 C   0  0  0  0  0  0  0  0  0  0  0  0
  151.9546  145.0178  158.5993 C   0  0  0  0  0  0  0  0  0  0  0  0
  151.0892  145.1762  159.8562 C   0  0  0  0  0  0  0  0  0  0  0  0
  151.8536  144.6718  161.0876 C   0  0  0  0  0  0  0  0  0  0  0  0
  152.3387  143.2218  160.8898 C   0  0  2  0  0  0  0  0  0  0  0  0
  153.1468  142.7305  162.1067 C   0  0  0  0  0  0  0  0  0  0  0  0
  153.6120  141.4069  161.8766 O   0  0  0  0  0  0  0  0  0  0  0  0
  154.6890  136.9886  165.7030 H   0  0  0  0  0  0  0  0  0  0  0  0
  153.6098  135.2632  162.1115 H   0  0  0  0  0  0  0  0  0  0  0  0
  154.4384  137.2025  160.8037 H   0  0  0  0  0  0  0  0  0  0  0  0
  156.1890  140.0746  162.4363 H   0  0  0  0  0  0  0  0  0  0  0  0
  155.8004  139.8457  159.8994 H   0  0  0  0  0  0  0  0  0  0  0  0
  154.2224  139.2182  160.3537 H   0  0  0  0  0  0  0  0  0  0  0  0
  155.3366  142.0121  160.9082 H   0  0  0  0  0  0  0  0  0  0  0  0
  154.3717  141.7136  158.6312 H   0  0  0  0  0  0  0  0  0  0  0  0
  152.9022  141.0388  159.3137 H   0  0  0  0  0  0  0  0  0  0  0  0
  153.0860  143.4880  157.5732 H   0  0  0  0  0  0  0  0  0  0  0  0
  151.5807  142.9087  158.2599 H   0  0  0  0  0  0  0  0  0  0  0  0
  152.8161  145.6840  158.6602 H   0  0  0  0  0  0  0  0  0  0  0  0
  151.3895  145.3217  157.7176 H   0  0  0  0  0  0  0  0  0  0  0  0
  150.8054  146.2206  159.9903 H   0  0  0  0  0  0  0  0  0  0  0  0
  150.1624  144.6127  159.7401 H   0  0  0  0  0  0  0  0  0  0  0  0
  152.7066  145.3250  161.2779 H   0  0  0  0  0  0  0  0  0  0  0  0
  151.2135  144.7358  161.9685 H   0  0  0  0  0  0  0  0  0  0  0  0
  151.4669  142.5751  160.7748 H   0  0  0  0  0  0  0  0  0  0  0  0
  153.9903  143.3915  162.3140 H   0  0  0  0  0  0  0  0  0  0  0  0
  152.5196  142.7283  162.9986 H   0  0  0  0  0  0  0  0  0  0  0  0
  153.9482  143.7310  159.7717 H   0  0  0  0  0  0  0  0  0  0  0  0
  1  2  1  0  0  0  0
  2  7  1  0  0  0  0
  2  3  2  0  0  0  0
  3  4  1  0  0  0  0
  3 20  1  0  0  0  0
  4  5  2  0  0  0  0
  5  6  1  0  0  0  0
  5 21  1  0  0  0  0
  6  7  2  0  0  0  0
  6 22  1  0  0  0  0
  7  8  1  0  0  0  0
  8  9  1  0  0  0  0
  8 23  1  0  0  0  0
  9 10  1  0  0  0  0
  9 24  1  0  0  0  0
  9 25  1  0  0  0  0
 10 19  1  0  0  0  0
 10 11  1  0  0  0  0
 10 26  1  0  0  0  0
 11 12  1  0  0  0  0
 11 27  1  0  0  0  0
 11 28  1  0  0  0  0
 12 17  1  0  0  0  0
 12 13  1  0  0  0  0
 12 40  1  0  0  0  0
 13 14  1  0  0  0  0
 13 29  1  0  0  0  0
 13 30  1  0  0  0  0
 14 15  1  0  0  0  0
 14 31  1  0  0  0  0
 14 32  1  0  0  0  0
 15 16  1  0  0  0  0
 15 33  1  0  0  0  0
 15 34  1  0  0  0  0
 16 17  1  0  0  0  0
 16 35  1  0  0  0  0
 16 36  1  0  0  0  0
 17 18  1  0  0  0  0
 17 37  1  0  0  0  0
 18 19  1  0  0  0  0
 18 38  1  0  0  0  0
 18 39  1  0  0  0  0
M  CHG  1  12   1
M  END
> <s_m_source_file>
AV-unprocessed.smi

> <i_m_source_file_index>
2822

> <i_lp_mmshare_version>
43012

> <i_f3d_flags>
0

> <s_epik_input>
Q2xjMVtjSF1uW2NIXVtjSF1jMVtOSF1bQ0gyXVtDQEhdKFtDSDJdMilPW0NIMl1bQ0BASF0oTjIzKVtDSDJdW0NIMl1bQ0gyXVtDSDJdMw==

> <s_epik_cmdline>
J2VwaWtfcHl0aG9uJywgJy1waCcsICc3LjAnLCAnLXRuJywgJzgnLCAnLW1hJywgJzIwMCcsICctbWV0YWxfYmluZGluZycsICctaW1hZScsICc8aW5maWxlLm1hZT4nLCAnLW9tYWUnLCAnPG91dGZpbGUubWFlPic=

> <r_lp_tautomer_probability>
0.999999

> <r_epik_Ionization_Penalty>
0.88937

> <r_epik_Ionization_Penalty_Charging>
0.0803403

> <r_epik_Ionization_Penalty_Neutral>
0.80903

> <r_epik_State_Penalty>
0.931884

> <r_epik_Charging_Adjusted_Penalty>
1.01222

> <i_epik_Tot_Q>
1

> <i_epik_Tot_abs_Q>
1

> <r_epik_Metal_State_Penalty>
0.0782275

> <b_epik_Metal_Only>
0

> <s_lp_Force_Field>
OPLS_2005

> <r_lp_Energy>
28.742

> <b_lp_Chiralities_Consistent>
1

> <s_lp_Variant>
AV-unprocessed.smi:2822-16

> <Gold.Version>
5.8.1

> <Gold.Id.Protein>
6NUR|6NUR_protein|mol2

> <Gold.PLP.Fitness>
44.6772

> <Gold.PLP.PLP>
-45.1153

> <Gold.PLP.part.hbond>
0.0000

> <Gold.PLP.part.metal>
0.0000

> <Gold.PLP.part.buried>
-5.5699

> <Gold.PLP.part.nonpolar>
-39.1301

> <Gold.PLP.part.repulsive>
0.1016

> <Gold.PLP.ligand.clash>
0.0000

> <Gold.PLP.ligand.torsion>
0.2202

> <Gold.PLP.Chemscore.Hbond>
0.0000

> <Gold.PLP.Chemscore.CHOScore>
0.0000

> <Gold.PLP.Chemscore.Metal>
0.0000

> <Gold.PLP.Chemscore.Internal.Correction>
0.0023

> <Gold.Rescore>
     Score         DG    S(hbond)    S(metal)    S(lipo)     H(rot)  DE(clash)    DE(int)     intcor
     18.44     -18.66       0.00        0.00     138.24       1.17       0.01       0.21       ----

> <Gold.Chemscore.Fitness>
18.4412

> <Gold.Chemscore.DG>
-18.6606

> <Gold.Chemscore.ZeroCoef>
-5.4800

> <Gold.Chemscore.Hbond>
0.0000

> <Gold.Chemscore.Metal>
0.0000

> <Gold.Chemscore.Lipo>
138.2388

> <Gold.Chemscore.Internal_Hbond>
0.0000

> <Gold.Chemscore.DEClash>
0.0112

> <Gold.Chemscore.DEInternal>
0.2081

> <Gold.Chemscore.Rot>
1.1693

> <Gold.Chemscore.Internal.Correction>
   9.000000E+99

> <Gold.Chemscore.Hbond.Weighted>
-0.0000

> <Gold.Chemscore.Metal.Weighted>
-0.0000

> <Gold.Chemscore.Lipo.Weighted>
-16.1739

> <Gold.Chemscore.Internal_Hbond.Weighted>
0.0000

> <Gold.Chemscore.DEClash.Weighted>
0.0112

> <Gold.Chemscore.DEInternal.Weighted>
0.2081

> <Gold.Chemscore.Rot.Weighted>
2.9934

> <Gold.Chemscore.Internal.Correction.Weighted>
   9.000000E+99

> <Gold.Protein.RotatedTorsions>
[ 6907 6896 6895 6894 ] final   14.31 input  -60.11 | X-H torsion
[ 7974 7965 7964 7962 ] final   52.92 input  175.53 | X-H torsion
[ 8008 7997 7996 7995 ] final -103.21 input   59.86 | X-H torsion
[ 10167 10162 10161 10158 ] final  -56.60 input  -65.29 | X-H torsion
[ 10718 10713 10712 10709 ] final -146.98 input   66.30 | X-H torsion
[ 10763 10752 10751 10750 ] final   97.05 input  -60.55 | X-H torsion
[ 11005 11000 10999 10996 ] final  172.92 input  -57.11 | X-H torsion

> <Gold.Protein.ActiveResidues>
 VAL166  LYS551  ARG553  GLY616  TRP617  ASP618  TYR619  PRO620  LYS621  CYS622 
 ASP623  PHE694  ASN695  SER759  ASP760  ASP761  ALA762  ILE779  LEU786  VAL792 
 PHE793  MET794  SER795  GLU796  ALA797  LYS798  CYS799  TRP800  GLU811  SER814 

> <Gold.Protein.RotatedAtoms>
  151.8003  135.0711  160.0399 H   0  0  0  0  0  0  0  0  0  0  0  0  # atno 6907 bound_to 6896
  152.3094  133.5732  159.5679 H   0  0  0  0  0  0  0  0  0  0  0  0  # atno 6908 bound_to 6896
  150.7312  134.0091  159.3705 H   0  0  0  0  0  0  0  0  0  0  0  0  # atno 6909 bound_to 6896
  145.9765  139.4199  143.0158 H   0  0  0  0  0  0  0  0  0  0  0  0  # atno 7974 bound_to 7965
  154.8677  140.0424  157.1705 H   0  0  0  0  0  0  0  0  0  0  0  0  # atno 8008 bound_to 7997
  154.8772  140.2967  155.5425 H   0  0  0  0  0  0  0  0  0  0  0  0  # atno 8009 bound_to 7997
  156.2999  140.2418  156.3770 H   0  0  0  0  0  0  0  0  0  0  0  0  # atno 8010 bound_to 7997
  140.6308  143.2458  151.5246 H   0  0  0  0  0  0  0  0  0  0  0  0  # atno 10167 bound_to 10162
  156.4018  130.7937  151.2148 H   0  0  0  0  0  0  0  0  0  0  0  0  # atno 10718 bound_to 10713
  153.2723  135.4197  155.0999 H   0  0  0  0  0  0  0  0  0  0  0  0  # atno 10763 bound_to 10752
  154.8460  135.3475  154.6228 H   0  0  0  0  0  0  0  0  0  0  0  0  # atno 10764 bound_to 10752
  153.6648  135.7046  153.5223 H   0  0  0  0  0  0  0  0  0  0  0  0  # atno 10765 bound_to 10752
  140.3350  134.7325  157.4161 H   0  0  0  0  0  0  0  0  0  0  0  0  # atno 11005 bound_to 11000
  145.7832  140.9847  143.1088 LP  0  0  0  0  0  0  0  0  0  0  0  0  # atno 17320 bound_to 7965
  144.6850  139.9590  143.7480 LP  0  0  0  0  0  0  0  0  0  0  0  0  # atno 17321 bound_to 7965
  139.5522  144.2366  152.1551 LP  0  0  0  0  0  0  0  0  0  0  0  0  # atno 17342 bound_to 10162
  140.1609  144.5027  150.6633 LP  0  0  0  0  0  0  0  0  0  0  0  0  # atno 17343 bound_to 10162
  157.7504  131.0284  150.4049 LP  0  0  0  0  0  0  0  0  0  0  0  0  # atno 17370 bound_to 10713
  156.4330  130.3976  149.6747 LP  0  0  0  0  0  0  0  0  0  0  0  0  # atno 17371 bound_to 10713
  140.0829  134.5706  155.8522 LP  0  0  0  0  0  0  0  0  0  0  0  0  # atno 17394 bound_to 11000
  141.2054  133.6646  156.6176 LP  0  0  0  0  0  0  0  0  0  0  0  0  # atno 17395 bound_to 11000

$$$$
