AV-unprocessed.smi:224|AV-procd|sdf|1714|dock8
  -GOLD-   2262020183D 1   1.00000     0.00000
 Structure written by MMmdl.
 56 59  0  0  0  0  0  0  0  0  2 V2000
  147.4966  132.6481  154.8116 C   0  0  0  0  0  0  0  0  0  0  0  0
  148.2291  133.8381  154.1787 C   0  0  1  0  0  0  0  0  0  0  0  0
  147.7276  134.0073  152.8678 O   0  0  0  0  0  0  0  0  0  0  0  0
  148.0130  135.1347  154.9871 C   0  0  0  0  0  0  0  0  0  0  0  0
  148.9789  136.2201  154.6608 N   0  3  1  0  0  0  0  0  0  0  0  0
  148.5519  137.5333  155.2143 C   0  0  0  0  0  0  0  0  0  0  0  0
  149.4733  138.6686  154.7332 C   0  0  0  0  0  0  0  0  0  0  0  0
  150.8701  138.3546  155.0077 N   0  0  0  0  0  0  0  0  0  0  0  0
  151.5061  138.8365  156.1122 C   0  0  0  0  0  0  0  0  0  0  0  0
  152.6145  138.1705  156.5306 N   0  0  0  0  0  0  0  0  0  0  0  0
  153.2986  138.5821  157.6006 C   0  0  0  0  0  0  0  0  0  0  0  0
  153.0526  139.6233  158.3945 N   0  0  0  0  0  0  0  0  0  0  0  0
  151.9404  140.3002  157.9917 C   0  0  0  0  0  0  0  0  0  0  0  0
  151.1163  139.9839  156.8712 C   0  0  0  0  0  0  0  0  0  0  0  0
  150.0766  140.9054  156.7940 N   0  0  0  0  0  0  0  0  0  0  0  0
  150.2809  141.7184  157.7928 C   0  0  0  0  0  0  0  0  0  0  0  0
  151.3736  141.4215  158.5727 N   0  0  0  0  0  0  0  0  0  0  0  0
  151.8297  142.1540  159.7450 C   0  0  0  0  0  0  0  0  0  0  0  0
  152.3916  143.5579  159.4190 C   0  0  2  0  0  0  0  0  0  0  0  0
  153.7188  143.4239  158.9388 O   0  0  0  0  0  0  0  0  0  0  0  0
  152.4116  144.4840  160.6283 C   0  0  0  0  0  0  0  0  0  0  0  0
  152.2887  145.8633  159.9950 C   0  0  0  0  0  0  0  0  0  0  0  0
  151.3567  145.6508  158.9479 O   0  0  0  0  0  0  0  0  0  0  0  0
  151.5765  144.3607  158.3839 C   0  0  0  0  0  0  0  0  0  0  0  0
  151.3153  137.0813  154.4424 C   0  0  0  0  0  0  0  0  0  0  0  0
  150.4225  135.9138  154.9170 C   0  0  1  0  0  0  0  0  0  0  0  0
  150.7205  135.5220  156.3800 C   0  0  0  0  0  0  0  0  0  0  0  0
  147.8589  132.4585  155.8225 H   0  0  0  0  0  0  0  0  0  0  0  0
  147.6509  131.7373  154.2316 H   0  0  0  0  0  0  0  0  0  0  0  0
  146.4223  132.8263  154.8716 H   0  0  0  0  0  0  0  0  0  0  0  0
  149.2867  133.5843  154.1192 H   0  0  0  0  0  0  0  0  0  0  0  0
  147.8778  134.8987  152.5935 H   0  0  0  0  0  0  0  0  0  0  0  0
  147.0031  135.4962  154.7872 H   0  0  0  0  0  0  0  0  0  0  0  0
  148.0414  134.9251  156.0565 H   0  0  0  0  0  0  0  0  0  0  0  0
  147.5301  137.7502  154.9014 H   0  0  0  0  0  0  0  0  0  0  0  0
  148.5380  137.4814  156.3028 H   0  0  0  0  0  0  0  0  0  0  0  0
  149.3670  138.7814  153.6539 H   0  0  0  0  0  0  0  0  0  0  0  0
  149.1813  139.6301  155.1532 H   0  0  0  0  0  0  0  0  0  0  0  0
  154.1676  137.9937  157.8564 H   0  0  0  0  0  0  0  0  0  0  0  0
  149.6318  142.5585  157.9940 H   0  0  0  0  0  0  0  0  0  0  0  0
  150.9959  142.2369  160.4434 H   0  0  0  0  0  0  0  0  0  0  0  0
  152.5881  141.5524  160.2480 H   0  0  0  0  0  0  0  0  0  0  0  0
  154.0472  144.2843  158.7262 H   0  0  0  0  0  0  0  0  0  0  0  0
  151.5387  144.3043  161.2575 H   0  0  0  0  0  0  0  0  0  0  0  0
  153.2993  144.3742  161.2527 H   0  0  0  0  0  0  0  0  0  0  0  0
  151.9409  146.6220  160.6965 H   0  0  0  0  0  0  0  0  0  0  0  0
  153.2422  146.1894  159.5769 H   0  0  0  0  0  0  0  0  0  0  0  0
  152.0925  144.4490  157.4265 H   0  0  0  0  0  0  0  0  0  0  0  0
  150.6031  143.9125  158.1894 H   0  0  0  0  0  0  0  0  0  0  0  0
  151.2509  137.1651  153.3567 H   0  0  0  0  0  0  0  0  0  0  0  0
  152.3615  136.8633  154.6569 H   0  0  0  0  0  0  0  0  0  0  0  0
  150.7005  135.0626  154.2972 H   0  0  0  0  0  0  0  0  0  0  0  0
  151.7886  135.3563  156.5229 H   0  0  0  0  0  0  0  0  0  0  0  0
  150.2194  134.5966  156.6629 H   0  0  0  0  0  0  0  0  0  0  0  0
  150.4171  136.2962  157.0845 H   0  0  0  0  0  0  0  0  0  0  0  0
  148.9109  136.3356  153.6600 H   0  0  0  0  0  0  0  0  0  0  0  0
  1  2  1  0  0  0  0
  1 28  1  0  0  0  0
  1 29  1  0  0  0  0
  1 30  1  0  0  0  0
  2  3  1  0  0  0  0
  2  4  1  0  0  0  0
  2 31  1  0  0  0  0
  3 32  1  0  0  0  0
  4  5  1  0  0  0  0
  4 33  1  0  0  0  0
  4 34  1  0  0  0  0
  5 26  1  0  0  0  0
  5  6  1  0  0  0  0
  5 56  1  0  0  0  0
  6  7  1  0  0  0  0
  6 35  1  0  0  0  0
  6 36  1  0  0  0  0
  7  8  1  0  0  0  0
  7 37  1  0  0  0  0
  7 38  1  0  0  0  0
  8  9  1  0  0  0  0
  8 25  1  0  0  0  0
  9 14  1  0  0  0  0
  9 10  2  0  0  0  0
 10 11  1  0  0  0  0
 11 12  2  0  0  0  0
 11 39  1  0  0  0  0
 12 13  1  0  0  0  0
 13 17  1  0  0  0  0
 13 14  2  0  0  0  0
 14 15  1  0  0  0  0
 15 16  2  0  0  0  0
 16 17  1  0  0  0  0
 16 40  1  0  0  0  0
 17 18  1  0  0  0  0
 18 19  1  0  0  0  0
 18 41  1  0  0  0  0
 18 42  1  0  0  0  0
 19 24  1  0  0  0  0
 19 20  1  0  0  0  0
 19 21  1  0  0  0  0
 20 43  1  0  0  0  0
 21 22  1  0  0  0  0
 21 44  1  0  0  0  0
 21 45  1  0  0  0  0
 22 23  1  0  0  0  0
 22 46  1  0  0  0  0
 22 47  1  0  0  0  0
 23 24  1  0  0  0  0
 24 48  1  0  0  0  0
 24 49  1  0  0  0  0
 25 26  1  0  0  0  0
 25 50  1  0  0  0  0
 25 51  1  0  0  0  0
 26 27  1  0  0  0  0
 26 52  1  0  0  0  0
 27 53  1  0  0  0  0
 27 54  1  0  0  0  0
 27 55  1  0  0  0  0
M  CHG  1   5   1
M  END
> <s_m_source_file>
AV-unprocessed.smi

> <i_m_source_file_index>
224

> <i_lp_mmshare_version>
43012

> <i_f3d_flags>
0

> <s_epik_input>
W0NIM11bQ0BIXShbT0hdKVtDSDJdTjFbQ0gyXVtDSDJdTihbQ0gyXVtDQEhdMVtDSDNdKWMobltjSF1uMiljKGMyMyluW2NIXW4zW0NIMl1bQ0BAXTQoW09IXSlbQ0gyXVtDSDJdT1tDSDJdNA==

> <s_epik_cmdline>
J2VwaWtfcHl0aG9uJywgJy1waCcsICc3LjAnLCAnLXRuJywgJzgnLCAnLW1hJywgJzIwMCcsICctbWV0YWxfYmluZGluZycsICctaW1hZScsICc8aW5maWxlLm1hZT4nLCAnLW9tYWUnLCAnPG91dGZpbGUubWFlPic=

> <r_lp_tautomer_probability>
1

> <r_epik_Ionization_Penalty>
0.00516958

> <r_epik_Ionization_Penalty_Charging>
0.00509693

> <r_epik_Ionization_Penalty_Neutral>
7.26542e-05

> <r_epik_State_Penalty>
-0

> <r_epik_Charging_Adjusted_Penalty>
0.00509693

> <i_epik_Tot_Q>
1

> <i_epik_Tot_abs_Q>
1

> <r_epik_Metal_State_Penalty>
-0

> <b_epik_Metal_Only>
0

> <s_lp_Force_Field>
OPLS_2005

> <r_lp_Energy>
50.9618

> <b_lp_Chiralities_Consistent>
1

> <s_lp_Variant>
AV-unprocessed.smi:224-8

> <Gold.Version>
5.8.1

> <Gold.Id.Protein>
6NUR|6NUR_protein|mol2

> <Gold.PLP.Fitness>
46.9089

> <Gold.PLP.PLP>
-38.9203

> <Gold.PLP.part.hbond>
-4.3345

> <Gold.PLP.part.metal>
0.0000

> <Gold.PLP.part.buried>
2.7075

> <Gold.PLP.part.nonpolar>
-36.6189

> <Gold.PLP.part.repulsive>
0.2329

> <Gold.PLP.ligand.clash>
0.0000

> <Gold.PLP.ligand.torsion>
0.6246

> <Gold.PLP.Chemscore.Hbond>
3.0000

> <Gold.PLP.Chemscore.CHOScore>
0.0000

> <Gold.PLP.Chemscore.Metal>
0.0000

> <Gold.Chemscore.Hbonds>
donor molecule, donor type, donor heavy atom, donor atom, acceptor molecule, acceptor atom, score
      L1  H     3    32       P1  7948  1.00
      L1  H     5    56       P1  7948  2.00

> <Gold.PLP.Chemscore.Internal.Correction>
0.2379

> <Gold.Rescore>
     Score         DG    S(hbond)    S(metal)    S(lipo)     H(rot)  DE(clash)    DE(int)     intcor
     12.10     -14.53       1.65        0.00      96.41       3.02       1.95       0.48       ----

> <Gold.Chemscore.Fitness>
12.1028

> <Gold.Chemscore.DG>
-14.5297

> <Gold.Chemscore.ZeroCoef>
-5.4800

> <Gold.Chemscore.Hbond>
1.6494

> <Gold.Chemscore.Metal>
0.0000

> <Gold.Chemscore.Lipo>
96.4074

> <Gold.Chemscore.Internal_Hbond>
0.0000

> <Gold.Chemscore.DEClash>
1.9453

> <Gold.Chemscore.DEInternal>
0.4816

> <Gold.Chemscore.Rot>
3.0231

> <Gold.Chemscore.Internal.Correction>
   9.000000E+99

> <Gold.Chemscore.Hbonds>
donor molecule, donor type, donor heavy atom, donor atom, acceptor molecule, acceptor atom, score
      L1  H     3    32       P1  7948  0.86
      L1  H     5    56       P1  7948  1.00

> <Gold.Chemscore.Hbond.Weighted>
-5.5091

> <Gold.Chemscore.Metal.Weighted>
-0.0000

> <Gold.Chemscore.Lipo.Weighted>
-11.2797

> <Gold.Chemscore.Internal_Hbond.Weighted>
0.0000

> <Gold.Chemscore.DEClash.Weighted>
1.9453

> <Gold.Chemscore.DEInternal.Weighted>
0.4816

> <Gold.Chemscore.Rot.Weighted>
7.7391

> <Gold.Chemscore.Internal.Correction.Weighted>
   9.000000E+99

> <Gold.Protein.RotatedTorsions>
[ 6907 6896 6895 6894 ] final  169.21 input  -60.11 | X-H torsion
[ 7974 7965 7964 7962 ] final  167.74 input  175.53 | X-H torsion
[ 8008 7997 7996 7995 ] final   67.28 input   59.86 | X-H torsion
[ 10167 10162 10161 10158 ] final  -56.88 input  -65.29 | X-H torsion
[ 10718 10713 10712 10709 ] final  107.84 input   66.30 | X-H torsion
[ 10763 10752 10751 10750 ] final  -20.60 input  -60.55 | X-H torsion
[ 11005 11000 10999 10996 ] final   40.70 input  -57.11 | X-H torsion

> <Gold.Protein.ActiveResidues>
 VAL166  LYS551  ARG553  GLY616  TRP617  ASP618  TYR619  PRO620  LYS621  CYS622 
 ASP623  PHE694  ASN695  SER759  ASP760  ASP761  ALA762  ILE779  LEU786  VAL792 
 PHE793  MET794  SER795  GLU796  ALA797  LYS798  CYS799  TRP800  GLU811  SER814 

> <Gold.Protein.RotatedAtoms>
  151.8356  133.3415  159.3626 H   0  0  0  0  0  0  0  0  0  0  0  0  # atno 6907 bound_to 6896
  150.7251  134.5441  159.5771 H   0  0  0  0  0  0  0  0  0  0  0  0  # atno 6908 bound_to 6896
  152.2903  134.7729  160.0430 H   0  0  0  0  0  0  0  0  0  0  0  0  # atno 6909 bound_to 6896
  144.7413  139.8805  143.6396 H   0  0  0  0  0  0  0  0  0  0  0  0  # atno 7974 bound_to 7965
  155.6904  140.3496  155.4891 H   0  0  0  0  0  0  0  0  0  0  0  0  # atno 8008 bound_to 7997
  155.9529  140.1122  157.0984 H   0  0  0  0  0  0  0  0  0  0  0  0  # atno 8009 bound_to 7997
  154.4126  140.1190  156.5062 H   0  0  0  0  0  0  0  0  0  0  0  0  # atno 8010 bound_to 7997
  140.6291  143.2451  151.5287 H   0  0  0  0  0  0  0  0  0  0  0  0  # atno 10167 bound_to 10162
  157.6611  131.0881  150.6217 H   0  0  0  0  0  0  0  0  0  0  0  0  # atno 10718 bound_to 10713
  153.6230  135.6992  153.5303 H   0  0  0  0  0  0  0  0  0  0  0  0  # atno 10763 bound_to 10752
  153.2921  135.4154  155.1176 H   0  0  0  0  0  0  0  0  0  0  0  0  # atno 10764 bound_to 10752
  154.8539  135.3628  154.5772 H   0  0  0  0  0  0  0  0  0  0  0  0  # atno 10765 bound_to 10752
  140.1905  134.3992  155.8149 H   0  0  0  0  0  0  0  0  0  0  0  0  # atno 11005 bound_to 11000
  146.1214  139.4233  143.0226 LP  0  0  0  0  0  0  0  0  0  0  0  0  # atno 17320 bound_to 7965
  145.7298  141.0046  143.1357 LP  0  0  0  0  0  0  0  0  0  0  0  0  # atno 17321 bound_to 7965
  139.5507  144.2402  152.1525 LP  0  0  0  0  0  0  0  0  0  0  0  0  # atno 17342 bound_to 10162
  140.1641  144.4998  150.6616 LP  0  0  0  0  0  0  0  0  0  0  0  0  # atno 17343 bound_to 10162
  156.6519  130.4487  149.5716 LP  0  0  0  0  0  0  0  0  0  0  0  0  # atno 17370 bound_to 10713
  156.2131  130.6691  151.1290 LP  0  0  0  0  0  0  0  0  0  0  0  0  # atno 17371 bound_to 10713
  141.2226  133.7044  156.8087 LP  0  0  0  0  0  0  0  0  0  0  0  0  # atno 17394 bound_to 11000
  140.2165  134.8789  157.3331 LP  0  0  0  0  0  0  0  0  0  0  0  0  # atno 17395 bound_to 11000

$$$$
