#       Name:                AV-unprocessed.smi:3249
#       Creating user name   scv26
#       Creation time:       Fri Mar 27 18:30:32 2020


#       File generated by GOLD software.
#

@<TRIPOS>MOLECULE
AV-unprocessed.smi:3249
    47    48     1
SMALL
NO_CHARGES


@<TRIPOS>ATOM
      1 ****        -3.9076  -4.4949   3.2890 C.3            1 S1                 0.0000
      2 ****        -3.1828  -3.2582   2.8421 C.2            1 S1                 0.0000
      3 ****        -2.7203  -2.1772   3.6449 C.2            1 S1                 0.0000
      4 ****        -2.1176  -1.2348   2.9392 N.2            1 S1                 0.0000
      5 ****        -2.1707  -1.6783   1.6634 N.pl3          1 S1                 0.0000
      6 ****        -1.5987  -0.8815   0.5853 C.3            1 S1                 0.0000
      7 ****        -2.3776   0.4397   0.4397 C.3            1 S1                 0.0000
      8 ****        -0.0714  -0.6655   0.7644 C.3            1 S1                 0.0000
      9 ****         0.6966  -1.9730   1.0304 C.3            1 S1                 0.0000
     10 ****         0.5013  -0.0116  -0.4337 N.4            1 S1                 1.0000
     11 ****         0.9976   1.3630  -0.2139 C.3            1 S1                 0.0000
     12 ****         1.5128   1.9928  -1.5168 C.3            1 S1                 0.0000
     13 ****         2.8192   1.3431  -2.0191 C.3            1 S1                 0.0000
     14 ****         3.3412   2.0726  -3.2624 C.3            1 S1                 0.0000
     15 ****         3.4565   3.5725  -2.9720 C.3            1 S1                 0.0000
     16 ****         2.1290   4.1125  -2.4170 C.3            1 S1                 0.0000
     17 ****         1.7510   3.3742  -1.2587 O.3            1 S1                 0.0000
     18 ****        -2.8123  -2.8965   1.5780 C.2            1 S1                 0.0000
     19 ****        -3.9285  -4.5827   4.3755 H              1 S1                 0.0000
     20 ****        -3.4367  -5.3993   2.9034 H              1 S1                 0.0000
     21 ****        -4.9424  -4.4994   2.9467 H              1 S1                 0.0000
     22 ****        -2.8052  -2.0503   4.7143 H              1 S1                 0.0000
     23 ****        -1.7491  -1.4515  -0.3331 H              1 S1                 0.0000
     24 ****        -2.0690   0.9914  -0.4481 H              1 S1                 0.0000
     25 ****        -2.2292   1.0894   1.3027 H              1 S1                 0.0000
     26 ****        -3.4480   0.2535   0.3456 H              1 S1                 0.0000
     27 ****         0.0872  -0.0210   1.6312 H              1 S1                 0.0000
     28 ****         0.3843  -2.4457   1.9618 H              1 S1                 0.0000
     29 ****         1.7678  -1.7865   1.1126 H              1 S1                 0.0000
     30 ****         0.5452  -2.6925   0.2251 H              1 S1                 0.0000
     31 ****         1.2728  -0.5748  -0.7621 H              1 S1                 0.0000
     32 ****         0.1802   1.9679   0.1806 H              1 S1                 0.0000
     33 ****         1.7828   1.3565   0.5433 H              1 S1                 0.0000
     34 ****         0.7369   1.9103  -2.2804 H              1 S1                 0.0000
     35 ****         3.5749   1.3789  -1.2333 H              1 S1                 0.0000
     36 ****         2.6590   0.2900  -2.2509 H              1 S1                 0.0000
     37 ****         4.3077   1.6682  -3.5645 H              1 S1                 0.0000
     38 ****         2.6582   1.9117  -4.0973 H              1 S1                 0.0000
     39 ****         4.2520   3.7457  -2.2461 H              1 S1                 0.0000
     40 ****         3.7357   4.1121  -3.8774 H              1 S1                 0.0000
     41 ****         2.2363   5.1627  -2.1453 H              1 S1                 0.0000
     42 ****         1.3410   4.0580  -3.1697 H              1 S1                 0.0000
     43 ****        -2.9510  -3.4024   0.6337 H              1 S1                 0.0000
     44 ****        -0.2076   0.0107  -1.1529 H              1 S1                 0.0000
     45 ****        -1.7130  -0.3841   3.2747 LP             1 S1                 0.0000
     46 ****         2.4846   3.4479  -0.5831 LP             1 S1                 0.0000
     47 ****         0.9139   3.7755  -0.8869 LP             1 S1                 0.0000
@<TRIPOS>BOND
    1    1    2 1     
    2    1   19 1     
    3    1   20 1     
    4    1   21 1     
    5    2   18 2     
    6    2    3 1     
    7    3    4 2     
    8    3   22 1     
    9    4    5 1     
   10    5    6 1     
   11    5   18 1     
   12    6    7 1     
   13    6    8 1     
   14    6   23 1     
   15    7   24 1     
   16    7   25 1     
   17    7   26 1     
   18    8    9 1     
   19    8   10 1     
   20    8   27 1     
   21    9   28 1     
   22    9   29 1     
   23    9   30 1     
   24   10   11 1     
   25   10   31 1     
   26   10   44 1     
   27   11   12 1     
   28   11   32 1     
   29   11   33 1     
   30   12   17 1     
   31   12   13 1     
   32   12   34 1     
   33   13   14 1     
   34   13   35 1     
   35   13   36 1     
   36   14   15 1     
   37   14   37 1     
   38   14   38 1     
   39   15   16 1     
   40   15   39 1     
   41   15   40 1     
   42   16   17 1     
   43   16   41 1     
   44   16   42 1     
   45   18   43 1     
   46    4   45 1     
   47   17   46 1     
   48   17   47 1     
@<TRIPOS>SUBSTRUCTURE
      1 S1             1
@<TRIPOS>SET
LONE_PAIRS      STATIC     ATOMS    <user>   **** ""
3 45 46 47
DONOR_HYDROGENS      STATIC     ATOMS    <user>   **** ""
2 31 44
ATOM$BLUE        STATIC     ATOMS    COLORGROUP SYSTEM
3 45 46 47
ATOM$RED        STATIC     ATOMS    COLORGROUP SYSTEM
2 31 44
