AV-unprocessed.smi:224|AV-procd|sdf|1710|dock8
  -GOLD-   2262020173D 1   1.00000     0.00000
 Structure written by MMmdl.
 56 59  0  0  0  0  0  0  0  0  2 V2000
  152.5304  143.1482  158.3225 C   0  0  0  0  0  0  0  0  0  0  0  0
  151.2394  143.2083  157.4960 C   0  0  1  0  0  0  0  0  0  0  0  0
  151.2524  144.4053  156.7448 O   0  0  0  0  0  0  0  0  0  0  0  0
  151.1114  142.0058  156.5386 C   0  0  0  0  0  0  0  0  0  0  0  0
  149.8113  141.9491  155.8141 N   0  3  1  0  0  0  0  0  0  0  0  0
  149.8072  140.9024  154.7579 C   0  0  0  0  0  0  0  0  0  0  0  0
  148.5224  140.9636  153.9132 C   0  0  0  0  0  0  0  0  0  0  0  0
  147.3325  140.9222  154.7594 N   0  0  0  0  0  0  0  0  0  0  0  0
  146.7618  139.7232  155.0572 C   0  0  0  0  0  0  0  0  0  0  0  0
  146.5859  139.3676  156.3582 N   0  0  0  0  0  0  0  0  0  0  0  0
  146.0088  138.2048  156.6728 C   0  0  0  0  0  0  0  0  0  0  0  0
  145.5421  137.2593  155.8570 N   0  0  0  0  0  0  0  0  0  0  0  0
  145.7254  137.5992  154.5495 C   0  0  0  0  0  0  0  0  0  0  0  0
  146.3251  138.7971  154.0657 C   0  0  0  0  0  0  0  0  0  0  0  0
  146.3576  138.7764  152.6760 N   0  0  0  0  0  0  0  0  0  0  0  0
  145.7974  137.6418  152.3579 C   0  0  0  0  0  0  0  0  0  0  0  0
  145.3773  136.8764  153.4217 N   0  0  0  0  0  0  0  0  0  0  0  0
  144.7254  135.5769  153.3547 C   0  0  0  0  0  0  0  0  0  0  0  0
  145.6346  134.4576  152.7944 C   0  0  1  0  0  0  0  0  0  0  0  0
  146.9270  134.5873  153.3625 O   0  0  0  0  0  0  0  0  0  0  0  0
  145.1147  133.0597  153.1020 C   0  0  0  0  0  0  0  0  0  0  0  0
  145.6747  132.2343  151.9515 C   0  0  0  0  0  0  0  0  0  0  0  0
  145.5360  133.1012  150.8384 O   0  0  0  0  0  0  0  0  0  0  0  0
  145.7750  134.4421  151.2581 C   0  0  0  0  0  0  0  0  0  0  0  0
  147.3070  141.9520  155.7961 C   0  0  0  0  0  0  0  0  0  0  0  0
  148.5823  141.9271  156.6692 C   0  0  1  0  0  0  0  0  0  0  0  0
  148.5631  140.7728  157.6942 C   0  0  0  0  0  0  0  0  0  0  0  0
  152.5592  142.2476  158.9365 H   0  0  0  0  0  0  0  0  0  0  0  0
  152.6093  144.0046  158.9932 H   0  0  0  0  0  0  0  0  0  0  0  0
  153.4145  143.1429  157.6838 H   0  0  0  0  0  0  0  0  0  0  0  0
  150.4003  143.2413  158.1899 H   0  0  0  0  0  0  0  0  0  0  0  0
  150.4856  144.4264  156.1927 H   0  0  0  0  0  0  0  0  0  0  0  0
  151.9165  142.0661  155.8045 H   0  0  0  0  0  0  0  0  0  0  0  0
  151.2753  141.0723  157.0775 H   0  0  0  0  0  0  0  0  0  0  0  0
  150.6679  141.0372  154.1022 H   0  0  0  0  0  0  0  0  0  0  0  0
  149.9173  139.9188  155.2155 H   0  0  0  0  0  0  0  0  0  0  0  0
  148.5015  141.8977  153.3508 H   0  0  0  0  0  0  0  0  0  0  0  0
  148.5087  140.1663  153.1689 H   0  0  0  0  0  0  0  0  0  0  0  0
  145.9038  138.0044  157.7288 H   0  0  0  0  0  0  0  0  0  0  0  0
  145.6708  137.3306  151.3309 H   0  0  0  0  0  0  0  0  0  0  0  0
  144.3804  135.3162  154.3561 H   0  0  0  0  0  0  0  0  0  0  0  0
  143.8292  135.6754  152.7407 H   0  0  0  0  0  0  0  0  0  0  0  0
  147.5188  134.8925  152.6917 H   0  0  0  0  0  0  0  0  0  0  0  0
  145.4097  132.6859  154.0836 H   0  0  0  0  0  0  0  0  0  0  0  0
  144.0249  133.0423  153.0539 H   0  0  0  0  0  0  0  0  0  0  0  0
  146.7301  132.0067  152.1088 H   0  0  0  0  0  0  0  0  0  0  0  0
  145.1375  131.2977  151.8015 H   0  0  0  0  0  0  0  0  0  0  0  0
  145.0362  135.0766  150.7705 H   0  0  0  0  0  0  0  0  0  0  0  0
  146.7597  134.7755  150.9271 H   0  0  0  0  0  0  0  0  0  0  0  0
  147.2343  142.9174  155.2939 H   0  0  0  0  0  0  0  0  0  0  0  0
  146.4256  141.8834  156.4313 H   0  0  0  0  0  0  0  0  0  0  0  0
  148.5572  142.8539  157.2405 H   0  0  0  0  0  0  0  0  0  0  0  0
  147.6224  140.7630  158.2455 H   0  0  0  0  0  0  0  0  0  0  0  0
  149.3580  140.8747  158.4324 H   0  0  0  0  0  0  0  0  0  0  0  0
  148.6717  139.7976  157.2211 H   0  0  0  0  0  0  0  0  0  0  0  0
  149.7583  142.8228  155.3096 H   0  0  0  0  0  0  0  0  0  0  0  0
  1  2  1  0  0  0  0
  1 28  1  0  0  0  0
  1 29  1  0  0  0  0
  1 30  1  0  0  0  0
  2  3  1  0  0  0  0
  2  4  1  0  0  0  0
  2 31  1  0  0  0  0
  3 32  1  0  0  0  0
  4  5  1  0  0  0  0
  4 33  1  0  0  0  0
  4 34  1  0  0  0  0
  5 26  1  0  0  0  0
  5  6  1  0  0  0  0
  5 56  1  0  0  0  0
  6  7  1  0  0  0  0
  6 35  1  0  0  0  0
  6 36  1  0  0  0  0
  7  8  1  0  0  0  0
  7 37  1  0  0  0  0
  7 38  1  0  0  0  0
  8  9  1  0  0  0  0
  8 25  1  0  0  0  0
  9 14  1  0  0  0  0
  9 10  2  0  0  0  0
 10 11  1  0  0  0  0
 11 12  2  0  0  0  0
 11 39  1  0  0  0  0
 12 13  1  0  0  0  0
 13 17  1  0  0  0  0
 13 14  2  0  0  0  0
 14 15  1  0  0  0  0
 15 16  2  0  0  0  0
 16 17  1  0  0  0  0
 16 40  1  0  0  0  0
 17 18  1  0  0  0  0
 18 19  1  0  0  0  0
 18 41  1  0  0  0  0
 18 42  1  0  0  0  0
 19 24  1  0  0  0  0
 19 20  1  0  0  0  0
 19 21  1  0  0  0  0
 20 43  1  0  0  0  0
 21 22  1  0  0  0  0
 21 44  1  0  0  0  0
 21 45  1  0  0  0  0
 22 23  1  0  0  0  0
 22 46  1  0  0  0  0
 22 47  1  0  0  0  0
 23 24  1  0  0  0  0
 24 48  1  0  0  0  0
 24 49  1  0  0  0  0
 25 26  1  0  0  0  0
 25 50  1  0  0  0  0
 25 51  1  0  0  0  0
 26 27  1  0  0  0  0
 26 52  1  0  0  0  0
 27 53  1  0  0  0  0
 27 54  1  0  0  0  0
 27 55  1  0  0  0  0
M  CHG  1   5   1
M  END
> <s_m_source_file>
AV-unprocessed.smi

> <i_m_source_file_index>
224

> <i_lp_mmshare_version>
43012

> <i_f3d_flags>
0

> <s_epik_input>
W0NIM11bQ0BIXShbT0hdKVtDSDJdTjFbQ0gyXVtDSDJdTihbQ0gyXVtDQEhdMVtDSDNdKWMobltjSF1uMiljKGMyMyluW2NIXW4zW0NIMl1bQ0BAXTQoW09IXSlbQ0gyXVtDSDJdT1tDSDJdNA==

> <s_epik_cmdline>
J2VwaWtfcHl0aG9uJywgJy1waCcsICc3LjAnLCAnLXRuJywgJzgnLCAnLW1hJywgJzIwMCcsICctbWV0YWxfYmluZGluZycsICctaW1hZScsICc8aW5maWxlLm1hZT4nLCAnLW9tYWUnLCAnPG91dGZpbGUubWFlPic=

> <r_lp_tautomer_probability>
1

> <r_epik_Ionization_Penalty>
0.00516958

> <r_epik_Ionization_Penalty_Charging>
0.00509693

> <r_epik_Ionization_Penalty_Neutral>
7.26542e-05

> <r_epik_State_Penalty>
-0

> <r_epik_Charging_Adjusted_Penalty>
0.00509693

> <i_epik_Tot_Q>
1

> <i_epik_Tot_abs_Q>
1

> <r_epik_Metal_State_Penalty>
-0

> <b_epik_Metal_Only>
0

> <s_lp_Force_Field>
OPLS_2005

> <r_lp_Energy>
49.6762

> <b_lp_Chiralities_Consistent>
1

> <s_lp_Variant>
AV-unprocessed.smi:224-4

> <Gold.Version>
5.8.1

> <Gold.Id.Protein>
6NUR|6NUR_protein|mol2

> <Gold.PLP.Fitness>
45.2987

> <Gold.PLP.PLP>
-32.3115

> <Gold.PLP.part.hbond>
-2.9885

> <Gold.PLP.part.metal>
0.0000

> <Gold.PLP.part.buried>
-4.1706

> <Gold.PLP.part.nonpolar>
-25.7476

> <Gold.PLP.part.repulsive>
1.4699

> <Gold.PLP.ligand.clash>
0.0000

> <Gold.PLP.ligand.torsion>
0.9219

> <Gold.PLP.Chemscore.Hbond>
4.0000

> <Gold.PLP.Chemscore.CHOScore>
0.8284

> <Gold.PLP.Chemscore.Metal>
0.0000

> <Gold.Chemscore.Hbonds>
donor molecule, donor type, donor heavy atom, donor atom, acceptor molecule, acceptor atom, score
      L1  H     3    32       P1  8028  1.00
      L1  H     5    56       P1  8028  1.15
      L1  H    20    43       P1  7948  0.83
      L1  C    16    40       P1 10171  0.51

> <Gold.PLP.Chemscore.Internal.Correction>
0.3458

> <Gold.Rescore>
     Score         DG    S(hbond)    S(metal)    S(lipo)     H(rot)  DE(clash)    DE(int)     intcor
     13.94     -16.49       2.88        0.00      78.05       3.02       0.05       2.50       ----

> <Gold.Chemscore.Fitness>
13.9385

> <Gold.Chemscore.DG>
-16.4922

> <Gold.Chemscore.ZeroCoef>
-5.4800

> <Gold.Chemscore.Hbond>
2.8800

> <Gold.Chemscore.Metal>
0.0000

> <Gold.Chemscore.Lipo>
78.0525

> <Gold.Chemscore.Internal_Hbond>
0.0000

> <Gold.Chemscore.DEClash>
0.0539

> <Gold.Chemscore.DEInternal>
2.4998

> <Gold.Chemscore.Rot>
3.0231

> <Gold.Chemscore.Internal.Correction>
   9.000000E+99

> <Gold.Chemscore.Hbonds>
donor molecule, donor type, donor heavy atom, donor atom, acceptor molecule, acceptor atom, score
      L1  H     3    32       P1  8028  0.99
      L1  H     5    56       P1  8028  0.57
      L1  H    20    43       P1  7948  0.78

> <Gold.Chemscore.Hbond.Weighted>
-9.6192

> <Gold.Chemscore.Metal.Weighted>
-0.0000

> <Gold.Chemscore.Lipo.Weighted>
-9.1321

> <Gold.Chemscore.Internal_Hbond.Weighted>
0.0000

> <Gold.Chemscore.DEClash.Weighted>
0.0539

> <Gold.Chemscore.DEInternal.Weighted>
2.4998

> <Gold.Chemscore.Rot.Weighted>
7.7391

> <Gold.Chemscore.Internal.Correction.Weighted>
   9.000000E+99

> <Gold.Protein.RotatedTorsions>
[ 6907 6896 6895 6894 ] final -124.68 input  -60.11 | X-H torsion
[ 7974 7965 7964 7962 ] final  162.91 input  175.53 | X-H torsion
[ 8008 7997 7996 7995 ] final -158.64 input   59.86 | X-H torsion
[ 10167 10162 10161 10158 ] final  -81.96 input  -65.29 | X-H torsion
[ 10718 10713 10712 10709 ] final  173.72 input   66.30 | X-H torsion
[ 10763 10752 10751 10750 ] final  -64.22 input  -60.55 | X-H torsion
[ 11005 11000 10999 10996 ] final  108.76 input  -57.11 | X-H torsion

> <Gold.Protein.ActiveResidues>
 VAL166  LYS551  ARG553  GLY616  TRP617  ASP618  TYR619  PRO620  LYS621  CYS622 
 ASP623  PHE694  ASN695  SER759  ASP760  ASP761  ALA762  ILE779  LEU786  VAL792 
 PHE793  MET794  SER795  GLU796  ALA797  LYS798  CYS799  TRP800  GLU811  SER814 

> <Gold.Protein.RotatedAtoms>
  150.8792  133.7396  159.2937 H   0  0  0  0  0  0  0  0  0  0  0  0  # atno 6907 bound_to 6896
  151.4983  135.1059  159.9832 H   0  0  0  0  0  0  0  0  0  0  0  0  # atno 6908 bound_to 6896
  152.4748  133.8067  159.7037 H   0  0  0  0  0  0  0  0  0  0  0  0  # atno 6909 bound_to 6896
  144.7614  139.8107  143.6331 H   0  0  0  0  0  0  0  0  0  0  0  0  # atno 7974 bound_to 7965
  155.7507  140.0826  157.2203 H   0  0  0  0  0  0  0  0  0  0  0  0  # atno 8008 bound_to 7997
  154.4012  140.1561  156.2776 H   0  0  0  0  0  0  0  0  0  0  0  0  # atno 8009 bound_to 7997
  155.8933  140.3414  155.5975 H   0  0  0  0  0  0  0  0  0  0  0  0  # atno 8010 bound_to 7997
  140.4364  143.2530  151.8687 H   0  0  0  0  0  0  0  0  0  0  0  0  # atno 10167 bound_to 10162
  156.9601  131.0058  151.2929 H   0  0  0  0  0  0  0  0  0  0  0  0  # atno 10718 bound_to 10713
  154.3268  135.6185  153.5533 H   0  0  0  0  0  0  0  0  0  0  0  0  # atno 10763 bound_to 10752
  152.9815  135.5737  154.5008 H   0  0  0  0  0  0  0  0  0  0  0  0  # atno 10764 bound_to 10752
  154.4686  135.2858  155.1636 H   0  0  0  0  0  0  0  0  0  0  0  0  # atno 10765 bound_to 10752
  139.8850  134.9439  156.6022 H   0  0  0  0  0  0  0  0  0  0  0  0  # atno 11005 bound_to 11000
  146.1680  139.4820  142.9945 LP  0  0  0  0  0  0  0  0  0  0  0  0  # atno 17320 bound_to 7965
  145.6607  141.0241  143.1710 LP  0  0  0  0  0  0  0  0  0  0  0  0  # atno 17321 bound_to 7965
  139.4787  144.5278  151.8711 LP  0  0  0  0  0  0  0  0  0  0  0  0  # atno 17342 bound_to 10162
  140.4368  144.2040  150.5889 LP  0  0  0  0  0  0  0  0  0  0  0  0  # atno 17343 bound_to 10162
  157.5663  130.8280  149.8332 LP  0  0  0  0  0  0  0  0  0  0  0  0  # atno 17370 bound_to 10713
  156.0326  130.3760  150.1647 LP  0  0  0  0  0  0  0  0  0  0  0  0  # atno 17371 bound_to 10713
  140.7875  133.8609  155.8618 LP  0  0  0  0  0  0  0  0  0  0  0  0  # atno 17394 bound_to 11000
  140.9706  134.1536  157.4579 LP  0  0  0  0  0  0  0  0  0  0  0  0  # atno 17395 bound_to 11000

$$$$
