AV-unprocessed.smi:1697|AV-procd|sdf|6810|dock6
  -GOLD-   22720 7583D 1   1.00000     0.00000
 Structure written by MMmdl.
 55 57  0  0  0  0  0  0  0  0  3 V2000
  144.0821  141.6546  160.0351 C   0  0  0  0  0  0  0  0  0  0  0  0
  143.4617  140.9842  158.8079 C   0  0  0  0  0  0  0  0  0  0  0  0
  143.4007  141.9316  157.7518 O   0  0  0  0  0  0  0  0  0  0  0  0
  142.9397  141.4071  156.5116 C   0  0  2  0  0  0  0  0  0  0  0  0
  143.8149  140.2315  156.0387 C   0  0  0  0  0  0  0  0  0  0  0  0
  145.2486  140.6897  155.7235 C   0  0  0  0  0  0  0  0  0  0  0  0
  145.2540  141.7728  154.7037 N   0  3  2  0  0  0  0  0  0  0  0  0
  146.6189  142.1691  154.2688 C   0  0  0  0  0  0  0  0  0  0  0  0
  147.6524  141.0343  154.4212 C   0  0  1  0  0  0  0  0  0  0  0  0
  147.5899  140.1990  153.2817 O   0  0  0  0  0  0  0  0  0  0  0  0
  149.0856  141.5829  154.5639 C   0  0  0  0  0  0  0  0  0  0  0  0
  149.9376  140.7394  155.4131 N   0  0  0  0  0  0  0  0  0  0  0  0
  150.2585  139.4214  155.3015 C   0  0  0  0  0  0  0  0  0  0  0  0
  151.0840  139.1113  156.3398 N   0  3  0  0  0  0  0  0  0  0  0  0
  151.2981  140.2488  157.1217 C   0  0  0  0  0  0  0  0  0  0  0  0
  152.0560  140.4361  158.2718 C   0  0  0  0  0  0  0  0  0  0  0  0
  152.0670  141.7334  158.8331 C   0  0  0  0  0  0  0  0  0  0  0  0
  152.8847  141.9721  160.0910 C   0  0  0  0  0  0  0  0  0  0  0  0
  151.3327  142.7925  158.2392 C   0  0  0  0  0  0  0  0  0  0  0  0
  151.3516  144.1831  158.8511 C   0  0  0  0  0  0  0  0  0  0  0  0
  150.5687  142.5820  157.0690 C   0  0  0  0  0  0  0  0  0  0  0  0
  150.5675  141.2976  156.5306 C   0  0  0  0  0  0  0  0  0  0  0  0
  144.4475  142.9396  155.1468 C   0  0  0  0  0  0  0  0  0  0  0  0
  142.9978  142.5329  155.4681 C   0  0  0  0  0  0  0  0  0  0  0  0
  144.1446  140.9566  160.8702 H   0  0  0  0  0  0  0  0  0  0  0  0
  143.4870  142.5092  160.3578 H   0  0  0  0  0  0  0  0  0  0  0  0
  145.0900  142.0095  159.8189 H   0  0  0  0  0  0  0  0  0  0  0  0
  144.0617  140.1201  158.5237 H   0  0  0  0  0  0  0  0  0  0  0  0
  142.4603  140.6255  159.0499 H   0  0  0  0  0  0  0  0  0  0  0  0
  141.9022  141.0840  156.6135 H   0  0  0  0  0  0  0  0  0  0  0  0
  143.8324  139.4327  156.7793 H   0  0  0  0  0  0  0  0  0  0  0  0
  143.3742  139.7947  155.1415 H   0  0  0  0  0  0  0  0  0  0  0  0
  145.7391  141.0407  156.6330 H   0  0  0  0  0  0  0  0  0  0  0  0
  145.8170  139.8294  155.3736 H   0  0  0  0  0  0  0  0  0  0  0  0
  146.5969  142.4743  153.2213 H   0  0  0  0  0  0  0  0  0  0  0  0
  146.9314  143.0488  154.8337 H   0  0  0  0  0  0  0  0  0  0  0  0
  147.4245  140.4275  155.2960 H   0  0  0  0  0  0  0  0  0  0  0  0
  148.2757  140.4553  152.6832 H   0  0  0  0  0  0  0  0  0  0  0  0
  149.5656  141.6573  153.5868 H   0  0  0  0  0  0  0  0  0  0  0  0
  149.0787  142.5904  154.9820 H   0  0  0  0  0  0  0  0  0  0  0  0
  149.9181  138.7433  154.5317 H   0  0  0  0  0  0  0  0  0  0  0  0
  152.6133  139.6254  158.7182 H   0  0  0  0  0  0  0  0  0  0  0  0
  152.2378  142.2714  160.9162 H   0  0  0  0  0  0  0  0  0  0  0  0
  153.6230  142.7572  159.9264 H   0  0  0  0  0  0  0  0  0  0  0  0
  153.4200  141.0723  160.3958 H   0  0  0  0  0  0  0  0  0  0  0  0
  150.7224  144.8748  158.2901 H   0  0  0  0  0  0  0  0  0  0  0  0
  152.3651  144.5852  158.8566 H   0  0  0  0  0  0  0  0  0  0  0  0
  150.9837  144.1559  159.8769 H   0  0  0  0  0  0  0  0  0  0  0  0
  150.0110  143.3882  156.6162 H   0  0  0  0  0  0  0  0  0  0  0  0
  144.9152  143.3948  156.0213 H   0  0  0  0  0  0  0  0  0  0  0  0
  144.4364  143.6985  154.3637 H   0  0  0  0  0  0  0  0  0  0  0  0
  142.5047  142.2037  154.5525 H   0  0  0  0  0  0  0  0  0  0  0  0
  142.4373  143.3989  155.8221 H   0  0  0  0  0  0  0  0  0  0  0  0
  144.7927  141.4090  153.8816 H   0  0  0  0  0  0  0  0  0  0  0  0
  151.4737  138.1907  156.4988 H   0  0  0  0  0  0  0  0  0  0  0  0
  1  2  1  0  0  0  0
  1 25  1  0  0  0  0
  1 26  1  0  0  0  0
  1 27  1  0  0  0  0
  2  3  1  0  0  0  0
  2 28  1  0  0  0  0
  2 29  1  0  0  0  0
  3  4  1  0  0  0  0
  4 24  1  0  0  0  0
  4  5  1  0  0  0  0
  4 30  1  0  0  0  0
  5  6  1  0  0  0  0
  5 31  1  0  0  0  0
  5 32  1  0  0  0  0
  6  7  1  0  0  0  0
  6 33  1  0  0  0  0
  6 34  1  0  0  0  0
  7  8  1  0  0  0  0
  7 23  1  0  0  0  0
  7 54  1  0  0  0  0
  8  9  1  0  0  0  0
  8 35  1  0  0  0  0
  8 36  1  0  0  0  0
  9 10  1  0  0  0  0
  9 11  1  0  0  0  0
  9 37  1  0  0  0  0
 10 38  1  0  0  0  0
 11 12  1  0  0  0  0
 11 39  1  0  0  0  0
 11 40  1  0  0  0  0
 12 22  1  0  0  0  0
 12 13  1  0  0  0  0
 13 14  2  0  0  0  0
 13 41  1  0  0  0  0
 14 15  1  0  0  0  0
 14 55  1  0  0  0  0
 15 22  2  0  0  0  0
 15 16  1  0  0  0  0
 16 17  2  0  0  0  0
 16 42  1  0  0  0  0
 17 18  1  0  0  0  0
 17 19  1  0  0  0  0
 18 43  1  0  0  0  0
 18 44  1  0  0  0  0
 18 45  1  0  0  0  0
 19 20  1  0  0  0  0
 19 21  2  0  0  0  0
 20 46  1  0  0  0  0
 20 47  1  0  0  0  0
 20 48  1  0  0  0  0
 21 22  1  0  0  0  0
 21 49  1  0  0  0  0
 23 24  1  0  0  0  0
 23 50  1  0  0  0  0
 23 51  1  0  0  0  0
 24 52  1  0  0  0  0
 24 53  1  0  0  0  0
M  CHG  1   7   1
M  CHG  1  14   1
M  END
> <s_m_source_file>
AV-unprocessed.smi

> <i_m_source_file_index>
1697

> <i_lp_mmshare_version>
43012

> <i_f3d_flags>
0

> <s_epik_input>
W0NIM11bQ0gyXU9bQ0hdMVtDSDJdW0NIMl1OKFtDSDJdW0NIMl0xKVtDSDJdW0NASF0oW09IXSlbQ0gyXW4oW2NIXW4yKWMoYzIzKVtjSF1jKFtDSDNdKWMoW2NIXTMpW0NIM10=

> <s_epik_cmdline>
J2VwaWtfcHl0aG9uJywgJy1waCcsICc3LjAnLCAnLXRuJywgJzgnLCAnLW1hJywgJzIwMCcsICctbWV0YWxfYmluZGluZycsICctaW1hZScsICc8aW5maWxlLm1hZT4nLCAnLW9tYWUnLCAnPG91dGZpbGUubWFlPic=

> <r_epik_Ionization_Penalty>
1.20016

> <r_epik_Ionization_Penalty_Charging>
1.20016

> <r_epik_Ionization_Penalty_Neutral>
1.70998e-06

> <r_epik_State_Penalty>
1.27959

> <r_epik_Charging_Adjusted_Penalty>
2.47975

> <i_epik_Tot_Q>
2

> <i_epik_Tot_abs_Q>
2

> <r_epik_Metal_State_Penalty>
5.29682

> <b_epik_Metal_Only>
0

> <s_lp_Force_Field>
OPLS_2005

> <r_lp_Energy>
32.2175

> <b_lp_Chiralities_Consistent>
1

> <s_lp_Variant>
AV-unprocessed.smi:1697-8

> <Gold.Version>
5.8.1

> <Gold.Id.Protein>
6NUR|6NUR_protein|mol2

> <Gold.PLP.Fitness>
47.1860

> <Gold.PLP.PLP>
-40.2810

> <Gold.PLP.part.hbond>
-2.0000

> <Gold.PLP.part.metal>
0.0000

> <Gold.PLP.part.buried>
-2.4334

> <Gold.PLP.part.nonpolar>
-36.1360

> <Gold.PLP.part.repulsive>
0.0748

> <Gold.PLP.ligand.clash>
0.0000

> <Gold.PLP.ligand.torsion>
1.0742

> <Gold.PLP.Chemscore.Hbond>
3.0000

> <Gold.PLP.Chemscore.CHOScore>
0.0000

> <Gold.PLP.Chemscore.Metal>
0.0000

> <Gold.Chemscore.Hbonds>
donor molecule, donor type, donor heavy atom, donor atom, acceptor molecule, acceptor atom, score
      L1  H     7    54       P1 10175  2.00
      L1  H    10    38       P1  7957  0.94

> <Gold.PLP.Chemscore.Internal.Correction>
0.0534

> <Gold.Rescore>
     Score         DG    S(hbond)    S(metal)    S(lipo)     H(rot)  DE(clash)    DE(int)     intcor
     16.33     -17.49       1.87        0.00     100.58       2.35       0.19       0.98       ----

> <Gold.Chemscore.Fitness>
16.3252

> <Gold.Chemscore.DG>
-17.4900

> <Gold.Chemscore.ZeroCoef>
-5.4800

> <Gold.Chemscore.Hbond>
1.8712

> <Gold.Chemscore.Metal>
0.0000

> <Gold.Chemscore.Lipo>
100.5820

> <Gold.Chemscore.Internal_Hbond>
0.0000

> <Gold.Chemscore.DEClash>
0.1870

> <Gold.Chemscore.DEInternal>
0.9778

> <Gold.Chemscore.Rot>
2.3468

> <Gold.Chemscore.Internal.Correction>
   9.000000E+99

> <Gold.Chemscore.Hbonds>
donor molecule, donor type, donor heavy atom, donor atom, acceptor molecule, acceptor atom, score
      L1  H     7    54       P1 10175  0.29
      L1  H    10    38       P1  7957  0.87

> <Gold.Chemscore.Hbond.Weighted>
-6.2497

> <Gold.Chemscore.Metal.Weighted>
-0.0000

> <Gold.Chemscore.Lipo.Weighted>
-11.7681

> <Gold.Chemscore.Internal_Hbond.Weighted>
0.0000

> <Gold.Chemscore.DEClash.Weighted>
0.1870

> <Gold.Chemscore.DEInternal.Weighted>
0.9778

> <Gold.Chemscore.Rot.Weighted>
6.0077

> <Gold.Chemscore.Internal.Correction.Weighted>
   9.000000E+99

> <Gold.Protein.RotatedTorsions>
[ 6907 6896 6895 6894 ] final  124.89 input  -60.11 | X-H torsion
[ 7974 7965 7964 7962 ] final   -7.08 input  175.53 | X-H torsion
[ 8008 7997 7996 7995 ] final   -3.64 input   59.86 | X-H torsion
[ 10167 10162 10161 10158 ] final -160.56 input  -65.29 | X-H torsion
[ 10718 10713 10712 10709 ] final -101.19 input   66.30 | X-H torsion
[ 10763 10752 10751 10750 ] final   61.22 input  -60.55 | X-H torsion
[ 11005 11000 10999 10996 ] final   -3.70 input  -57.11 | X-H torsion

> <Gold.Protein.ActiveResidues>
 VAL166  LYS551  ARG553  GLY616  TRP617  ASP618  TYR619  PRO620  LYS621  CYS622 
 ASP623  PHE694  ASN695  SER759  ASP760  ASP761  ALA762  ILE779  LEU786  VAL792 
 PHE793  MET794  SER795  GLU796  ALA797  LYS798  CYS799  TRP800  GLU811  SER814 

> <Gold.Protein.RotatedAtoms>
  152.4039  133.6859  159.6339 H   0  0  0  0  0  0  0  0  0  0  0  0  # atno 6907 bound_to 6896
  150.7926  133.8743  159.3276 H   0  0  0  0  0  0  0  0  0  0  0  0  # atno 6908 bound_to 6896
  151.6502  135.1004  160.0210 H   0  0  0  0  0  0  0  0  0  0  0  0  # atno 6909 bound_to 6896
  146.2315  140.2267  142.8339 H   0  0  0  0  0  0  0  0  0  0  0  0  # atno 7974 bound_to 7965
  154.6227  140.2504  155.7529 H   0  0  0  0  0  0  0  0  0  0  0  0  # atno 8008 bound_to 7997
  156.2436  140.2923  156.0462 H   0  0  0  0  0  0  0  0  0  0  0  0  # atno 8009 bound_to 7997
  155.1870  140.0390  157.2883 H   0  0  0  0  0  0  0  0  0  0  0  0  # atno 8010 bound_to 7997
  139.6530  144.0049  152.2175 H   0  0  0  0  0  0  0  0  0  0  0  0  # atno 10167 bound_to 10162
  156.0187  130.5362  150.6927 H   0  0  0  0  0  0  0  0  0  0  0  0  # atno 10718 bound_to 10713
  152.9944  135.5508  154.5998 H   0  0  0  0  0  0  0  0  0  0  0  0  # atno 10763 bound_to 10752
  154.5342  135.2815  155.1155 H   0  0  0  0  0  0  0  0  0  0  0  0  # atno 10764 bound_to 10752
  154.2458  135.6408  153.5276 H   0  0  0  0  0  0  0  0  0  0  0  0  # atno 10765 bound_to 10752
  140.6722  133.9227  155.8502 H   0  0  0  0  0  0  0  0  0  0  0  0  # atno 11005 bound_to 11000
  144.9590  140.8255  143.5525 LP  0  0  0  0  0  0  0  0  0  0  0  0  # atno 17320 bound_to 7965
  145.2235  139.2148  143.5080 LP  0  0  0  0  0  0  0  0  0  0  0  0  # atno 17321 bound_to 7965
  139.9769  144.6455  150.7937 LP  0  0  0  0  0  0  0  0  0  0  0  0  # atno 17342 bound_to 10162
  140.7546  143.3031  151.3031 LP  0  0  0  0  0  0  0  0  0  0  0  0  # atno 17343 bound_to 10162
  157.4605  131.0882  151.0751 LP  0  0  0  0  0  0  0  0  0  0  0  0  # atno 17370 bound_to 10713
  157.1240  130.6074  149.5512 LP  0  0  0  0  0  0  0  0  0  0  0  0  # atno 17371 bound_to 10713
  141.0383  134.0658  157.3932 LP  0  0  0  0  0  0  0  0  0  0  0  0  # atno 17394 bound_to 11000
  139.8978  135.0152  156.7118 LP  0  0  0  0  0  0  0  0  0  0  0  0  # atno 17395 bound_to 11000

$$$$
