AV-unprocessed.smi:2807|AV-procd|sdf|10821|dock6
  -GOLD-   2272015263D 1   1.00000     0.00000
 Structure written by MMmdl.
 31 32  0  0  0  0  0  0  0  0  2 V2000
  151.7233  139.9262  155.2545 O   0  0  0  0  0  0  0  0  0  0  0  0
  150.9150  140.4170  156.0512 C   0  0  0  0  0  0  0  0  0  0  0  0
  149.7050  141.0009  155.8167 N   0  5  0  0  0  0  0  0  0  0  0  0
  149.1746  141.3027  154.4825 C   0  0  1  0  0  0  0  0  0  0  0  0
  149.1333  140.0136  153.6481 C   0  0  0  0  0  0  0  0  0  0  0  0
  147.7760  139.3433  153.9327 C   0  0  0  0  0  0  0  0  0  0  0  0
  146.9066  140.3902  154.6460 C   0  0  0  0  0  0  0  0  0  0  0  0
  147.6868  141.7057  154.5349 C   0  0  1  0  0  0  0  0  0  0  0  0
  147.3525  142.6225  155.5600 O   0  0  0  0  0  0  0  0  0  0  0  0
  151.2766  140.4354  157.5512 C   0  0  0  0  0  0  0  0  0  0  0  0
  150.2904  139.8709  158.2564 F   0  0  0  0  0  0  0  0  0  0  0  0
  152.3758  139.7013  157.7410 F   0  0  0  0  0  0  0  0  0  0  0  0
  151.5551  141.8621  158.0240 C   0  0  0  0  0  0  0  0  0  0  0  0
  152.1588  142.0963  159.2805 C   0  0  0  0  0  0  0  0  0  0  0  0
  152.4191  143.4241  159.6690 C   0  0  0  0  0  0  0  0  0  0  0  0
  152.0661  144.4686  158.7940 C   0  0  0  0  0  0  0  0  0  0  0  0
  151.4663  144.1358  157.5637 C   0  0  0  0  0  0  0  0  0  0  0  0
  151.2109  142.8667  157.1825 N   0  0  0  0  0  0  0  0  0  0  0  0
  149.7603  142.0663  153.9680 H   0  0  0  0  0  0  0  0  0  0  0  0
  149.1805  140.2767  152.5907 H   0  0  0  0  0  0  0  0  0  0  0  0
  149.9754  139.3480  153.8438 H   0  0  0  0  0  0  0  0  0  0  0  0
  147.3115  139.0093  153.0042 H   0  0  0  0  0  0  0  0  0  0  0  0
  147.9001  138.4631  154.5656 H   0  0  0  0  0  0  0  0  0  0  0  0
  145.9107  140.4690  154.2091 H   0  0  0  0  0  0  0  0  0  0  0  0
  146.7776  140.1041  155.6927 H   0  0  0  0  0  0  0  0  0  0  0  0
  147.4346  142.1749  153.5829 H   0  0  0  0  0  0  0  0  0  0  0  0
  148.0064  143.3047  155.5648 H   0  0  0  0  0  0  0  0  0  0  0  0
  152.4264  141.2730  159.9260 H   0  0  0  0  0  0  0  0  0  0  0  0
  152.8833  143.6368  160.6204 H   0  0  0  0  0  0  0  0  0  0  0  0
  152.2521  145.4991  159.0574 H   0  0  0  0  0  0  0  0  0  0  0  0
  151.1822  144.9110  156.8672 H   0  0  0  0  0  0  0  0  0  0  0  0
  1  2  2  0  0  0  0
  2  3  1  0  0  0  0
  2 10  1  0  0  0  0
  3  4  1  0  0  0  0
  4  8  1  0  0  0  0
  4  5  1  0  0  0  0
  4 19  1  0  0  0  0
  5  6  1  0  0  0  0
  5 20  1  0  0  0  0
  5 21  1  0  0  0  0
  6  7  1  0  0  0  0
  6 22  1  0  0  0  0
  6 23  1  0  0  0  0
  7  8  1  0  0  0  0
  7 24  1  0  0  0  0
  7 25  1  0  0  0  0
  8  9  1  0  0  0  0
  8 26  1  0  0  0  0
  9 27  1  0  0  0  0
 10 11  1  0  0  0  0
 10 12  1  0  0  0  0
 10 13  1  0  0  0  0
 13 18  1  0  0  0  0
 13 14  2  0  0  0  0
 14 15  1  0  0  0  0
 14 28  1  0  0  0  0
 15 16  2  0  0  0  0
 15 29  1  0  0  0  0
 16 17  1  0  0  0  0
 16 30  1  0  0  0  0
 17 18  2  0  0  0  0
 17 31  1  0  0  0  0
M  CHG  1   3  -1
M  END
> <s_m_source_file>
AV-unprocessed.smi

> <i_m_source_file_index>
2807

> <i_lp_mmshare_version>
43012

> <i_f3d_flags>
0

> <s_epik_input>
bjFbY0hdW2NIXVtjSF1bY0hdYzFDKEYpKEYpQyg9TylbTkhdW0NAQEhdMltDSDJdW0NIMl1bQ0gyXVtDQEhdMltPSF0=

> <s_epik_cmdline>
J2VwaWtfcHl0aG9uJywgJy1waCcsICc3LjAnLCAnLXRuJywgJzgnLCAnLW1hJywgJzIwMCcsICctbWV0YWxfYmluZGluZycsICctaW1hZScsICc8aW5maWxlLm1hZT4nLCAnLW9tYWUnLCAnPG91dGZpbGUubWFlPic=

> <r_lp_tautomer_probability>
1

> <r_epik_Ionization_Penalty>
5.72231

> <r_epik_Ionization_Penalty_Charging>
5.72231

> <r_epik_Ionization_Penalty_Neutral>
5.49816e-06

> <r_epik_State_Penalty>
5.72227

> <r_epik_Charging_Adjusted_Penalty>
11.4446

> <i_epik_Tot_Q>
-1

> <i_epik_Tot_abs_Q>
1

> <r_epik_Metal_State_Penalty>
1.70075

> <b_epik_Metal_Only>
1

> <s_lp_Force_Field>
OPLS_2005

> <r_lp_Energy>
37.2022

> <b_lp_Chiralities_Consistent>
1

> <s_lp_Variant>
AV-unprocessed.smi:2807-6

> <Gold.Version>
5.8.1

> <Gold.Id.Protein>
6NUR|6NUR_protein|mol2

> <Gold.PLP.Fitness>
41.3778

> <Gold.PLP.PLP>
-34.2748

> <Gold.PLP.part.hbond>
-2.0000

> <Gold.PLP.part.metal>
0.0000

> <Gold.PLP.part.buried>
2.0127

> <Gold.PLP.part.nonpolar>
-34.1317

> <Gold.PLP.part.repulsive>
0.2048

> <Gold.PLP.ligand.clash>
0.0000

> <Gold.PLP.ligand.torsion>
0.6226

> <Gold.PLP.Chemscore.Hbond>
1.9760

> <Gold.PLP.Chemscore.CHOScore>
0.7841

> <Gold.PLP.Chemscore.Metal>
0.0000

> <Gold.Chemscore.Hbonds>
donor molecule, donor type, donor heavy atom, donor atom, acceptor molecule, acceptor atom, score
      L1  H     9    27       P1  8028  1.00
      P1  H  7989  7998       L1     1  0.98
      L1  C    17    31       P1  8028  0.75

> <Gold.PLP.Chemscore.Internal.Correction>
0.0681

> <Gold.Rescore>
     Score         DG    S(hbond)    S(metal)    S(lipo)     H(rot)  DE(clash)    DE(int)     intcor
     12.86     -16.58       1.62        0.00      92.19       2.00       1.89       1.83       ----

> <Gold.Chemscore.Fitness>
12.8574

> <Gold.Chemscore.DG>
-16.5806

> <Gold.Chemscore.ZeroCoef>
-5.4800

> <Gold.Chemscore.Hbond>
1.6243

> <Gold.Chemscore.Metal>
0.0000

> <Gold.Chemscore.Lipo>
92.1894

> <Gold.Chemscore.Internal_Hbond>
0.0000

> <Gold.Chemscore.DEClash>
1.8882

> <Gold.Chemscore.DEInternal>
1.8350

> <Gold.Chemscore.Rot>
1.9964

> <Gold.Chemscore.Internal.Correction>
   9.000000E+99

> <Gold.Chemscore.Hbonds>
donor molecule, donor type, donor heavy atom, donor atom, acceptor molecule, acceptor atom, score
      L1  H     9    27       P1  8028  0.60
      P1  H  7989  7998       L1     1  0.71

> <Gold.Chemscore.Hbond.Weighted>
-5.4252

> <Gold.Chemscore.Metal.Weighted>
-0.0000

> <Gold.Chemscore.Lipo.Weighted>
-10.7862

> <Gold.Chemscore.Internal_Hbond.Weighted>
0.0000

> <Gold.Chemscore.DEClash.Weighted>
1.8882

> <Gold.Chemscore.DEInternal.Weighted>
1.8350

> <Gold.Chemscore.Rot.Weighted>
5.1108

> <Gold.Chemscore.Internal.Correction.Weighted>
   9.000000E+99

> <Gold.Protein.RotatedTorsions>
[ 6907 6896 6895 6894 ] final  129.15 input  -60.11 | X-H torsion
[ 7974 7965 7964 7962 ] final  174.70 input  175.53 | X-H torsion
[ 8008 7997 7996 7995 ] final   81.00 input   59.86 | X-H torsion
[ 10167 10162 10161 10158 ] final -117.80 input  -65.29 | X-H torsion
[ 10718 10713 10712 10709 ] final   53.88 input   66.30 | X-H torsion
[ 10763 10752 10751 10750 ] final  120.73 input  -60.55 | X-H torsion
[ 11005 11000 10999 10996 ] final   59.96 input  -57.11 | X-H torsion

> <Gold.Protein.ActiveResidues>
 VAL166  LYS551  ARG553  GLY616  TRP617  ASP618  TYR619  PRO620  LYS621  CYS622 
 ASP623  PHE694  ASN695  SER759  ASP760  ASP761  ALA762  ILE779  LEU786  VAL792 
 PHE793  MET794  SER795  GLU796  ALA797  LYS798  CYS799  TRP800  GLU811  SER814 

> <Gold.Protein.RotatedAtoms>
  152.3651  133.6346  159.6044 H   0  0  0  0  0  0  0  0  0  0  0  0  # atno 6907 bound_to 6896
  150.7628  133.9361  159.3450 H   0  0  0  0  0  0  0  0  0  0  0  0  # atno 6908 bound_to 6896
  151.7192  135.0898  160.0332 H   0  0  0  0  0  0  0  0  0  0  0  0  # atno 6909 bound_to 6896
  144.7216  139.9836  143.6439 H   0  0  0  0  0  0  0  0  0  0  0  0  # atno 7974 bound_to 7965
  155.8912  140.3438  155.5957 H   0  0  0  0  0  0  0  0  0  0  0  0  # atno 8008 bound_to 7997
  155.7609  140.0832  157.2175 H   0  0  0  0  0  0  0  0  0  0  0  0  # atno 8009 bound_to 7997
  154.4033  140.1536  156.2818 H   0  0  0  0  0  0  0  0  0  0  0  0  # atno 8010 bound_to 7997
  140.0644  143.4937  152.2014 H   0  0  0  0  0  0  0  0  0  0  0  0  # atno 10167 bound_to 10162
  157.5207  130.8563  149.8555 H   0  0  0  0  0  0  0  0  0  0  0  0  # atno 10718 bound_to 10713
  153.6031  135.3444  155.2952 H   0  0  0  0  0  0  0  0  0  0  0  0  # atno 10763 bound_to 10752
  154.8632  135.4232  154.2391 H   0  0  0  0  0  0  0  0  0  0  0  0  # atno 10764 bound_to 10752
  153.3224  135.7039  153.7090 H   0  0  0  0  0  0  0  0  0  0  0  0  # atno 10765 bound_to 10752
  140.0266  134.6073  155.9564 H   0  0  0  0  0  0  0  0  0  0  0  0  # atno 11005 bound_to 11000
  146.0468  139.3473  143.0664 LP  0  0  0  0  0  0  0  0  0  0  0  0  # atno 17320 bound_to 7965
  145.8265  140.9652  143.0871 LP  0  0  0  0  0  0  0  0  0  0  0  0  # atno 17321 bound_to 7965
  139.5874  144.7536  151.3486 LP  0  0  0  0  0  0  0  0  0  0  0  0  # atno 17342 bound_to 10162
  140.7156  143.7274  150.7649 LP  0  0  0  0  0  0  0  0  0  0  0  0  # atno 17343 bound_to 10162
  156.0351  130.3753  150.1581 LP  0  0  0  0  0  0  0  0  0  0  0  0  # atno 17370 bound_to 10713
  156.9769  130.9852  151.3446 LP  0  0  0  0  0  0  0  0  0  0  0  0  # atno 17371 bound_to 10713
  141.1806  133.6546  156.5006 LP  0  0  0  0  0  0  0  0  0  0  0  0  # atno 17394 bound_to 11000
  140.4296  134.7114  157.4934 LP  0  0  0  0  0  0  0  0  0  0  0  0  # atno 17395 bound_to 11000

$$$$
