AV-unprocessed.smi:1154|AV-procd|sdf|4902|dock9
  -GOLD-   22720 3473D 1   1.00000     0.00000
 Structure written by MMmdl.
 42 43  0  0  0  0  0  0  0  0  2 V2000
  148.1800  130.5804  153.5364 C   0  0  0  0  0  0  0  0  0  0  0  0
  147.2244  131.7068  153.1185 C   0  0  2  0  0  0  0  0  0  0  0  0
  146.2436  131.2327  152.0315 C   0  0  0  0  0  0  0  0  0  0  0  0
  145.3207  132.3790  151.5818 C   0  0  2  0  0  0  0  0  0  0  0  0
  144.3575  131.9224  150.4770 C   0  0  0  0  0  0  0  0  0  0  0  0
  146.1633  133.5895  151.1278 C   0  0  0  0  0  0  0  0  0  0  0  0
  147.1002  134.0492  152.1865 N   0  3  1  0  0  0  0  0  0  0  0  0
  146.4312  134.8014  153.2821 C   0  0  0  0  0  0  0  0  0  0  0  0
  147.2799  134.8583  154.5624 C   0  0  0  0  0  0  0  0  0  0  0  0
  148.5843  135.4418  154.2822 N   0  0  0  0  0  0  0  0  0  0  0  0
  149.5549  135.5995  155.1948 C   0  0  0  0  0  0  0  0  0  0  0  0
  149.4305  135.2733  156.3746 O   0  0  0  0  0  0  0  0  0  0  0  0
  150.8632  136.2260  154.7082 C   0  0  0  0  0  0  0  0  0  0  0  0
  150.8252  137.6736  154.8034 N   0  0  0  0  0  0  0  0  0  0  0  0
  150.2842  138.5912  153.9995 C   0  0  0  0  0  0  0  0  0  0  0  0
  150.4902  139.8190  154.4502 N   0  0  0  0  0  0  0  0  0  0  0  0
  151.2068  139.6098  155.6167 N   0  0  0  0  0  0  0  0  0  0  0  0
  151.4083  138.3387  155.8318 N   0  0  0  0  0  0  0  0  0  0  0  0
  148.0010  132.9518  152.6354 C   0  0  0  0  0  0  0  0  0  0  0  0
  148.7906  130.2448  152.6974 H   0  0  0  0  0  0  0  0  0  0  0  0
  147.6286  129.7177  153.9116 H   0  0  0  0  0  0  0  0  0  0  0  0
  148.8539  130.9089  154.3282 H   0  0  0  0  0  0  0  0  0  0  0  0
  146.6464  131.9763  154.0027 H   0  0  0  0  0  0  0  0  0  0  0  0
  146.8007  130.8518  151.1740 H   0  0  0  0  0  0  0  0  0  0  0  0
  145.6473  130.4000  152.4072 H   0  0  0  0  0  0  0  0  0  0  0  0
  144.7121  132.6807  152.4353 H   0  0  0  0  0  0  0  0  0  0  0  0
  144.8977  131.6030  149.5851 H   0  0  0  0  0  0  0  0  0  0  0  0
  143.6823  132.7280  150.1866 H   0  0  0  0  0  0  0  0  0  0  0  0
  143.7445  131.0852  150.8120 H   0  0  0  0  0  0  0  0  0  0  0  0
  146.7493  133.3175  150.2485 H   0  0  0  0  0  0  0  0  0  0  0  0
  145.5190  134.4127  150.8161 H   0  0  0  0  0  0  0  0  0  0  0  0
  146.2599  135.8268  152.9509 H   0  0  0  0  0  0  0  0  0  0  0  0
  145.4470  134.3838  153.4932 H   0  0  0  0  0  0  0  0  0  0  0  0
  146.7982  135.4614  155.3319 H   0  0  0  0  0  0  0  0  0  0  0  0
  147.4036  133.8529  154.9688 H   0  0  0  0  0  0  0  0  0  0  0  0
  148.7639  135.7417  153.3348 H   0  0  0  0  0  0  0  0  0  0  0  0
  151.6959  135.8526  155.3056 H   0  0  0  0  0  0  0  0  0  0  0  0
  151.0560  135.9423  153.6724 H   0  0  0  0  0  0  0  0  0  0  0  0
  149.7493  138.3625  153.0893 H   0  0  0  0  0  0  0  0  0  0  0  0
  148.6798  133.3031  153.4114 H   0  0  0  0  0  0  0  0  0  0  0  0
  148.6349  132.6754  151.7916 H   0  0  0  0  0  0  0  0  0  0  0  0
  147.6950  134.7295  151.7349 H   0  0  0  0  0  0  0  0  0  0  0  0
  1  2  1  0  0  0  0
  1 20  1  0  0  0  0
  1 21  1  0  0  0  0
  1 22  1  0  0  0  0
  2 19  1  0  0  0  0
  2  3  1  0  0  0  0
  2 23  1  0  0  0  0
  3  4  1  0  0  0  0
  3 24  1  0  0  0  0
  3 25  1  0  0  0  0
  4  5  1  0  0  0  0
  4  6  1  0  0  0  0
  4 26  1  0  0  0  0
  5 27  1  0  0  0  0
  5 28  1  0  0  0  0
  5 29  1  0  0  0  0
  6  7  1  0  0  0  0
  6 30  1  0  0  0  0
  6 31  1  0  0  0  0
  7  8  1  0  0  0  0
  7 19  1  0  0  0  0
  7 42  1  0  0  0  0
  8  9  1  0  0  0  0
  8 32  1  0  0  0  0
  8 33  1  0  0  0  0
  9 10  1  0  0  0  0
  9 34  1  0  0  0  0
  9 35  1  0  0  0  0
 10 11  1  0  0  0  0
 10 36  1  0  0  0  0
 11 12  2  0  0  0  0
 11 13  1  0  0  0  0
 13 14  1  0  0  0  0
 13 37  1  0  0  0  0
 13 38  1  0  0  0  0
 14 18  1  0  0  0  0
 14 15  1  0  0  0  0
 15 16  2  0  0  0  0
 15 39  1  0  0  0  0
 16 17  1  0  0  0  0
 17 18  2  0  0  0  0
 19 40  1  0  0  0  0
 19 41  1  0  0  0  0
M  CHG  1   7   1
M  END
> <s_m_source_file>
AV-unprocessed.smi

> <i_m_source_file_index>
1154

> <i_lp_mmshare_version>
43012

> <i_f3d_flags>
0

> <s_epik_input>
W0NIM11bQ0BASF0xW0NIMl1bQ0BASF0oW0NIM10pW0NIMl1OKFtDSDJdMSlbQ0gyXVtDSDJdW05IXUMoPU8pW0NIMl1uMltjSF1ubm4y

> <s_epik_cmdline>
J2VwaWtfcHl0aG9uJywgJy1waCcsICc3LjAnLCAnLXRuJywgJzgnLCAnLW1hJywgJzIwMCcsICctbWV0YWxfYmluZGluZycsICctaW1hZScsICc8aW5maWxlLm1hZT4nLCAnLW9tYWUnLCAnPG91dGZpbGUubWFlPic=

> <r_lp_tautomer_probability>
1

> <r_epik_Ionization_Penalty>
0.00217773

> <r_epik_Ionization_Penalty_Charging>
0.00217329

> <r_epik_Ionization_Penalty_Neutral>
4.43997e-06

> <r_epik_State_Penalty>
0.00149294

> <r_epik_Charging_Adjusted_Penalty>
0.00366623

> <i_epik_Tot_Q>
1

> <i_epik_Tot_abs_Q>
1

> <r_epik_Metal_State_Penalty>
-0

> <b_epik_Metal_Only>
0

> <s_lp_Force_Field>
OPLS_2005

> <r_lp_Energy>
22.2263

> <b_lp_Chiralities_Consistent>
1

> <s_lp_Variant>
AV-unprocessed.smi:1154-3

> <Gold.Version>
5.8.1

> <Gold.Id.Protein>
6NUR|6NUR_protein|mol2

> <Gold.PLP.Fitness>
44.9245

> <Gold.PLP.PLP>
-29.2172

> <Gold.PLP.part.hbond>
-3.0000

> <Gold.PLP.part.metal>
0.0000

> <Gold.PLP.part.buried>
-3.7546

> <Gold.PLP.part.nonpolar>
-23.3754

> <Gold.PLP.part.repulsive>
0.1719

> <Gold.PLP.ligand.clash>
0.0000

> <Gold.PLP.ligand.torsion>
0.9338

> <Gold.PLP.Chemscore.Hbond>
3.9913

> <Gold.PLP.Chemscore.CHOScore>
1.8518

> <Gold.PLP.Chemscore.Metal>
0.0000

> <Gold.Chemscore.Hbonds>
donor molecule, donor type, donor heavy atom, donor atom, acceptor molecule, acceptor atom, score
      L1  H     7    42       P1  7948  2.00
      L1  H    10    36       P1  7948  1.00
      P1  H  7989  7998       L1    16  1.00
      L1  C    15    39       P1  7948  0.97
      L1  C    15    39       P1  7957  0.82

> <Gold.PLP.Chemscore.Internal.Correction>
0.0458

> <Gold.Rescore>
     Score         DG    S(hbond)    S(metal)    S(lipo)     H(rot)  DE(clash)    DE(int)     intcor
     12.41     -13.32       2.55        0.00      52.64       2.67       0.02       0.89       ----

> <Gold.Chemscore.Fitness>
12.4119

> <Gold.Chemscore.DG>
-13.3227

> <Gold.Chemscore.ZeroCoef>
-5.4800

> <Gold.Chemscore.Hbond>
2.5488

> <Gold.Chemscore.Metal>
0.0000

> <Gold.Chemscore.Lipo>
52.6358

> <Gold.Chemscore.Internal_Hbond>
0.0000

> <Gold.Chemscore.DEClash>
0.0234

> <Gold.Chemscore.DEInternal>
0.8874

> <Gold.Chemscore.Rot>
2.6674

> <Gold.Chemscore.Internal.Correction>
   9.000000E+99

> <Gold.Chemscore.Hbonds>
donor molecule, donor type, donor heavy atom, donor atom, acceptor molecule, acceptor atom, score
      L1  H     7    42       P1  7948  0.33
      L1  H    10    36       P1  7948  0.92
      P1  H  7989  7998       L1    16  0.33

> <Gold.Chemscore.Hbond.Weighted>
-8.5129

> <Gold.Chemscore.Metal.Weighted>
-0.0000

> <Gold.Chemscore.Lipo.Weighted>
-6.1584

> <Gold.Chemscore.Internal_Hbond.Weighted>
0.0000

> <Gold.Chemscore.DEClash.Weighted>
0.0234

> <Gold.Chemscore.DEInternal.Weighted>
0.8874

> <Gold.Chemscore.Rot.Weighted>
6.8286

> <Gold.Chemscore.Internal.Correction.Weighted>
   9.000000E+99

> <Gold.Protein.RotatedTorsions>
[ 6907 6896 6895 6894 ] final  111.98 input  -60.11 | X-H torsion
[ 7974 7965 7964 7962 ] final  133.14 input  175.53 | X-H torsion
[ 8008 7997 7996 7995 ] final   84.31 input   59.86 | X-H torsion
[ 10167 10162 10161 10158 ] final -105.30 input  -65.29 | X-H torsion
[ 10718 10713 10712 10709 ] final  152.39 input   66.30 | X-H torsion
[ 10763 10752 10751 10750 ] final  -56.85 input  -60.55 | X-H torsion
[ 11005 11000 10999 10996 ] final  -49.00 input  -57.11 | X-H torsion

> <Gold.Protein.ActiveResidues>
 VAL166  LYS551  ARG553  GLY616  TRP617  ASP618  TYR619  PRO620  LYS621  CYS622 
 ASP623  PHE694  ASN695  SER759  ASP760  ASP761  ALA762  ILE779  LEU786  VAL792 
 PHE793  MET794  SER795  GLU796  ALA797  LYS798  CYS799  TRP800  GLU811  SER814 

> <Gold.Protein.RotatedAtoms>
  152.4941  133.8581  159.7235 H   0  0  0  0  0  0  0  0  0  0  0  0  # atno 6907 bound_to 6896
  150.9100  133.7001  159.2864 H   0  0  0  0  0  0  0  0  0  0  0  0  # atno 6908 bound_to 6896
  151.4414  135.1025  159.9723 H   0  0  0  0  0  0  0  0  0  0  0  0  # atno 6909 bound_to 6896
  144.9895  139.4421  143.5346 H   0  0  0  0  0  0  0  0  0  0  0  0  # atno 7974 bound_to 7965
  155.9354  140.3412  155.6283 H   0  0  0  0  0  0  0  0  0  0  0  0  # atno 8008 bound_to 7997
  155.7106  140.0771  157.2391 H   0  0  0  0  0  0  0  0  0  0  0  0  # atno 8009 bound_to 7997
  154.4092  140.1623  156.2279 H   0  0  0  0  0  0  0  0  0  0  0  0  # atno 8010 bound_to 7997
  140.2000  143.3826  152.1137 H   0  0  0  0  0  0  0  0  0  0  0  0  # atno 10167 bound_to 10162
  157.2584  131.0793  151.1683 H   0  0  0  0  0  0  0  0  0  0  0  0  # atno 10718 bound_to 10713
  154.2132  135.6391  153.5121 H   0  0  0  0  0  0  0  0  0  0  0  0  # atno 10763 bound_to 10752
  152.9985  135.5479  154.6193 H   0  0  0  0  0  0  0  0  0  0  0  0  # atno 10764 bound_to 10752
  154.5635  135.2911  155.0870 H   0  0  0  0  0  0  0  0  0  0  0  0  # atno 10765 bound_to 10752
  141.0734  133.6673  156.3522 H   0  0  0  0  0  0  0  0  0  0  0  0  # atno 11005 bound_to 11000
  146.3428  139.9218  142.8765 LP  0  0  0  0  0  0  0  0  0  0  0  0  # atno 17320 bound_to 7965
  145.2305  140.9971  143.3993 LP  0  0  0  0  0  0  0  0  0  0  0  0  # atno 17321 bound_to 7965
  139.5221  144.7054  151.5369 LP  0  0  0  0  0  0  0  0  0  0  0  0  # atno 17342 bound_to 10162
  140.6397  143.8914  150.6680 LP  0  0  0  0  0  0  0  0  0  0  0  0  # atno 17343 bound_to 10162
  157.3202  130.6933  149.6265 LP  0  0  0  0  0  0  0  0  0  0  0  0  # atno 17370 bound_to 10713
  155.9664  130.4337  150.5019 LP  0  0  0  0  0  0  0  0  0  0  0  0  # atno 17371 bound_to 10713
  140.5626  134.5919  157.5437 LP  0  0  0  0  0  0  0  0  0  0  0  0  # atno 17394 bound_to 11000
  139.9546  134.7557  156.0370 LP  0  0  0  0  0  0  0  0  0  0  0  0  # atno 17395 bound_to 11000

$$$$
