#       Name:                AV-unprocessed.smi:2525
#       Creating user name   scv26
#       Creation time:       Fri Mar 27 13:57:26 2020


#       File generated by GOLD software.
#

@<TRIPOS>MOLECULE
AV-unprocessed.smi:2525
    50    51     1
SMALL
NO_CHARGES


@<TRIPOS>ATOM
      1 ****        -2.1620   1.6737  -1.5117 C.3            1 S1                 0.0000
      2 ****        -1.5675   0.2750  -1.7484 C.3            1 S1                 0.0000
      3 ****        -0.9771  -0.4531  -0.5160 C.3            1 S1                 0.0000
      4 ****        -0.0989  -1.6186  -1.0558 C.3            1 S1                 0.0000
      5 ****        -0.7913  -2.6105  -2.0098 C.3            1 S1                 0.0000
      6 ****        -0.3145   0.4338   0.5800 C.3            1 S1                 0.0000
      7 ****         1.1440   0.4424   0.5406 N.am           1 S1                 0.0000
      8 ****         1.9247   1.2472   1.2759 C.2            1 S1                 0.0000
      9 ****         1.4875   2.0585   2.0915 O.2            1 S1                 0.0000
     10 ****         3.4323   1.1215   1.0539 C.3            1 S1                 0.0000
     11 ****         3.8388   1.7952  -0.1664 N.pl3          1 S1                 0.0000
     12 ****         3.9974   1.2649  -1.4309 C.2            1 S1                 0.0000
     13 ****         4.3769   2.3411  -2.1811 C.2            1 S1                 0.0000
     14 ****         4.4329   3.4635  -1.3564 N.2            1 S1                 0.0000
     15 ****         4.1083   3.1232  -0.1487 N.2            1 S1                 0.0000
     16 ****        -0.8885  -0.4890   1.6623 C.3            1 S1                 0.0000
     17 ****        -1.2741   0.1118   3.0086 C.3            1 S1                 0.0000
     18 ****        -1.9769  -0.8054   0.6229 C.3            1 S1                 0.0000
     19 ****        -2.4010  -2.1594   0.6093 O.3            1 S1                 0.0000
     20 ****        -3.3496  -2.4652   1.6160 C.3            1 S1                 0.0000
     21 ****        -2.6354   2.0415  -2.4222 H              1 S1                 0.0000
     22 ****        -1.3928   2.3975  -1.2422 H              1 S1                 0.0000
     23 ****        -2.9216   1.6724  -0.7310 H              1 S1                 0.0000
     24 ****        -2.3579  -0.3384  -2.1817 H              1 S1                 0.0000
     25 ****        -0.8091   0.3720  -2.5265 H              1 S1                 0.0000
     26 ****         0.7716  -1.2159  -1.5751 H              1 S1                 0.0000
     27 ****         0.3106  -2.1969  -0.2277 H              1 S1                 0.0000
     28 ****        -0.1202  -3.4361  -2.2472 H              1 S1                 0.0000
     29 ****        -1.0634  -2.1420  -2.9553 H              1 S1                 0.0000
     30 ****        -1.6930  -3.0427  -1.5793 H              1 S1                 0.0000
     31 ****        -0.7493   1.4305   0.6646 H              1 S1                 0.0000
     32 ****         1.5882  -0.1957  -0.1035 H              1 S1                 0.0000
     33 ****         3.9739   1.5492   1.8991 H              1 S1                 0.0000
     34 ****         3.7147   0.0697   0.9902 H              1 S1                 0.0000
     35 ****         3.8332   0.2252  -1.6731 H              1 S1                 0.0000
     36 ****         4.6109   2.4020  -3.2338 H              1 S1                 0.0000
     37 ****        -0.2455  -1.3600   1.8009 H              1 S1                 0.0000
     38 ****        -1.9659   0.9459   2.8892 H              1 S1                 0.0000
     39 ****        -0.3970   0.4865   3.5361 H              1 S1                 0.0000
     40 ****        -1.7510  -0.6239   3.6547 H              1 S1                 0.0000
     41 ****        -2.8151  -0.1076   0.6711 H              1 S1                 0.0000
     42 ****        -3.6610  -3.5049   1.5172 H              1 S1                 0.0000
     43 ****        -4.2381  -1.8389   1.5264 H              1 S1                 0.0000
     44 ****        -2.9283  -2.3386   2.6127 H              1 S1                 0.0000
     45 ****         0.5012   2.1428   2.2334 LP             1 S1                 0.0000
     46 ****         2.1185   2.6334   2.6123 LP             1 S1                 0.0000
     47 ****         4.6839   4.3858  -1.6502 LP             1 S1                 0.0000
     48 ****         4.0649   3.7273   0.6470 LP             1 S1                 0.0000
     49 ****        -1.6000  -2.7432   0.7415 LP             1 S1                 0.0000
     50 ****        -2.8115  -2.3535  -0.2817 LP             1 S1                 0.0000
@<TRIPOS>BOND
    1    1    2 1     
    2    1   21 1     
    3    1   22 1     
    4    1   23 1     
    5    2    3 1     
    6    2   24 1     
    7    2   25 1     
    8    3   18 1     
    9    3    4 1     
   10    3    6 1     
   11    4    5 1     
   12    4   26 1     
   13    4   27 1     
   14    5   28 1     
   15    5   29 1     
   16    5   30 1     
   17    6    7 1     
   18    6   16 1     
   19    6   31 1     
   20    7    8 am    
   21    7   32 1     
   22    8    9 2     
   23    8   10 1     
   24   10   11 1     
   25   10   33 1     
   26   10   34 1     
   27   11   15 1     
   28   11   12 1     
   29   12   13 2     
   30   12   35 1     
   31   13   14 1     
   32   13   36 1     
   33   14   15 2     
   34   16   17 1     
   35   16   18 1     
   36   16   37 1     
   37   17   38 1     
   38   17   39 1     
   39   17   40 1     
   40   18   19 1     
   41   18   41 1     
   42   19   20 1     
   43   20   42 1     
   44   20   43 1     
   45   20   44 1     
   46    9   45 1     
   47    9   46 1     
   48   14   47 1     
   49   15   48 1     
   50   19   49 1     
   51   19   50 1     
@<TRIPOS>SUBSTRUCTURE
      1 S1             1
@<TRIPOS>SET
LONE_PAIRS      STATIC     ATOMS    <user>   **** ""
6 45 46 47 48 49 50
DONOR_HYDROGENS      STATIC     ATOMS    <user>   **** ""
1 32
ATOM$BLUE        STATIC     ATOMS    COLORGROUP SYSTEM
6 45 46 47 48 49 50
ATOM$RED        STATIC     ATOMS    COLORGROUP SYSTEM
1 32
