AV-unprocessed.smi:959|AV-procd|sdf|4269|dock2
  -GOLD-   22720 2173D 1   1.00000     0.00000
 Structure written by MMmdl.
 33 34  0  0  0  0  0  0  0  0  2 V2000
  152.2798  144.5642  159.1339 C   0  0  0  0  0  0  0  0  0  0  0  0
  152.0123  143.3986  160.0977 C   0  0  0  0  0  0  0  0  0  0  0  0
  152.2555  143.8096  161.5604 C   0  0  0  0  0  0  0  0  0  0  0  0
  152.7949  142.2266  159.7134 N   0  0  0  0  0  0  0  0  0  0  0  0
  154.0084  141.8445  160.1501 C   0  0  0  0  0  0  0  0  0  0  0  0
  154.4863  140.7301  159.6011 N   0  0  0  0  0  0  0  0  0  0  0  0
  153.5147  140.3433  158.7049 N   0  0  0  0  0  0  0  0  0  0  0  0
  152.5509  141.2704  158.7863 C   0  0  0  0  0  0  0  0  0  0  0  0
  151.3029  141.2194  157.9474 C   0  0  2  0  0  0  0  0  0  0  0  0
  151.3265  140.0390  156.9582 C   0  0  0  0  0  0  0  0  0  0  0  0
  150.0480  140.0232  156.1064 C   0  0  0  0  0  0  0  0  0  0  0  0
  149.8363  141.3760  155.4067 C   0  0  0  0  0  0  0  0  0  0  0  0
  149.8134  142.4771  156.3941 N   0  3  0  0  0  0  0  0  0  0  0  0
  151.0478  142.5497  157.2072 C   0  0  0  0  0  0  0  0  0  0  0  0
  151.6688  145.4308  159.3882 H   0  0  0  0  0  0  0  0  0  0  0  0
  152.0486  144.2895  158.1046 H   0  0  0  0  0  0  0  0  0  0  0  0
  153.3251  144.8731  159.1682 H   0  0  0  0  0  0  0  0  0  0  0  0
  150.9590  143.1273  160.0303 H   0  0  0  0  0  0  0  0  0  0  0  0
  151.5827  144.6163  161.8530 H   0  0  0  0  0  0  0  0  0  0  0  0
  153.2744  144.1646  161.7181 H   0  0  0  0  0  0  0  0  0  0  0  0
  152.0793  142.9754  162.2404 H   0  0  0  0  0  0  0  0  0  0  0  0
  154.5645  142.3921  160.8964 H   0  0  0  0  0  0  0  0  0  0  0  0
  150.4485  141.0716  158.6060 H   0  0  0  0  0  0  0  0  0  0  0  0
  152.1971  140.1163  156.3051 H   0  0  0  0  0  0  0  0  0  0  0  0
  151.4253  139.0966  157.4984 H   0  0  0  0  0  0  0  0  0  0  0  0
  150.1036  139.2245  155.3662 H   0  0  0  0  0  0  0  0  0  0  0  0
  149.1885  139.7991  156.7396 H   0  0  0  0  0  0  0  0  0  0  0  0
  150.6320  141.5584  154.6829 H   0  0  0  0  0  0  0  0  0  0  0  0
  148.8966  141.3740  154.8540 H   0  0  0  0  0  0  0  0  0  0  0  0
  149.6906  143.3527  155.9056 H   0  0  0  0  0  0  0  0  0  0  0  0
  150.9505  143.3689  157.9207 H   0  0  0  0  0  0  0  0  0  0  0  0
  151.8849  142.7953  156.5518 H   0  0  0  0  0  0  0  0  0  0  0  0
  149.0279  142.3364  157.0133 H   0  0  0  0  0  0  0  0  0  0  0  0
  1  2  1  0  0  0  0
  1 15  1  0  0  0  0
  1 16  1  0  0  0  0
  1 17  1  0  0  0  0
  2  3  1  0  0  0  0
  2  4  1  0  0  0  0
  2 18  1  0  0  0  0
  3 19  1  0  0  0  0
  3 20  1  0  0  0  0
  3 21  1  0  0  0  0
  4  8  1  0  0  0  0
  4  5  1  0  0  0  0
  5  6  2  0  0  0  0
  5 22  1  0  0  0  0
  6  7  1  0  0  0  0
  7  8  2  0  0  0  0
  8  9  1  0  0  0  0
  9 14  1  0  0  0  0
  9 10  1  0  0  0  0
  9 23  1  0  0  0  0
 10 11  1  0  0  0  0
 10 24  1  0  0  0  0
 10 25  1  0  0  0  0
 11 12  1  0  0  0  0
 11 26  1  0  0  0  0
 11 27  1  0  0  0  0
 12 13  1  0  0  0  0
 12 28  1  0  0  0  0
 12 29  1  0  0  0  0
 13 14  1  0  0  0  0
 13 30  1  0  0  0  0
 13 33  1  0  0  0  0
 14 31  1  0  0  0  0
 14 32  1  0  0  0  0
M  CHG  1  13   1
M  END
> <s_m_source_file>
AV-unprocessed.smi

> <i_m_source_file_index>
959

> <i_lp_mmshare_version>
43012

> <i_f3d_flags>
0

> <s_epik_input>
W0NIM11bQ0hdKFtDSDNdKW4xW2NIXW5uYzFbQ0BASF0yW0NIMl1bQ0gyXVtDSDJdW05IXVtDSDJdMg==

> <s_epik_cmdline>
J2VwaWtfcHl0aG9uJywgJy1waCcsICc3LjAnLCAnLXRuJywgJzgnLCAnLW1hJywgJzIwMCcsICctbWV0YWxfYmluZGluZycsICctaW1hZScsICc8aW5maWxlLm1hZT4nLCAnLW9tYWUnLCAnPG91dGZpbGUubWFlPic=

> <r_lp_tautomer_probability>
1

> <r_epik_Ionization_Penalty>
0.000442722

> <r_epik_Ionization_Penalty_Charging>
0.000426856

> <r_epik_Ionization_Penalty_Neutral>
1.58656e-05

> <r_epik_State_Penalty>
-0

> <r_epik_Charging_Adjusted_Penalty>
0.000426856

> <i_epik_Tot_Q>
1

> <i_epik_Tot_abs_Q>
1

> <r_epik_Metal_State_Penalty>
-0

> <b_epik_Metal_Only>
0

> <s_lp_Force_Field>
OPLS_2005

> <r_lp_Energy>
20.311

> <b_lp_Chiralities_Consistent>
1

> <s_lp_Variant>
AV-unprocessed.smi:959-1

> <Gold.Version>
5.8.1

> <Gold.Id.Protein>
6NUR|6NUR_protein|mol2

> <Gold.PLP.Fitness>
38.9416

> <Gold.PLP.PLP>
-34.4201

> <Gold.PLP.part.hbond>
-2.1469

> <Gold.PLP.part.metal>
0.0000

> <Gold.PLP.part.buried>
-3.2075

> <Gold.PLP.part.nonpolar>
-29.2943

> <Gold.PLP.part.repulsive>
0.0784

> <Gold.PLP.ligand.clash>
0.0000

> <Gold.PLP.ligand.torsion>
0.7757

> <Gold.PLP.Chemscore.Hbond>
2.0000

> <Gold.PLP.Chemscore.CHOScore>
0.0000

> <Gold.PLP.Chemscore.Metal>
0.0000

> <Gold.Chemscore.Hbonds>
donor molecule, donor type, donor heavy atom, donor atom, acceptor molecule, acceptor atom, score
      L1  H    13    30       P1  8028  2.00

> <Gold.PLP.Chemscore.Internal.Correction>
0.0728

> <Gold.Rescore>
     Score         DG    S(hbond)    S(metal)    S(lipo)     H(rot)  DE(clash)    DE(int)     intcor
     12.84     -13.61       0.95        0.00      69.34       1.24       0.03       0.74       ----

> <Gold.Chemscore.Fitness>
12.8382

> <Gold.Chemscore.DG>
-13.6149

> <Gold.Chemscore.ZeroCoef>
-5.4800

> <Gold.Chemscore.Hbond>
0.9538

> <Gold.Chemscore.Metal>
0.0000

> <Gold.Chemscore.Lipo>
69.3400

> <Gold.Chemscore.Internal_Hbond>
0.0000

> <Gold.Chemscore.DEClash>
0.0327

> <Gold.Chemscore.DEInternal>
0.7441

> <Gold.Chemscore.Rot>
1.2357

> <Gold.Chemscore.Internal.Correction>
   9.000000E+99

> <Gold.Chemscore.Hbonds>
donor molecule, donor type, donor heavy atom, donor atom, acceptor molecule, acceptor atom, score
      L1  H    13    30       P1  8028  0.94

> <Gold.Chemscore.Hbond.Weighted>
-3.1855

> <Gold.Chemscore.Metal.Weighted>
-0.0000

> <Gold.Chemscore.Lipo.Weighted>
-8.1128

> <Gold.Chemscore.Internal_Hbond.Weighted>
0.0000

> <Gold.Chemscore.DEClash.Weighted>
0.0327

> <Gold.Chemscore.DEInternal.Weighted>
0.7441

> <Gold.Chemscore.Rot.Weighted>
3.1634

> <Gold.Chemscore.Internal.Correction.Weighted>
   9.000000E+99

> <Gold.Protein.RotatedTorsions>
[ 6907 6896 6895 6894 ] final   33.55 input  -60.11 | X-H torsion
[ 7974 7965 7964 7962 ] final    6.60 input  175.53 | X-H torsion
[ 8008 7997 7996 7995 ] final -144.94 input   59.86 | X-H torsion
[ 10167 10162 10161 10158 ] final  -55.03 input  -65.29 | X-H torsion
[ 10718 10713 10712 10709 ] final  155.62 input   66.30 | X-H torsion
[ 10763 10752 10751 10750 ] final    7.62 input  -60.55 | X-H torsion
[ 11005 11000 10999 10996 ] final -161.54 input  -57.11 | X-H torsion

> <Gold.Protein.ActiveResidues>
 VAL166  LYS551  ARG553  GLY616  TRP617  ASP618  TYR619  PRO620  LYS621  CYS622 
 ASP623  PHE694  ASN695  SER759  ASP760  ASP761  ALA762  ILE779  LEU786  VAL792 
 PHE793  MET794  SER795  GLU796  ALA797  LYS798  CYS799  TRP800  GLU811  SER814 

> <Gold.Protein.RotatedAtoms>
  152.0901  134.9413  160.0571 H   0  0  0  0  0  0  0  0  0  0  0  0  # atno 6907 bound_to 6896
  152.0668  133.4083  159.4450 H   0  0  0  0  0  0  0  0  0  0  0  0  # atno 6908 bound_to 6896
  150.6837  134.3057  159.4769 H   0  0  0  0  0  0  0  0  0  0  0  0  # atno 6909 bound_to 6896
  146.2433  140.0209  142.8398 H   0  0  0  0  0  0  0  0  0  0  0  0  # atno 7974 bound_to 7965
  155.5350  140.0603  157.2881 H   0  0  0  0  0  0  0  0  0  0  0  0  # atno 8008 bound_to 7997
  154.4471  140.1929  156.0578 H   0  0  0  0  0  0  0  0  0  0  0  0  # atno 8009 bound_to 7997
  156.0625  140.3270  155.7482 H   0  0  0  0  0  0  0  0  0  0  0  0  # atno 8010 bound_to 7997
  140.6397  143.2501  151.5022 H   0  0  0  0  0  0  0  0  0  0  0  0  # atno 10167 bound_to 10162
  157.2160  131.0708  151.1941 H   0  0  0  0  0  0  0  0  0  0  0  0  # atno 10718 bound_to 10713
  153.2342  135.6896  153.7856 H   0  0  0  0  0  0  0  0  0  0  0  0  # atno 10763 bound_to 10752
  153.7009  135.3297  155.3225 H   0  0  0  0  0  0  0  0  0  0  0  0  # atno 10764 bound_to 10752
  154.8327  135.4567  154.1239 H   0  0  0  0  0  0  0  0  0  0  0  0  # atno 10765 bound_to 10752
  140.6193  134.4767  157.5222 H   0  0  0  0  0  0  0  0  0  0  0  0  # atno 11005 bound_to 11000
  145.1242  140.9480  143.4583 LP  0  0  0  0  0  0  0  0  0  0  0  0  # atno 17320 bound_to 7965
  145.0451  139.3227  143.5957 LP  0  0  0  0  0  0  0  0  0  0  0  0  # atno 17321 bound_to 7965
  139.5607  144.2165  152.1686 LP  0  0  0  0  0  0  0  0  0  0  0  0  # atno 17342 bound_to 10162
  140.1431  144.5183  150.6732 LP  0  0  0  0  0  0  0  0  0  0  0  0  # atno 17343 bound_to 10162
  157.3624  130.7138  149.6511 LP  0  0  0  0  0  0  0  0  0  0  0  0  # atno 17370 bound_to 10713
  155.9686  130.4221  150.4503 LP  0  0  0  0  0  0  0  0  0  0  0  0  # atno 17371 bound_to 10713
  139.9160  134.8246  156.1366 LP  0  0  0  0  0  0  0  0  0  0  0  0  # atno 17394 bound_to 11000
  141.0753  133.6778  156.2224 LP  0  0  0  0  0  0  0  0  0  0  0  0  # atno 17395 bound_to 11000

$$$$
