AV-unprocessed.smi:486|AV-procd|sdf|2695|dock6
  -GOLD-   2262023123D 1   1.00000     0.00000
 Structure written by MMmdl.
 43 45  0  0  0  0  0  0  0  0  1 V2000
  144.2715  139.4373  156.2147 C   0  0  0  0  0  0  0  0  0  0  0  0
  144.8973  140.4110  155.3918 O   0  0  0  0  0  0  0  0  0  0  0  0
  146.2564  140.3088  155.1851 C   0  0  0  0  0  0  0  0  0  0  0  0
  146.8869  141.3802  154.5229 C   0  0  0  0  0  0  0  0  0  0  0  0
  148.2718  141.3577  154.2723 C   0  0  0  0  0  0  0  0  0  0  0  0
  149.0602  140.2621  154.6752 C   0  0  0  0  0  0  0  0  0  0  0  0
  150.4073  140.3199  154.3886 O   0  0  0  0  0  0  0  0  0  0  0  0
  151.2740  139.3943  155.0318 C   0  0  0  0  0  0  0  0  0  0  0  0
  151.7522  140.0043  156.3588 C   0  0  2  0  0  0  0  0  0  0  0  0
  152.9347  139.3380  156.7555 O   0  0  0  0  0  0  0  0  0  0  0  0
  150.6943  139.8612  157.4724 C   0  0  0  0  0  0  0  0  0  0  0  0
  150.8916  140.8061  158.5639 N   0  0  0  0  0  0  0  0  0  0  0  0
  150.1134  141.8641  158.9002 C   0  0  0  0  0  0  0  0  0  0  0  0
  148.8711  142.2038  158.1395 C   0  0  0  0  0  0  0  0  0  0  0  0
  150.5207  142.5757  159.9512 N   0  0  0  0  0  0  0  0  0  0  0  0
  151.6721  141.9158  160.3355 C   0  0  0  0  0  0  0  0  0  0  0  0
  152.5720  142.1799  161.3927 C   0  0  0  0  0  0  0  0  0  0  0  0
  153.6973  141.3541  161.5956 C   0  0  0  0  0  0  0  0  0  0  0  0
  153.9387  140.2554  160.7456 C   0  0  0  0  0  0  0  0  0  0  0  0
  153.0549  139.9747  159.6858 C   0  0  0  0  0  0  0  0  0  0  0  0
  151.9325  140.8014  159.4880 C   0  0  0  0  0  0  0  0  0  0  0  0
  148.4309  139.1821  155.3419 C   0  0  0  0  0  0  0  0  0  0  0  0
  147.0452  139.2054  155.5942 C   0  0  0  0  0  0  0  0  0  0  0  0
  143.2063  139.6569  156.2858 H   0  0  0  0  0  0  0  0  0  0  0  0
  144.6783  139.4503  157.2266 H   0  0  0  0  0  0  0  0  0  0  0  0
  144.3742  138.4352  155.7960 H   0  0  0  0  0  0  0  0  0  0  0  0
  146.3023  142.2304  154.2031 H   0  0  0  0  0  0  0  0  0  0  0  0
  148.7339  142.1913  153.7639 H   0  0  0  0  0  0  0  0  0  0  0  0
  150.7105  138.4825  155.2361 H   0  0  0  0  0  0  0  0  0  0  0  0
  152.1234  139.1280  154.4001 H   0  0  0  0  0  0  0  0  0  0  0  0
  151.9774  141.0609  156.2122 H   0  0  0  0  0  0  0  0  0  0  0  0
  152.6994  138.4853  157.0885 H   0  0  0  0  0  0  0  0  0  0  0  0
  149.6932  140.0047  157.0646 H   0  0  0  0  0  0  0  0  0  0  0  0
  150.7099  138.8499  157.8808 H   0  0  0  0  0  0  0  0  0  0  0  0
  148.4276  143.1234  158.5230 H   0  0  0  0  0  0  0  0  0  0  0  0
  148.1386  141.4026  158.2380 H   0  0  0  0  0  0  0  0  0  0  0  0
  149.0975  142.3493  157.0837 H   0  0  0  0  0  0  0  0  0  0  0  0
  152.3961  143.0194  162.0489 H   0  0  0  0  0  0  0  0  0  0  0  0
  154.3783  141.5653  162.4069 H   0  0  0  0  0  0  0  0  0  0  0  0
  154.8037  139.6288  160.9066 H   0  0  0  0  0  0  0  0  0  0  0  0
  153.2391  139.1364  159.0305 H   0  0  0  0  0  0  0  0  0  0  0  0
  148.9903  138.3205  155.6731 H   0  0  0  0  0  0  0  0  0  0  0  0
  146.6101  138.3605  156.1057 H   0  0  0  0  0  0  0  0  0  0  0  0
  1  2  1  0  0  0  0
  1 24  1  0  0  0  0
  1 25  1  0  0  0  0
  1 26  1  0  0  0  0
  2  3  1  0  0  0  0
  3 23  1  0  0  0  0
  3  4  2  0  0  0  0
  4  5  1  0  0  0  0
  4 27  1  0  0  0  0
  5  6  2  0  0  0  0
  5 28  1  0  0  0  0
  6  7  1  0  0  0  0
  6 22  1  0  0  0  0
  7  8  1  0  0  0  0
  8  9  1  0  0  0  0
  8 29  1  0  0  0  0
  8 30  1  0  0  0  0
  9 10  1  0  0  0  0
  9 11  1  0  0  0  0
  9 31  1  0  0  0  0
 10 32  1  0  0  0  0
 11 12  1  0  0  0  0
 11 33  1  0  0  0  0
 11 34  1  0  0  0  0
 12 21  1  0  0  0  0
 12 13  1  0  0  0  0
 13 14  1  0  0  0  0
 13 15  2  0  0  0  0
 14 35  1  0  0  0  0
 14 36  1  0  0  0  0
 14 37  1  0  0  0  0
 15 16  1  0  0  0  0
 16 21  2  0  0  0  0
 16 17  1  0  0  0  0
 17 18  2  0  0  0  0
 17 38  1  0  0  0  0
 18 19  1  0  0  0  0
 18 39  1  0  0  0  0
 19 20  2  0  0  0  0
 19 40  1  0  0  0  0
 20 21  1  0  0  0  0
 20 41  1  0  0  0  0
 22 23  2  0  0  0  0
 22 42  1  0  0  0  0
 23 43  1  0  0  0  0
M  END
> <s_m_source_file>
AV-unprocessed.smi

> <i_m_source_file_index>
486

> <i_lp_mmshare_version>
43012

> <i_f3d_flags>
0

> <s_epik_input>
W0NIM11PYzFbY0hdW2NIXWMoW2NIXVtjSF0xKU9bQ0gyXVtDQEhdKFtPSF0pW0NIMl1uKGMobjIpW0NIM10pYyhjMjMpW2NIXVtjSF1bY0hdW2NIXTM=

> <s_epik_cmdline>
J2VwaWtfcHl0aG9uJywgJy1waCcsICc3LjAnLCAnLXRuJywgJzgnLCAnLW1hJywgJzIwMCcsICctbWV0YWxfYmluZGluZycsICctaW1hZScsICc8aW5maWxlLm1hZT4nLCAnLW9tYWUnLCAnPG91dGZpbGUubWFlPic=

> <r_lp_tautomer_probability>
1

> <r_epik_Ionization_Penalty>
0.114052

> <r_epik_Ionization_Penalty_Charging>
0

> <r_epik_Ionization_Penalty_Neutral>
0.114052

> <r_epik_State_Penalty>
0.103717

> <r_epik_Charging_Adjusted_Penalty>
0.103717

> <i_epik_Tot_Q>
0

> <i_epik_Tot_abs_Q>
0

> <r_epik_Metal_State_Penalty>
0.000113338

> <b_epik_Metal_Only>
0

> <s_lp_Force_Field>
OPLS_2005

> <r_lp_Energy>
19.9985

> <b_lp_Chiralities_Consistent>
1

> <s_lp_Variant>
AV-unprocessed.smi:486-1

> <Gold.Version>
5.8.1

> <Gold.Id.Protein>
6NUR|6NUR_protein|mol2

> <Gold.PLP.Fitness>
45.1048

> <Gold.PLP.PLP>
-40.7365

> <Gold.PLP.part.hbond>
-2.1422

> <Gold.PLP.part.metal>
0.0000

> <Gold.PLP.part.buried>
-3.3847

> <Gold.PLP.part.nonpolar>
-35.3904

> <Gold.PLP.part.repulsive>
0.2549

> <Gold.PLP.ligand.clash>
0.0000

> <Gold.PLP.ligand.torsion>
0.8752

> <Gold.PLP.Chemscore.Hbond>
2.0000

> <Gold.PLP.Chemscore.CHOScore>
0.0000

> <Gold.PLP.Chemscore.Metal>
0.0000

> <Gold.Chemscore.Hbonds>
donor molecule, donor type, donor heavy atom, donor atom, acceptor molecule, acceptor atom, score
      P1  H  7989  7998       L1     7  0.55
      P1  H  7997  8008       L1    10  1.00

> <Gold.PLP.Chemscore.Internal.Correction>
0.1187

> <Gold.Rescore>
     Score         DG    S(hbond)    S(metal)    S(lipo)     H(rot)  DE(clash)    DE(int)     intcor
     15.67     -18.54       1.76        0.00     111.84       2.30       1.65       1.22       ----

> <Gold.Chemscore.Fitness>
15.6685

> <Gold.Chemscore.DG>
-18.5422

> <Gold.Chemscore.ZeroCoef>
-5.4800

> <Gold.Chemscore.Hbond>
1.7578

> <Gold.Chemscore.Metal>
0.0000

> <Gold.Chemscore.Lipo>
111.8401

> <Gold.Chemscore.Internal_Hbond>
0.0000

> <Gold.Chemscore.DEClash>
1.6527

> <Gold.Chemscore.DEInternal>
1.2209

> <Gold.Chemscore.Rot>
2.3023

> <Gold.Chemscore.Internal.Correction>
   9.000000E+99

> <Gold.Chemscore.Hbonds>
donor molecule, donor type, donor heavy atom, donor atom, acceptor molecule, acceptor atom, score
      P1  H  7989  7998       L1     7  0.03
      P1  H  7997  8008       L1    10  0.97

> <Gold.Chemscore.Hbond.Weighted>
-5.8709

> <Gold.Chemscore.Metal.Weighted>
-0.0000

> <Gold.Chemscore.Lipo.Weighted>
-13.0853

> <Gold.Chemscore.Internal_Hbond.Weighted>
0.0000

> <Gold.Chemscore.DEClash.Weighted>
1.6527

> <Gold.Chemscore.DEInternal.Weighted>
1.2209

> <Gold.Chemscore.Rot.Weighted>
5.8940

> <Gold.Chemscore.Internal.Correction.Weighted>
   9.000000E+99

> <Gold.Protein.RotatedTorsions>
[ 6907 6896 6895 6894 ] final   49.85 input  -60.11 | X-H torsion
[ 7974 7965 7964 7962 ] final -137.06 input  175.53 | X-H torsion
[ 8008 7997 7996 7995 ] final  -73.04 input   59.86 | X-H torsion
[ 10167 10162 10161 10158 ] final   95.17 input  -65.29 | X-H torsion
[ 10718 10713 10712 10709 ] final   15.78 input   66.30 | X-H torsion
[ 10763 10752 10751 10750 ] final -174.69 input  -60.55 | X-H torsion
[ 11005 11000 10999 10996 ] final  169.84 input  -57.11 | X-H torsion

> <Gold.Protein.ActiveResidues>
 VAL166  LYS551  ARG553  GLY616  TRP617  ASP618  TYR619  PRO620  LYS621  CYS622 
 ASP623  PHE694  ASN695  SER759  ASP760  ASP761  ALA762  ILE779  LEU786  VAL792 
 PHE793  MET794  SER795  GLU796  ALA797  LYS798  CYS799  TRP800  GLU811  SER814 

> <Gold.Protein.RotatedAtoms>
  152.2953  134.7674  160.0369 H   0  0  0  0  0  0  0  0  0  0  0  0  # atno 6907 bound_to 6896
  151.8206  133.3389  159.3591 H   0  0  0  0  0  0  0  0  0  0  0  0  # atno 6908 bound_to 6896
  150.7248  134.5506  159.5837 H   0  0  0  0  0  0  0  0  0  0  0  0  # atno 6909 bound_to 6896
  144.8874  140.6594  143.5167 H   0  0  0  0  0  0  0  0  0  0  0  0  # atno 7974 bound_to 7965
  154.5215  140.0786  156.8180 H   0  0  0  0  0  0  0  0  0  0  0  0  # atno 8008 bound_to 7997
  155.3567  140.3415  155.4222 H   0  0  0  0  0  0  0  0  0  0  0  0  # atno 8009 bound_to 7997
  156.1686  140.1612  156.8475 H   0  0  0  0  0  0  0  0  0  0  0  0  # atno 8010 bound_to 7997
  139.8014  144.6812  150.9760 H   0  0  0  0  0  0  0  0  0  0  0  0  # atno 10167 bound_to 10162
  157.0585  130.6299  149.5781 H   0  0  0  0  0  0  0  0  0  0  0  0  # atno 10718 bound_to 10713
  154.5933  135.2847  155.0613 H   0  0  0  0  0  0  0  0  0  0  0  0  # atno 10763 bound_to 10752
  154.1905  135.6441  153.5062 H   0  0  0  0  0  0  0  0  0  0  0  0  # atno 10764 bound_to 10752
  153.0129  135.5445  154.6626 H   0  0  0  0  0  0  0  0  0  0  0  0  # atno 10765 bound_to 10752
  140.3020  134.7587  157.3924 H   0  0  0  0  0  0  0  0  0  0  0  0  # atno 11005 bound_to 11000
  145.3844  139.1630  143.4263 LP  0  0  0  0  0  0  0  0  0  0  0  0  # atno 17320 bound_to 7965
  146.3033  140.3928  142.8696 LP  0  0  0  0  0  0  0  0  0  0  0  0  # atno 17321 bound_to 7965
  140.7820  143.4278  151.0742 LP  0  0  0  0  0  0  0  0  0  0  0  0  # atno 17342 bound_to 10162
  139.7949  143.8165  152.3156 LP  0  0  0  0  0  0  0  0  0  0  0  0  # atno 17343 bound_to 10162
  155.9986  130.5060  150.7576 LP  0  0  0  0  0  0  0  0  0  0  0  0  # atno 17370 bound_to 10713
  157.4974  131.0916  151.0355 LP  0  0  0  0  0  0  0  0  0  0  0  0  # atno 17371 bound_to 10713
  140.1101  134.5357  155.8274 LP  0  0  0  0  0  0  0  0  0  0  0  0  # atno 17394 bound_to 11000
  141.2126  133.6721  156.6672 LP  0  0  0  0  0  0  0  0  0  0  0  0  # atno 17395 bound_to 11000

$$$$
