AV-unprocessed.smi:189|AV-procd|sdf|1486|dock5
  -GOLD-   2262019303D 1   1.00000     0.00000
 Structure written by MMmdl.
 53 57  0  0  0  0  0  0  0  0  1 V2000
  153.6787  139.4063  159.5259 C   0  0  0  0  0  0  0  0  0  0  0  0
  152.5159  140.4092  159.5275 C   0  0  1  0  0  0  0  0  0  0  0  0
  152.4923  141.3352  160.7682 C   0  0  0  0  0  0  0  0  0  0  0  0
  152.5388  142.7408  160.1696 C   0  0  2  0  0  0  0  0  0  0  0  0
  151.8260  143.8847  160.9007 C   0  0  0  0  0  0  0  0  0  0  0  0
  151.9400  145.1710  160.0540 C   0  0  0  0  0  0  0  0  0  0  0  0
  151.4504  144.9698  158.6007 C   0  0  0  0  0  0  0  0  0  0  0  0
  152.1146  143.7570  157.9148 C   0  0  0  0  0  0  0  0  0  0  0  0
  151.9204  142.5169  158.8007 C   0  0  1  0  0  0  0  0  0  0  0  0
  152.5547  141.2895  158.3553 N   0  0  0  0  0  0  0  0  0  0  0  0
  152.0692  140.7758  157.2026 C   0  0  0  0  0  0  0  0  0  0  0  0
  152.8060  139.8957  156.4741 N   0  0  0  0  0  0  0  0  0  0  0  0
  152.3061  139.3815  155.3464 C   0  0  0  0  0  0  0  0  0  0  0  0
  151.1173  139.6052  154.7816 N   0  0  0  0  0  0  0  0  0  0  0  0
  150.3782  140.4883  155.5132 C   0  0  0  0  0  0  0  0  0  0  0  0
  150.7760  141.1133  156.7274 C   0  0  0  0  0  0  0  0  0  0  0  0
  149.7642  141.9420  157.1937 N   0  0  0  0  0  0  0  0  0  0  0  0
  148.8183  141.8144  156.3030 C   0  0  0  0  0  0  0  0  0  0  0  0
  149.1056  140.9677  155.2550 N   0  0  0  0  0  0  0  0  0  0  0  0
  148.2361  140.6417  154.1342 C   0  0  0  0  0  0  0  0  0  0  0  0
  148.0273  139.1219  153.9286 C   0  0  2  0  0  0  0  0  0  0  0  0
  149.2487  138.5462  153.5012 O   0  0  0  0  0  0  0  0  0  0  0  0
  146.9434  138.8184  152.8916 C   0  0  0  0  0  0  0  0  0  0  0  0
  145.7890  138.2791  153.7274 C   0  0  0  0  0  0  0  0  0  0  0  0
  146.4568  137.5699  154.7554 O   0  0  0  0  0  0  0  0  0  0  0  0
  147.5345  138.3861  155.1913 C   0  0  0  0  0  0  0  0  0  0  0  0
  153.6439  138.7676  160.4087 H   0  0  0  0  0  0  0  0  0  0  0  0
  154.6415  139.9183  159.5211 H   0  0  0  0  0  0  0  0  0  0  0  0
  153.6406  138.7595  158.6489 H   0  0  0  0  0  0  0  0  0  0  0  0
  151.5850  139.8403  159.5239 H   0  0  0  0  0  0  0  0  0  0  0  0
  151.5685  141.1823  161.3277 H   0  0  0  0  0  0  0  0  0  0  0  0
  153.3266  141.1619  161.4488 H   0  0  0  0  0  0  0  0  0  0  0  0
  153.5895  143.0106  160.0418 H   0  0  0  0  0  0  0  0  0  0  0  0
  150.7764  143.6343  161.0603 H   0  0  0  0  0  0  0  0  0  0  0  0
  152.2681  144.0400  161.8851 H   0  0  0  0  0  0  0  0  0  0  0  0
  151.3781  145.9772  160.5265 H   0  0  0  0  0  0  0  0  0  0  0  0
  152.9813  145.4951  160.0356 H   0  0  0  0  0  0  0  0  0  0  0  0
  150.3690  144.8276  158.6063 H   0  0  0  0  0  0  0  0  0  0  0  0
  151.6360  145.8726  158.0181 H   0  0  0  0  0  0  0  0  0  0  0  0
  151.6745  143.5988  156.9297 H   0  0  0  0  0  0  0  0  0  0  0  0
  153.1773  143.9483  157.7590 H   0  0  0  0  0  0  0  0  0  0  0  0
  150.8497  142.3335  158.9160 H   0  0  0  0  0  0  0  0  0  0  0  0
  152.9502  138.6906  154.8226 H   0  0  0  0  0  0  0  0  0  0  0  0
  147.8784  142.3410  156.3847 H   0  0  0  0  0  0  0  0  0  0  0  0
  147.2743  141.1310  154.2935 H   0  0  0  0  0  0  0  0  0  0  0  0
  148.6591  141.0907  153.2344 H   0  0  0  0  0  0  0  0  0  0  0  0
  149.0535  137.7562  153.0203 H   0  0  0  0  0  0  0  0  0  0  0  0
  146.6538  139.6855  152.2971 H   0  0  0  0  0  0  0  0  0  0  0  0
  147.2706  138.0422  152.1975 H   0  0  0  0  0  0  0  0  0  0  0  0
  145.2029  139.0921  154.1593 H   0  0  0  0  0  0  0  0  0  0  0  0
  145.1203  137.6336  153.1575 H   0  0  0  0  0  0  0  0  0  0  0  0
  148.3079  137.7955  155.6844 H   0  0  0  0  0  0  0  0  0  0  0  0
  147.1370  139.0860  155.9263 H   0  0  0  0  0  0  0  0  0  0  0  0
  1  2  1  0  0  0  0
  1 27  1  0  0  0  0
  1 28  1  0  0  0  0
  1 29  1  0  0  0  0
  2 10  1  0  0  0  0
  2  3  1  0  0  0  0
  2 30  1  0  0  0  0
  3  4  1  0  0  0  0
  3 31  1  0  0  0  0
  3 32  1  0  0  0  0
  4  9  1  0  0  0  0
  4  5  1  0  0  0  0
  4 33  1  0  0  0  0
  5  6  1  0  0  0  0
  5 34  1  0  0  0  0
  5 35  1  0  0  0  0
  6  7  1  0  0  0  0
  6 36  1  0  0  0  0
  6 37  1  0  0  0  0
  7  8  1  0  0  0  0
  7 38  1  0  0  0  0
  7 39  1  0  0  0  0
  8  9  1  0  0  0  0
  8 40  1  0  0  0  0
  8 41  1  0  0  0  0
  9 10  1  0  0  0  0
  9 42  1  0  0  0  0
 10 11  1  0  0  0  0
 11 16  1  0  0  0  0
 11 12  2  0  0  0  0
 12 13  1  0  0  0  0
 13 14  2  0  0  0  0
 13 43  1  0  0  0  0
 14 15  1  0  0  0  0
 15 19  1  0  0  0  0
 15 16  2  0  0  0  0
 16 17  1  0  0  0  0
 17 18  2  0  0  0  0
 18 19  1  0  0  0  0
 18 44  1  0  0  0  0
 19 20  1  0  0  0  0
 20 21  1  0  0  0  0
 20 45  1  0  0  0  0
 20 46  1  0  0  0  0
 21 26  1  0  0  0  0
 21 22  1  0  0  0  0
 21 23  1  0  0  0  0
 22 47  1  0  0  0  0
 23 24  1  0  0  0  0
 23 48  1  0  0  0  0
 23 49  1  0  0  0  0
 24 25  1  0  0  0  0
 24 50  1  0  0  0  0
 24 51  1  0  0  0  0
 25 26  1  0  0  0  0
 26 52  1  0  0  0  0
 26 53  1  0  0  0  0
M  END
> <s_m_source_file>
AV-unprocessed.smi

> <i_m_source_file_index>
189

> <i_lp_mmshare_version>
43012

> <i_f3d_flags>
0

> <s_epik_input>
W0NIMl0xW0NIMl1bQ0gyXVtDSDJdW0NASF0oW0NASF0xMilOKFtDQEhdKFtDSDNdKVtDSDJdMiljKG5bY0hdbjMpYyhjMzQpbltjSF1uNFtDSDJdW0NAQF01KFtPSF0pW0NIMl1bQ0gyXU9bQ0gyXTU=

> <s_epik_cmdline>
J2VwaWtfcHl0aG9uJywgJy1waCcsICc3LjAnLCAnLXRuJywgJzgnLCAnLW1hJywgJzIwMCcsICctbWV0YWxfYmluZGluZycsICctaW1hZScsICc8aW5maWxlLm1hZT4nLCAnLW9tYWUnLCAnPG91dGZpbGUubWFlPic=

> <r_lp_tautomer_probability>
1

> <r_epik_Ionization_Penalty>
0.00594261

> <r_epik_Ionization_Penalty_Charging>
0

> <r_epik_Ionization_Penalty_Neutral>
0.00594261

> <r_epik_State_Penalty>
0.00429776

> <r_epik_Charging_Adjusted_Penalty>
0.00429776

> <i_epik_Tot_Q>
0

> <i_epik_Tot_abs_Q>
0

> <r_epik_Metal_State_Penalty>
-0

> <b_epik_Metal_Only>
0

> <s_lp_Force_Field>
OPLS_2005

> <r_lp_Energy>
58.4258

> <b_lp_Chiralities_Consistent>
1

> <s_lp_Variant>
AV-unprocessed.smi:189-12

> <Gold.Version>
5.8.1

> <Gold.Id.Protein>
6NUR|6NUR_protein|mol2

> <Gold.PLP.Fitness>
54.6179

> <Gold.PLP.PLP>
-46.8463

> <Gold.PLP.part.hbond>
-4.0000

> <Gold.PLP.part.metal>
0.0000

> <Gold.PLP.part.buried>
-1.0091

> <Gold.PLP.part.nonpolar>
-40.6423

> <Gold.PLP.part.repulsive>
0.2592

> <Gold.PLP.ligand.clash>
0.0003

> <Gold.PLP.ligand.torsion>
0.6246

> <Gold.PLP.Chemscore.Hbond>
2.7600

> <Gold.PLP.Chemscore.CHOScore>
0.2425

> <Gold.PLP.Chemscore.Metal>
0.0000

> <Gold.Chemscore.Hbonds>
donor molecule, donor type, donor heavy atom, donor atom, acceptor molecule, acceptor atom, score
      L1  H    22    47       P1  7948  1.00
      P1  H  7989  7998       L1    14  0.71
      P1  H  7997  8010       L1    12  1.00
      L1  C    18    44       P1  8028  0.21

> <Gold.PLP.Chemscore.Internal.Correction>
0.0134

> <Gold.Rescore>
     Score         DG    S(hbond)    S(metal)    S(lipo)     H(rot)  DE(clash)    DE(int)     intcor
     17.12     -20.52       1.85        0.00     120.11       2.03       0.33       3.07       ----

> <Gold.Chemscore.Fitness>
17.1236

> <Gold.Chemscore.DG>
-20.5161

> <Gold.Chemscore.ZeroCoef>
-5.4800

> <Gold.Chemscore.Hbond>
1.8502

> <Gold.Chemscore.Metal>
0.0000

> <Gold.Chemscore.Lipo>
120.1059

> <Gold.Chemscore.Internal_Hbond>
0.0000

> <Gold.Chemscore.DEClash>
0.3251

> <Gold.Chemscore.DEInternal>
3.0674

> <Gold.Chemscore.Rot>
2.0297

> <Gold.Chemscore.Internal.Correction>
   9.000000E+99

> <Gold.Chemscore.Hbonds>
donor molecule, donor type, donor heavy atom, donor atom, acceptor molecule, acceptor atom, score
      L1  H    22    47       P1  7948  1.00
      P1  H  7989  7998       L1    14  0.02
      P1  H  7997  8010       L1    12  0.77

> <Gold.Chemscore.Hbond.Weighted>
-6.1796

> <Gold.Chemscore.Metal.Weighted>
-0.0000

> <Gold.Chemscore.Lipo.Weighted>
-14.0524

> <Gold.Chemscore.Internal_Hbond.Weighted>
0.0000

> <Gold.Chemscore.DEClash.Weighted>
0.3251

> <Gold.Chemscore.DEInternal.Weighted>
3.0674

> <Gold.Chemscore.Rot.Weighted>
5.1960

> <Gold.Chemscore.Internal.Correction.Weighted>
   9.000000E+99

> <Gold.Protein.RotatedTorsions>
[ 6907 6896 6895 6894 ] final  -85.34 input  -60.11 | X-H torsion
[ 7974 7965 7964 7962 ] final   14.55 input  175.53 | X-H torsion
[ 8008 7997 7996 7995 ] final   73.75 input   59.86 | X-H torsion
[ 10167 10162 10161 10158 ] final -158.49 input  -65.29 | X-H torsion
[ 10718 10713 10712 10709 ] final   -6.19 input   66.30 | X-H torsion
[ 10763 10752 10751 10750 ] final  -65.84 input  -60.55 | X-H torsion
[ 11005 11000 10999 10996 ] final   16.34 input  -57.11 | X-H torsion

> <Gold.Protein.ActiveResidues>
 VAL166  LYS551  ARG553  GLY616  TRP617  ASP618  TYR619  PRO620  LYS621  CYS622 
 ASP623  PHE694  ASN695  SER759  ASP760  ASP761  ALA762  ILE779  LEU786  VAL792 
 PHE793  MET794  SER795  GLU796  ALA797  LYS798  CYS799  TRP800  GLU811  SER814 

> <Gold.Protein.RotatedAtoms>
  150.6871  134.3219  159.4790 H   0  0  0  0  0  0  0  0  0  0  0  0  # atno 6907 bound_to 6896
  152.1094  134.9283  160.0576 H   0  0  0  0  0  0  0  0  0  0  0  0  # atno 6908 bound_to 6896
  152.0531  133.3993  159.4422 H   0  0  0  0  0  0  0  0  0  0  0  0  # atno 6909 bound_to 6896
  146.2302  139.9025  142.8537 H   0  0  0  0  0  0  0  0  0  0  0  0  # atno 7974 bound_to 7965
  155.7882  140.3480  155.5335 H   0  0  0  0  0  0  0  0  0  0  0  0  # atno 8008 bound_to 7997
  155.8660  140.0979  157.1602 H   0  0  0  0  0  0  0  0  0  0  0  0  # atno 8009 bound_to 7997
  154.4014  140.1349  156.4007 H   0  0  0  0  0  0  0  0  0  0  0  0  # atno 8010 bound_to 7997
  139.6688  143.9782  152.2271 H   0  0  0  0  0  0  0  0  0  0  0  0  # atno 10167 bound_to 10162
  156.7355  130.5193  149.5836 H   0  0  0  0  0  0  0  0  0  0  0  0  # atno 10718 bound_to 10713
  154.3509  135.6136  153.5642 H   0  0  0  0  0  0  0  0  0  0  0  0  # atno 10763 bound_to 10752
  152.9798  135.5792  154.4744 H   0  0  0  0  0  0  0  0  0  0  0  0  # atno 10764 bound_to 10752
  154.4465  135.2851  155.1789 H   0  0  0  0  0  0  0  0  0  0  0  0  # atno 10765 bound_to 10752
  140.4482  134.1252  155.7699 H   0  0  0  0  0  0  0  0  0  0  0  0  # atno 11005 bound_to 11000
  145.2309  140.9972  143.3991 LP  0  0  0  0  0  0  0  0  0  0  0  0  # atno 17320 bound_to 7965
  144.9531  139.4061  143.6392 LP  0  0  0  0  0  0  0  0  0  0  0  0  # atno 17321 bound_to 7965
  139.9540  144.6601  150.8144 LP  0  0  0  0  0  0  0  0  0  0  0  0  # atno 17342 bound_to 10162
  140.7610  143.3164  151.2724 LP  0  0  0  0  0  0  0  0  0  0  0  0  # atno 17343 bound_to 10162
  156.1500  130.6303  151.0583 LP  0  0  0  0  0  0  0  0  0  0  0  0  # atno 17370 bound_to 10713
  157.6841  131.0830  150.7291 LP  0  0  0  0  0  0  0  0  0  0  0  0  # atno 17371 bound_to 10713
  141.1676  133.8673  157.1668 LP  0  0  0  0  0  0  0  0  0  0  0  0  # atno 17394 bound_to 11000
  140.0024  135.0022  157.0220 LP  0  0  0  0  0  0  0  0  0  0  0  0  # atno 17395 bound_to 11000

$$$$
