AV-unprocessed.smi:260|AV-procd|sdf|1978|dock1
  -GOLD-   2262021153D 1   1.00000     0.00000
 Structure written by MMmdl.
 53 56  0  0  0  0  0  0  0  0  1 V2000
  150.8717  130.5252  156.0647 C   0  0  0  0  0  0  0  0  0  0  0  0
  150.1015  131.7396  155.8468 N   0  0  0  0  0  0  0  0  0  0  0  0
  149.6372  132.5308  156.8271 C   0  0  0  0  0  0  0  0  0  0  0  0
  149.8245  132.2729  158.0170 O   0  0  0  0  0  0  0  0  0  0  0  0
  148.8335  133.7993  156.4381 C   0  0  2  0  0  0  0  0  0  0  0  0
  147.3834  133.6425  156.9356 C   0  0  0  0  0  0  0  0  0  0  0  0
  148.8966  134.1543  154.9349 C   0  0  0  0  0  0  0  0  0  0  0  0
  150.2159  134.9189  154.7655 C   0  0  0  0  0  0  0  0  0  0  0  0
  150.5352  135.4398  156.0872 N   0  0  0  0  0  0  0  0  0  0  0  0
  151.2472  136.5866  156.2387 C   0  0  0  0  0  0  0  0  0  0  0  0
  151.7896  137.1693  155.1365 N   0  0  0  0  0  0  0  0  0  0  0  0
  152.5008  138.2949  155.2427 C   0  0  0  0  0  0  0  0  0  0  0  0
  152.7858  139.0008  156.3378 N   0  0  0  0  0  0  0  0  0  0  0  0
  152.2342  138.4331  157.4475 C   0  0  0  0  0  0  0  0  0  0  0  0
  151.4564  137.2395  157.4897 C   0  0  0  0  0  0  0  0  0  0  0  0
  151.0622  136.9873  158.8000 N   0  0  0  0  0  0  0  0  0  0  0  0
  151.5841  137.9641  159.4898 C   0  0  0  0  0  0  0  0  0  0  0  0
  152.3076  138.8753  158.7566 N   0  0  0  0  0  0  0  0  0  0  0  0
  152.9940  140.0484  159.2700 C   0  0  0  0  0  0  0  0  0  0  0  0
  152.4490  141.3570  158.6649 C   0  0  1  0  0  0  0  0  0  0  0  0
  151.0373  141.2891  158.6014 O   0  0  0  0  0  0  0  0  0  0  0  0
  152.8499  142.5933  159.4902 C   0  0  2  0  0  0  0  0  0  0  0  0
  152.4837  142.5133  160.9736 C   0  0  0  0  0  0  0  0  0  0  0  0
  152.3682  143.9699  161.3947 C   0  0  0  0  0  0  0  0  0  0  0  0
  152.2746  144.7335  160.0710 C   0  0  0  0  0  0  0  0  0  0  0  0
  152.1133  143.7332  159.0751 O   0  0  0  0  0  0  0  0  0  0  0  0
  149.5020  135.0504  157.0398 C   0  0  0  0  0  0  0  0  0  0  0  0
  151.0799  130.0413  155.1105 H   0  0  0  0  0  0  0  0  0  0  0  0
  150.3224  129.8216  156.6919 H   0  0  0  0  0  0  0  0  0  0  0  0
  151.8231  130.7533  156.5473 H   0  0  0  0  0  0  0  0  0  0  0  0
  149.9133  132.0022  154.8902 H   0  0  0  0  0  0  0  0  0  0  0  0
  146.7898  134.5307  156.7165 H   0  0  0  0  0  0  0  0  0  0  0  0
  147.3419  133.4855  158.0142 H   0  0  0  0  0  0  0  0  0  0  0  0
  146.8908  132.7952  156.4571 H   0  0  0  0  0  0  0  0  0  0  0  0
  148.8105  133.3042  154.2572 H   0  0  0  0  0  0  0  0  0  0  0  0
  148.0728  134.8252  154.6869 H   0  0  0  0  0  0  0  0  0  0  0  0
  151.0146  134.2482  154.4472 H   0  0  0  0  0  0  0  0  0  0  0  0
  150.1136  135.7103  154.0221 H   0  0  0  0  0  0  0  0  0  0  0  0
  152.8994  138.6847  154.3177 H   0  0  0  0  0  0  0  0  0  0  0  0
  151.4573  138.0464  160.5597 H   0  0  0  0  0  0  0  0  0  0  0  0
  152.9072  140.0624  160.3572 H   0  0  0  0  0  0  0  0  0  0  0  0
  154.0559  139.9418  159.0455 H   0  0  0  0  0  0  0  0  0  0  0  0
  152.8260  141.4664  157.6470 H   0  0  0  0  0  0  0  0  0  0  0  0
  150.7085  142.1332  158.3326 H   0  0  0  0  0  0  0  0  0  0  0  0
  153.9162  142.8008  159.3791 H   0  0  0  0  0  0  0  0  0  0  0  0
  151.5179  142.0217  161.0973 H   0  0  0  0  0  0  0  0  0  0  0  0
  153.2187  141.9604  161.5590 H   0  0  0  0  0  0  0  0  0  0  0  0
  151.4866  144.1273  162.0168 H   0  0  0  0  0  0  0  0  0  0  0  0
  153.2420  144.2920  161.9623 H   0  0  0  0  0  0  0  0  0  0  0  0
  151.4456  145.4412  160.0528 H   0  0  0  0  0  0  0  0  0  0  0  0
  153.1968  145.2848  159.8809 H   0  0  0  0  0  0  0  0  0  0  0  0
  148.7798  135.8619  157.1430 H   0  0  0  0  0  0  0  0  0  0  0  0
  149.9316  134.8645  158.0252 H   0  0  0  0  0  0  0  0  0  0  0  0
  1  2  1  0  0  0  0
  1 28  1  0  0  0  0
  1 29  1  0  0  0  0
  1 30  1  0  0  0  0
  2  3  1  0  0  0  0
  2 31  1  0  0  0  0
  3  4  2  0  0  0  0
  3  5  1  0  0  0  0
  5 27  1  0  0  0  0
  5  6  1  0  0  0  0
  5  7  1  0  0  0  0
  6 32  1  0  0  0  0
  6 33  1  0  0  0  0
  6 34  1  0  0  0  0
  7  8  1  0  0  0  0
  7 35  1  0  0  0  0
  7 36  1  0  0  0  0
  8  9  1  0  0  0  0
  8 37  1  0  0  0  0
  8 38  1  0  0  0  0
  9 10  1  0  0  0  0
  9 27  1  0  0  0  0
 10 15  1  0  0  0  0
 10 11  2  0  0  0  0
 11 12  1  0  0  0  0
 12 13  2  0  0  0  0
 12 39  1  0  0  0  0
 13 14  1  0  0  0  0
 14 18  1  0  0  0  0
 14 15  2  0  0  0  0
 15 16  1  0  0  0  0
 16 17  2  0  0  0  0
 17 18  1  0  0  0  0
 17 40  1  0  0  0  0
 18 19  1  0  0  0  0
 19 20  1  0  0  0  0
 19 41  1  0  0  0  0
 19 42  1  0  0  0  0
 20 21  1  0  0  0  0
 20 22  1  0  0  0  0
 20 43  1  0  0  0  0
 21 44  1  0  0  0  0
 22 26  1  0  0  0  0
 22 23  1  0  0  0  0
 22 45  1  0  0  0  0
 23 24  1  0  0  0  0
 23 46  1  0  0  0  0
 23 47  1  0  0  0  0
 24 25  1  0  0  0  0
 24 48  1  0  0  0  0
 24 49  1  0  0  0  0
 25 26  1  0  0  0  0
 25 50  1  0  0  0  0
 25 51  1  0  0  0  0
 27 52  1  0  0  0  0
 27 53  1  0  0  0  0
M  END
> <s_m_source_file>
AV-unprocessed.smi

> <i_m_source_file_index>
260

> <i_lp_mmshare_version>
43012

> <i_f3d_flags>
0

> <s_epik_input>
W0NIM11bTkhdQyg9TylbQ0BAXTEoW0NIM10pW0NIMl1bQ0gyXU4oW0NIMl0xKWMobltjSF1uMiljKGMyMyluW2NIXW4zW0NIMl1bQ0BIXShbT0hdKVtDQEBIXTRbQ0gyXVtDSDJdW0NIMl1PNA==

> <s_epik_cmdline>
J2VwaWtfcHl0aG9uJywgJy1waCcsICc3LjAnLCAnLXRuJywgJzgnLCAnLW1hJywgJzIwMCcsICctbWV0YWxfYmluZGluZycsICctaW1hZScsICc8aW5maWxlLm1hZT4nLCAnLW9tYWUnLCAnPG91dGZpbGUubWFlPic=

> <r_lp_tautomer_probability>
1

> <r_epik_Ionization_Penalty>
0.00115068

> <r_epik_Ionization_Penalty_Charging>
0

> <r_epik_Ionization_Penalty_Neutral>
0.00115068

> <r_epik_State_Penalty>
0.000668876

> <r_epik_Charging_Adjusted_Penalty>
0.000668876

> <i_epik_Tot_Q>
0

> <i_epik_Tot_abs_Q>
0

> <r_epik_Metal_State_Penalty>
-0

> <b_epik_Metal_Only>
0

> <s_lp_Force_Field>
OPLS_2005

> <r_lp_Energy>
50.1788

> <b_lp_Chiralities_Consistent>
1

> <s_lp_Variant>
AV-unprocessed.smi:260-4

> <Gold.Version>
5.8.1

> <Gold.Id.Protein>
6NUR|6NUR_protein|mol2

> <Gold.PLP.Fitness>
53.5193

> <Gold.PLP.PLP>
-43.1371

> <Gold.PLP.part.hbond>
-4.0000

> <Gold.PLP.part.metal>
0.0000

> <Gold.PLP.part.buried>
-8.4065

> <Gold.PLP.part.nonpolar>
-32.0879

> <Gold.PLP.part.repulsive>
0.0931

> <Gold.PLP.ligand.clash>
0.0000

> <Gold.PLP.ligand.torsion>
0.5537

> <Gold.PLP.Chemscore.Hbond>
3.6989

> <Gold.PLP.Chemscore.CHOScore>
0.0000

> <Gold.PLP.Chemscore.Metal>
0.0000

> <Gold.Chemscore.Hbonds>
donor molecule, donor type, donor heavy atom, donor atom, acceptor molecule, acceptor atom, score
      P1  H  6896  6907       L1    16  0.68
      P1  H  6896  6909       L1     4  0.83
      P1  H  7997  8009       L1    13  1.00
      P1  H 10752 10763       L1    11  0.89

> <Gold.PLP.Chemscore.Internal.Correction>
0.3927

> <Gold.Rescore>
     Score         DG    S(hbond)    S(metal)    S(lipo)     H(rot)  DE(clash)    DE(int)     intcor
     18.98     -19.60       3.03        0.00      89.37       2.53       0.04       0.59       ----

> <Gold.Chemscore.Fitness>
18.9772

> <Gold.Chemscore.DG>
-19.5999

> <Gold.Chemscore.ZeroCoef>
-5.4800

> <Gold.Chemscore.Hbond>
3.0330

> <Gold.Chemscore.Metal>
0.0000

> <Gold.Chemscore.Lipo>
89.3689

> <Gold.Chemscore.Internal_Hbond>
0.0000

> <Gold.Chemscore.DEClash>
0.0354

> <Gold.Chemscore.DEInternal>
0.5874

> <Gold.Chemscore.Rot>
2.5259

> <Gold.Chemscore.Internal.Correction>
   9.000000E+99

> <Gold.Chemscore.Hbonds>
donor molecule, donor type, donor heavy atom, donor atom, acceptor molecule, acceptor atom, score
      P1  H  6896  6907       L1    16  0.48
      P1  H  6896  6909       L1     4  0.79
      P1  H  7997  8009       L1    13  0.97
      P1  H 10752 10763       L1    11  0.22

> <Gold.Chemscore.Hbond.Weighted>
-10.1301

> <Gold.Chemscore.Metal.Weighted>
-0.0000

> <Gold.Chemscore.Lipo.Weighted>
-10.4562

> <Gold.Chemscore.Internal_Hbond.Weighted>
0.0000

> <Gold.Chemscore.DEClash.Weighted>
0.0354

> <Gold.Chemscore.DEInternal.Weighted>
0.5874

> <Gold.Chemscore.Rot.Weighted>
6.4663

> <Gold.Chemscore.Internal.Correction.Weighted>
   9.000000E+99

> <Gold.Protein.RotatedTorsions>
[ 6907 6896 6895 6894 ] final  -18.66 input  -60.11 | X-H torsion
[ 7974 7965 7964 7962 ] final  -96.79 input  175.53 | X-H torsion
[ 8008 7997 7996 7995 ] final -164.68 input   59.86 | X-H torsion
[ 10167 10162 10161 10158 ] final   74.36 input  -65.29 | X-H torsion
[ 10718 10713 10712 10709 ] final   90.07 input   66.30 | X-H torsion
[ 10763 10752 10751 10750 ] final   46.13 input  -60.55 | X-H torsion
[ 11005 11000 10999 10996 ] final  -66.36 input  -57.11 | X-H torsion

> <Gold.Protein.ActiveResidues>
 VAL166  LYS551  ARG553  GLY616  TRP617  ASP618  TYR619  PRO620  LYS621  CYS622 
 ASP623  PHE694  ASN695  SER759  ASP760  ASP761  ALA762  ILE779  LEU786  VAL792 
 PHE793  MET794  SER795  GLU796  ALA797  LYS798  CYS799  TRP800  GLU811  SER814 

> <Gold.Protein.RotatedAtoms>
  151.2748  135.0696  159.9147 H   0  0  0  0  0  0  0  0  0  0  0  0  # atno 6907 bound_to 6896
  152.5344  134.0092  159.7941 H   0  0  0  0  0  0  0  0  0  0  0  0  # atno 6908 bound_to 6896
  151.0337  133.5717  159.2689 H   0  0  0  0  0  0  0  0  0  0  0  0  # atno 6909 bound_to 6896
  145.3422  140.9462  143.2601 H   0  0  0  0  0  0  0  0  0  0  0  0  # atno 7974 bound_to 7965
  155.8391  140.0945  157.1745 H   0  0  0  0  0  0  0  0  0  0  0  0  # atno 8008 bound_to 7997
  154.3981  140.1404  156.3768 H   0  0  0  0  0  0  0  0  0  0  0  0  # atno 8009 bound_to 7997
  155.8084  140.3450  155.5445 H   0  0  0  0  0  0  0  0  0  0  0  0  # atno 8010 bound_to 7997
  140.0145  144.5588  150.7631 H   0  0  0  0  0  0  0  0  0  0  0  0  # atno 10167 bound_to 10162
  157.6958  131.0357  150.3522 H   0  0  0  0  0  0  0  0  0  0  0  0  # atno 10718 bound_to 10713
  152.9815  135.6018  154.3549 H   0  0  0  0  0  0  0  0  0  0  0  0  # atno 10763 bound_to 10752
  154.3235  135.2769  155.2509 H   0  0  0  0  0  0  0  0  0  0  0  0  # atno 10764 bound_to 10752
  154.4665  135.5952  153.6347 H   0  0  0  0  0  0  0  0  0  0  0  0  # atno 10765 bound_to 10752
  141.1480  133.6698  156.6127 H   0  0  0  0  0  0  0  0  0  0  0  0  # atno 11005 bound_to 11000
  144.8782  139.4942  143.6736 LP  0  0  0  0  0  0  0  0  0  0  0  0  # atno 17320 bound_to 7965
  146.3003  139.7405  142.9096 LP  0  0  0  0  0  0  0  0  0  0  0  0  # atno 17321 bound_to 7965
  140.7368  143.2757  151.3749 LP  0  0  0  0  0  0  0  0  0  0  0  0  # atno 17342 bound_to 10162
  139.6182  144.0960  152.2366 LP  0  0  0  0  0  0  0  0  0  0  0  0  # atno 17343 bound_to 10162
  156.3969  130.3908  149.6988 LP  0  0  0  0  0  0  0  0  0  0  0  0  # atno 17370 bound_to 10713
  156.4319  130.7819  151.2839 LP  0  0  0  0  0  0  0  0  0  0  0  0  # atno 17371 bound_to 10713
  140.3601  134.7694  157.4528 LP  0  0  0  0  0  0  0  0  0  0  0  0  # atno 17394 bound_to 11000
  140.0791  134.5755  155.8559 LP  0  0  0  0  0  0  0  0  0  0  0  0  # atno 17395 bound_to 11000

$$$$
