AV-unprocessed.smi:1836|AV-procd|sdf|7477|dock8
  -GOLD-   22720 9173D 1   1.00000     0.00000
 Structure written by MMmdl.
 33 34  0  0  0  0  0  0  0  0  1 V2000
  151.1083  140.6125  157.9993 C   0  0  0  0  0  0  0  0  0  0  0  0
  152.0484  140.5744  159.2123 C   0  0  2  0  0  0  0  0  0  0  0  0
  153.1440  141.6577  159.1012 C   0  0  0  0  0  0  0  0  0  0  0  0
  152.7045  142.9445  159.6386 N   0  0  0  0  0  0  0  0  0  0  0  0
  152.8148  144.1551  158.8422 C   0  0  0  0  0  0  0  0  0  0  0  0
  152.0701  145.2290  159.6475 C   0  0  0  0  0  0  0  0  0  0  0  0
  151.8987  144.6479  161.0551 C   0  0  0  0  0  0  0  0  0  0  0  0
  152.2433  143.1796  160.8731 C   0  0  0  0  0  0  0  0  0  0  0  0
  152.1006  142.3459  161.7664 O   0  0  0  0  0  0  0  0  0  0  0  0
  152.6461  139.2424  159.2813 N   0  0  0  0  0  0  0  0  0  0  0  0
  153.3325  138.6430  158.2971 C   0  0  0  0  0  0  0  0  0  0  0  0
  153.5523  139.1656  157.2043 O   0  0  0  0  0  0  0  0  0  0  0  0
  153.7293  137.4138  158.6632 N   0  0  0  0  0  0  0  0  0  0  0  0
  154.4277  136.4564  157.8864 C   0  0  0  0  0  0  0  0  0  0  0  0
  154.7018  136.7602  156.6122 N   0  0  0  0  0  0  0  0  0  0  0  0
  155.3883  135.7374  155.9693 N   0  0  0  0  0  0  0  0  0  0  0  0
  155.6081  134.7025  156.7858 C   0  0  0  0  0  0  0  0  0  0  0  0
  155.0000  134.8739  158.4228 S   0  0  0  0  0  0  0  0  0  0  0  0
  150.6099  141.5791  157.9194 H   0  0  0  0  0  0  0  0  0  0  0  0
  150.3318  139.8508  158.0792 H   0  0  0  0  0  0  0  0  0  0  0  0
  151.6506  140.4398  157.0688 H   0  0  0  0  0  0  0  0  0  0  0  0
  151.4383  140.7694  160.0963 H   0  0  0  0  0  0  0  0  0  0  0  0
  154.0667  141.3306  159.5843 H   0  0  0  0  0  0  0  0  0  0  0  0
  153.3988  141.8128  158.0517 H   0  0  0  0  0  0  0  0  0  0  0  0
  153.8680  144.4141  158.7247 H   0  0  0  0  0  0  0  0  0  0  0  0
  152.3823  144.0207  157.8501 H   0  0  0  0  0  0  0  0  0  0  0  0
  152.6127  146.1749  159.6575 H   0  0  0  0  0  0  0  0  0  0  0  0
  151.0914  145.4169  159.2040 H   0  0  0  0  0  0  0  0  0  0  0  0
  152.5951  145.1005  161.7615 H   0  0  0  0  0  0  0  0  0  0  0  0
  150.8831  144.7744  161.4315 H   0  0  0  0  0  0  0  0  0  0  0  0
  152.5118  138.7317  160.1417 H   0  0  0  0  0  0  0  0  0  0  0  0
  153.4926  137.1224  159.6000 H   0  0  0  0  0  0  0  0  0  0  0  0
  156.1336  133.8323  156.4209 H   0  0  0  0  0  0  0  0  0  0  0  0
  1  2  1  0  0  0  0
  1 19  1  0  0  0  0
  1 20  1  0  0  0  0
  1 21  1  0  0  0  0
  2  3  1  0  0  0  0
  2 10  1  0  0  0  0
  2 22  1  0  0  0  0
  3  4  1  0  0  0  0
  3 23  1  0  0  0  0
  3 24  1  0  0  0  0
  4  8  1  0  0  0  0
  4  5  1  0  0  0  0
  5  6  1  0  0  0  0
  5 25  1  0  0  0  0
  5 26  1  0  0  0  0
  6  7  1  0  0  0  0
  6 27  1  0  0  0  0
  6 28  1  0  0  0  0
  7  8  1  0  0  0  0
  7 29  1  0  0  0  0
  7 30  1  0  0  0  0
  8  9  2  0  0  0  0
 10 11  1  0  0  0  0
 10 31  1  0  0  0  0
 11 12  2  0  0  0  0
 11 13  1  0  0  0  0
 13 14  1  0  0  0  0
 13 32  1  0  0  0  0
 14 18  1  0  0  0  0
 14 15  2  0  0  0  0
 15 16  1  0  0  0  0
 16 17  2  0  0  0  0
 17 18  1  0  0  0  0
 17 33  1  0  0  0  0
M  END
> <s_m_source_file>
AV-unprocessed.smi

> <i_m_source_file_index>
1836

> <i_lp_mmshare_version>
43012

> <i_f3d_flags>
0

> <s_epik_input>
Tz1DMVtDSDJdW0NIMl1bQ0gyXU4xW0NIMl1bQ0BASF0oW0NIM10pW05IXUMoPU8pW05IXWMybm5bY0hdczI=

> <s_epik_cmdline>
J2VwaWtfcHl0aG9uJywgJy1waCcsICc3LjAnLCAnLXRuJywgJzgnLCAnLW1hJywgJzIwMCcsICctbWV0YWxfYmluZGluZycsICctaW1hZScsICc8aW5maWxlLm1hZT4nLCAnLW9tYWUnLCAnPG91dGZpbGUubWFlPic=

> <r_lp_tautomer_probability>
1

> <r_epik_Ionization_Penalty>
0.00192022

> <r_epik_Ionization_Penalty_Charging>
0

> <r_epik_Ionization_Penalty_Neutral>
0.00192022

> <r_epik_State_Penalty>
-0

> <r_epik_Charging_Adjusted_Penalty>
0

> <i_epik_Tot_Q>
0

> <i_epik_Tot_abs_Q>
0

> <r_epik_Metal_State_Penalty>
0.336618

> <b_epik_Metal_Only>
0

> <s_lp_Force_Field>
OPLS_2005

> <r_lp_Energy>
16.7835

> <b_lp_Chiralities_Consistent>
1

> <s_lp_Variant>
AV-unprocessed.smi:1836-1

> <Gold.Version>
5.8.1

> <Gold.Id.Protein>
6NUR|6NUR_protein|mol2

> <Gold.PLP.Fitness>
41.1939

> <Gold.PLP.PLP>
-34.2363

> <Gold.PLP.part.hbond>
-3.3035

> <Gold.PLP.part.metal>
0.0000

> <Gold.PLP.part.buried>
-5.4344

> <Gold.PLP.part.nonpolar>
-26.6718

> <Gold.PLP.part.repulsive>
0.3059

> <Gold.PLP.ligand.clash>
0.0000

> <Gold.PLP.ligand.torsion>
0.3744

> <Gold.PLP.Chemscore.Hbond>
2.5606

> <Gold.PLP.Chemscore.CHOScore>
0.0000

> <Gold.PLP.Chemscore.Metal>
0.0000

> <Gold.Chemscore.Hbonds>
donor molecule, donor type, donor heavy atom, donor atom, acceptor molecule, acceptor atom, score
      P1  H  6933  6945       L1     9  0.50
      P1  H  7997  8009       L1    12  0.50
      P1  H 10752 10764       L1    16  0.29

> <Gold.PLP.Chemscore.Internal.Correction>
0.0246

> <Gold.Rescore>
     Score         DG    S(hbond)    S(metal)    S(lipo)     H(rot)  DE(clash)    DE(int)     intcor
     13.00     -16.09       2.32        0.00      62.74       1.76       0.02       3.07       ----

> <Gold.Chemscore.Fitness>
13.0004

> <Gold.Chemscore.DG>
-16.0874

> <Gold.Chemscore.ZeroCoef>
-5.4800

> <Gold.Chemscore.Hbond>
2.3249

> <Gold.Chemscore.Metal>
0.0000

> <Gold.Chemscore.Lipo>
62.7388

> <Gold.Chemscore.Internal_Hbond>
0.0000

> <Gold.Chemscore.DEClash>
0.0195

> <Gold.Chemscore.DEInternal>
3.0675

> <Gold.Chemscore.Rot>
1.7571

> <Gold.Chemscore.Internal.Correction>
   9.000000E+99

> <Gold.Chemscore.Hbonds>
donor molecule, donor type, donor heavy atom, donor atom, acceptor molecule, acceptor atom, score
      P1  H  6933  6945       L1     9  0.45
      P1  H  7997  8009       L1    12  0.50
      P1  H 10752 10764       L1    16  0.14

> <Gold.Chemscore.Hbond.Weighted>
-7.7653

> <Gold.Chemscore.Metal.Weighted>
-0.0000

> <Gold.Chemscore.Lipo.Weighted>
-7.3404

> <Gold.Chemscore.Internal_Hbond.Weighted>
0.0000

> <Gold.Chemscore.DEClash.Weighted>
0.0195

> <Gold.Chemscore.DEInternal.Weighted>
3.0675

> <Gold.Chemscore.Rot.Weighted>
4.4983

> <Gold.Chemscore.Internal.Correction.Weighted>
   9.000000E+99

> <Gold.Protein.RotatedTorsions>
[ 6907 6896 6895 6894 ] final  -52.74 input  -60.11 | X-H torsion
[ 7974 7965 7964 7962 ] final  -96.05 input  175.53 | X-H torsion
[ 8008 7997 7996 7995 ] final  177.20 input   59.86 | X-H torsion
[ 10167 10162 10161 10158 ] final -136.66 input  -65.29 | X-H torsion
[ 10718 10713 10712 10709 ] final  114.00 input   66.30 | X-H torsion
[ 10763 10752 10751 10750 ] final   75.89 input  -60.55 | X-H torsion
[ 11005 11000 10999 10996 ] final    7.19 input  -57.11 | X-H torsion

> <Gold.Protein.ActiveResidues>
 VAL166  LYS551  ARG553  GLY616  TRP617  ASP618  TYR619  PRO620  LYS621  CYS622 
 ASP623  PHE694  ASN695  SER759  ASP760  ASP761  ALA762  ILE779  LEU786  VAL792 
 PHE793  MET794  SER795  GLU796  ALA797  LYS798  CYS799  TRP800  GLU811  SER814 

> <Gold.Protein.RotatedAtoms>
  150.8490  134.7809  159.6993 H   0  0  0  0  0  0  0  0  0  0  0  0  # atno 6907 bound_to 6896
  152.4560  134.5288  159.9814 H   0  0  0  0  0  0  0  0  0  0  0  0  # atno 6908 bound_to 6896
  151.5413  133.3394  159.2971 H   0  0  0  0  0  0  0  0  0  0  0  0  # atno 6909 bound_to 6896
  145.3520  140.9478  143.2549 H   0  0  0  0  0  0  0  0  0  0  0  0  # atno 7974 bound_to 7965
  156.0682  140.1364  156.9860 H   0  0  0  0  0  0  0  0  0  0  0  0  # atno 8008 bound_to 7997
  154.4517  140.0977  156.6690 H   0  0  0  0  0  0  0  0  0  0  0  0  # atno 8009 bound_to 7997
  155.5270  140.3457  155.4420 H   0  0  0  0  0  0  0  0  0  0  0  0  # atno 8010 bound_to 7997
  139.8655  143.7023  152.2645 H   0  0  0  0  0  0  0  0  0  0  0  0  # atno 10167 bound_to 10162
  157.6306  131.0992  150.7122 H   0  0  0  0  0  0  0  0  0  0  0  0  # atno 10718 bound_to 10713
  153.0686  135.4972  154.8255 H   0  0  0  0  0  0  0  0  0  0  0  0  # atno 10763 bound_to 10752
  154.6990  135.2998  154.9371 H   0  0  0  0  0  0  0  0  0  0  0  0  # atno 10764 bound_to 10752
  154.0101  135.6755  153.4817 H   0  0  0  0  0  0  0  0  0  0  0  0  # atno 10765 bound_to 10752
  140.5511  134.0282  155.7937 H   0  0  0  0  0  0  0  0  0  0  0  0  # atno 11005 bound_to 11000
  144.8711  139.5037  143.6767 LP  0  0  0  0  0  0  0  0  0  0  0  0  # atno 17320 bound_to 7965
  146.2964  139.7291  142.9123 LP  0  0  0  0  0  0  0  0  0  0  0  0  # atno 17321 bound_to 7965
  139.7333  144.7577  151.0767 LP  0  0  0  0  0  0  0  0  0  0  0  0  # atno 17342 bound_to 10162
  140.7769  143.5061  150.9710 LP  0  0  0  0  0  0  0  0  0  0  0  0  # atno 17343 bound_to 10162
  156.7462  130.4754  149.5466 LP  0  0  0  0  0  0  0  0  0  0  0  0  # atno 17370 bound_to 10713
  156.1508  130.6308  151.0592 LP  0  0  0  0  0  0  0  0  0  0  0  0  # atno 17371 bound_to 10713
  141.1171  133.9522  157.2801 LP  0  0  0  0  0  0  0  0  0  0  0  0  # atno 17394 bound_to 11000
  139.9455  135.0185  156.8838 LP  0  0  0  0  0  0  0  0  0  0  0  0  # atno 17395 bound_to 11000

$$$$
