#       Name:                AV-unprocessed.smi:2502
#       Creating user name   scv26
#       Creation time:       Fri Mar 27 13:47:08 2020


#       File generated by GOLD software.
#

@<TRIPOS>MOLECULE
AV-unprocessed.smi:2502
    47    49     1
SMALL
NO_CHARGES


@<TRIPOS>ATOM
      1 ****        -1.0640  -1.6941  -0.5550 O.3            1 S1                 0.0000
      2 ****        -0.5630  -0.6875  -1.4130 C.3            1 S1                 0.0000
      3 ****         0.9727  -0.7542  -1.4304 C.3            1 S1                 0.0000
      4 ****         1.5001  -0.1819  -0.2411 O.3            1 S1                 0.0000
      5 ****         2.9202  -0.1439  -0.1806 C.3            1 S1                 0.0000
      6 ****         3.5122  -1.5249   0.1520 C.3            1 S1                 0.0000
      7 ****         5.0238  -1.4144   0.4104 C.3            1 S1                 0.0000
      8 ****         5.2753  -0.4789   1.4540 O.3            1 S1                 0.0000
      9 ****         4.8385   0.8386   1.1372 C.3            1 S1                 0.0000
     10 ****         3.3164   0.8479   0.9208 C.3            1 S1                 0.0000
     11 ****        -1.1199   0.7010  -1.0396 C.3            1 S1                 0.0000
     12 ****        -2.5690   0.7537  -1.1182 N.pl3          1 S1                 0.0000
     13 ****        -3.1682   0.8610  -2.3378 N.2            1 S1                 0.0000
     14 ****        -4.4565   0.8787  -2.1684 N.2            1 S1                 0.0000
     15 ****        -4.7114   0.7838  -0.8105 C.ar           1 S1                 0.0000
     16 ****        -5.9193   0.7553  -0.0785 C.ar           1 S1                 0.0000
     17 ****        -5.8987   0.6505   1.3296 C.ar           1 S1                 0.0000
     18 ****        -7.3973   0.6178   2.1890 Cl             1 S1                 0.0000
     19 ****        -4.6663   0.5725   2.0224 C.ar           1 S1                 0.0000
     20 ****        -4.6235   0.4457   3.7449 Cl             1 S1                 0.0000
     21 ****        -3.4536   0.5972   1.3048 C.ar           1 S1                 0.0000
     22 ****        -3.4965   0.7027  -0.0959 C.ar           1 S1                 0.0000
     23 ****        -2.0076  -1.6904  -0.6059 H              1 S1                 0.0000
     24 ****        -0.9120  -0.9445  -2.4139 H              1 S1                 0.0000
     25 ****         1.3036  -1.7846  -1.5615 H              1 S1                 0.0000
     26 ****         1.3422  -0.1882  -2.2870 H              1 S1                 0.0000
     27 ****         3.3239   0.2149  -1.1293 H              1 S1                 0.0000
     28 ****         3.0222  -1.9326   1.0370 H              1 S1                 0.0000
     29 ****         3.3344  -2.2315  -0.6580 H              1 S1                 0.0000
     30 ****         5.4249  -2.3845   0.7040 H              1 S1                 0.0000
     31 ****         5.5518  -1.1137  -0.4958 H              1 S1                 0.0000
     32 ****         5.1042   1.5040   1.9589 H              1 S1                 0.0000
     33 ****         5.3608   1.2030   0.2511 H              1 S1                 0.0000
     34 ****         2.9789   1.8520   0.6622 H              1 S1                 0.0000
     35 ****         2.8184   0.5811   1.8538 H              1 S1                 0.0000
     36 ****        -0.8198   0.9777  -0.0281 H              1 S1                 0.0000
     37 ****        -0.7096   1.4627  -1.7041 H              1 S1                 0.0000
     38 ****        -6.8628   0.8135  -0.6009 H              1 S1                 0.0000
     39 ****        -2.5069   0.5361   1.8212 H              1 S1                 0.0000
     40 ****        -0.7764  -1.5098   0.3849 LP             1 S1                 0.0000
     41 ****        -0.7144  -2.5861  -0.8417 LP             1 S1                 0.0000
     42 ****         1.1692  -0.7175   0.5359 LP             1 S1                 0.0000
     43 ****         1.1598   0.7556  -0.1688 LP             1 S1                 0.0000
     44 ****         6.2594  -0.4547   1.6299 LP             1 S1                 0.0000
     45 ****         4.7969  -0.7839   2.2775 LP             1 S1                 0.0000
     46 ****        -2.6949   0.9168  -3.2170 LP             1 S1                 0.0000
     47 ****        -5.1434   0.9486  -2.8918 LP             1 S1                 0.0000
@<TRIPOS>BOND
    1    1    2 1     
    2    1   23 1     
    3    2    3 1     
    4    2   11 1     
    5    2   24 1     
    6    3    4 1     
    7    3   25 1     
    8    3   26 1     
    9    4    5 1     
   10    5   10 1     
   11    5    6 1     
   12    5   27 1     
   13    6    7 1     
   14    6   28 1     
   15    6   29 1     
   16    7    8 1     
   17    7   30 1     
   18    7   31 1     
   19    8    9 1     
   20    9   10 1     
   21    9   32 1     
   22    9   33 1     
   23   10   34 1     
   24   10   35 1     
   25   11   12 1     
   26   11   36 1     
   27   11   37 1     
   28   12   22 1     
   29   12   13 1     
   30   13   14 2     
   31   14   15 1     
   32   15   22 ar    
   33   15   16 ar    
   34   16   17 ar    
   35   16   38 1     
   36   17   18 1     
   37   17   19 ar    
   38   19   20 1     
   39   19   21 ar    
   40   21   22 ar    
   41   21   39 1     
   42    1   40 1     
   43    1   41 1     
   44    4   42 1     
   45    4   43 1     
   46    8   44 1     
   47    8   45 1     
   48   13   46 1     
   49   14   47 1     
@<TRIPOS>SUBSTRUCTURE
      1 S1             1
@<TRIPOS>SET
LONE_PAIRS      STATIC     ATOMS    <user>   **** ""
8 40 41 42 43 44 45 46 47
DONOR_HYDROGENS      STATIC     ATOMS    <user>   **** ""
1 23
ATOM$BLUE        STATIC     ATOMS    COLORGROUP SYSTEM
8 40 41 42 43 44 45 46 47
ATOM$RED        STATIC     ATOMS    COLORGROUP SYSTEM
1 23
