AV-unprocessed.smi:281|AV-procd|sdf|2104|dock8
  -GOLD-   2262021393D 1   1.00000     0.00000
 Structure written by MMmdl.
 55 59  0  0  0  0  0  0  0  0  1 V2000
  146.1063  135.9920  154.6574 C   0  0  0  0  0  0  0  0  0  0  0  0
  147.6098  135.7002  154.6812 C   0  0  1  0  0  0  0  0  0  0  0  0
  148.4382  136.9501  155.0155 C   0  0  0  0  0  0  0  0  0  0  0  0
  149.8435  136.5864  155.0972 N   0  0  0  0  0  0  0  0  0  0  0  0
  150.6814  137.6386  155.1969 C   0  0  0  0  0  0  0  0  0  0  0  0
  151.9999  137.3960  155.0001 N   0  0  0  0  0  0  0  0  0  0  0  0
  152.8829  138.3947  155.0958 C   0  0  0  0  0  0  0  0  0  0  0  0
  152.6623  139.6812  155.3767 N   0  0  0  0  0  0  0  0  0  0  0  0
  151.3350  139.9258  155.5762 C   0  0  0  0  0  0  0  0  0  0  0  0
  150.2826  138.9710  155.5002 C   0  0  0  0  0  0  0  0  0  0  0  0
  149.0633  139.5875  155.7535 N   0  0  0  0  0  0  0  0  0  0  0  0
  149.3776  140.8352  155.9714 C   0  0  0  0  0  0  0  0  0  0  0  0
  150.7220  141.1243  155.8974 N   0  0  0  0  0  0  0  0  0  0  0  0
  151.3500  142.4193  156.1088 C   0  0  0  0  0  0  0  0  0  0  0  0
  151.2305  142.9283  157.5646 C   0  0  2  0  0  0  0  0  0  0  0  0
  149.8616  143.1066  157.8841 O   0  0  0  0  0  0  0  0  0  0  0  0
  151.9641  144.2420  157.8266 C   0  0  0  0  0  0  0  0  0  0  0  0
  152.4396  144.0894  159.2644 C   0  0  0  0  0  0  0  0  0  0  0  0
  152.8169  142.7247  159.3174 O   0  0  0  0  0  0  0  0  0  0  0  0
  151.8502  141.9665  158.5984 C   0  0  0  0  0  0  0  0  0  0  0  0
  150.0919  135.5427  156.0810 C   0  0  0  0  0  0  0  0  0  0  0  0
  149.2187  134.2944  155.7992 C   0  0  2  0  0  0  0  0  0  0  0  0
  149.3201  133.3066  156.9500 C   0  0  0  0  0  0  0  0  0  0  0  0
  150.6064  132.5521  156.6342 C   0  0  0  0  0  0  0  0  0  0  0  0
  150.7116  132.5507  155.2142 O   0  0  0  0  0  0  0  0  0  0  0  0
  149.7519  133.4324  154.6314 C   0  0  1  0  0  0  0  0  0  0  0  0
  148.7029  132.5258  153.9590 C   0  0  0  0  0  0  0  0  0  0  0  0
  147.8490  134.6900  155.6638 O   0  0  0  0  0  0  0  0  0  0  0  0
  145.8650  136.7507  153.9126 H   0  0  0  0  0  0  0  0  0  0  0  0
  145.7585  136.3501  155.6270 H   0  0  0  0  0  0  0  0  0  0  0  0
  145.5405  135.0930  154.4116 H   0  0  0  0  0  0  0  0  0  0  0  0
  147.9051  135.3365  153.6971 H   0  0  0  0  0  0  0  0  0  0  0  0
  148.2963  137.7122  154.2479 H   0  0  0  0  0  0  0  0  0  0  0  0
  148.1076  137.3769  155.9632 H   0  0  0  0  0  0  0  0  0  0  0  0
  153.9145  138.1241  154.9257 H   0  0  0  0  0  0  0  0  0  0  0  0
  148.6318  141.5823  156.2005 H   0  0  0  0  0  0  0  0  0  0  0  0
  152.3989  142.3468  155.8179 H   0  0  0  0  0  0  0  0  0  0  0  0
  150.8920  143.1336  155.4230 H   0  0  0  0  0  0  0  0  0  0  0  0
  149.4688  143.6586  157.2254 H   0  0  0  0  0  0  0  0  0  0  0  0
  152.8387  144.3217  157.1798 H   0  0  0  0  0  0  0  0  0  0  0  0
  151.3516  145.1306  157.6673 H   0  0  0  0  0  0  0  0  0  0  0  0
  153.2737  144.7485  159.5065 H   0  0  0  0  0  0  0  0  0  0  0  0
  151.6293  144.2787  159.9701 H   0  0  0  0  0  0  0  0  0  0  0  0
  151.1053  141.5798  159.2960 H   0  0  0  0  0  0  0  0  0  0  0  0
  152.3362  141.1083  158.1333 H   0  0  0  0  0  0  0  0  0  0  0  0
  151.1510  135.2812  156.0804 H   0  0  0  0  0  0  0  0  0  0  0  0
  149.8615  135.9308  157.0739 H   0  0  0  0  0  0  0  0  0  0  0  0
  149.3330  133.7783  157.9331 H   0  0  0  0  0  0  0  0  0  0  0  0
  148.4766  132.6155  156.9295 H   0  0  0  0  0  0  0  0  0  0  0  0
  151.4699  133.0733  157.0491 H   0  0  0  0  0  0  0  0  0  0  0  0
  150.6008  131.5379  157.0337 H   0  0  0  0  0  0  0  0  0  0  0  0
  150.2298  134.0483  153.8688 H   0  0  0  0  0  0  0  0  0  0  0  0
  147.9251  133.0997  153.4581 H   0  0  0  0  0  0  0  0  0  0  0  0
  148.2149  131.8686  154.6784 H   0  0  0  0  0  0  0  0  0  0  0  0
  149.1713  131.8939  153.2041 H   0  0  0  0  0  0  0  0  0  0  0  0
  1  2  1  0  0  0  0
  1 29  1  0  0  0  0
  1 30  1  0  0  0  0
  1 31  1  0  0  0  0
  2 28  1  0  0  0  0
  2  3  1  0  0  0  0
  2 32  1  0  0  0  0
  3  4  1  0  0  0  0
  3 33  1  0  0  0  0
  3 34  1  0  0  0  0
  4  5  1  0  0  0  0
  4 21  1  0  0  0  0
  5 10  1  0  0  0  0
  5  6  2  0  0  0  0
  6  7  1  0  0  0  0
  7  8  2  0  0  0  0
  7 35  1  0  0  0  0
  8  9  1  0  0  0  0
  9 13  1  0  0  0  0
  9 10  2  0  0  0  0
 10 11  1  0  0  0  0
 11 12  2  0  0  0  0
 12 13  1  0  0  0  0
 12 36  1  0  0  0  0
 13 14  1  0  0  0  0
 14 15  1  0  0  0  0
 14 37  1  0  0  0  0
 14 38  1  0  0  0  0
 15 20  1  0  0  0  0
 15 16  1  0  0  0  0
 15 17  1  0  0  0  0
 16 39  1  0  0  0  0
 17 18  1  0  0  0  0
 17 40  1  0  0  0  0
 17 41  1  0  0  0  0
 18 19  1  0  0  0  0
 18 42  1  0  0  0  0
 18 43  1  0  0  0  0
 19 20  1  0  0  0  0
 20 44  1  0  0  0  0
 20 45  1  0  0  0  0
 21 22  1  0  0  0  0
 21 46  1  0  0  0  0
 21 47  1  0  0  0  0
 22 26  1  0  0  0  0
 22 23  1  0  0  0  0
 22 28  1  0  0  0  0
 23 24  1  0  0  0  0
 23 48  1  0  0  0  0
 23 49  1  0  0  0  0
 24 25  1  0  0  0  0
 24 50  1  0  0  0  0
 24 51  1  0  0  0  0
 25 26  1  0  0  0  0
 26 27  1  0  0  0  0
 26 52  1  0  0  0  0
 27 53  1  0  0  0  0
 27 54  1  0  0  0  0
 27 55  1  0  0  0  0
M  END
> <s_m_source_file>
AV-unprocessed.smi

> <i_m_source_file_index>
281

> <i_lp_mmshare_version>
43012

> <i_f3d_flags>
0

> <s_epik_input>
W0NIM11bQ0BASF0xT1tDSDJdW0NIMl1bQ0BAXTEyW0NIMl1OKFtDSDJdW0NASF0oTzIpW0NIM10pYyhuW2NIXW4zKWMoYzM0KW5bY0hdbjRbQ0gyXVtDQEBdNShbT0hdKVtDSDJdW0NIMl1PW0NIMl01

> <s_epik_cmdline>
J2VwaWtfcHl0aG9uJywgJy1waCcsICc3LjAnLCAnLXRuJywgJzgnLCAnLW1hJywgJzIwMCcsICctbWV0YWxfYmluZGluZycsICctaW1hZScsICc8aW5maWxlLm1hZT4nLCAnLW9tYWUnLCAnPG91dGZpbGUubWFlPic=

> <r_lp_tautomer_probability>
1

> <r_epik_Ionization_Penalty>
0.00571331

> <r_epik_Ionization_Penalty_Charging>
0

> <r_epik_Ionization_Penalty_Neutral>
0.00571331

> <r_epik_State_Penalty>
0.00399586

> <r_epik_Charging_Adjusted_Penalty>
0.00399586

> <i_epik_Tot_Q>
0

> <i_epik_Tot_abs_Q>
0

> <r_epik_Metal_State_Penalty>
-0

> <b_epik_Metal_Only>
0

> <s_lp_Force_Field>
OPLS_2005

> <r_lp_Energy>
57.1517

> <b_lp_Chiralities_Consistent>
1

> <s_lp_Variant>
AV-unprocessed.smi:281-4

> <Gold.Version>
5.8.1

> <Gold.Id.Protein>
6NUR|6NUR_protein|mol2

> <Gold.PLP.Fitness>
48.3999

> <Gold.PLP.PLP>
-40.2938

> <Gold.PLP.part.hbond>
-3.5416

> <Gold.PLP.part.metal>
0.0000

> <Gold.PLP.part.buried>
-4.9461

> <Gold.PLP.part.nonpolar>
-31.7560

> <Gold.PLP.part.repulsive>
0.2821

> <Gold.PLP.ligand.clash>
0.0000

> <Gold.PLP.ligand.torsion>
0.2078

> <Gold.PLP.Chemscore.Hbond>
2.7992

> <Gold.PLP.Chemscore.CHOScore>
0.0000

> <Gold.PLP.Chemscore.Metal>
0.0000

> <Gold.Chemscore.Hbonds>
donor molecule, donor type, donor heavy atom, donor atom, acceptor molecule, acceptor atom, score
      L1  H    16    39       P1  8028  1.00
      P1  H  7997  8010       L1     8  1.00
      P1  H 10752 10765       L1     6  0.80

> <Gold.PLP.Chemscore.Internal.Correction>
0.1238

> <Gold.Rescore>
     Score         DG    S(hbond)    S(metal)    S(lipo)     H(rot)  DE(clash)    DE(int)     intcor
     12.93     -18.25       2.18        0.00      92.84       2.09       2.82       2.51       ----

> <Gold.Chemscore.Fitness>
12.9277

> <Gold.Chemscore.DG>
-18.2524

> <Gold.Chemscore.ZeroCoef>
-5.4800

> <Gold.Chemscore.Hbond>
2.1757

> <Gold.Chemscore.Metal>
0.0000

> <Gold.Chemscore.Lipo>
92.8447

> <Gold.Chemscore.Internal_Hbond>
0.0000

> <Gold.Chemscore.DEClash>
2.8182

> <Gold.Chemscore.DEInternal>
2.5064

> <Gold.Chemscore.Rot>
2.0927

> <Gold.Chemscore.Internal.Correction>
   9.000000E+99

> <Gold.Chemscore.Hbonds>
donor molecule, donor type, donor heavy atom, donor atom, acceptor molecule, acceptor atom, score
      L1  H    16    39       P1  8028  0.73
      P1  H  7997  8010       L1     8  0.26
      P1  H 10752 10765       L1     6  0.56

> <Gold.Chemscore.Hbond.Weighted>
-7.2669

> <Gold.Chemscore.Metal.Weighted>
-0.0000

> <Gold.Chemscore.Lipo.Weighted>
-10.8628

> <Gold.Chemscore.Internal_Hbond.Weighted>
0.0000

> <Gold.Chemscore.DEClash.Weighted>
2.8182

> <Gold.Chemscore.DEInternal.Weighted>
2.5064

> <Gold.Chemscore.Rot.Weighted>
5.3573

> <Gold.Chemscore.Internal.Correction.Weighted>
   9.000000E+99

> <Gold.Protein.RotatedTorsions>
[ 6907 6896 6895 6894 ] final  -77.46 input  -60.11 | X-H torsion
[ 7974 7965 7964 7962 ] final -107.86 input  175.53 | X-H torsion
[ 8008 7997 7996 7995 ] final   93.09 input   59.86 | X-H torsion
[ 10167 10162 10161 10158 ] final  142.72 input  -65.29 | X-H torsion
[ 10718 10713 10712 10709 ] final   33.60 input   66.30 | X-H torsion
[ 10763 10752 10751 10750 ] final  169.66 input  -60.55 | X-H torsion
[ 11005 11000 10999 10996 ] final  151.57 input  -57.11 | X-H torsion

> <Gold.Protein.ActiveResidues>
 VAL166  LYS551  ARG553  GLY616  TRP617  ASP618  TYR619  PRO620  LYS621  CYS622 
 ASP623  PHE694  ASN695  SER759  ASP760  ASP761  ALA762  ILE779  LEU786  VAL792 
 PHE793  MET794  SER795  GLU796  ALA797  LYS798  CYS799  TRP800  GLU811  SER814 

> <Gold.Protein.RotatedAtoms>
  150.6998  134.4419  159.5295 H   0  0  0  0  0  0  0  0  0  0  0  0  # atno 6907 bound_to 6896
  152.2127  134.8483  160.0504 H   0  0  0  0  0  0  0  0  0  0  0  0  # atno 6908 bound_to 6896
  151.9363  133.3590  159.3986 H   0  0  0  0  0  0  0  0  0  0  0  0  # atno 6909 bound_to 6896
  145.2001  140.9052  143.3374 H   0  0  0  0  0  0  0  0  0  0  0  0  # atno 7974 bound_to 7965
  156.0428  140.3317  155.7262 H   0  0  0  0  0  0  0  0  0  0  0  0  # atno 8008 bound_to 7997
  155.5719  140.0628  157.2822 H   0  0  0  0  0  0  0  0  0  0  0  0  # atno 8009 bound_to 7997
  154.4400  140.1859  156.0876 H   0  0  0  0  0  0  0  0  0  0  0  0  # atno 8010 bound_to 7997
  139.4987  144.6088  151.6318 H   0  0  0  0  0  0  0  0  0  0  0  0  # atno 10167 bound_to 10162
  157.2999  130.7345  149.6660 H   0  0  0  0  0  0  0  0  0  0  0  0  # atno 10718 bound_to 10713
  154.3863  135.2753  155.2181 H   0  0  0  0  0  0  0  0  0  0  0  0  # atno 10763 bound_to 10752
  154.4266  135.5987  153.6046 H   0  0  0  0  0  0  0  0  0  0  0  0  # atno 10764 bound_to 10752
  152.9833  135.5985  154.4113 H   0  0  0  0  0  0  0  0  0  0  0  0  # atno 10765 bound_to 10752
  140.1231  134.8851  157.2100 H   0  0  0  0  0  0  0  0  0  0  0  0  # atno 11005 bound_to 11000
  144.9956  139.3647  143.6193 LP  0  0  0  0  0  0  0  0  0  0  0  0  # atno 17320 bound_to 7965
  146.3419  139.9158  142.8774 LP  0  0  0  0  0  0  0  0  0  0  0  0  # atno 17321 bound_to 7965
  140.5757  144.0032  150.6240 LP  0  0  0  0  0  0  0  0  0  0  0  0  # atno 17342 bound_to 10162
  140.3164  143.3165  152.0827 LP  0  0  0  0  0  0  0  0  0  0  0  0  # atno 17343 bound_to 10162
  155.9671  130.4283  150.4782 LP  0  0  0  0  0  0  0  0  0  0  0  0  # atno 17370 bound_to 10713
  157.2761  131.0597  151.2228 LP  0  0  0  0  0  0  0  0  0  0  0  0  # atno 17371 bound_to 10713
  140.2939  134.3209  155.7307 LP  0  0  0  0  0  0  0  0  0  0  0  0  # atno 17394 bound_to 11000
  141.2156  133.7551  156.9543 LP  0  0  0  0  0  0  0  0  0  0  0  0  # atno 17395 bound_to 11000

$$$$
