AV-unprocessed.smi:400|AV-procd|sdf|2492|dock1
  -GOLD-   2262022433D 1   1.00000     0.00000
 Structure written by MMmdl.
 40 41  0  0  0  0  0  0  0  0  1 V2000
  155.2041  141.5811  169.7723 C   0  0  0  0  0  0  0  0  0  0  0  0
  156.1711  140.9011  168.7903 C   0  0  0  0  0  0  0  0  0  0  0  0
  156.7151  141.8347  167.6859 C   0  0  2  0  0  0  0  0  0  0  0  0
  157.2039  143.1656  168.2833 C   0  0  0  0  0  0  0  0  0  0  0  0
  155.6691  142.0997  166.5915 C   0  0  0  0  0  0  0  0  0  0  0  0
  154.6547  142.7435  166.8624 O   0  0  0  0  0  0  0  0  0  0  0  0
  155.9475  141.5884  165.3771 N   0  0  0  0  0  0  0  0  0  0  0  0
  155.1727  141.6668  164.1896 C   0  0  0  0  0  0  0  0  0  0  0  0
  154.2616  142.7426  164.1383 C   0  0  0  0  0  0  0  0  0  0  0  0
  153.4481  142.9103  163.0014 C   0  0  0  0  0  0  0  0  0  0  0  0
  153.5580  141.9991  161.9240 C   0  0  0  0  0  0  0  0  0  0  0  0
  152.7764  142.1024  160.7526 N   0  0  0  0  0  0  0  0  0  0  0  0
  152.7346  143.3863  160.0584 C   0  0  0  0  0  0  0  0  0  0  0  0
  151.6086  143.3925  159.0101 C   0  0  0  0  0  0  0  0  0  0  0  0
  151.7731  142.2914  158.1228 O   0  0  0  0  0  0  0  0  0  0  0  0
  151.6960  141.0453  158.8073 C   0  0  0  0  0  0  0  0  0  0  0  0
  152.8219  140.9528  159.8520 C   0  0  0  0  0  0  0  0  0  0  0  0
  154.4963  140.9520  162.0745 C   0  0  0  0  0  0  0  0  0  0  0  0
  155.2758  140.7891  163.1636 N   0  0  0  0  0  0  0  0  0  0  0  0
  154.8099  140.8584  170.4869 H   0  0  0  0  0  0  0  0  0  0  0  0
  154.3570  142.0231  169.2473 H   0  0  0  0  0  0  0  0  0  0  0  0
  155.6952  142.3696  170.3428 H   0  0  0  0  0  0  0  0  0  0  0  0
  156.9977  140.4577  169.3474 H   0  0  0  0  0  0  0  0  0  0  0  0
  155.6491  140.0663  168.3212 H   0  0  0  0  0  0  0  0  0  0  0  0
  157.5779  141.3474  167.2282 H   0  0  0  0  0  0  0  0  0  0  0  0
  157.5733  143.8381  167.5081 H   0  0  0  0  0  0  0  0  0  0  0  0
  158.0208  143.0004  168.9863 H   0  0  0  0  0  0  0  0  0  0  0  0
  156.4068  143.6817  168.8202 H   0  0  0  0  0  0  0  0  0  0  0  0
  156.8161  141.0806  165.2966 H   0  0  0  0  0  0  0  0  0  0  0  0
  154.1836  143.4392  164.9604 H   0  0  0  0  0  0  0  0  0  0  0  0
  152.7615  143.7429  162.9752 H   0  0  0  0  0  0  0  0  0  0  0  0
  152.5665  144.1953  160.7703 H   0  0  0  0  0  0  0  0  0  0  0  0
  153.6946  143.5673  159.5732 H   0  0  0  0  0  0  0  0  0  0  0  0
  150.6299  143.3436  159.4902 H   0  0  0  0  0  0  0  0  0  0  0  0
  151.6352  144.3187  158.4361 H   0  0  0  0  0  0  0  0  0  0  0  0
  150.7181  140.9372  159.2795 H   0  0  0  0  0  0  0  0  0  0  0  0
  151.7895  140.2363  158.0827 H   0  0  0  0  0  0  0  0  0  0  0  0
  153.7916  140.9359  159.3529 H   0  0  0  0  0  0  0  0  0  0  0  0
  152.7274  140.0112  160.3910 H   0  0  0  0  0  0  0  0  0  0  0  0
  154.6221  140.2017  161.3083 H   0  0  0  0  0  0  0  0  0  0  0  0
  1  2  1  0  0  0  0
  1 20  1  0  0  0  0
  1 21  1  0  0  0  0
  1 22  1  0  0  0  0
  2  3  1  0  0  0  0
  2 23  1  0  0  0  0
  2 24  1  0  0  0  0
  3  4  1  0  0  0  0
  3  5  1  0  0  0  0
  3 25  1  0  0  0  0
  4 26  1  0  0  0  0
  4 27  1  0  0  0  0
  4 28  1  0  0  0  0
  5  6  2  0  0  0  0
  5  7  1  0  0  0  0
  7  8  1  0  0  0  0
  7 29  1  0  0  0  0
  8 19  1  0  0  0  0
  8  9  2  0  0  0  0
  9 10  1  0  0  0  0
  9 30  1  0  0  0  0
 10 11  2  0  0  0  0
 10 31  1  0  0  0  0
 11 12  1  0  0  0  0
 11 18  1  0  0  0  0
 12 17  1  0  0  0  0
 12 13  1  0  0  0  0
 13 14  1  0  0  0  0
 13 32  1  0  0  0  0
 13 33  1  0  0  0  0
 14 15  1  0  0  0  0
 14 34  1  0  0  0  0
 14 35  1  0  0  0  0
 15 16  1  0  0  0  0
 16 17  1  0  0  0  0
 16 36  1  0  0  0  0
 16 37  1  0  0  0  0
 17 38  1  0  0  0  0
 17 39  1  0  0  0  0
 18 19  2  0  0  0  0
 18 40  1  0  0  0  0
M  END
> <s_m_source_file>
AV-unprocessed.smi

> <i_m_source_file_index>
400

> <i_lp_mmshare_version>
43012

> <i_f3d_flags>
0

> <s_epik_input>
W0NIM11bQ0gyXVtDQEhdKFtDSDNdKUMoPU8pW05IXWMxW2NIXVtjSF1jKFtjSF1uMSlOMltDSDJdW0NIMl1PW0NIMl1bQ0gyXTI=

> <s_epik_cmdline>
J2VwaWtfcHl0aG9uJywgJy1waCcsICc3LjAnLCAnLXRuJywgJzgnLCAnLW1hJywgJzIwMCcsICctbWV0YWxfYmluZGluZycsICctaW1hZScsICc8aW5maWxlLm1hZT4nLCAnLW9tYWUnLCAnPG91dGZpbGUubWFlPic=

> <r_lp_tautomer_probability>
1

> <r_epik_Ionization_Penalty>
0.00393323

> <r_epik_Ionization_Penalty_Charging>
0

> <r_epik_Ionization_Penalty_Neutral>
0.00393323

> <r_epik_State_Penalty>
0.00357844

> <r_epik_Charging_Adjusted_Penalty>
0.00357844

> <i_epik_Tot_Q>
0

> <i_epik_Tot_abs_Q>
0

> <r_epik_Metal_State_Penalty>
-0

> <b_epik_Metal_Only>
0

> <s_lp_Force_Field>
OPLS_2005

> <r_lp_Energy>
25.3319

> <b_lp_Chiralities_Consistent>
1

> <s_lp_Variant>
AV-unprocessed.smi:400-1

> <Gold.Version>
5.8.1

> <Gold.Id.Protein>
6NUR|6NUR_protein|mol2

> <Gold.PLP.Fitness>
36.4936

> <Gold.PLP.PLP>
-37.0223

> <Gold.PLP.part.hbond>
-2.0000

> <Gold.PLP.part.metal>
0.0000

> <Gold.PLP.part.buried>
-2.8330

> <Gold.PLP.part.nonpolar>
-31.0611

> <Gold.PLP.part.repulsive>
0.1519

> <Gold.PLP.ligand.clash>
0.0000

> <Gold.PLP.ligand.torsion>
0.4658

> <Gold.PLP.Chemscore.Hbond>
0.0000

> <Gold.PLP.Chemscore.CHOScore>
0.0000

> <Gold.PLP.Chemscore.Metal>
0.0000

> <Gold.PLP.Chemscore.Internal.Correction>
0.4029

> <Gold.Rescore>
     Score         DG    S(hbond)    S(metal)    S(lipo)     H(rot)  DE(clash)    DE(int)     intcor
     11.20     -13.28       0.00        0.00      95.19       1.30       0.04       2.04       ----

> <Gold.Chemscore.Fitness>
11.1971

> <Gold.Chemscore.DG>
-13.2789

> <Gold.Chemscore.ZeroCoef>
-5.4800

> <Gold.Chemscore.Hbond>
0.0000

> <Gold.Chemscore.Metal>
0.0000

> <Gold.Chemscore.Lipo>
95.1921

> <Gold.Chemscore.Internal_Hbond>
0.0000

> <Gold.Chemscore.DEClash>
0.0444

> <Gold.Chemscore.DEInternal>
2.0375

> <Gold.Chemscore.Rot>
1.3041

> <Gold.Chemscore.Internal.Correction>
   9.000000E+99

> <Gold.Chemscore.Hbond.Weighted>
-0.0000

> <Gold.Chemscore.Metal.Weighted>
-0.0000

> <Gold.Chemscore.Lipo.Weighted>
-11.1375

> <Gold.Chemscore.Internal_Hbond.Weighted>
0.0000

> <Gold.Chemscore.DEClash.Weighted>
0.0444

> <Gold.Chemscore.DEInternal.Weighted>
2.0375

> <Gold.Chemscore.Rot.Weighted>
3.3385

> <Gold.Chemscore.Internal.Correction.Weighted>
   9.000000E+99

> <Gold.Protein.RotatedTorsions>
[ 6907 6896 6895 6894 ] final  -95.20 input  -60.11 | X-H torsion
[ 7974 7965 7964 7962 ] final -139.71 input  175.53 | X-H torsion
[ 8008 7997 7996 7995 ] final   14.78 input   59.86 | X-H torsion
[ 10167 10162 10161 10158 ] final  -47.31 input  -65.29 | X-H torsion
[ 10718 10713 10712 10709 ] final   87.05 input   66.30 | X-H torsion
[ 10763 10752 10751 10750 ] final  -55.36 input  -60.55 | X-H torsion
[ 11005 11000 10999 10996 ] final -120.51 input  -57.11 | X-H torsion

> <Gold.Protein.ActiveResidues>
 VAL166  LYS551  ARG553  GLY616  TRP617  ASP618  TYR619  PRO620  LYS621  CYS622 
 ASP623  PHE694  ASN695  SER759  ASP760  ASP761  ALA762  ILE779  LEU786  VAL792 
 PHE793  MET794  SER795  GLU796  ALA797  LYS798  CYS799  TRP800  GLU811  SER814 

> <Gold.Protein.RotatedAtoms>
  150.6958  134.1695  159.4206 H   0  0  0  0  0  0  0  0  0  0  0  0  # atno 6907 bound_to 6896
  151.9673  135.0092  160.0560 H   0  0  0  0  0  0  0  0  0  0  0  0  # atno 6908 bound_to 6896
  152.1873  133.4713  159.5026 H   0  0  0  0  0  0  0  0  0  0  0  0  # atno 6909 bound_to 6896
  144.8655  140.6286  143.5301 H   0  0  0  0  0  0  0  0  0  0  0  0  # atno 7974 bound_to 7965
  154.8534  140.2933  155.5584 H   0  0  0  0  0  0  0  0  0  0  0  0  # atno 8008 bound_to 7997
  156.3017  140.2492  156.3428 H   0  0  0  0  0  0  0  0  0  0  0  0  # atno 8009 bound_to 7997
  154.8997  140.0392  157.1875 H   0  0  0  0  0  0  0  0  0  0  0  0  # atno 8010 bound_to 7997
  140.6780  143.2790  151.3908 H   0  0  0  0  0  0  0  0  0  0  0  0  # atno 10167 bound_to 10162
  157.6936  131.0240  150.3065 H   0  0  0  0  0  0  0  0  0  0  0  0  # atno 10718 bound_to 10713
  154.1895  135.6429  153.5056 H   0  0  0  0  0  0  0  0  0  0  0  0  # atno 10763 bound_to 10752
  153.0038  135.5425  154.6430 H   0  0  0  0  0  0  0  0  0  0  0  0  # atno 10764 bound_to 10752
  154.5815  135.2925  155.0701 H   0  0  0  0  0  0  0  0  0  0  0  0  # atno 10765 bound_to 10752
  141.0138  134.0225  157.3377 H   0  0  0  0  0  0  0  0  0  0  0  0  # atno 11005 bound_to 11000
  145.4231  139.1561  143.4063 LP  0  0  0  0  0  0  0  0  0  0  0  0  # atno 17320 bound_to 7965
  146.2892  140.4342  142.8746 LP  0  0  0  0  0  0  0  0  0  0  0  0  # atno 17321 bound_to 7965
  139.6085  144.1148  152.2274 LP  0  0  0  0  0  0  0  0  0  0  0  0  # atno 17342 bound_to 10162
  140.0554  144.5899  150.7303 LP  0  0  0  0  0  0  0  0  0  0  0  0  # atno 17343 bound_to 10162
  156.3573  130.3841  149.7280 LP  0  0  0  0  0  0  0  0  0  0  0  0  # atno 17370 bound_to 10713
  156.4738  130.8009  151.3026 LP  0  0  0  0  0  0  0  0  0  0  0  0  # atno 17371 bound_to 10713
  139.9105  135.0189  156.7672 LP  0  0  0  0  0  0  0  0  0  0  0  0  # atno 17394 bound_to 11000
  140.6688  133.9578  155.7845 LP  0  0  0  0  0  0  0  0  0  0  0  0  # atno 17395 bound_to 11000

$$$$
