AV-unprocessed.smi:763|AV-procd|sdf|3636|dock3
  -GOLD-   22720 1 33D 1   1.00000     0.00000
 Structure written by MMmdl.
 44 45  0  0  0  0  0  0  0  0  1 V2000
  150.9011  145.4342  159.9086 C   0  0  0  0  0  0  0  0  0  0  0  0
  152.0723  145.7950  159.1978 O   0  0  0  0  0  0  0  0  0  0  0  0
  152.6165  144.7111  158.4639 C   0  0  0  0  0  0  0  0  0  0  0  0
  153.1073  143.6363  159.4466 C   0  0  0  0  0  0  0  0  0  0  0  0
  152.6766  142.3316  159.0575 O   0  0  0  0  0  0  0  0  0  0  0  0
  153.2180  141.2134  159.6653 C   0  0  0  0  0  0  0  0  0  0  0  0
  153.7788  141.3456  160.8938 N   0  0  0  0  0  0  0  0  0  0  0  0
  154.2994  140.2508  161.4850 C   0  0  0  0  0  0  0  0  0  0  0  0
  154.2842  138.9749  160.8923 C   0  0  0  0  0  0  0  0  0  0  0  0
  153.6998  138.8358  159.6202 C   0  0  0  0  0  0  0  0  0  0  0  0
  153.1537  139.9744  158.9869 C   0  0  0  0  0  0  0  0  0  0  0  0
  152.5539  139.9111  157.7232 N   0  0  0  0  0  0  0  0  0  0  0  0
  152.3343  138.5482  156.6703 S   0  0  0  0  0  0  0  0  0  0  0  0
  153.6891  138.0151  156.4646 O   0  0  0  0  0  0  0  0  0  0  0  0
  151.2967  137.7164  157.3000 O   0  0  0  0  0  0  0  0  0  0  0  0
  151.6775  139.3447  155.1095 C   0  0  2  0  0  0  0  0  0  0  0  0
  150.7560  140.5354  155.4456 C   0  0  0  0  0  0  0  0  0  0  0  0
  149.4083  140.0746  156.0285 C   0  0  0  0  0  0  0  0  0  0  0  0
  148.6883  139.1161  155.0660 C   0  0  0  0  0  0  0  0  0  0  0  0
  149.5715  137.9109  154.7039 C   0  0  0  0  0  0  0  0  0  0  0  0
  150.9398  138.3686  154.1589 C   0  0  2  0  0  0  0  0  0  0  0  0
  151.7466  137.2547  153.8346 O   0  0  0  0  0  0  0  0  0  0  0  0
  150.5253  146.2974  160.4576 H   0  0  0  0  0  0  0  0  0  0  0  0
  151.1051  144.6405  160.6284 H   0  0  0  0  0  0  0  0  0  0  0  0
  150.1156  145.0988  159.2302 H   0  0  0  0  0  0  0  0  0  0  0  0
  151.8809  144.3088  157.7667 H   0  0  0  0  0  0  0  0  0  0  0  0
  153.4607  145.0686  157.8723 H   0  0  0  0  0  0  0  0  0  0  0  0
  154.1916  143.6763  159.5606 H   0  0  0  0  0  0  0  0  0  0  0  0
  152.7043  143.8433  160.4381 H   0  0  0  0  0  0  0  0  0  0  0  0
  154.7389  140.3960  162.4608 H   0  0  0  0  0  0  0  0  0  0  0  0
  154.7103  138.1230  161.4011 H   0  0  0  0  0  0  0  0  0  0  0  0
  153.6759  137.8634  159.1533 H   0  0  0  0  0  0  0  0  0  0  0  0
  152.1623  140.7826  157.3953 H   0  0  0  0  0  0  0  0  0  0  0  0
  152.5443  139.7441  154.5835 H   0  0  0  0  0  0  0  0  0  0  0  0
  151.2494  141.2208  156.1348 H   0  0  0  0  0  0  0  0  0  0  0  0
  150.5707  141.1112  154.5379 H   0  0  0  0  0  0  0  0  0  0  0  0
  149.5631  139.5830  156.9896 H   0  0  0  0  0  0  0  0  0  0  0  0
  148.7765  140.9409  156.2262 H   0  0  0  0  0  0  0  0  0  0  0  0
  147.7546  138.7718  155.5116 H   0  0  0  0  0  0  0  0  0  0  0  0
  148.4157  139.6529  154.1564 H   0  0  0  0  0  0  0  0  0  0  0  0
  149.6895  137.2752  155.5799 H   0  0  0  0  0  0  0  0  0  0  0  0
  149.0627  137.2992  153.9578 H   0  0  0  0  0  0  0  0  0  0  0  0
  150.7599  138.8935  153.2197 H   0  0  0  0  0  0  0  0  0  0  0  0
  151.6587  137.0759  152.9110 H   0  0  0  0  0  0  0  0  0  0  0  0
  1  2  1  0  0  0  0
  1 23  1  0  0  0  0
  1 24  1  0  0  0  0
  1 25  1  0  0  0  0
  2  3  1  0  0  0  0
  3  4  1  0  0  0  0
  3 26  1  0  0  0  0
  3 27  1  0  0  0  0
  4  5  1  0  0  0  0
  4 28  1  0  0  0  0
  4 29  1  0  0  0  0
  5  6  1  0  0  0  0
  6 11  1  0  0  0  0
  6  7  2  0  0  0  0
  7  8  1  0  0  0  0
  8  9  2  0  0  0  0
  8 30  1  0  0  0  0
  9 10  1  0  0  0  0
  9 31  1  0  0  0  0
 10 11  2  0  0  0  0
 10 32  1  0  0  0  0
 11 12  1  0  0  0  0
 12 13  1  0  0  0  0
 12 33  1  0  0  0  0
 13 14  2  0  0  0  0
 13 15  2  0  0  0  0
 13 16  1  0  0  0  0
 16 21  1  0  0  0  0
 16 17  1  0  0  0  0
 16 34  1  0  0  0  0
 17 18  1  0  0  0  0
 17 35  1  0  0  0  0
 17 36  1  0  0  0  0
 18 19  1  0  0  0  0
 18 37  1  0  0  0  0
 18 38  1  0  0  0  0
 19 20  1  0  0  0  0
 19 39  1  0  0  0  0
 19 40  1  0  0  0  0
 20 21  1  0  0  0  0
 20 41  1  0  0  0  0
 20 42  1  0  0  0  0
 21 22  1  0  0  0  0
 21 43  1  0  0  0  0
 22 44  1  0  0  0  0
M  END
> <s_m_source_file>
AV-unprocessed.smi

> <i_m_source_file_index>
763

> <i_lp_mmshare_version>
43012

> <i_f3d_flags>
0

> <s_epik_input>
W0NIM11PW0NIMl1bQ0gyXU9jMW5bY0hdW2NIXVtjSF1jMVtOSF1TKD1PKSg9TylbQ0BASF0yW0NIMl1bQ0gyXVtDSDJdW0NIMl1bQ0BIXTJbT0hd

> <s_epik_cmdline>
J2VwaWtfcHl0aG9uJywgJy1waCcsICc3LjAnLCAnLXRuJywgJzgnLCAnLW1hJywgJzIwMCcsICctbWV0YWxfYmluZGluZycsICctaW1hZScsICc8aW5maWxlLm1hZT4nLCAnLW9tYWUnLCAnPG91dGZpbGUubWFlPic=

> <r_epik_Ionization_Penalty>
0.124685

> <r_epik_Ionization_Penalty_Charging>
0

> <r_epik_Ionization_Penalty_Neutral>
0.124685

> <r_epik_State_Penalty>
0.114154

> <r_epik_Charging_Adjusted_Penalty>
0.114154

> <i_epik_Tot_Q>
0

> <i_epik_Tot_abs_Q>
0

> <r_epik_Metal_State_Penalty>
0.443785

> <b_epik_Metal_Only>
0

> <s_lp_Force_Field>
OPLS_2005

> <r_lp_Energy>
4.78457

> <b_lp_Chiralities_Consistent>
1

> <s_lp_Variant>
AV-unprocessed.smi:763-3

> <Gold.Version>
5.8.1

> <Gold.Id.Protein>
6NUR|6NUR_protein|mol2

> <Gold.PLP.Fitness>
43.3986

> <Gold.PLP.PLP>
-40.5324

> <Gold.PLP.part.hbond>
-4.0000

> <Gold.PLP.part.metal>
0.0000

> <Gold.PLP.part.buried>
-5.8348

> <Gold.PLP.part.nonpolar>
-31.2609

> <Gold.PLP.part.repulsive>
0.6305

> <Gold.PLP.ligand.clash>
0.0000

> <Gold.PLP.ligand.torsion>
2.1471

> <Gold.PLP.Chemscore.Hbond>
1.9424

> <Gold.PLP.Chemscore.CHOScore>
0.0000

> <Gold.PLP.Chemscore.Metal>
0.0000

> <Gold.Chemscore.Hbonds>
donor molecule, donor type, donor heavy atom, donor atom, acceptor molecule, acceptor atom, score
      L1  H    22    44       P1  7949  1.00
      P1  H 10752 10763       L1    22  0.86

> <Gold.PLP.Chemscore.Internal.Correction>
1.3331

> <Gold.Rescore>
     Score         DG    S(hbond)    S(metal)    S(lipo)     H(rot)  DE(clash)    DE(int)     intcor
     12.90     -15.64       1.44        0.00      98.31       2.41       0.53       2.20       ----

> <Gold.Chemscore.Fitness>
12.9028

> <Gold.Chemscore.DG>
-15.6375

> <Gold.Chemscore.ZeroCoef>
-5.4800

> <Gold.Chemscore.Hbond>
1.4409

> <Gold.Chemscore.Metal>
0.0000

> <Gold.Chemscore.Lipo>
98.3098

> <Gold.Chemscore.Internal_Hbond>
0.0000

> <Gold.Chemscore.DEClash>
0.5314

> <Gold.Chemscore.DEInternal>
2.2032

> <Gold.Chemscore.Rot>
2.4052

> <Gold.Chemscore.Internal.Correction>
   9.000000E+99

> <Gold.Chemscore.Hbonds>
donor molecule, donor type, donor heavy atom, donor atom, acceptor molecule, acceptor atom, score
      L1  H    22    44       P1  7949  0.95
      P1  H 10752 10763       L1    22  0.15

> <Gold.Chemscore.Hbond.Weighted>
-4.8127

> <Gold.Chemscore.Metal.Weighted>
-0.0000

> <Gold.Chemscore.Lipo.Weighted>
-11.5023

> <Gold.Chemscore.Internal_Hbond.Weighted>
0.0000

> <Gold.Chemscore.DEClash.Weighted>
0.5314

> <Gold.Chemscore.DEInternal.Weighted>
2.2032

> <Gold.Chemscore.Rot.Weighted>
6.1574

> <Gold.Chemscore.Internal.Correction.Weighted>
   9.000000E+99

> <Gold.Protein.RotatedTorsions>
[ 6907 6896 6895 6894 ] final  -45.21 input  -60.11 | X-H torsion
[ 7974 7965 7964 7962 ] final  -83.53 input  175.53 | X-H torsion
[ 8008 7997 7996 7995 ] final -118.27 input   59.86 | X-H torsion
[ 10167 10162 10161 10158 ] final   58.17 input  -65.29 | X-H torsion
[ 10718 10713 10712 10709 ] final   -9.48 input   66.30 | X-H torsion
[ 10763 10752 10751 10750 ] final   44.28 input  -60.55 | X-H torsion
[ 11005 11000 10999 10996 ] final  171.45 input  -57.11 | X-H torsion

> <Gold.Protein.ActiveResidues>
 VAL166  LYS551  ARG553  GLY616  TRP617  ASP618  TYR619  PRO620  LYS621  CYS622 
 ASP623  PHE694  ASN695  SER759  ASP760  ASP761  ALA762  ILE779  LEU786  VAL792 
 PHE793  MET794  SER795  GLU796  ALA797  LYS798  CYS799  TRP800  GLU811  SER814 

> <Gold.Protein.RotatedAtoms>
  150.9244  134.8661  159.7510 H   0  0  0  0  0  0  0  0  0  0  0  0  # atno 6907 bound_to 6896
  152.5008  134.4170  159.9478 H   0  0  0  0  0  0  0  0  0  0  0  0  # atno 6908 bound_to 6896
  151.4202  133.3661  159.2790 H   0  0  0  0  0  0  0  0  0  0  0  0  # atno 6909 bound_to 6896
  145.5188  140.9533  143.1666 H   0  0  0  0  0  0  0  0  0  0  0  0  # atno 7974 bound_to 7965
  155.0969  140.0395  157.2685 H   0  0  0  0  0  0  0  0  0  0  0  0  # atno 8008 bound_to 7997
  154.6788  140.2628  155.6905 H   0  0  0  0  0  0  0  0  0  0  0  0  # atno 8009 bound_to 7997
  156.2687  140.2783  156.1324 H   0  0  0  0  0  0  0  0  0  0  0  0  # atno 8010 bound_to 7997
  140.1901  144.4094  150.6575 H   0  0  0  0  0  0  0  0  0  0  0  0  # atno 10167 bound_to 10162
  156.6873  130.5055  149.5953 H   0  0  0  0  0  0  0  0  0  0  0  0  # atno 10718 bound_to 10713
  152.9844  135.6075  154.3248 H   0  0  0  0  0  0  0  0  0  0  0  0  # atno 10763 bound_to 10752
  154.2955  135.2774  155.2637 H   0  0  0  0  0  0  0  0  0  0  0  0  # atno 10764 bound_to 10752
  154.4913  135.5891  153.6517 H   0  0  0  0  0  0  0  0  0  0  0  0  # atno 10765 bound_to 10752
  140.3192  134.7452  157.4051 H   0  0  0  0  0  0  0  0  0  0  0  0  # atno 11005 bound_to 11000
  144.7687  139.6784  143.7204 LP  0  0  0  0  0  0  0  0  0  0  0  0  # atno 17320 bound_to 7965
  146.2119  139.5482  142.9675 LP  0  0  0  0  0  0  0  0  0  0  0  0  # atno 17321 bound_to 7965
  140.6461  143.2214  151.6182 LP  0  0  0  0  0  0  0  0  0  0  0  0  # atno 17342 bound_to 10162
  139.5259  144.3060  152.1033 LP  0  0  0  0  0  0  0  0  0  0  0  0  # atno 17343 bound_to 10162
  156.1823  130.6507  151.0966 LP  0  0  0  0  0  0  0  0  0  0  0  0  # atno 17370 bound_to 10713
  157.7022  131.0771  150.6785 LP  0  0  0  0  0  0  0  0  0  0  0  0  # atno 17371 bound_to 10713
  140.0957  134.5541  155.8401 LP  0  0  0  0  0  0  0  0  0  0  0  0  # atno 17394 bound_to 11000
  141.2090  133.6680  156.6413 LP  0  0  0  0  0  0  0  0  0  0  0  0  # atno 17395 bound_to 11000

$$$$
