AV-unprocessed.smi:2109|AV-procd|sdf|8606|dock9
  -GOLD-   2272011343D 1   1.00000     0.00000
 Structure written by MMmdl.
 45 46  0  0  0  0  0  0  0  0  1 V2000
  145.9559  137.2051  150.4121 C   0  0  0  0  0  0  0  0  0  0  0  0
  145.6806  136.4153  151.7031 C   0  0  0  0  0  0  0  0  0  0  0  0
  144.3082  135.7289  151.6386 C   0  0  0  0  0  0  0  0  0  0  0  0
  145.7902  137.2948  152.9676 C   0  0  0  0  0  0  0  0  0  0  0  0
  147.0259  138.0700  153.0186 N   0  0  0  0  0  0  0  0  0  0  0  0
  147.2083  139.1777  153.7511 C   0  0  0  0  0  0  0  0  0  0  0  0
  146.3544  139.6623  154.4940 O   0  0  0  0  0  0  0  0  0  0  0  0
  148.4313  139.6963  153.5757 N   0  0  0  0  0  0  0  0  0  0  0  0
  148.9289  140.8870  154.2545 C   0  0  0  0  0  0  0  0  0  0  0  0
  150.1027  140.5966  155.1738 C   0  0  0  0  0  0  0  0  0  0  0  0
  150.8124  139.3848  155.0702 C   0  0  0  0  0  0  0  0  0  0  0  0
  151.8951  139.1696  155.9423 C   0  0  0  0  0  0  0  0  0  0  0  0
  152.2796  140.0613  156.8795 N   0  0  0  0  0  0  0  0  0  0  0  0
  151.5953  141.2263  156.9978 C   0  0  0  0  0  0  0  0  0  0  0  0
  151.9986  142.1429  157.9934 N   0  0  0  0  0  0  0  0  0  0  0  0
  152.0221  141.6791  159.3798 C   0  0  0  0  0  0  0  0  0  0  0  0
  152.7369  142.7034  160.2771 C   0  0  0  0  0  0  0  0  0  0  0  0
  152.1189  143.9780  160.1359 O   0  0  0  0  0  0  0  0  0  0  0  0
  152.2055  144.4624  158.8001 C   0  0  0  0  0  0  0  0  0  0  0  0
  151.4757  143.4997  157.8477 C   0  0  0  0  0  0  0  0  0  0  0  0
  150.5018  141.5314  156.1523 C   0  0  0  0  0  0  0  0  0  0  0  0
  145.2503  138.0279  150.2928 H   0  0  0  0  0  0  0  0  0  0  0  0
  145.8681  136.5628  149.5355 H   0  0  0  0  0  0  0  0  0  0  0  0
  146.9623  137.6239  150.4048 H   0  0  0  0  0  0  0  0  0  0  0  0
  146.4295  135.6253  151.7710 H   0  0  0  0  0  0  0  0  0  0  0  0
  143.5017  136.4596  151.5671 H   0  0  0  0  0  0  0  0  0  0  0  0
  144.1302  135.1222  152.5270 H   0  0  0  0  0  0  0  0  0  0  0  0
  144.2383  135.0695  150.7730 H   0  0  0  0  0  0  0  0  0  0  0  0
  144.9539  137.9935  153.0071 H   0  0  0  0  0  0  0  0  0  0  0  0
  145.7150  136.6782  153.8651 H   0  0  0  0  0  0  0  0  0  0  0  0
  147.7899  137.7470  152.4432 H   0  0  0  0  0  0  0  0  0  0  0  0
  149.0659  139.2297  152.9445 H   0  0  0  0  0  0  0  0  0  0  0  0
  149.2543  141.6006  153.4973 H   0  0  0  0  0  0  0  0  0  0  0  0
  148.1224  141.3722  154.8073 H   0  0  0  0  0  0  0  0  0  0  0  0
  150.5431  138.6394  154.3364 H   0  0  0  0  0  0  0  0  0  0  0  0
  152.4672  138.2551  155.8878 H   0  0  0  0  0  0  0  0  0  0  0  0
  150.9994  141.5282  159.7283 H   0  0  0  0  0  0  0  0  0  0  0  0
  152.5360  140.7193  159.4478 H   0  0  0  0  0  0  0  0  0  0  0  0
  152.6774  142.3938  161.3205 H   0  0  0  0  0  0  0  0  0  0  0  0
  153.7964  142.7699  160.0246 H   0  0  0  0  0  0  0  0  0  0  0  0
  151.7515  145.4525  158.7524 H   0  0  0  0  0  0  0  0  0  0  0  0
  153.2512  144.5780  158.5099 H   0  0  0  0  0  0  0  0  0  0  0  0
  151.5802  143.8663  156.8276 H   0  0  0  0  0  0  0  0  0  0  0  0
  150.4084  143.4906  158.0730 H   0  0  0  0  0  0  0  0  0  0  0  0
  149.9758  142.4705  156.2389 H   0  0  0  0  0  0  0  0  0  0  0  0
  1  2  1  0  0  0  0
  1 22  1  0  0  0  0
  1 23  1  0  0  0  0
  1 24  1  0  0  0  0
  2  3  1  0  0  0  0
  2  4  1  0  0  0  0
  2 25  1  0  0  0  0
  3 26  1  0  0  0  0
  3 27  1  0  0  0  0
  3 28  1  0  0  0  0
  4  5  1  0  0  0  0
  4 29  1  0  0  0  0
  4 30  1  0  0  0  0
  5  6  1  0  0  0  0
  5 31  1  0  0  0  0
  6  7  2  0  0  0  0
  6  8  1  0  0  0  0
  8  9  1  0  0  0  0
  8 32  1  0  0  0  0
  9 10  1  0  0  0  0
  9 33  1  0  0  0  0
  9 34  1  0  0  0  0
 10 21  1  0  0  0  0
 10 11  2  0  0  0  0
 11 12  1  0  0  0  0
 11 35  1  0  0  0  0
 12 13  2  0  0  0  0
 12 36  1  0  0  0  0
 13 14  1  0  0  0  0
 14 15  1  0  0  0  0
 14 21  2  0  0  0  0
 15 20  1  0  0  0  0
 15 16  1  0  0  0  0
 16 17  1  0  0  0  0
 16 37  1  0  0  0  0
 16 38  1  0  0  0  0
 17 18  1  0  0  0  0
 17 39  1  0  0  0  0
 17 40  1  0  0  0  0
 18 19  1  0  0  0  0
 19 20  1  0  0  0  0
 19 41  1  0  0  0  0
 19 42  1  0  0  0  0
 20 43  1  0  0  0  0
 20 44  1  0  0  0  0
 21 45  1  0  0  0  0
M  END
> <s_m_source_file>
AV-unprocessed.smi

> <i_m_source_file_index>
2109

> <i_lp_mmshare_version>
43012

> <i_f3d_flags>
0

> <s_epik_input>
W0NIM11bQ0hdKFtDSDNdKVtDSDJdW05IXUMoPU8pW05IXVtDSDJdYzFbY0hdW2NIXW5jKFtjSF0xKU4yW0NIMl1bQ0gyXU9bQ0gyXVtDSDJdMg==

> <s_epik_cmdline>
J2VwaWtfcHl0aG9uJywgJy1waCcsICc3LjAnLCAnLXRuJywgJzgnLCAnLW1hJywgJzIwMCcsICctbWV0YWxfYmluZGluZycsICctaW1hZScsICc8aW5maWxlLm1hZT4nLCAnLW9tYWUnLCAnPG91dGZpbGUubWFlPic=

> <r_lp_tautomer_probability>
1

> <r_epik_Ionization_Penalty>
0.012582

> <r_epik_Ionization_Penalty_Charging>
0

> <r_epik_Ionization_Penalty_Neutral>
0.012582

> <r_epik_State_Penalty>
0.00970236

> <r_epik_Charging_Adjusted_Penalty>
0.00970236

> <i_epik_Tot_Q>
0

> <i_epik_Tot_abs_Q>
0

> <r_epik_Metal_State_Penalty>
0.00950075

> <b_epik_Metal_Only>
0

> <s_lp_Force_Field>
OPLS_2005

> <r_lp_Energy>
12.0327

> <b_lp_Chiralities_Consistent>
1

> <s_lp_Variant>
AV-unprocessed.smi:2109-1

> <Gold.Version>
5.8.1

> <Gold.Id.Protein>
6NUR|6NUR_protein|mol2

> <Gold.PLP.Fitness>
46.4607

> <Gold.PLP.PLP>
-40.1692

> <Gold.PLP.part.hbond>
-3.0000

> <Gold.PLP.part.metal>
0.0000

> <Gold.PLP.part.buried>
1.1489

> <Gold.PLP.part.nonpolar>
-38.7505

> <Gold.PLP.part.repulsive>
0.2787

> <Gold.PLP.ligand.clash>
0.0000

> <Gold.PLP.ligand.torsion>
0.5991

> <Gold.PLP.Chemscore.Hbond>
2.3823

> <Gold.PLP.Chemscore.CHOScore>
0.0000

> <Gold.PLP.Chemscore.Metal>
0.0000

> <Gold.Chemscore.Hbonds>
donor molecule, donor type, donor heavy atom, donor atom, acceptor molecule, acceptor atom, score
      L1  H     5    31       P1  7948  0.99
      L1  H     8    32       P1  7957  0.45
      P1  H  7997  8009       L1    13  0.84

> <Gold.PLP.Chemscore.Internal.Correction>
0.3429

> <Gold.Rescore>
     Score         DG    S(hbond)    S(metal)    S(lipo)     H(rot)  DE(clash)    DE(int)     intcor
     17.85     -20.25       1.93        0.00     109.82       1.77       1.86       0.54       ----

> <Gold.Chemscore.Fitness>
17.8472

> <Gold.Chemscore.DG>
-20.2513

> <Gold.Chemscore.ZeroCoef>
-5.4800

> <Gold.Chemscore.Hbond>
1.9294

> <Gold.Chemscore.Metal>
0.0000

> <Gold.Chemscore.Lipo>
109.8156

> <Gold.Chemscore.Internal_Hbond>
0.0000

> <Gold.Chemscore.DEClash>
1.8608

> <Gold.Chemscore.DEInternal>
0.5432

> <Gold.Chemscore.Rot>
1.7662

> <Gold.Chemscore.Internal.Correction>
   9.000000E+99

> <Gold.Chemscore.Hbonds>
donor molecule, donor type, donor heavy atom, donor atom, acceptor molecule, acceptor atom, score
      L1  H     5    31       P1  7948  0.91
      L1  H     8    32       P1  7957  0.43
      P1  H  7997  8009       L1    13  0.20

> <Gold.Chemscore.Hbond.Weighted>
-6.4442

> <Gold.Chemscore.Metal.Weighted>
-0.0000

> <Gold.Chemscore.Lipo.Weighted>
-12.8484

> <Gold.Chemscore.Internal_Hbond.Weighted>
0.0000

> <Gold.Chemscore.DEClash.Weighted>
1.8608

> <Gold.Chemscore.DEInternal.Weighted>
0.5432

> <Gold.Chemscore.Rot.Weighted>
4.5214

> <Gold.Chemscore.Internal.Correction.Weighted>
   9.000000E+99

> <Gold.Protein.RotatedTorsions>
[ 6907 6896 6895 6894 ] final -109.02 input  -60.11 | X-H torsion
[ 7974 7965 7964 7962 ] final   40.41 input  175.53 | X-H torsion
[ 8008 7997 7996 7995 ] final -172.61 input   59.86 | X-H torsion
[ 10167 10162 10161 10158 ] final   34.22 input  -65.29 | X-H torsion
[ 10718 10713 10712 10709 ] final  178.63 input   66.30 | X-H torsion
[ 10763 10752 10751 10750 ] final  -90.99 input  -60.55 | X-H torsion
[ 11005 11000 10999 10996 ] final  -37.91 input  -57.11 | X-H torsion

> <Gold.Protein.ActiveResidues>
 VAL166  LYS551  ARG553  GLY616  TRP617  ASP618  TYR619  PRO620  LYS621  CYS622 
 ASP623  PHE694  ASN695  SER759  ASP760  ASP761  ALA762  ILE779  LEU786  VAL792 
 PHE793  MET794  SER795  GLU796  ALA797  LYS798  CYS799  TRP800  GLU811  SER814 

> <Gold.Protein.RotatedAtoms>
  150.7536  133.9591  159.3509 H   0  0  0  0  0  0  0  0  0  0  0  0  # atno 6907 bound_to 6896
  151.7515  135.0829  160.0341 H   0  0  0  0  0  0  0  0  0  0  0  0  # atno 6908 bound_to 6896
  152.3463  133.6089  159.5948 H   0  0  0  0  0  0  0  0  0  0  0  0  # atno 6909 bound_to 6896
  146.0907  139.5536  142.9478 H   0  0  0  0  0  0  0  0  0  0  0  0  # atno 7974 bound_to 7965
  155.9468  140.1119  157.1010 H   0  0  0  0  0  0  0  0  0  0  0  0  # atno 8008 bound_to 7997
  154.4101  140.1208  156.5066 H   0  0  0  0  0  0  0  0  0  0  0  0  # atno 8009 bound_to 7997
  155.6892  140.3472  155.4889 H   0  0  0  0  0  0  0  0  0  0  0  0  # atno 8010 bound_to 7997
  140.4335  144.1290  150.6163 H   0  0  0  0  0  0  0  0  0  0  0  0  # atno 10167 bound_to 10162
  156.8877  130.9837  151.3053 H   0  0  0  0  0  0  0  0  0  0  0  0  # atno 10718 bound_to 10713
  154.6715  135.5284  153.8144 H   0  0  0  0  0  0  0  0  0  0  0  0  # atno 10763 bound_to 10752
  153.0504  135.6530  154.0718 H   0  0  0  0  0  0  0  0  0  0  0  0  # atno 10764 bound_to 10752
  154.0616  135.2961  155.3303 H   0  0  0  0  0  0  0  0  0  0  0  0  # atno 10765 bound_to 10752
  140.9988  133.6966  156.1983 H   0  0  0  0  0  0  0  0  0  0  0  0  # atno 11005 bound_to 11000
  145.6045  141.0350  143.2000 LP  0  0  0  0  0  0  0  0  0  0  0  0  # atno 17320 bound_to 7965
  144.7358  139.7591  143.7330 LP  0  0  0  0  0  0  0  0  0  0  0  0  # atno 17321 bound_to 7965
  140.4400  143.2531  151.9485 LP  0  0  0  0  0  0  0  0  0  0  0  0  # atno 17342 bound_to 10162
  139.4786  144.5663  151.8159 LP  0  0  0  0  0  0  0  0  0  0  0  0  # atno 17343 bound_to 10162
  157.6103  130.8577  149.8940 LP  0  0  0  0  0  0  0  0  0  0  0  0  # atno 17370 bound_to 10713
  156.0645  130.3694  150.0909 LP  0  0  0  0  0  0  0  0  0  0  0  0  # atno 17371 bound_to 10713
  140.6923  134.4652  157.5588 LP  0  0  0  0  0  0  0  0  0  0  0  0  # atno 17394 bound_to 11000
  139.9028  134.8517  156.1826 LP  0  0  0  0  0  0  0  0  0  0  0  0  # atno 17395 bound_to 11000

$$$$
