AV-unprocessed.smi:45|AV-procd|sdf|418|dock9
  -GOLD-   2262016293D 1   1.00000     0.00000
 Structure written by MMmdl.
 60 63  0  0  0  0  0  0  0  0  3 V2000
  151.6737  142.2450  157.5067 C   0  0  0  0  0  0  0  0  0  0  0  0
  150.8322  141.8732  156.4250 O   0  0  0  0  0  0  0  0  0  0  0  0
  150.8205  140.5511  156.0304 C   0  0  0  0  0  0  0  0  0  0  0  0
  151.6051  139.5385  156.6392 C   0  0  0  0  0  0  0  0  0  0  0  0
  151.5383  138.2085  156.1807 C   0  0  0  0  0  0  0  0  0  0  0  0
  150.6879  137.8676  155.1104 C   0  0  0  0  0  0  0  0  0  0  0  0
  150.6162  136.4363  154.6183 C   0  0  0  0  0  0  0  0  0  0  0  0
  150.0928  135.5164  155.6168 N   0  0  0  0  0  0  0  0  0  0  0  0
  148.8492  134.8848  155.4498 C   0  0  0  0  0  0  0  0  0  0  0  0
  148.1472  135.1408  154.3128 N   0  3  0  0  0  0  0  0  0  0  0  0
  146.9586  134.5566  154.0886 C   0  0  0  0  0  0  0  0  0  0  0  0
  146.2878  134.8468  152.9015 N   0  0  0  0  0  0  0  0  0  0  0  0
  146.0104  133.8114  151.9119 C   0  0  0  0  0  0  0  0  0  0  0  0
  144.6919  134.2060  151.2488 C   0  0  0  0  0  0  0  0  0  0  0  0
  144.6967  135.7249  151.3601 C   0  0  0  0  0  0  0  0  0  0  0  0
  145.3852  135.9832  152.7086 C   0  0  2  0  0  0  0  0  0  0  0  0
  146.1045  137.3480  152.7537 C   0  0  0  0  0  0  0  0  0  0  0  0
  145.1775  138.3893  152.5328 O   0  0  0  0  0  0  0  0  0  0  0  0
  146.4122  133.7011  154.9609 N   0  0  0  0  0  0  0  0  0  0  0  0
  147.0665  133.4140  156.1019 C   0  0  0  0  0  0  0  0  0  0  0  0
  148.3179  133.9844  156.4091 C   0  0  0  0  0  0  0  0  0  0  0  0
  149.0067  133.6681  157.7115 C   0  0  0  0  0  0  0  0  0  0  0  0
  149.0857  132.4862  158.0641 O   0  0  0  0  0  0  0  0  0  0  0  0
  149.4424  134.7967  158.3372 N   0  5  0  0  0  0  0  0  0  0  0  0
  148.5581  135.7770  158.9688 C   0  0  0  0  0  0  0  0  0  0  0  0
  148.1752  135.3690  160.3865 C   0  0  0  0  0  0  0  0  0  0  0  0
  147.7098  134.1252  160.5557 N   0  0  0  0  0  0  0  0  0  0  0  0
  147.3957  133.7537  161.8156 C   0  0  0  0  0  0  0  0  0  0  0  0
  147.5467  134.6317  162.9079 C   0  0  0  0  0  0  0  0  0  0  0  0
  148.0441  135.9162  162.6099 C   0  0  0  0  0  0  0  0  0  0  0  0
  148.3582  136.2824  161.3483 N   0  0  0  0  0  0  0  0  0  0  0  0
  149.9074  138.8681  154.4993 C   0  0  0  0  0  0  0  0  0  0  0  0
  149.9736  140.1991  154.9556 C   0  0  0  0  0  0  0  0  0  0  0  0
  149.0022  141.4017  154.1847 Cl  0  0  0  0  0  0  0  0  0  0  0  0
  144.6358  135.9399  153.5007 H   0  0  0  0  0  0  0  0  0  0  0  0
  151.5611  143.3122  157.6975 H   0  0  0  0  0  0  0  0  0  0  0  0
  152.7240  142.0606  157.2776 H   0  0  0  0  0  0  0  0  0  0  0  0
  151.4037  141.7167  158.4222 H   0  0  0  0  0  0  0  0  0  0  0  0
  152.2688  139.7563  157.4619 H   0  0  0  0  0  0  0  0  0  0  0  0
  152.1434  137.4488  156.6537 H   0  0  0  0  0  0  0  0  0  0  0  0
  149.9800  136.4052  153.7328 H   0  0  0  0  0  0  0  0  0  0  0  0
  151.6100  136.1081  154.3109 H   0  0  0  0  0  0  0  0  0  0  0  0
  150.6664  135.2844  156.4161 H   0  0  0  0  0  0  0  0  0  0  0  0
  146.8210  133.8008  151.1823 H   0  0  0  0  0  0  0  0  0  0  0  0
  145.9411  132.8180  152.3571 H   0  0  0  0  0  0  0  0  0  0  0  0
  144.6090  133.8515  150.2211 H   0  0  0  0  0  0  0  0  0  0  0  0
  143.8544  133.7981  151.8167 H   0  0  0  0  0  0  0  0  0  0  0  0
  145.2861  136.1439  150.5430 H   0  0  0  0  0  0  0  0  0  0  0  0
  143.6970  136.1574  151.3068 H   0  0  0  0  0  0  0  0  0  0  0  0
  146.5770  137.5244  153.7190 H   0  0  0  0  0  0  0  0  0  0  0  0
  146.8914  137.3994  152.0002 H   0  0  0  0  0  0  0  0  0  0  0  0
  144.7456  138.2378  151.7057 H   0  0  0  0  0  0  0  0  0  0  0  0
  146.5740  132.7285  156.7767 H   0  0  0  0  0  0  0  0  0  0  0  0
  149.0372  136.7557  159.0174 H   0  0  0  0  0  0  0  0  0  0  0  0
  147.6478  135.9448  158.3901 H   0  0  0  0  0  0  0  0  0  0  0  0
  147.0221  132.7500  161.9533 H   0  0  0  0  0  0  0  0  0  0  0  0
  147.2961  134.3369  163.9159 H   0  0  0  0  0  0  0  0  0  0  0  0
  148.1903  136.6527  163.3862 H   0  0  0  0  0  0  0  0  0  0  0  0
  149.2549  138.6177  153.6755 H   0  0  0  0  0  0  0  0  0  0  0  0
  148.5395  135.7849  153.6274 H   0  0  0  0  0  0  0  0  0  0  0  0
  1  2  1  0  0  0  0
  1 36  1  0  0  0  0
  1 37  1  0  0  0  0
  1 38  1  0  0  0  0
  2  3  1  0  0  0  0
  3 33  1  0  0  0  0
  3  4  2  0  0  0  0
  4  5  1  0  0  0  0
  4 39  1  0  0  0  0
  5  6  2  0  0  0  0
  5 40  1  0  0  0  0
  6  7  1  0  0  0  0
  6 32  1  0  0  0  0
  7  8  1  0  0  0  0
  7 41  1  0  0  0  0
  7 42  1  0  0  0  0
  8  9  1  0  0  0  0
  8 43  1  0  0  0  0
  9 21  1  0  0  0  0
  9 10  2  0  0  0  0
 10 11  1  0  0  0  0
 10 60  1  0  0  0  0
 11 12  1  0  0  0  0
 11 19  2  0  0  0  0
 12 16  1  0  0  0  0
 12 13  1  0  0  0  0
 13 14  1  0  0  0  0
 13 44  1  0  0  0  0
 13 45  1  0  0  0  0
 14 15  1  0  0  0  0
 14 46  1  0  0  0  0
 14 47  1  0  0  0  0
 15 16  1  0  0  0  0
 15 48  1  0  0  0  0
 15 49  1  0  0  0  0
 16 35  1  0  0  0  0
 16 17  1  0  0  0  0
 17 18  1  0  0  0  0
 17 50  1  0  0  0  0
 17 51  1  0  0  0  0
 18 52  1  0  0  0  0
 19 20  1  0  0  0  0
 20 21  2  0  0  0  0
 20 53  1  0  0  0  0
 21 22  1  0  0  0  0
 22 23  2  0  0  0  0
 22 24  1  0  0  0  0
 24 25  1  0  0  0  0
 25 26  1  0  0  0  0
 25 54  1  0  0  0  0
 25 55  1  0  0  0  0
 26 31  1  0  0  0  0
 26 27  2  0  0  0  0
 27 28  1  0  0  0  0
 28 29  2  0  0  0  0
 28 56  1  0  0  0  0
 29 30  1  0  0  0  0
 29 57  1  0  0  0  0
 30 31  2  0  0  0  0
 30 58  1  0  0  0  0
 32 33  2  0  0  0  0
 32 59  1  0  0  0  0
 33 34  1  0  0  0  0
M  CHG  1  10   1
M  CHG  1  24  -1
M  END
> <s_m_source_file>
AV-unprocessed.smi

> <i_m_source_file_index>
45

> <i_lp_mmshare_version>
43012

> <i_f3d_flags>
0

> <s_epik_input>
W0NIM11PYzFbY0hdW2NIXWMoW2NIXWMxQ2wpW0NIMl1bTkhdYzJuYyhOM1tDSDJdW0NIMl1bQ0gyXVtDQEhdM1tDSDJdW09IXSluW2NIXWMyQyg9TylbTkhdW0NIMl1jNG5bY0hdW2NIXVtjSF1uNA==

> <s_epik_cmdline>
J2VwaWtfcHl0aG9uJywgJy1waCcsICc3LjAnLCAnLXRuJywgJzgnLCAnLW1hJywgJzIwMCcsICctbWV0YWxfYmluZGluZycsICctaW1hZScsICc8aW5maWxlLm1hZT4nLCAnLW9tYWUnLCAnPG91dGZpbGUubWFlPic=

> <r_lp_tautomer_probability>
0.424989

> <r_epik_Ionization_Penalty>
7.51351

> <r_epik_Ionization_Penalty_Charging>
7.51312

> <r_epik_Ionization_Penalty_Neutral>
0.00038389

> <r_epik_State_Penalty>
8.64696

> <r_epik_Charging_Adjusted_Penalty>
16.1601

> <i_epik_Tot_Q>
0

> <i_epik_Tot_abs_Q>
2

> <r_epik_Metal_State_Penalty>
4.61083

> <b_epik_Metal_Only>
1

> <s_epik_Chemistry_Notes>
This compound contains an electron-poor aromatic ring that is susceptible to covalent hydrolysis at low pH, typically resulting in measured values for nitrogen ring protonation that are around two units higher than predicted values.

> <s_lp_Force_Field>
OPLS_2005

> <r_lp_Energy>
41.8384

> <b_lp_Chiralities_Consistent>
1

> <s_lp_Variant>
AV-unprocessed.smi:45-12

> <Gold.Version>
5.8.1

> <Gold.Id.Protein>
6NUR|6NUR_protein|mol2

> <Gold.PLP.Fitness>
59.7980

> <Gold.PLP.PLP>
-50.4055

> <Gold.PLP.part.hbond>
-4.8779

> <Gold.PLP.part.metal>
0.0000

> <Gold.PLP.part.buried>
-5.9153

> <Gold.PLP.part.nonpolar>
-41.8013

> <Gold.PLP.part.repulsive>
0.2059

> <Gold.PLP.ligand.clash>
3.6578

> <Gold.PLP.ligand.torsion>
3.1011

> <Gold.PLP.Chemscore.Hbond>
5.7069

> <Gold.PLP.Chemscore.CHOScore>
0.0000

> <Gold.PLP.Chemscore.Metal>
0.0000

> <Gold.Chemscore.Hbonds>
donor molecule, donor type, donor heavy atom, donor atom, acceptor molecule, acceptor atom, score
      L1  H    10    60       P1  7948  2.00
      L1  H    18    52       P1 10171  0.80
      P1  H  6896  6908       L1    24  2.00
      P1  H  6931  6943       L1    31  0.49

> <Gold.PLP.Chemscore.Internal.Correction>
2.1319

> <Gold.Rescore>
     Score         DG    S(hbond)    S(metal)    S(lipo)     H(rot)  DE(clash)    DE(int)     intcor
     15.49     -20.25       2.58        0.00     115.87       2.90       0.40       4.35       ----

> <Gold.Chemscore.Fitness>
15.4875

> <Gold.Chemscore.DG>
-20.2451

> <Gold.Chemscore.ZeroCoef>
-5.4800

> <Gold.Chemscore.Hbond>
2.5836

> <Gold.Chemscore.Metal>
0.0000

> <Gold.Chemscore.Lipo>
115.8695

> <Gold.Chemscore.Internal_Hbond>
0.0000

> <Gold.Chemscore.DEClash>
0.4030

> <Gold.Chemscore.DEInternal>
4.3546

> <Gold.Chemscore.Rot>
2.8988

> <Gold.Chemscore.Internal.Correction>
   9.000000E+99

> <Gold.Chemscore.Hbonds>
donor molecule, donor type, donor heavy atom, donor atom, acceptor molecule, acceptor atom, score
      L1  H    10    60       P1  7948  0.94
      L1  H    18    52       P1 10171  0.78
      P1  H  6896  6908       L1    24  0.41
      P1  H  6931  6943       L1    31  0.05

> <Gold.Chemscore.Hbond.Weighted>
-8.6293

> <Gold.Chemscore.Metal.Weighted>
-0.0000

> <Gold.Chemscore.Lipo.Weighted>
-13.5567

> <Gold.Chemscore.Internal_Hbond.Weighted>
0.0000

> <Gold.Chemscore.DEClash.Weighted>
0.4030

> <Gold.Chemscore.DEInternal.Weighted>
4.3546

> <Gold.Chemscore.Rot.Weighted>
7.4209

> <Gold.Chemscore.Internal.Correction.Weighted>
   9.000000E+99

> <Gold.Protein.RotatedTorsions>
[ 6907 6896 6895 6894 ] final  151.73 input  -60.11 | X-H torsion
[ 7974 7965 7964 7962 ] final   -2.43 input  175.53 | X-H torsion
[ 8008 7997 7996 7995 ] final   74.82 input   59.86 | X-H torsion
[ 10167 10162 10161 10158 ] final  134.51 input  -65.29 | X-H torsion
[ 10718 10713 10712 10709 ] final -156.05 input   66.30 | X-H torsion
[ 10763 10752 10751 10750 ] final  -22.13 input  -60.55 | X-H torsion
[ 11005 11000 10999 10996 ] final   58.73 input  -57.11 | X-H torsion

> <Gold.Protein.ActiveResidues>
 VAL166  LYS551  ARG553  GLY616  TRP617  ASP618  TYR619  PRO620  LYS621  CYS622 
 ASP623  PHE694  ASN695  SER759  ASP760  ASP761  ALA762  ILE779  LEU786  VAL792 
 PHE793  MET794  SER795  GLU796  ALA797  LYS798  CYS799  TRP800  GLU811  SER814 

> <Gold.Protein.RotatedAtoms>
  152.0966  133.4228  159.4567 H   0  0  0  0  0  0  0  0  0  0  0  0  # atno 6907 bound_to 6896
  150.6863  134.2809  159.4636 H   0  0  0  0  0  0  0  0  0  0  0  0  # atno 6908 bound_to 6896
  152.0665  134.9560  160.0625 H   0  0  0  0  0  0  0  0  0  0  0  0  # atno 6909 bound_to 6896
  146.2404  140.1569  142.8333 H   0  0  0  0  0  0  0  0  0  0  0  0  # atno 7974 bound_to 7965
  155.8039  140.3475  155.5419 H   0  0  0  0  0  0  0  0  0  0  0  0  # atno 8008 bound_to 7997
  155.8509  140.0956  157.1695 H   0  0  0  0  0  0  0  0  0  0  0  0  # atno 8009 bound_to 7997
  154.4008  140.1376  156.3831 H   0  0  0  0  0  0  0  0  0  0  0  0  # atno 8010 bound_to 7997
  139.5253  144.6563  151.5150 H   0  0  0  0  0  0  0  0  0  0  0  0  # atno 10167 bound_to 10162
  156.5212  130.8479  151.2682 H   0  0  0  0  0  0  0  0  0  0  0  0  # atno 10718 bound_to 10713
  153.6471  135.6982  153.5222 H   0  0  0  0  0  0  0  0  0  0  0  0  # atno 10763 bound_to 10752
  153.2736  135.4207  155.1011 H   0  0  0  0  0  0  0  0  0  0  0  0  # atno 10764 bound_to 10752
  154.8485  135.3584  154.6015 H   0  0  0  0  0  0  0  0  0  0  0  0  # atno 10765 bound_to 10752
  140.0356  134.5948  155.9448 H   0  0  0  0  0  0  0  0  0  0  0  0  # atno 11005 bound_to 11000
  145.0121  140.8723  143.5218 LP  0  0  0  0  0  0  0  0  0  0  0  0  # atno 17320 bound_to 7965
  145.1604  139.2461  143.5394 LP  0  0  0  0  0  0  0  0  0  0  0  0  # atno 17321 bound_to 7965
  140.6391  143.8925  150.6675 LP  0  0  0  0  0  0  0  0  0  0  0  0  # atno 17342 bound_to 10162
  140.2254  143.3777  152.1609 LP  0  0  0  0  0  0  0  0  0  0  0  0  # atno 17343 bound_to 10162
  157.7436  130.9917  150.2609 LP  0  0  0  0  0  0  0  0  0  0  0  0  # atno 17370 bound_to 10713
  156.3148  130.3777  149.7629 LP  0  0  0  0  0  0  0  0  0  0  0  0  # atno 17371 bound_to 10713
  141.1855  133.6555  156.5202 LP  0  0  0  0  0  0  0  0  0  0  0  0  # atno 17394 bound_to 11000
  140.4153  134.7236  157.4859 LP  0  0  0  0  0  0  0  0  0  0  0  0  # atno 17395 bound_to 11000

$$$$
