AV-unprocessed.smi:1192|AV-procd|sdf|4988|dock6
  -GOLD-   22720 3583D 1   1.00000     0.00000
 Structure written by MMmdl.
 39 40  0  0  0  0  0  0  0  0  1 V2000
  147.6810  136.1577  160.4750 C   0  0  0  0  0  0  0  0  0  0  0  0
  148.6388  137.1216  160.0763 O   0  0  0  0  0  0  0  0  0  0  0  0
  149.2623  136.7890  158.8469 C   0  0  0  0  0  0  0  0  0  0  0  0
  150.2598  137.8912  158.4817 C   0  0  0  0  0  0  0  0  0  0  0  0
  149.5227  139.0390  158.0779 O   0  0  0  0  0  0  0  0  0  0  0  0
  149.2636  139.2306  156.7365 C   0  0  0  0  0  0  0  0  0  0  0  0
  149.5464  138.2222  155.8738 N   0  0  0  0  0  0  0  0  0  0  0  0
  149.2848  138.4054  154.5630 C   0  0  0  0  0  0  0  0  0  0  0  0
  148.7312  139.5913  154.0454 C   0  0  0  0  0  0  0  0  0  0  0  0
  148.4374  140.6369  154.9400 C   0  0  0  0  0  0  0  0  0  0  0  0
  148.7087  140.4625  156.3137 C   0  0  0  0  0  0  0  0  0  0  0  0
  148.3905  141.5759  157.3008 C   0  0  0  0  0  0  0  0  0  0  0  0
  149.4819  142.5346  157.4567 N   0  0  0  0  0  0  0  0  0  0  0  0
  150.5622  142.3752  158.2378 C   0  0  0  0  0  0  0  0  0  0  0  0
  150.7665  141.3679  158.9160 O   0  0  0  0  0  0  0  0  0  0  0  0
  151.5691  143.5325  158.2228 C   0  0  0  0  0  0  0  0  0  0  0  0
  152.4883  143.6435  159.4556 C   0  0  0  0  0  0  0  0  0  0  0  0
  152.2323  145.1529  159.4551 C   0  0  0  0  0  0  0  0  0  0  0  0
  150.9677  144.8869  158.6337 C   0  0  0  0  0  0  0  0  0  0  0  0
  147.2438  136.4502  161.4293 H   0  0  0  0  0  0  0  0  0  0  0  0
  148.1376  135.1754  160.6020 H   0  0  0  0  0  0  0  0  0  0  0  0
  146.8752  136.0790  159.7437 H   0  0  0  0  0  0  0  0  0  0  0  0
  149.7913  135.8411  158.9570 H   0  0  0  0  0  0  0  0  0  0  0  0
  148.5230  136.6640  158.0541 H   0  0  0  0  0  0  0  0  0  0  0  0
  150.9065  138.1066  159.3340 H   0  0  0  0  0  0  0  0  0  0  0  0
  150.8890  137.5567  157.6556 H   0  0  0  0  0  0  0  0  0  0  0  0
  149.5225  137.5810  153.9074 H   0  0  0  0  0  0  0  0  0  0  0  0
  148.5360  139.6953  152.9883 H   0  0  0  0  0  0  0  0  0  0  0  0
  148.0107  141.5587  154.5729 H   0  0  0  0  0  0  0  0  0  0  0  0
  147.5112  142.1259  156.9646 H   0  0  0  0  0  0  0  0  0  0  0  0
  148.1145  141.1183  158.2521 H   0  0  0  0  0  0  0  0  0  0  0  0
  149.4092  143.3915  156.9276 H   0  0  0  0  0  0  0  0  0  0  0  0
  152.1292  143.5918  157.2875 H   0  0  0  0  0  0  0  0  0  0  0  0
  152.1047  143.1610  160.3563 H   0  0  0  0  0  0  0  0  0  0  0  0
  153.5280  143.3739  159.2731 H   0  0  0  0  0  0  0  0  0  0  0  0
  152.0532  145.5859  160.4399 H   0  0  0  0  0  0  0  0  0  0  0  0
  152.9883  145.7085  158.8982 H   0  0  0  0  0  0  0  0  0  0  0  0
  150.8188  145.5833  157.8079 H   0  0  0  0  0  0  0  0  0  0  0  0
  150.0716  144.8021  159.2519 H   0  0  0  0  0  0  0  0  0  0  0  0
  1  2  1  0  0  0  0
  1 20  1  0  0  0  0
  1 21  1  0  0  0  0
  1 22  1  0  0  0  0
  2  3  1  0  0  0  0
  3  4  1  0  0  0  0
  3 23  1  0  0  0  0
  3 24  1  0  0  0  0
  4  5  1  0  0  0  0
  4 25  1  0  0  0  0
  4 26  1  0  0  0  0
  5  6  1  0  0  0  0
  6 11  1  0  0  0  0
  6  7  2  0  0  0  0
  7  8  1  0  0  0  0
  8  9  2  0  0  0  0
  8 27  1  0  0  0  0
  9 10  1  0  0  0  0
  9 28  1  0  0  0  0
 10 11  2  0  0  0  0
 10 29  1  0  0  0  0
 11 12  1  0  0  0  0
 12 13  1  0  0  0  0
 12 30  1  0  0  0  0
 12 31  1  0  0  0  0
 13 14  1  0  0  0  0
 13 32  1  0  0  0  0
 14 15  2  0  0  0  0
 14 16  1  0  0  0  0
 16 19  1  0  0  0  0
 16 17  1  0  0  0  0
 16 33  1  0  0  0  0
 17 18  1  0  0  0  0
 17 34  1  0  0  0  0
 17 35  1  0  0  0  0
 18 19  1  0  0  0  0
 18 36  1  0  0  0  0
 18 37  1  0  0  0  0
 19 38  1  0  0  0  0
 19 39  1  0  0  0  0
M  END
> <s_m_source_file>
AV-unprocessed.smi

> <i_m_source_file_index>
1192

> <i_lp_mmshare_version>
43012

> <i_f3d_flags>
0

> <s_epik_input>
W0NIM11PW0NIMl1bQ0gyXU9jMW5bY0hdW2NIXVtjSF1jMVtDSDJdW05IXUMoPU8pW0NIXTJbQ0gyXVtDSDJdW0NIMl0y

> <s_epik_cmdline>
J2VwaWtfcHl0aG9uJywgJy1waCcsICc3LjAnLCAnLXRuJywgJzgnLCAnLW1hJywgJzIwMCcsICctbWV0YWxfYmluZGluZycsICctaW1hZScsICc8aW5maWxlLm1hZT4nLCAnLW9tYWUnLCAnPG91dGZpbGUubWFlPic=

> <r_lp_tautomer_probability>
1

> <r_epik_Ionization_Penalty>
6.50215e-05

> <r_epik_Ionization_Penalty_Charging>
0

> <r_epik_Ionization_Penalty_Neutral>
6.50215e-05

> <r_epik_State_Penalty>
-0

> <r_epik_Charging_Adjusted_Penalty>
0

> <i_epik_Tot_Q>
0

> <i_epik_Tot_abs_Q>
0

> <r_epik_Metal_State_Penalty>
-0

> <b_epik_Metal_Only>
0

> <s_lp_Force_Field>
OPLS_2005

> <r_lp_Energy>
11.4086

> <b_lp_Chiralities_Consistent>
1

> <s_lp_Variant>
AV-unprocessed.smi:1192-1

> <Gold.Version>
5.8.1

> <Gold.Id.Protein>
6NUR|6NUR_protein|mol2

> <Gold.PLP.Fitness>
38.4326

> <Gold.PLP.PLP>
-32.6802

> <Gold.PLP.part.hbond>
-3.0996

> <Gold.PLP.part.metal>
0.0000

> <Gold.PLP.part.buried>
-4.4939

> <Gold.PLP.part.nonpolar>
-25.6558

> <Gold.PLP.part.repulsive>
0.0539

> <Gold.PLP.ligand.clash>
0.0000

> <Gold.PLP.ligand.torsion>
1.2130

> <Gold.PLP.Chemscore.Hbond>
1.5967

> <Gold.PLP.Chemscore.CHOScore>
0.9741

> <Gold.PLP.Chemscore.Metal>
0.0000

> <Gold.Chemscore.Hbonds>
donor molecule, donor type, donor heavy atom, donor atom, acceptor molecule, acceptor atom, score
      L1  H    13    32       P1  8028  1.00
      P1  H  6931  6943       L1     2  0.38
      L1  C     8    27       P1  7948  1.00

> <Gold.PLP.Chemscore.Internal.Correction>
0.4661

> <Gold.Rescore>
     Score         DG    S(hbond)    S(metal)    S(lipo)     H(rot)  DE(clash)    DE(int)     intcor
     13.54     -15.96       1.64        0.00      89.24       2.12       0.00       2.42       ----

> <Gold.Chemscore.Fitness>
13.5415

> <Gold.Chemscore.DG>
-15.9610

> <Gold.Chemscore.ZeroCoef>
-5.4800

> <Gold.Chemscore.Hbond>
1.6386

> <Gold.Chemscore.Metal>
0.0000

> <Gold.Chemscore.Lipo>
89.2372

> <Gold.Chemscore.Internal_Hbond>
0.0000

> <Gold.Chemscore.DEClash>
0.0015

> <Gold.Chemscore.DEInternal>
2.4181

> <Gold.Chemscore.Rot>
2.1221

> <Gold.Chemscore.Internal.Correction>
   9.000000E+99

> <Gold.Chemscore.Hbonds>
donor molecule, donor type, donor heavy atom, donor atom, acceptor molecule, acceptor atom, score
      L1  H    13    32       P1  8028  0.96
      P1  H  6931  6943       L1     2  0.19

> <Gold.Chemscore.Hbond.Weighted>
-5.4728

> <Gold.Chemscore.Metal.Weighted>
-0.0000

> <Gold.Chemscore.Lipo.Weighted>
-10.4408

> <Gold.Chemscore.Internal_Hbond.Weighted>
0.0000

> <Gold.Chemscore.DEClash.Weighted>
0.0015

> <Gold.Chemscore.DEInternal.Weighted>
2.4181

> <Gold.Chemscore.Rot.Weighted>
5.4326

> <Gold.Chemscore.Internal.Correction.Weighted>
   9.000000E+99

> <Gold.Protein.RotatedTorsions>
[ 6907 6896 6895 6894 ] final  -51.32 input  -60.11 | X-H torsion
[ 7974 7965 7964 7962 ] final  -61.45 input  175.53 | X-H torsion
[ 8008 7997 7996 7995 ] final  101.63 input   59.86 | X-H torsion
[ 10167 10162 10161 10158 ] final  -44.77 input  -65.29 | X-H torsion
[ 10718 10713 10712 10709 ] final  -99.14 input   66.30 | X-H torsion
[ 10763 10752 10751 10750 ] final  -50.64 input  -60.55 | X-H torsion
[ 11005 11000 10999 10996 ] final  101.62 input  -57.11 | X-H torsion

> <Gold.Protein.ActiveResidues>
 VAL166  LYS551  ARG553  GLY616  TRP617  ASP618  TYR619  PRO620  LYS621  CYS622 
 ASP623  PHE694  ASN695  SER759  ASP760  ASP761  ALA762  ILE779  LEU786  VAL792 
 PHE793  MET794  SER795  GLU796  ALA797  LYS798  CYS799  TRP800  GLU811  SER814 

> <Gold.Protein.RotatedAtoms>
  150.8622  134.7977  159.7091 H   0  0  0  0  0  0  0  0  0  0  0  0  # atno 6907 bound_to 6896
  152.4655  134.5081  159.9755 H   0  0  0  0  0  0  0  0  0  0  0  0  # atno 6908 bound_to 6896
  151.5183  133.3433  159.2932 H   0  0  0  0  0  0  0  0  0  0  0  0  # atno 6909 bound_to 6896
  145.8033  140.8642  143.0220 H   0  0  0  0  0  0  0  0  0  0  0  0  # atno 7974 bound_to 7965
  156.1317  140.3194  155.8360 H   0  0  0  0  0  0  0  0  0  0  0  0  # atno 8008 bound_to 7997
  155.4319  140.0519  157.3035 H   0  0  0  0  0  0  0  0  0  0  0  0  # atno 8009 bound_to 7997
  154.4905  140.2090  155.9572 H   0  0  0  0  0  0  0  0  0  0  0  0  # atno 8010 bound_to 7997
  140.6884  143.2913  151.3543 H   0  0  0  0  0  0  0  0  0  0  0  0  # atno 10167 bound_to 10162
  156.0126  130.5269  150.6626 H   0  0  0  0  0  0  0  0  0  0  0  0  # atno 10718 bound_to 10713
  154.1136  135.6545  153.4889 H   0  0  0  0  0  0  0  0  0  0  0  0  # atno 10763 bound_to 10752
  153.0248  135.5253  154.7167 H   0  0  0  0  0  0  0  0  0  0  0  0  # atno 10764 bound_to 10752
  154.6354  135.2981  155.0136 H   0  0  0  0  0  0  0  0  0  0  0  0  # atno 10765 bound_to 10752
  139.8774  134.9190  156.4934 H   0  0  0  0  0  0  0  0  0  0  0  0  # atno 11005 bound_to 11000
  144.6766  140.0290  143.7483 LP  0  0  0  0  0  0  0  0  0  0  0  0  # atno 17320 bound_to 7965
  145.9855  139.2974  143.1016 LP  0  0  0  0  0  0  0  0  0  0  0  0  # atno 17321 bound_to 7965
  139.6263  144.0807  152.2437 LP  0  0  0  0  0  0  0  0  0  0  0  0  # atno 17342 bound_to 10162
  140.0268  144.6111  150.7521 LP  0  0  0  0  0  0  0  0  0  0  0  0  # atno 17343 bound_to 10162
  157.4365  131.0856  151.0987 LP  0  0  0  0  0  0  0  0  0  0  0  0  # atno 17370 bound_to 10713
  157.1544  130.6198  149.5592 LP  0  0  0  0  0  0  0  0  0  0  0  0  # atno 17371 bound_to 10713
  140.8642  133.8037  155.9297 LP  0  0  0  0  0  0  0  0  0  0  0  0  # atno 17394 bound_to 11000
  140.9018  134.2369  157.5037 LP  0  0  0  0  0  0  0  0  0  0  0  0  # atno 17395 bound_to 11000

$$$$
