AV-unprocessed.smi:2764|AV-procd|sdf|10640|dock5
  -GOLD-   2272015 93D 1   1.00000     0.00000
 Structure written by MMmdl.
 47 49  0  0  0  0  0  0  0  0  2 V2000
  148.0496  141.1225  156.3104 O   0  0  0  0  0  0  0  0  0  0  0  0
  148.9647  140.2994  156.3371 C   0  0  0  0  0  0  0  0  0  0  0  0
  150.1437  140.4712  156.9608 N   0  0  0  0  0  0  0  0  0  0  0  0
  150.5712  141.5783  157.7416 C   0  0  0  0  0  0  0  0  0  0  0  0
  151.7823  141.3826  158.4439 C   0  0  0  0  0  0  0  0  0  0  0  0
  152.2899  142.4186  159.2521 C   0  0  0  0  0  0  0  0  0  0  0  0
  151.5707  143.6238  159.3364 C   0  0  0  0  0  0  0  0  0  0  0  0
  152.0185  144.6473  160.1015 F   0  0  0  0  0  0  0  0  0  0  0  0
  150.3738  143.7384  158.6057 C   0  0  0  0  0  0  0  0  0  0  0  0
  149.8863  142.7463  157.8302 N   0  0  0  0  0  0  0  0  0  0  0  0
  148.9065  139.0993  155.7360 N   0  0  0  0  0  0  0  0  0  0  0  0
  147.7897  138.5363  154.9730 C   0  0  2  0  0  0  0  0  0  0  0  0
  147.7914  136.9956  154.9578 C   0  0  0  0  0  0  0  0  0  0  0  0
  146.5833  136.4551  154.1739 C   0  0  0  0  0  0  0  0  0  0  0  0
  146.5509  137.0023  152.7916 N   0  3  1  0  0  0  0  0  0  0  0  0
  145.4902  136.3875  151.9514 C   0  0  0  0  0  0  0  0  0  0  0  0
  145.9452  135.0528  151.3304 C   0  0  2  0  0  0  0  0  0  0  0  0
  144.9638  134.4078  150.3701 C   0  0  0  0  0  0  0  0  0  0  0  0
  145.4407  132.9584  150.3460 C   0  0  0  0  0  0  0  0  0  0  0  0
  146.0228  132.7165  151.6233 O   0  0  0  0  0  0  0  0  0  0  0  0
  146.1077  133.9324  152.3581 C   0  0  0  0  0  0  0  0  0  0  0  0
  146.5021  138.4887  152.7933 C   0  0  0  0  0  0  0  0  0  0  0  0
  147.7121  139.0812  153.5334 C   0  0  0  0  0  0  0  0  0  0  0  0
  150.8073  139.7147  156.8836 H   0  0  0  0  0  0  0  0  0  0  0  0
  152.3207  140.4490  158.3683 H   0  0  0  0  0  0  0  0  0  0  0  0
  153.2133  142.2891  159.7973 H   0  0  0  0  0  0  0  0  0  0  0  0
  149.7916  144.6472  158.6447 H   0  0  0  0  0  0  0  0  0  0  0  0
  149.7199  138.5070  155.8212 H   0  0  0  0  0  0  0  0  0  0  0  0
  146.8898  138.8603  155.4977 H   0  0  0  0  0  0  0  0  0  0  0  0
  148.7060  136.6156  154.5018 H   0  0  0  0  0  0  0  0  0  0  0  0
  147.7710  136.6099  155.9777 H   0  0  0  0  0  0  0  0  0  0  0  0
  146.6444  135.3666  154.1378 H   0  0  0  0  0  0  0  0  0  0  0  0
  145.6542  136.7058  154.6886 H   0  0  0  0  0  0  0  0  0  0  0  0
  144.6144  136.1783  152.5677 H   0  0  0  0  0  0  0  0  0  0  0  0
  145.1476  137.0853  151.1853 H   0  0  0  0  0  0  0  0  0  0  0  0
  146.9010  135.1919  150.8218 H   0  0  0  0  0  0  0  0  0  0  0  0
  143.9494  134.4582  150.7685 H   0  0  0  0  0  0  0  0  0  0  0  0
  144.9673  134.8628  149.3793 H   0  0  0  0  0  0  0  0  0  0  0  0
  144.6309  132.2591  150.1380 H   0  0  0  0  0  0  0  0  0  0  0  0
  146.2096  132.8227  149.5844 H   0  0  0  0  0  0  0  0  0  0  0  0
  147.0479  134.0006  152.9059 H   0  0  0  0  0  0  0  0  0  0  0  0
  145.2931  133.9524  153.0835 H   0  0  0  0  0  0  0  0  0  0  0  0
  146.4874  138.8671  151.7722 H   0  0  0  0  0  0  0  0  0  0  0  0
  145.5759  138.8228  153.2638 H   0  0  0  0  0  0  0  0  0  0  0  0
  147.6398  140.1693  153.5474 H   0  0  0  0  0  0  0  0  0  0  0  0
  148.6179  138.8382  152.9772 H   0  0  0  0  0  0  0  0  0  0  0  0
  147.4304  136.7384  152.3704 H   0  0  0  0  0  0  0  0  0  0  0  0
  1  2  2  0  0  0  0
  2  3  1  0  0  0  0
  2 11  1  0  0  0  0
  3  4  1  0  0  0  0
  3 24  1  0  0  0  0
  4 10  1  0  0  0  0
  4  5  2  0  0  0  0
  5  6  1  0  0  0  0
  5 25  1  0  0  0  0
  6  7  2  0  0  0  0
  6 26  1  0  0  0  0
  7  8  1  0  0  0  0
  7  9  1  0  0  0  0
  9 10  2  0  0  0  0
  9 27  1  0  0  0  0
 11 12  1  0  0  0  0
 11 28  1  0  0  0  0
 12 23  1  0  0  0  0
 12 13  1  0  0  0  0
 12 29  1  0  0  0  0
 13 14  1  0  0  0  0
 13 30  1  0  0  0  0
 13 31  1  0  0  0  0
 14 15  1  0  0  0  0
 14 32  1  0  0  0  0
 14 33  1  0  0  0  0
 15 16  1  0  0  0  0
 15 22  1  0  0  0  0
 15 47  1  0  0  0  0
 16 17  1  0  0  0  0
 16 34  1  0  0  0  0
 16 35  1  0  0  0  0
 17 21  1  0  0  0  0
 17 18  1  0  0  0  0
 17 36  1  0  0  0  0
 18 19  1  0  0  0  0
 18 37  1  0  0  0  0
 18 38  1  0  0  0  0
 19 20  1  0  0  0  0
 19 39  1  0  0  0  0
 19 40  1  0  0  0  0
 20 21  1  0  0  0  0
 21 41  1  0  0  0  0
 21 42  1  0  0  0  0
 22 23  1  0  0  0  0
 22 43  1  0  0  0  0
 22 44  1  0  0  0  0
 23 45  1  0  0  0  0
 23 46  1  0  0  0  0
M  CHG  1  15   1
M  END
> <s_m_source_file>
AV-unprocessed.smi

> <i_m_source_file_index>
2764

> <i_lp_mmshare_version>
43012

> <i_f3d_flags>
0

> <s_epik_input>
bjFbY0hdYyhGKVtjSF1bY0hdYzFbTkhdQyg9TylbTkhdW0NIXTJbQ0gyXVtDSDJdTihbQ0gyXVtDSDJdMilbQ0gyXVtDQEBIXTNbQ0gyXVtDSDJdT1tDSDJdMw==

> <s_epik_cmdline>
J2VwaWtfcHl0aG9uJywgJy1waCcsICc3LjAnLCAnLXRuJywgJzgnLCAnLW1hJywgJzIwMCcsICctbWV0YWxfYmluZGluZycsICctaW1hZScsICc8aW5maWxlLm1hZT4nLCAnLW9tYWUnLCAnPG91dGZpbGUubWFlPic=

> <r_epik_Ionization_Penalty>
0.0075076

> <r_epik_Ionization_Penalty_Charging>
0.00747775

> <r_epik_Ionization_Penalty_Neutral>
2.98483e-05

> <r_epik_State_Penalty>
0.00558817

> <r_epik_Charging_Adjusted_Penalty>
0.0130659

> <i_epik_Tot_Q>
1

> <i_epik_Tot_abs_Q>
1

> <r_epik_Metal_State_Penalty>
-0

> <b_epik_Metal_Only>
0

> <s_lp_Force_Field>
OPLS_2005

> <r_lp_Energy>
38.4399

> <b_lp_Chiralities_Consistent>
1

> <s_lp_Variant>
AV-unprocessed.smi:2764-1

> <Gold.Version>
5.8.1

> <Gold.Id.Protein>
6NUR|6NUR_protein|mol2

> <Gold.PLP.Fitness>
40.1701

> <Gold.PLP.PLP>
-32.4822

> <Gold.PLP.part.hbond>
-1.0000

> <Gold.PLP.part.metal>
0.0000

> <Gold.PLP.part.buried>
-4.7198

> <Gold.PLP.part.nonpolar>
-28.7843

> <Gold.PLP.part.repulsive>
1.9508

> <Gold.PLP.ligand.clash>
0.0000

> <Gold.PLP.ligand.torsion>
0.6855

> <Gold.PLP.Chemscore.Hbond>
2.0000

> <Gold.PLP.Chemscore.CHOScore>
1.0034

> <Gold.PLP.Chemscore.Metal>
0.0000

> <Gold.Chemscore.Hbonds>
donor molecule, donor type, donor heavy atom, donor atom, acceptor molecule, acceptor atom, score
      L1  H    15    47       P1  7948  2.00
      L1  C     9    27       P1  8029  0.66

> <Gold.PLP.Chemscore.Internal.Correction>
0.0486

> <Gold.Rescore>
     Score         DG    S(hbond)    S(metal)    S(lipo)     H(rot)  DE(clash)    DE(int)     intcor
     12.86     -14.98       1.00        0.00      85.26       1.49       0.05       2.07       ----

> <Gold.Chemscore.Fitness>
12.8638

> <Gold.Chemscore.DG>
-14.9833

> <Gold.Chemscore.ZeroCoef>
-5.4800

> <Gold.Chemscore.Hbond>
1.0000

> <Gold.Chemscore.Metal>
0.0000

> <Gold.Chemscore.Lipo>
85.2597

> <Gold.Chemscore.Internal_Hbond>
0.0000

> <Gold.Chemscore.DEClash>
0.0495

> <Gold.Chemscore.DEInternal>
2.0700

> <Gold.Chemscore.Rot>
1.4891

> <Gold.Chemscore.Internal.Correction>
   9.000000E+99

> <Gold.Chemscore.Hbonds>
donor molecule, donor type, donor heavy atom, donor atom, acceptor molecule, acceptor atom, score
      L1  H    15    47       P1  7948  1.00

> <Gold.Chemscore.Hbond.Weighted>
-3.3400

> <Gold.Chemscore.Metal.Weighted>
-0.0000

> <Gold.Chemscore.Lipo.Weighted>
-9.9754

> <Gold.Chemscore.Internal_Hbond.Weighted>
0.0000

> <Gold.Chemscore.DEClash.Weighted>
0.0495

> <Gold.Chemscore.DEInternal.Weighted>
2.0700

> <Gold.Chemscore.Rot.Weighted>
3.8121

> <Gold.Chemscore.Internal.Correction.Weighted>
   9.000000E+99

> <Gold.Protein.RotatedTorsions>
[ 6907 6896 6895 6894 ] final  176.00 input  -60.11 | X-H torsion
[ 7974 7965 7964 7962 ] final  -41.42 input  175.53 | X-H torsion
[ 8008 7997 7996 7995 ] final  -16.02 input   59.86 | X-H torsion
[ 10167 10162 10161 10158 ] final  -47.25 input  -65.29 | X-H torsion
[ 10718 10713 10712 10709 ] final  -64.42 input   66.30 | X-H torsion
[ 10763 10752 10751 10750 ] final  171.02 input  -60.55 | X-H torsion
[ 11005 11000 10999 10996 ] final  -91.46 input  -57.11 | X-H torsion

> <Gold.Protein.ActiveResidues>
 VAL166  LYS551  ARG553  GLY616  TRP617  ASP618  TYR619  PRO620  LYS621  CYS622 
 ASP623  PHE694  ASN695  SER759  ASP760  ASP761  ALA762  ILE779  LEU786  VAL792 
 PHE793  MET794  SER795  GLU796  ALA797  LYS798  CYS799  TRP800  GLU811  SER814 

> <Gold.Protein.RotatedAtoms>
  151.7272  133.3316  159.3330 H   0  0  0  0  0  0  0  0  0  0  0  0  # atno 6907 bound_to 6896
  150.7628  134.6396  159.6239 H   0  0  0  0  0  0  0  0  0  0  0  0  # atno 6908 bound_to 6896
  152.3615  134.6868  160.0257 H   0  0  0  0  0  0  0  0  0  0  0  0  # atno 6909 bound_to 6896
  146.0212  140.6847  142.9177 H   0  0  0  0  0  0  0  0  0  0  0  0  # atno 7974 bound_to 7965
  154.5085  140.2180  155.9203 H   0  0  0  0  0  0  0  0  0  0  0  0  # atno 8008 bound_to 7997
  156.1523  140.3159  155.8635 H   0  0  0  0  0  0  0  0  0  0  0  0  # atno 8009 bound_to 7997
  155.3914  140.0478  157.3031 H   0  0  0  0  0  0  0  0  0  0  0  0  # atno 8010 bound_to 7997
  140.6783  143.2793  151.3900 H   0  0  0  0  0  0  0  0  0  0  0  0  # atno 10167 bound_to 10162
  156.0730  130.4233  150.1418 H   0  0  0  0  0  0  0  0  0  0  0  0  # atno 10718 bound_to 10713
  154.4060  135.2755  155.2067 H   0  0  0  0  0  0  0  0  0  0  0  0  # atno 10763 bound_to 10752
  154.4073  135.6030  153.5935 H   0  0  0  0  0  0  0  0  0  0  0  0  # atno 10764 bound_to 10752
  152.9831  135.5941  154.4334 H   0  0  0  0  0  0  0  0  0  0  0  0  # atno 10765 bound_to 10752
  141.1544  133.7757  156.9882 H   0  0  0  0  0  0  0  0  0  0  0  0  # atno 11005 bound_to 11000
  144.6991  140.3570  143.7171 LP  0  0  0  0  0  0  0  0  0  0  0  0  # atno 17320 bound_to 7965
  145.7189  139.1704  143.2496 LP  0  0  0  0  0  0  0  0  0  0  0  0  # atno 17321 bound_to 7965
  139.6089  144.1140  152.2278 LP  0  0  0  0  0  0  0  0  0  0  0  0  # atno 17342 bound_to 10162
  140.0548  144.5904  150.7308 LP  0  0  0  0  0  0  0  0  0  0  0  0  # atno 17343 bound_to 10162
  156.9465  130.9761  151.3506 LP  0  0  0  0  0  0  0  0  0  0  0  0  # atno 17370 bound_to 10713
  157.5811  130.8377  149.8524 LP  0  0  0  0  0  0  0  0  0  0  0  0  # atno 17371 bound_to 10713
  140.1021  134.9529  157.1938 LP  0  0  0  0  0  0  0  0  0  0  0  0  # atno 17394 bound_to 11000
  140.3305  134.2815  155.7229 LP  0  0  0  0  0  0  0  0  0  0  0  0  # atno 17395 bound_to 11000

$$$$
