#       Name:                AV-unprocessed.smi:1671
#       Creating user name   scv26
#       Creation time:       Fri Mar 27 07:43:41 2020


#       File generated by GOLD software.
#

@<TRIPOS>MOLECULE
AV-unprocessed.smi:1671
    50    51     1
SMALL
NO_CHARGES


@<TRIPOS>ATOM
      1 ****        -3.9466   2.0516  -5.2634 C.3            1 S1                 0.0000
      2 ****        -4.6221   0.5689  -4.4667 S.3            1 S1                 0.0000
      3 ****        -3.8805   0.6958  -2.8118 C.3            1 S1                 0.0000
      4 ****        -4.6044  -0.2413  -1.8323 C.3            1 S1                 0.0000
      5 ****        -2.3735   0.4129  -2.8360 C.2            1 S1                 0.0000
      6 ****        -1.9576  -0.7410  -2.9468 O.2            1 S1                 0.0000
      7 ****        -1.5632   1.4784  -2.7363 N.am           1 S1                 0.0000
      8 ****        -0.1051   1.4222  -2.7423 C.3            1 S1                 0.0000
      9 ****         0.5128   0.9540  -1.4322 C.ar           1 S1                 0.0000
     10 ****        -0.0975   1.1983  -0.1839 C.ar           1 S1                 0.0000
     11 ****         0.5344   0.7398   0.9875 C.ar           1 S1                 0.0000
     12 ****         1.7649   0.0482   0.8843 C.ar           1 S1                 0.0000
     13 ****         2.4149  -0.4248   2.0452 N.3            1 S1                 0.0000
     14 ****         3.7858  -0.9141   1.9126 C.3            1 S1                 0.0000
     15 ****         4.4229  -1.1037   3.2986 C.3            1 S1                 0.0000
     16 ****         3.6042  -1.9592   4.0891 O.3            1 S1                 0.0000
     17 ****         2.3059  -1.4123   4.3028 C.3            1 S1                 0.0000
     18 ****         1.5351  -2.3534   5.2343 C.3            1 S1                 0.0000
     19 ****         1.5977  -1.2343   2.9456 C.3            1 S1                 0.0000
     20 ****         2.3549  -0.1708  -0.3168 N.ar           1 S1                 0.0000
     21 ****         1.7443   0.2697  -1.4366 C.ar           1 S1                 0.0000
     22 ****        -4.3593   2.1565  -6.2665 H              1 S1                 0.0000
     23 ****        -2.8618   1.9867  -5.3453 H              1 S1                 0.0000
     24 ****        -4.2018   2.9431  -4.6906 H              1 S1                 0.0000
     25 ****        -4.0385   1.7182  -2.4646 H              1 S1                 0.0000
     26 ****        -4.1687  -0.1866  -0.8339 H              1 S1                 0.0000
     27 ****        -4.5570  -1.2802  -2.1610 H              1 S1                 0.0000
     28 ****        -5.6573   0.0276  -1.7441 H              1 S1                 0.0000
     29 ****        -1.9857   2.3916  -2.6520 H              1 S1                 0.0000
     30 ****         0.2329   0.7826  -3.5596 H              1 S1                 0.0000
     31 ****         0.2717   2.4221  -2.9584 H              1 S1                 0.0000
     32 ****        -1.0341   1.7317  -0.1157 H              1 S1                 0.0000
     33 ****         0.0775   0.9368   1.9457 H              1 S1                 0.0000
     34 ****         3.7805  -1.8617   1.3720 H              1 S1                 0.0000
     35 ****         4.3852  -0.2103   1.3337 H              1 S1                 0.0000
     36 ****         5.4117  -1.5512   3.1989 H              1 S1                 0.0000
     37 ****         4.5571  -0.1439   3.8001 H              1 S1                 0.0000
     38 ****         2.4034  -0.4425   4.7944 H              1 S1                 0.0000
     39 ****         0.5344  -1.9712   5.4374 H              1 S1                 0.0000
     40 ****         2.0491  -2.4629   6.1896 H              1 S1                 0.0000
     41 ****         1.4323  -3.3463   4.7954 H              1 S1                 0.0000
     42 ****         0.6195  -0.7863   3.1132 H              1 S1                 0.0000
     43 ****         1.4246  -2.2062   2.4811 H              1 S1                 0.0000
     44 ****         2.2564   0.0667  -2.3656 H              1 S1                 0.0000
     45 ****        -2.6039  -1.5004  -3.0216 LP             1 S1                 0.0000
     46 ****        -0.9736  -0.9185  -2.9619 LP             1 S1                 0.0000
     47 ****         2.5441   0.4495   2.5131 LP             1 S1                 0.0000
     48 ****         4.0453  -2.0985   4.9757 LP             1 S1                 0.0000
     49 ****         3.5108  -2.8382   3.6216 LP             1 S1                 0.0000
     50 ****         3.2299  -0.6518  -0.3719 LP             1 S1                 0.0000
@<TRIPOS>BOND
    1    1    2 1     
    2    1   22 1     
    3    1   23 1     
    4    1   24 1     
    5    2    3 1     
    6    3    4 1     
    7    3    5 1     
    8    3   25 1     
    9    4   26 1     
   10    4   27 1     
   11    4   28 1     
   12    5    6 2     
   13    5    7 am    
   14    7    8 1     
   15    7   29 1     
   16    8    9 1     
   17    8   30 1     
   18    8   31 1     
   19    9   21 ar    
   20    9   10 ar    
   21   10   11 ar    
   22   10   32 1     
   23   11   12 ar    
   24   11   33 1     
   25   12   13 1     
   26   12   20 ar    
   27   13   19 1     
   28   13   14 1     
   29   14   15 1     
   30   14   34 1     
   31   14   35 1     
   32   15   16 1     
   33   15   36 1     
   34   15   37 1     
   35   16   17 1     
   36   17   18 1     
   37   17   19 1     
   38   17   38 1     
   39   18   39 1     
   40   18   40 1     
   41   18   41 1     
   42   19   42 1     
   43   19   43 1     
   44   20   21 ar    
   45   21   44 1     
   46    6   45 1     
   47    6   46 1     
   48   13   47 1     
   49   16   48 1     
   50   16   49 1     
   51   20   50 1     
@<TRIPOS>SUBSTRUCTURE
      1 S1             1
@<TRIPOS>SET
LONE_PAIRS      STATIC     ATOMS    <user>   **** ""
6 45 46 47 48 49 50
DONOR_HYDROGENS      STATIC     ATOMS    <user>   **** ""
1 29
ATOM$BLUE        STATIC     ATOMS    COLORGROUP SYSTEM
6 45 46 47 48 49 50
ATOM$RED        STATIC     ATOMS    COLORGROUP SYSTEM
1 29
