AV-unprocessed.smi:1990|AV-procd|sdf|8065|dock6
  -GOLD-   2272010273D 1   1.00000     0.00000
 Structure written by MMmdl.
 46 47  0  0  0  0  0  0  0  0  1 V2000
  152.9430  142.6394  161.6477 C   0  0  0  0  0  0  0  0  0  0  0  0
  152.5873  142.6410  160.1573 C   0  0  1  0  0  0  0  0  0  0  0  0
  152.1570  141.2456  159.6690 C   0  0  0  0  0  0  0  0  0  0  0  0
  151.6942  141.3108  158.2870 N   0  0  0  0  0  0  0  0  0  0  0  0
  151.5786  140.0701  157.6253 C   0  0  0  0  0  0  0  0  0  0  0  0
  151.9639  139.9516  156.2697 C   0  0  0  0  0  0  0  0  0  0  0  0
  151.8380  138.7072  155.6225 C   0  0  0  0  0  0  0  0  0  0  0  0
  151.3346  137.6035  156.3510 C   0  0  0  0  0  0  0  0  0  0  0  0
  151.1399  136.2970  155.8246 N   0  0  0  0  0  0  0  0  0  0  0  0
  150.6711  135.1888  156.4291 C   0  0  0  0  0  0  0  0  0  0  0  0
  150.2620  135.1430  157.5884 O   0  0  0  0  0  0  0  0  0  0  0  0
  150.6422  133.9241  155.5586 C   0  0  2  0  0  0  0  0  0  0  0  0
  149.6860  134.0689  154.3632 C   0  0  0  0  0  0  0  0  0  0  0  0
  150.1520  132.4586  156.5838 S   0  0  0  0  0  0  0  0  0  0  0  0
  150.4060  131.0385  155.4373 C   0  0  0  0  0  0  0  0  0  0  0  0
  151.0991  132.3173  157.7006 O   0  0  0  0  0  0  0  0  0  0  0  0
  148.7131  132.5655  156.8692 O   0  0  0  0  0  0  0  0  0  0  0  0
  150.9691  137.8237  157.6939 C   0  0  0  0  0  0  0  0  0  0  0  0
  151.0843  139.0147  158.3166 N   0  0  0  0  0  0  0  0  0  0  0  0
  150.6397  142.3001  158.0786 C   0  0  0  0  0  0  0  0  0  0  0  0
  151.0665  143.6821  158.6101 C   0  0  2  0  0  0  0  0  0  0  0  0
  152.0889  144.3971  157.7082 C   0  0  0  0  0  0  0  0  0  0  0  0
  151.5219  143.5702  159.9602 O   0  0  0  0  0  0  0  0  0  0  0  0
  153.7666  141.9556  161.8537 H   0  0  0  0  0  0  0  0  0  0  0  0
  152.0920  142.3322  162.2564 H   0  0  0  0  0  0  0  0  0  0  0  0
  153.2461  143.6337  161.9766 H   0  0  0  0  0  0  0  0  0  0  0  0
  153.4668  142.9677  159.6022 H   0  0  0  0  0  0  0  0  0  0  0  0
  152.9908  140.5532  159.7805 H   0  0  0  0  0  0  0  0  0  0  0  0
  151.3454  140.8642  160.2901 H   0  0  0  0  0  0  0  0  0  0  0  0
  152.3347  140.8022  155.7171 H   0  0  0  0  0  0  0  0  0  0  0  0
  152.1181  138.6386  154.5839 H   0  0  0  0  0  0  0  0  0  0  0  0
  151.3796  136.1933  154.8493 H   0  0  0  0  0  0  0  0  0  0  0  0
  151.6445  133.7273  155.1763 H   0  0  0  0  0  0  0  0  0  0  0  0
  149.9307  134.9451  153.7618 H   0  0  0  0  0  0  0  0  0  0  0  0
  148.6491  134.1633  154.6880 H   0  0  0  0  0  0  0  0  0  0  0  0
  149.7464  133.1972  153.7112 H   0  0  0  0  0  0  0  0  0  0  0  0
  150.0403  130.1268  155.9089 H   0  0  0  0  0  0  0  0  0  0  0  0
  151.4670  130.9218  155.2184 H   0  0  0  0  0  0  0  0  0  0  0  0
  149.8566  131.2104  154.5122 H   0  0  0  0  0  0  0  0  0  0  0  0
  150.5688  137.0178  158.2919 H   0  0  0  0  0  0  0  0  0  0  0  0
  150.3888  142.3757  157.0196 H   0  0  0  0  0  0  0  0  0  0  0  0
  149.7406  141.9686  158.6002 H   0  0  0  0  0  0  0  0  0  0  0  0
  150.1782  144.3136  158.6401 H   0  0  0  0  0  0  0  0  0  0  0  0
  151.6651  144.5888  156.7224 H   0  0  0  0  0  0  0  0  0  0  0  0
  152.9942  143.8089  157.5601 H   0  0  0  0  0  0  0  0  0  0  0  0
  152.3788  145.3576  158.1346 H   0  0  0  0  0  0  0  0  0  0  0  0
  1  2  1  0  0  0  0
  1 24  1  0  0  0  0
  1 25  1  0  0  0  0
  1 26  1  0  0  0  0
  2 23  1  0  0  0  0
  2  3  1  0  0  0  0
  2 27  1  0  0  0  0
  3  4  1  0  0  0  0
  3 28  1  0  0  0  0
  3 29  1  0  0  0  0
  4  5  1  0  0  0  0
  4 20  1  0  0  0  0
  5 19  1  0  0  0  0
  5  6  2  0  0  0  0
  6  7  1  0  0  0  0
  6 30  1  0  0  0  0
  7  8  2  0  0  0  0
  7 31  1  0  0  0  0
  8  9  1  0  0  0  0
  8 18  1  0  0  0  0
  9 10  1  0  0  0  0
  9 32  1  0  0  0  0
 10 11  2  0  0  0  0
 10 12  1  0  0  0  0
 12 13  1  0  0  0  0
 12 14  1  0  0  0  0
 12 33  1  0  0  0  0
 13 34  1  0  0  0  0
 13 35  1  0  0  0  0
 13 36  1  0  0  0  0
 14 15  1  0  0  0  0
 14 16  2  0  0  0  0
 14 17  2  0  0  0  0
 15 37  1  0  0  0  0
 15 38  1  0  0  0  0
 15 39  1  0  0  0  0
 18 19  2  0  0  0  0
 18 40  1  0  0  0  0
 20 21  1  0  0  0  0
 20 41  1  0  0  0  0
 20 42  1  0  0  0  0
 21 22  1  0  0  0  0
 21 23  1  0  0  0  0
 21 43  1  0  0  0  0
 22 44  1  0  0  0  0
 22 45  1  0  0  0  0
 22 46  1  0  0  0  0
M  END
> <s_m_source_file>
AV-unprocessed.smi

> <i_m_source_file_index>
1990

> <i_lp_mmshare_version>
43012

> <i_f3d_flags>
0

> <s_epik_input>
W0NIM11bQ0BASF0xW0NIMl1OKFtDSDJdW0NASF0oTzEpW0NIM10pYzJbY0hdW2NIXWMoW2NIXW4yKVtOSF1DKD1PKVtDQEhdKFtDSDNdKVMoPU8pKD1PKVtDSDNd

> <s_epik_cmdline>
J2VwaWtfcHl0aG9uJywgJy1waCcsICc3LjAnLCAnLXRuJywgJzgnLCAnLW1hJywgJzIwMCcsICctbWV0YWxfYmluZGluZycsICctaW1hZScsICc8aW5maWxlLm1hZT4nLCAnLW9tYWUnLCAnPG91dGZpbGUubWFlPic=

> <r_lp_tautomer_probability>
1

> <r_epik_Ionization_Penalty>
0.000334888

> <r_epik_Ionization_Penalty_Charging>
0

> <r_epik_Ionization_Penalty_Neutral>
0.000334888

> <r_epik_State_Penalty>
0.000200905

> <r_epik_Charging_Adjusted_Penalty>
0.000200905

> <i_epik_Tot_Q>
0

> <i_epik_Tot_abs_Q>
0

> <r_epik_Metal_State_Penalty>
-0

> <b_epik_Metal_Only>
0

> <s_lp_Force_Field>
OPLS_2005

> <r_lp_Energy>
21.5774

> <b_lp_Chiralities_Consistent>
1

> <s_lp_Variant>
AV-unprocessed.smi:1990-5

> <Gold.Version>
5.8.1

> <Gold.Id.Protein>
6NUR|6NUR_protein|mol2

> <Gold.PLP.Fitness>
42.5301

> <Gold.PLP.PLP>
-39.1348

> <Gold.PLP.part.hbond>
-2.0000

> <Gold.PLP.part.metal>
0.0000

> <Gold.PLP.part.buried>
-6.7399

> <Gold.PLP.part.nonpolar>
-30.9468

> <Gold.PLP.part.repulsive>
0.1490

> <Gold.PLP.ligand.clash>
0.0000

> <Gold.PLP.ligand.torsion>
0.8093

> <Gold.PLP.Chemscore.Hbond>
1.5120

> <Gold.PLP.Chemscore.CHOScore>
0.0000

> <Gold.PLP.Chemscore.Metal>
0.0000

> <Gold.Chemscore.Hbonds>
donor molecule, donor type, donor heavy atom, donor atom, acceptor molecule, acceptor atom, score
      P1  H  6896  6907       L1    16  0.93
      P1  H  6896  6908       L1    11  0.50

> <Gold.PLP.Chemscore.Internal.Correction>
0.4778

> <Gold.Rescore>
     Score         DG    S(hbond)    S(metal)    S(lipo)     H(rot)  DE(clash)    DE(int)     intcor
     14.69     -18.27       1.55        0.00      98.30       1.52       0.11       3.47       ----

> <Gold.Chemscore.Fitness>
14.6917

> <Gold.Chemscore.DG>
-18.2691

> <Gold.Chemscore.ZeroCoef>
-5.4800

> <Gold.Chemscore.Hbond>
1.5489

> <Gold.Chemscore.Metal>
0.0000

> <Gold.Chemscore.Lipo>
98.3003

> <Gold.Chemscore.Internal_Hbond>
0.0000

> <Gold.Chemscore.DEClash>
0.1103

> <Gold.Chemscore.DEInternal>
3.4671

> <Gold.Chemscore.Rot>
1.5177

> <Gold.Chemscore.Internal.Correction>
   9.000000E+99

> <Gold.Chemscore.Hbonds>
donor molecule, donor type, donor heavy atom, donor atom, acceptor molecule, acceptor atom, score
      P1  H  6896  6907       L1    16  0.89
      P1  H  6896  6908       L1    11  0.49

> <Gold.Chemscore.Hbond.Weighted>
-5.1733

> <Gold.Chemscore.Metal.Weighted>
-0.0000

> <Gold.Chemscore.Lipo.Weighted>
-11.5011

> <Gold.Chemscore.Internal_Hbond.Weighted>
0.0000

> <Gold.Chemscore.DEClash.Weighted>
0.1103

> <Gold.Chemscore.DEInternal.Weighted>
3.4671

> <Gold.Chemscore.Rot.Weighted>
3.8853

> <Gold.Chemscore.Internal.Correction.Weighted>
   9.000000E+99

> <Gold.Protein.RotatedTorsions>
[ 6907 6896 6895 6894 ] final  176.02 input  -60.11 | X-H torsion
[ 7974 7965 7964 7962 ] final  103.70 input  175.53 | X-H torsion
[ 8008 7997 7996 7995 ] final   -4.51 input   59.86 | X-H torsion
[ 10167 10162 10161 10158 ] final  -92.71 input  -65.29 | X-H torsion
[ 10718 10713 10712 10709 ] final  129.89 input   66.30 | X-H torsion
[ 10763 10752 10751 10750 ] final   34.55 input  -60.55 | X-H torsion
[ 11005 11000 10999 10996 ] final -152.53 input  -57.11 | X-H torsion

> <Gold.Protein.ActiveResidues>
 VAL166  LYS551  ARG553  GLY616  TRP617  ASP618  TYR619  PRO620  LYS621  CYS622 
 ASP623  PHE694  ASN695  SER759  ASP760  ASP761  ALA762  ILE779  LEU786  VAL792 
 PHE793  MET794  SER795  GLU796  ALA797  LYS798  CYS799  TRP800  GLU811  SER814 

> <Gold.Protein.RotatedAtoms>
  151.7269  133.3316  159.3329 H   0  0  0  0  0  0  0  0  0  0  0  0  # atno 6907 bound_to 6896
  150.7629  134.6398  159.6240 H   0  0  0  0  0  0  0  0  0  0  0  0  # atno 6908 bound_to 6896
  152.3616  134.6866  160.0257 H   0  0  0  0  0  0  0  0  0  0  0  0  # atno 6909 bound_to 6896
  145.3424  139.2459  143.3602 H   0  0  0  0  0  0  0  0  0  0  0  0  # atno 7974 bound_to 7965
  154.6135  140.2482  155.7638 H   0  0  0  0  0  0  0  0  0  0  0  0  # atno 8008 bound_to 7997
  156.2385  140.2941  156.0328 H   0  0  0  0  0  0  0  0  0  0  0  0  # atno 8009 bound_to 7997
  155.2013  140.0394  157.2908 H   0  0  0  0  0  0  0  0  0  0  0  0  # atno 8010 bound_to 7997
  140.3321  143.2989  151.9930 H   0  0  0  0  0  0  0  0  0  0  0  0  # atno 10167 bound_to 10162
  157.5112  131.1097  150.9290 H   0  0  0  0  0  0  0  0  0  0  0  0  # atno 10718 bound_to 10713
  153.0159  135.6357  154.1686 H   0  0  0  0  0  0  0  0  0  0  0  0  # atno 10763 bound_to 10752
  154.1425  135.2834  155.3158 H   0  0  0  0  0  0  0  0  0  0  0  0  # atno 10764 bound_to 10752
  154.6114  135.5555  153.7538 H   0  0  0  0  0  0  0  0  0  0  0  0  # atno 10765 bound_to 10752
  140.7179  134.3760  157.5188 H   0  0  0  0  0  0  0  0  0  0  0  0  # atno 11005 bound_to 11000
  146.3002  140.4024  142.8707 LP  0  0  0  0  0  0  0  0  0  0  0  0  # atno 17320 bound_to 7965
  144.8780  140.7362  143.6005 LP  0  0  0  0  0  0  0  0  0  0  0  0  # atno 17321 bound_to 7965
  139.4855  144.6226  151.7225 LP  0  0  0  0  0  0  0  0  0  0  0  0  # atno 17342 bound_to 10162
  140.5387  144.0613  150.6080 LP  0  0  0  0  0  0  0  0  0  0  0  0  # atno 17343 bound_to 10162
  156.9929  130.5570  149.5305 LP  0  0  0  0  0  0  0  0  0  0  0  0  # atno 17370 bound_to 10713
  156.0290  130.5383  150.8485 LP  0  0  0  0  0  0  0  0  0  0  0  0  # atno 17371 bound_to 10713
  139.8855  134.8935  156.2638 LP  0  0  0  0  0  0  0  0  0  0  0  0  # atno 17394 bound_to 11000
  141.0029  133.7141  156.0988 LP  0  0  0  0  0  0  0  0  0  0  0  0  # atno 17395 bound_to 11000

$$$$
