#       Name:                AV-unprocessed.smi:3311
#       Creating user name   scv26
#       Creation time:       Fri Mar 27 19:06:26 2020


#       File generated by GOLD software.
#

@<TRIPOS>MOLECULE
AV-unprocessed.smi:3311
    47    48     1
SMALL
NO_CHARGES


@<TRIPOS>ATOM
      1 ****        -2.7005  -1.6496  -1.8141 C.3            1 S1                 0.0000
      2 ****        -2.1443  -0.8413  -0.6291 C.3            1 S1                 0.0000
      3 ****        -0.6872  -0.7667  -0.7808 N.3            1 S1                 0.0000
      4 ****        -0.0996   0.5396  -0.4732 C.3            1 S1                 0.0000
      5 ****         1.4450   0.5101  -0.4655 C.3            1 S1                 0.0000
      6 ****         1.8366  -0.2460   0.6663 O.3            1 S1                 0.0000
      7 ****         2.0416  -0.1197  -1.7497 C.3            1 S1                 0.0000
      8 ****         3.5766  -0.0234  -1.8070 C.3            1 S1                 0.0000
      9 ****         4.0559   1.4249  -1.6407 C.3            1 S1                 0.0000
     10 ****         3.5183   2.0347  -0.3388 C.3            1 S1                 0.0000
     11 ****         1.9828   1.9479  -0.2728 C.3            1 S1                 0.0000
     12 ****        -2.5403  -1.4656   0.7413 C.3            1 S1                 0.0000
     13 ****        -4.0602  -1.6450   0.9161 C.3            1 S1                 0.0000
     14 ****        -2.0124  -0.7018   1.8661 N.pl3          1 S1                 0.0000
     15 ****        -2.4135   0.5321   2.3406 C.2            1 S1                 0.0000
     16 ****        -1.6016   0.8496   3.3915 C.2            1 S1                 0.0000
     17 ****        -0.7195  -0.2625   3.4845 C.2            1 S1                 0.0000
     18 ****        -0.9687  -1.1886   2.5737 N.2            1 S1                 0.0000
     19 ****        -3.7895  -1.6268  -1.8449 H              1 S1                 0.0000
     20 ****        -2.3862  -2.6928  -1.7681 H              1 S1                 0.0000
     21 ****        -2.3517  -1.2405  -2.7631 H              1 S1                 0.0000
     22 ****        -2.5694   0.1613  -0.6992 H              1 S1                 0.0000
     23 ****        -0.2551  -1.4643  -0.1825 H              1 S1                 0.0000
     24 ****        -0.4448   1.2640  -1.2117 H              1 S1                 0.0000
     25 ****        -0.4501   0.9064   0.4898 H              1 S1                 0.0000
     26 ****         2.7805  -0.2568   0.7058 H              1 S1                 0.0000
     27 ****         1.7493  -1.1668  -1.8369 H              1 S1                 0.0000
     28 ****         1.6244   0.3847  -2.6223 H              1 S1                 0.0000
     29 ****         4.0146  -0.6463  -1.0261 H              1 S1                 0.0000
     30 ****         3.9356  -0.4253  -2.7548 H              1 S1                 0.0000
     31 ****         5.1457   1.4595  -1.6460 H              1 S1                 0.0000
     32 ****         3.7223   2.0215  -2.4907 H              1 S1                 0.0000
     33 ****         3.9566   1.5197   0.5166 H              1 S1                 0.0000
     34 ****         3.8324   3.0759  -0.2619 H              1 S1                 0.0000
     35 ****         1.5676   2.5920  -1.0493 H              1 S1                 0.0000
     36 ****         1.6331   2.3585   0.6756 H              1 S1                 0.0000
     37 ****        -2.0994  -2.4635   0.7918 H              1 S1                 0.0000
     38 ****        -4.4628  -2.3768   0.2164 H              1 S1                 0.0000
     39 ****        -4.5942  -0.7068   0.7641 H              1 S1                 0.0000
     40 ****        -4.2979  -2.0045   1.9178 H              1 S1                 0.0000
     41 ****        -3.2300   1.0783   1.8921 H              1 S1                 0.0000
     42 ****        -1.6297   1.7425   3.9981 H              1 S1                 0.0000
     43 ****         0.0900  -0.4234   4.1811 H              1 S1                 0.0000
     44 ****        -0.5080  -0.9320  -1.7506 LP             1 S1                 0.0000
     45 ****         1.4913  -1.1808   0.5838 LP             1 S1                 0.0000
     46 ****         1.4686   0.1733   1.4963 LP             1 S1                 0.0000
     47 ****        -0.4909  -2.0565   2.4385 LP             1 S1                 0.0000
@<TRIPOS>BOND
    1    1    2 1     
    2    1   19 1     
    3    1   20 1     
    4    1   21 1     
    5    2    3 1     
    6    2   12 1     
    7    2   22 1     
    8    3    4 1     
    9    3   23 1     
   10    4    5 1     
   11    4   24 1     
   12    4   25 1     
   13    5   11 1     
   14    5    6 1     
   15    5    7 1     
   16    6   26 1     
   17    7    8 1     
   18    7   27 1     
   19    7   28 1     
   20    8    9 1     
   21    8   29 1     
   22    8   30 1     
   23    9   10 1     
   24    9   31 1     
   25    9   32 1     
   26   10   11 1     
   27   10   33 1     
   28   10   34 1     
   29   11   35 1     
   30   11   36 1     
   31   12   13 1     
   32   12   14 1     
   33   12   37 1     
   34   13   38 1     
   35   13   39 1     
   36   13   40 1     
   37   14   18 1     
   38   14   15 1     
   39   15   16 2     
   40   15   41 1     
   41   16   17 1     
   42   16   42 1     
   43   17   18 2     
   44   17   43 1     
   45    3   44 1     
   46    6   45 1     
   47    6   46 1     
   48   18   47 1     
@<TRIPOS>SUBSTRUCTURE
      1 S1             1
@<TRIPOS>SET
LONE_PAIRS      STATIC     ATOMS    <user>   **** ""
4 44 45 46 47
DONOR_HYDROGENS      STATIC     ATOMS    <user>   **** ""
2 23 26
ATOM$BLUE        STATIC     ATOMS    COLORGROUP SYSTEM
4 44 45 46 47
ATOM$RED        STATIC     ATOMS    COLORGROUP SYSTEM
2 23 26
