AV-unprocessed.smi:1484|AV-procd|sdf|5999|dock9
  -GOLD-   22720 6 93D 1   1.00000     0.00000
 Structure written by MMmdl.
 38 39  0  0  0  0  0  0  0  0  1 V2000
  153.1625  141.6114  160.6652 C   0  0  0  0  0  0  0  0  0  0  0  0
  152.9049  142.7025  159.6162 C   0  0  2  0  0  0  0  0  0  0  0  0
  152.4285  144.0130  160.2714 C   0  0  0  0  0  0  0  0  0  0  0  0
  152.1701  145.1050  159.2217 C   0  0  0  0  0  0  0  0  0  0  0  0
  151.1657  144.6323  158.1596 C   0  0  0  0  0  0  0  0  0  0  0  0
  151.6300  143.3215  157.4933 C   0  0  2  0  0  0  0  0  0  0  0  0
  150.6314  142.8454  156.5410 N   0  0  0  0  0  0  0  0  0  0  0  0
  150.6206  141.6319  155.9689 C   0  0  0  0  0  0  0  0  0  0  0  0
  151.4831  140.7779  156.1812 O   0  0  0  0  0  0  0  0  0  0  0  0
  149.4659  141.3603  154.9934 C   0  0  0  0  0  0  0  0  0  0  0  0
  148.1370  141.5069  155.6048 N   0  0  0  0  0  0  0  0  0  0  0  0
  148.1587  141.6307  156.9857 N   0  0  0  0  0  0  0  0  0  0  0  0
  147.0554  141.7799  157.6373 C   0  0  0  0  0  0  0  0  0  0  0  0
  147.1225  141.9019  159.0036 O   0  0  0  0  0  0  0  0  0  0  0  0
  145.7815  141.8175  156.9532 C   0  0  0  0  0  0  0  0  0  0  0  0
  145.7699  141.6905  155.6083 C   0  0  0  0  0  0  0  0  0  0  0  0
  147.0032  141.5196  154.8384 C   0  0  0  0  0  0  0  0  0  0  0  0
  147.0216  141.3992  153.6135 O   0  0  0  0  0  0  0  0  0  0  0  0
  151.8931  142.2336  158.5521 C   0  0  0  0  0  0  0  0  0  0  0  0
  146.6890  142.7166  159.2055 H   0  0  0  0  0  0  0  0  0  0  0  0
  152.2508  141.3591  161.2077 H   0  0  0  0  0  0  0  0  0  0  0  0
  153.9052  141.9358  161.3945 H   0  0  0  0  0  0  0  0  0  0  0  0
  153.5360  140.6992  160.1991 H   0  0  0  0  0  0  0  0  0  0  0  0
  153.8520  142.9031  159.1132 H   0  0  0  0  0  0  0  0  0  0  0  0
  151.5149  143.8317  160.8393 H   0  0  0  0  0  0  0  0  0  0  0  0
  153.1721  144.3646  160.9875 H   0  0  0  0  0  0  0  0  0  0  0  0
  151.7989  146.0076  159.7079 H   0  0  0  0  0  0  0  0  0  0  0  0
  153.1095  145.3780  158.7394 H   0  0  0  0  0  0  0  0  0  0  0  0
  150.1896  144.4859  158.6245 H   0  0  0  0  0  0  0  0  0  0  0  0
  151.0362  145.4127  157.4088 H   0  0  0  0  0  0  0  0  0  0  0  0
  152.5654  143.5078  156.9617 H   0  0  0  0  0  0  0  0  0  0  0  0
  149.8878  143.4861  156.3039 H   0  0  0  0  0  0  0  0  0  0  0  0
  149.5530  142.0244  154.1311 H   0  0  0  0  0  0  0  0  0  0  0  0
  149.5895  140.3505  154.5978 H   0  0  0  0  0  0  0  0  0  0  0  0
  144.8657  141.9439  157.5121 H   0  0  0  0  0  0  0  0  0  0  0  0
  144.8257  141.7169  155.0846 H   0  0  0  0  0  0  0  0  0  0  0  0
  152.2635  141.3304  158.0652 H   0  0  0  0  0  0  0  0  0  0  0  0
  150.9553  141.9591  159.0379 H   0  0  0  0  0  0  0  0  0  0  0  0
  1  2  1  0  0  0  0
  1 21  1  0  0  0  0
  1 22  1  0  0  0  0
  1 23  1  0  0  0  0
  2 19  1  0  0  0  0
  2  3  1  0  0  0  0
  2 24  1  0  0  0  0
  3  4  1  0  0  0  0
  3 25  1  0  0  0  0
  3 26  1  0  0  0  0
  4  5  1  0  0  0  0
  4 27  1  0  0  0  0
  4 28  1  0  0  0  0
  5  6  1  0  0  0  0
  5 29  1  0  0  0  0
  5 30  1  0  0  0  0
  6  7  1  0  0  0  0
  6 19  1  0  0  0  0
  6 31  1  0  0  0  0
  7  8  1  0  0  0  0
  7 32  1  0  0  0  0
  8  9  2  0  0  0  0
  8 10  1  0  0  0  0
 10 33  1  0  0  0  0
 10 34  1  0  0  0  0
 10 11  1  0  0  0  0
 11 12  1  0  0  0  0
 11 17  1  0  0  0  0
 12 13  2  0  0  0  0
 13 14  1  0  0  0  0
 13 15  1  0  0  0  0
 14 20  1  0  0  0  0
 15 35  1  0  0  0  0
 15 16  2  0  0  0  0
 16 36  1  0  0  0  0
 16 17  1  0  0  0  0
 17 18  2  0  0  0  0
 19 37  1  0  0  0  0
 19 38  1  0  0  0  0
M  END
> <s_m_source_file>
AV-unprocessed.smi

> <i_m_source_file_index>
1484

> <i_lp_mmshare_version>
43012

> <i_f3d_flags>
0

> <s_epik_input>
W0NIM11bQ0BASF0xW0NIMl1bQ0gyXVtDSDJdW0NASF0oW0NIMl0xKVtOSF1DKD1PKVtDSDJdbjJbbkhdYyg9TylbY0hdW2NIXWMyPU8=

> <s_epik_cmdline>
J2VwaWtfcHl0aG9uJywgJy1waCcsICc3LjAnLCAnLXRuJywgJzgnLCAnLW1hJywgJzIwMCcsICctbWV0YWxfYmluZGluZycsICctaW1hZScsICc8aW5maWxlLm1hZT4nLCAnLW9tYWUnLCAnPG91dGZpbGUubWFlPic=

> <r_lp_tautomer_probability>
0.9996

> <r_epik_Ionization_Penalty>
2.10343

> <r_epik_Ionization_Penalty_Charging>
3.97871e-08

> <r_epik_Ionization_Penalty_Neutral>
2.10343

> <r_epik_State_Penalty>
1.67966

> <r_epik_Charging_Adjusted_Penalty>
1.67966

> <i_epik_Tot_Q>
0

> <i_epik_Tot_abs_Q>
0

> <r_epik_Metal_State_Penalty>
1.67966

> <b_epik_Metal_Only>
0

> <s_lp_Force_Field>
OPLS_2005

> <r_lp_Energy>
18.4171

> <b_lp_Chiralities_Consistent>
1

> <s_lp_Variant>
AV-unprocessed.smi:1484-7

> <Gold.Version>
5.8.1

> <Gold.Id.Protein>
6NUR|6NUR_protein|mol2

> <Gold.PLP.Fitness>
43.9122

> <Gold.PLP.PLP>
-39.9588

> <Gold.PLP.part.hbond>
-2.0000

> <Gold.PLP.part.metal>
0.0000

> <Gold.PLP.part.buried>
-5.7155

> <Gold.PLP.part.nonpolar>
-32.1774

> <Gold.PLP.part.repulsive>
0.3921

> <Gold.PLP.ligand.clash>
0.0000

> <Gold.PLP.ligand.torsion>
0.2665

> <Gold.PLP.Chemscore.Hbond>
1.4940

> <Gold.PLP.Chemscore.CHOScore>
0.0000

> <Gold.PLP.Chemscore.Metal>
0.0000

> <Gold.Chemscore.Hbonds>
donor molecule, donor type, donor heavy atom, donor atom, acceptor molecule, acceptor atom, score
      L1  H     7    32       P1  8028  1.00
      P1  H  6934  6946       L1    14  0.58

> <Gold.PLP.Chemscore.Internal.Correction>
0.0044

> <Gold.Rescore>
     Score         DG    S(hbond)    S(metal)    S(lipo)     H(rot)  DE(clash)    DE(int)     intcor
     13.36     -16.21       1.73        0.00      91.39       2.24       0.01       2.85       ----

> <Gold.Chemscore.Fitness>
13.3578

> <Gold.Chemscore.DG>
-16.2125

> <Gold.Chemscore.ZeroCoef>
-5.4800

> <Gold.Chemscore.Hbond>
1.7303

> <Gold.Chemscore.Metal>
0.0000

> <Gold.Chemscore.Lipo>
91.3938

> <Gold.Chemscore.Internal_Hbond>
0.0000

> <Gold.Chemscore.DEClash>
0.0089

> <Gold.Chemscore.DEInternal>
2.8457

> <Gold.Chemscore.Rot>
2.2421

> <Gold.Chemscore.Internal.Correction>
   9.000000E+99

> <Gold.Chemscore.Hbonds>
donor molecule, donor type, donor heavy atom, donor atom, acceptor molecule, acceptor atom, score
      L1  H     7    32       P1  8028  1.00
      P1  H  6934  6946       L1    14  0.25

> <Gold.Chemscore.Hbond.Weighted>
-5.7792

> <Gold.Chemscore.Metal.Weighted>
-0.0000

> <Gold.Chemscore.Lipo.Weighted>
-10.6931

> <Gold.Chemscore.Internal_Hbond.Weighted>
0.0000

> <Gold.Chemscore.DEClash.Weighted>
0.0089

> <Gold.Chemscore.DEInternal.Weighted>
2.8457

> <Gold.Chemscore.Rot.Weighted>
5.7398

> <Gold.Chemscore.Internal.Correction.Weighted>
   9.000000E+99

> <Gold.Protein.RotatedTorsions>
[ 6907 6896 6895 6894 ] final -160.87 input  -60.11 | X-H torsion
[ 7974 7965 7964 7962 ] final  169.86 input  175.53 | X-H torsion
[ 8008 7997 7996 7995 ] final   70.35 input   59.86 | X-H torsion
[ 10167 10162 10161 10158 ] final  106.63 input  -65.29 | X-H torsion
[ 10718 10713 10712 10709 ] final  104.77 input   66.30 | X-H torsion
[ 10763 10752 10751 10750 ] final  118.77 input  -60.55 | X-H torsion
[ 11005 11000 10999 10996 ] final -148.46 input  -57.11 | X-H torsion

> <Gold.Protein.ActiveResidues>
 VAL166  LYS551  ARG553  GLY616  TRP617  ASP618  TYR619  PRO620  LYS621  CYS622 
 ASP623  PHE694  ASN695  SER759  ASP760  ASP761  ALA762  ILE779  LEU786  VAL792 
 PHE793  MET794  SER795  GLU796  ALA797  LYS798  CYS799  TRP800  GLU811  SER814 

> <Gold.Protein.RotatedAtoms>
  151.3558  133.3908  159.2684 H   0  0  0  0  0  0  0  0  0  0  0  0  # atno 6907 bound_to 6896
  150.9765  134.9129  159.7829 H   0  0  0  0  0  0  0  0  0  0  0  0  # atno 6908 bound_to 6896
  152.5202  134.3521  159.9307 H   0  0  0  0  0  0  0  0  0  0  0  0  # atno 6909 bound_to 6896
  144.7341  139.9117  143.6415 H   0  0  0  0  0  0  0  0  0  0  0  0  # atno 7974 bound_to 7965
  155.7375  140.3491  155.5088 H   0  0  0  0  0  0  0  0  0  0  0  0  # atno 8008 bound_to 7997
  155.9126  140.1053  157.1289 H   0  0  0  0  0  0  0  0  0  0  0  0  # atno 8009 bound_to 7997
  154.4058  140.1265  156.4563 H   0  0  0  0  0  0  0  0  0  0  0  0  # atno 8010 bound_to 7997
  139.6994  144.7096  151.1212 H   0  0  0  0  0  0  0  0  0  0  0  0  # atno 10167 bound_to 10162
  157.6729  131.0812  150.5756 H   0  0  0  0  0  0  0  0  0  0  0  0  # atno 10718 bound_to 10713
  153.5727  135.3499  155.2844 H   0  0  0  0  0  0  0  0  0  0  0  0  # atno 10763 bound_to 10752
  154.8679  135.4163  154.2707 H   0  0  0  0  0  0  0  0  0  0  0  0  # atno 10764 bound_to 10752
  153.3476  135.7053  153.6885 H   0  0  0  0  0  0  0  0  0  0  0  0  # atno 10765 bound_to 10752
  140.7610  134.3298  157.5101 H   0  0  0  0  0  0  0  0  0  0  0  0  # atno 11005 bound_to 11000
  146.0996  139.3991  143.0355 LP  0  0  0  0  0  0  0  0  0  0  0  0  # atno 17320 bound_to 7965
  145.7597  140.9940  143.1206 LP  0  0  0  0  0  0  0  0  0  0  0  0  # atno 17321 bound_to 7965
  140.7705  143.5446  150.9274 LP  0  0  0  0  0  0  0  0  0  0  0  0  # atno 17342 bound_to 10162
  139.9127  143.6701  152.3112 LP  0  0  0  0  0  0  0  0  0  0  0  0  # atno 17343 bound_to 10162
  156.6057  130.4366  149.5879 LP  0  0  0  0  0  0  0  0  0  0  0  0  # atno 17370 bound_to 10713
  156.2470  130.6885  151.1609 LP  0  0  0  0  0  0  0  0  0  0  0  0  # atno 17371 bound_to 10713
  139.8771  134.9202  156.3245 LP  0  0  0  0  0  0  0  0  0  0  0  0  # atno 17394 bound_to 11000
  140.9663  133.7356  156.0471 LP  0  0  0  0  0  0  0  0  0  0  0  0  # atno 17395 bound_to 11000

$$$$
