AV-unprocessed.smi:290|AV-procd|sdf|2223|dock6
  -GOLD-   2262022 73D 1   1.00000     0.00000
 Structure written by MMmdl.
 59 62  0  0  0  0  0  0  0  0  2 V2000
  147.8066  136.5793  163.2432 C   0  0  0  0  0  0  0  0  0  0  0  0
  146.7687  136.8801  162.1517 C   0  0  2  0  0  0  0  0  0  0  0  0
  145.5385  136.2163  162.4287 O   0  0  0  0  0  0  0  0  0  0  0  0
  144.9033  135.8305  161.2130 C   0  0  0  0  0  0  0  0  0  0  0  0
  145.7468  136.4355  160.0944 C   0  0  0  0  0  0  0  0  0  0  0  0
  147.1393  136.4764  160.7117 C   0  0  1  0  0  0  0  0  0  0  0  0
  147.8846  137.5052  160.0878 O   0  0  0  0  0  0  0  0  0  0  0  0
  147.9108  135.1316  160.6107 C   0  0  0  0  0  0  0  0  0  0  0  0
  147.7383  134.4433  159.3415 N   0  0  0  0  0  0  0  0  0  0  0  0
  146.7612  133.5258  159.0236 C   0  0  0  0  0  0  0  0  0  0  0  0
  146.8209  133.0445  157.8113 N   0  0  0  0  0  0  0  0  0  0  0  0
  147.9325  133.6678  157.2597 C   0  0  0  0  0  0  0  0  0  0  0  0
  148.5671  133.6077  155.9925 C   0  0  0  0  0  0  0  0  0  0  0  0
  148.0930  132.8194  155.0028 N   0  0  0  0  0  0  0  0  0  0  0  0
  148.9499  131.6962  154.6586 C   0  0  0  0  0  0  0  0  0  0  0  0
  148.4002  131.1499  153.3362 C   0  0  0  0  0  0  0  0  0  0  0  0
  147.6006  132.3235  152.7273 C   0  0  1  0  0  0  0  0  0  0  0  0
  146.1778  132.0108  152.3851 N   0  3  2  0  0  0  0  0  0  0  0  0
  145.9107  130.6072  151.9773 C   0  0  0  0  0  0  0  0  0  0  0  0
  145.5617  132.9876  151.4506 C   0  0  0  0  0  0  0  0  0  0  0  0
  144.1330  132.5870  151.0440 C   0  0  0  0  0  0  0  0  0  0  0  0
  143.6897  133.3988  149.9772 O   0  0  0  0  0  0  0  0  0  0  0  0
  147.7720  133.4738  153.7417 C   0  0  1  0  0  0  0  0  0  0  0  0
  146.6328  134.5092  153.8355 C   0  0  0  0  0  0  0  0  0  0  0  0
  149.6698  134.3766  155.7931 N   0  0  0  0  0  0  0  0  0  0  0  0
  150.1238  135.1572  156.7788 C   0  0  0  0  0  0  0  0  0  0  0  0
  149.6343  135.3158  158.0109 N   0  0  0  0  0  0  0  0  0  0  0  0
  148.5249  134.5462  158.2079 C   0  0  0  0  0  0  0  0  0  0  0  0
  148.0993  132.6455  151.8136 H   0  0  0  0  0  0  0  0  0  0  0  0
  148.6645  134.0209  153.4323 H   0  0  0  0  0  0  0  0  0  0  0  0
  148.7622  137.0522  163.0161 H   0  0  0  0  0  0  0  0  0  0  0  0
  147.9758  135.5085  163.3558 H   0  0  0  0  0  0  0  0  0  0  0  0
  147.4704  136.9586  164.2081 H   0  0  0  0  0  0  0  0  0  0  0  0
  146.5468  137.9491  162.1708 H   0  0  0  0  0  0  0  0  0  0  0  0
  144.9029  134.7419  161.1489 H   0  0  0  0  0  0  0  0  0  0  0  0
  143.8684  136.1712  161.1802 H   0  0  0  0  0  0  0  0  0  0  0  0
  145.6773  135.8850  159.1574 H   0  0  0  0  0  0  0  0  0  0  0  0
  145.3928  137.4491  159.8974 H   0  0  0  0  0  0  0  0  0  0  0  0
  147.8851  137.3526  159.1550 H   0  0  0  0  0  0  0  0  0  0  0  0
  148.9795  135.2961  160.7527 H   0  0  0  0  0  0  0  0  0  0  0  0
  147.6011  134.4536  161.4069 H   0  0  0  0  0  0  0  0  0  0  0  0
  145.9926  133.2288  159.7225 H   0  0  0  0  0  0  0  0  0  0  0  0
  149.9818  132.0266  154.5293 H   0  0  0  0  0  0  0  0  0  0  0  0
  148.9354  130.9377  155.4420 H   0  0  0  0  0  0  0  0  0  0  0  0
  149.2121  130.8350  152.6799 H   0  0  0  0  0  0  0  0  0  0  0  0
  147.7913  130.2673  153.5200 H   0  0  0  0  0  0  0  0  0  0  0  0
  146.1895  130.4251  150.9394 H   0  0  0  0  0  0  0  0  0  0  0  0
  144.8452  130.3950  152.0687 H   0  0  0  0  0  0  0  0  0  0  0  0
  146.4388  129.8873  152.6011 H   0  0  0  0  0  0  0  0  0  0  0  0
  145.5653  133.9791  151.9054 H   0  0  0  0  0  0  0  0  0  0  0  0
  146.1645  133.0696  150.5444 H   0  0  0  0  0  0  0  0  0  0  0  0
  144.0623  131.5380  150.7591 H   0  0  0  0  0  0  0  0  0  0  0  0
  143.4561  132.7317  151.8863 H   0  0  0  0  0  0  0  0  0  0  0  0
  142.8031  133.6750  150.1556 H   0  0  0  0  0  0  0  0  0  0  0  0
  146.4018  134.9231  152.8539 H   0  0  0  0  0  0  0  0  0  0  0  0
  146.9165  135.3427  154.4788 H   0  0  0  0  0  0  0  0  0  0  0  0
  145.7174  134.0844  154.2456 H   0  0  0  0  0  0  0  0  0  0  0  0
  151.0039  135.7388  156.5468 H   0  0  0  0  0  0  0  0  0  0  0  0
  145.6687  132.1288  153.2500 H   0  0  0  0  0  0  0  0  0  0  0  0
  1  2  1  0  0  0  0
  1 31  1  0  0  0  0
  1 32  1  0  0  0  0
  1 33  1  0  0  0  0
  2  6  1  0  0  0  0
  2  3  1  0  0  0  0
  2 34  1  0  0  0  0
  3  4  1  0  0  0  0
  4  5  1  0  0  0  0
  4 35  1  0  0  0  0
  4 36  1  0  0  0  0
  5  6  1  0  0  0  0
  5 37  1  0  0  0  0
  5 38  1  0  0  0  0
  6  7  1  0  0  0  0
  6  8  1  0  0  0  0
  7 39  1  0  0  0  0
  8  9  1  0  0  0  0
  8 40  1  0  0  0  0
  8 41  1  0  0  0  0
  9 28  1  0  0  0  0
  9 10  1  0  0  0  0
 10 11  2  0  0  0  0
 10 42  1  0  0  0  0
 11 12  1  0  0  0  0
 12 28  2  0  0  0  0
 12 13  1  0  0  0  0
 13 14  1  0  0  0  0
 13 25  2  0  0  0  0
 14 23  1  0  0  0  0
 14 15  1  0  0  0  0
 15 16  1  0  0  0  0
 15 43  1  0  0  0  0
 15 44  1  0  0  0  0
 16 17  1  0  0  0  0
 16 45  1  0  0  0  0
 16 46  1  0  0  0  0
 17 29  1  0  0  0  0
 17 18  1  0  0  0  0
 17 23  1  0  0  0  0
 18 19  1  0  0  0  0
 18 20  1  0  0  0  0
 18 59  1  0  0  0  0
 19 47  1  0  0  0  0
 19 48  1  0  0  0  0
 19 49  1  0  0  0  0
 20 21  1  0  0  0  0
 20 50  1  0  0  0  0
 20 51  1  0  0  0  0
 21 22  1  0  0  0  0
 21 52  1  0  0  0  0
 21 53  1  0  0  0  0
 22 54  1  0  0  0  0
 23 30  1  0  0  0  0
 23 24  1  0  0  0  0
 24 55  1  0  0  0  0
 24 56  1  0  0  0  0
 24 57  1  0  0  0  0
 25 26  1  0  0  0  0
 26 27  2  0  0  0  0
 26 58  1  0  0  0  0
 27 28  1  0  0  0  0
M  CHG  1  18   1
M  END
> <s_m_source_file>
AV-unprocessed.smi

> <i_m_source_file_index>
290

> <i_lp_mmshare_version>
43012

> <i_f3d_flags>
0

> <s_epik_input>
W0NIMl0xW0NIMl1PW0NAQEhdKFtDSDNdKVtDQEBdMShbT0hdKVtDSDJdbihbY0hdbjIpYyhjMjMpbltjSF1uYzNONFtDSDJdW0NIMl1bQ0BIXShbQ0BIXTRbQ0gzXSlOKFtDSDNdKVtDSDJdW0NIMl1bT0hd

> <s_epik_cmdline>
J2VwaWtfcHl0aG9uJywgJy1waCcsICc3LjAnLCAnLXRuJywgJzgnLCAnLW1hJywgJzIwMCcsICctbWV0YWxfYmluZGluZycsICctaW1hZScsICc8aW5maWxlLm1hZT4nLCAnLW9tYWUnLCAnPG91dGZpbGUubWFlPic=

> <r_lp_tautomer_probability>
1

> <r_epik_Ionization_Penalty>
0.0036983

> <r_epik_Ionization_Penalty_Charging>
0.0032725

> <r_epik_Ionization_Penalty_Neutral>
0.000425798

> <r_epik_State_Penalty>
-0

> <r_epik_Charging_Adjusted_Penalty>
0.0032725

> <i_epik_Tot_Q>
1

> <i_epik_Tot_abs_Q>
1

> <r_epik_Metal_State_Penalty>
-0

> <b_epik_Metal_Only>
0

> <s_lp_Force_Field>
OPLS_2005

> <r_lp_Energy>
69.2508

> <b_lp_Chiralities_Consistent>
1

> <s_lp_Variant>
AV-unprocessed.smi:290-9

> <Gold.Version>
5.8.1

> <Gold.Id.Protein>
6NUR|6NUR_protein|mol2

> <Gold.PLP.Fitness>
39.7969

> <Gold.PLP.PLP>
-33.4101

> <Gold.PLP.part.hbond>
-4.0000

> <Gold.PLP.part.metal>
0.0000

> <Gold.PLP.part.buried>
-3.5633

> <Gold.PLP.part.nonpolar>
-26.8938

> <Gold.PLP.part.repulsive>
0.0423

> <Gold.PLP.ligand.clash>
0.0000

> <Gold.PLP.ligand.torsion>
1.3919

> <Gold.PLP.Chemscore.Hbond>
3.0055

> <Gold.PLP.Chemscore.CHOScore>
0.0000

> <Gold.PLP.Chemscore.Metal>
0.0000

> <Gold.Chemscore.Hbonds>
donor molecule, donor type, donor heavy atom, donor atom, acceptor molecule, acceptor atom, score
      L1  H    22    54       P1 10186  0.99
      P1  H  6896  6909       L1    27  0.89
      P1  H  6931  6943       L1     7  0.22
      P1  H  6934  6947       L1     7  0.70

> <Gold.PLP.Chemscore.Internal.Correction>
0.1543

> <Gold.Rescore>
     Score         DG    S(hbond)    S(metal)    S(lipo)     H(rot)  DE(clash)    DE(int)     intcor
     13.11     -14.85       2.72        0.00      82.75       3.67       0.01       1.73       ----

> <Gold.Chemscore.Fitness>
13.1059

> <Gold.Chemscore.DG>
-14.8462

> <Gold.Chemscore.ZeroCoef>
-5.4800

> <Gold.Chemscore.Hbond>
2.7151

> <Gold.Chemscore.Metal>
0.0000

> <Gold.Chemscore.Lipo>
82.7548

> <Gold.Chemscore.Internal_Hbond>
0.0000

> <Gold.Chemscore.DEClash>
0.0134

> <Gold.Chemscore.DEInternal>
1.7269

> <Gold.Chemscore.Rot>
3.6658

> <Gold.Chemscore.Internal.Correction>
   9.000000E+99

> <Gold.Chemscore.Hbonds>
donor molecule, donor type, donor heavy atom, donor atom, acceptor molecule, acceptor atom, score
      L1  H    22    54       P1 10186  0.89
      P1  H  6896  6909       L1    27  0.16
      P1  H  6931  6943       L1     7  0.06
      P1  H  6934  6947       L1     7  0.24

> <Gold.Chemscore.Hbond.Weighted>
-9.0684

> <Gold.Chemscore.Metal.Weighted>
-0.0000

> <Gold.Chemscore.Lipo.Weighted>
-9.6823

> <Gold.Chemscore.Internal_Hbond.Weighted>
0.0000

> <Gold.Chemscore.DEClash.Weighted>
0.0134

> <Gold.Chemscore.DEInternal.Weighted>
1.7269

> <Gold.Chemscore.Rot.Weighted>
9.3844

> <Gold.Chemscore.Internal.Correction.Weighted>
   9.000000E+99

> <Gold.Protein.RotatedTorsions>
[ 6907 6896 6895 6894 ] final   53.91 input  -60.11 | X-H torsion
[ 7974 7965 7964 7962 ] final   71.48 input  175.53 | X-H torsion
[ 8008 7997 7996 7995 ] final  117.60 input   59.86 | X-H torsion
[ 10167 10162 10161 10158 ] final -117.37 input  -65.29 | X-H torsion
[ 10718 10713 10712 10709 ] final  -84.09 input   66.30 | X-H torsion
[ 10763 10752 10751 10750 ] final  176.95 input  -60.55 | X-H torsion
[ 11005 11000 10999 10996 ] final  -66.58 input  -57.11 | X-H torsion

> <Gold.Protein.ActiveResidues>
 VAL166  LYS551  ARG553  GLY616  TRP617  ASP618  TYR619  PRO620  LYS621  CYS622 
 ASP623  PHE694  ASN695  SER759  ASP760  ASP761  ALA762  ILE779  LEU786  VAL792 
 PHE793  MET794  SER795  GLU796  ALA797  LYS798  CYS799  TRP800  GLU811  SER814 

> <Gold.Protein.RotatedAtoms>
  152.3385  134.7166  160.0270 H   0  0  0  0  0  0  0  0  0  0  0  0  # atno 6907 bound_to 6896
  151.7559  133.3325  159.3412 H   0  0  0  0  0  0  0  0  0  0  0  0  # atno 6908 bound_to 6896
  150.7465  134.6082  159.6117 H   0  0  0  0  0  0  0  0  0  0  0  0  # atno 6909 bound_to 6896
  145.7653  139.2819  143.1352 H   0  0  0  0  0  0  0  0  0  0  0  0  # atno 7974 bound_to 7965
  156.2502  140.2893  156.0703 H   0  0  0  0  0  0  0  0  0  0  0  0  # atno 8008 bound_to 7997
  155.1678  140.0401  157.2874 H   0  0  0  0  0  0  0  0  0  0  0  0  # atno 8009 bound_to 7997
  154.6347  140.2508  155.7399 H   0  0  0  0  0  0  0  0  0  0  0  0  # atno 8010 bound_to 7997
  140.0691  143.4894  152.1989 H   0  0  0  0  0  0  0  0  0  0  0  0  # atno 10167 bound_to 10162
  156.0010  130.4686  150.4356 H   0  0  0  0  0  0  0  0  0  0  0  0  # atno 10718 bound_to 10713
  154.4880  135.2777  155.1519 H   0  0  0  0  0  0  0  0  0  0  0  0  # atno 10763 bound_to 10752
  154.3202  135.6211  153.5508 H   0  0  0  0  0  0  0  0  0  0  0  0  # atno 10764 bound_to 10752
  152.9884  135.5741  154.5295 H   0  0  0  0  0  0  0  0  0  0  0  0  # atno 10765 bound_to 10752
  141.1486  133.6702  156.6162 H   0  0  0  0  0  0  0  0  0  0  0  0  # atno 11005 bound_to 11000
  146.0223  140.8336  142.9917 LP  0  0  0  0  0  0  0  0  0  0  0  0  # atno 17320 bound_to 7965
  144.6822  140.2647  143.7314 LP  0  0  0  0  0  0  0  0  0  0  0  0  # atno 17321 bound_to 7965
  139.5847  144.7526  151.3551 LP  0  0  0  0  0  0  0  0  0  0  0  0  # atno 17342 bound_to 10162
  140.7134  143.7330  150.7610 LP  0  0  0  0  0  0  0  0  0  0  0  0  # atno 17343 bound_to 10162
  157.2401  131.0523  151.2441 LP  0  0  0  0  0  0  0  0  0  0  0  0  # atno 17370 bound_to 10713
  157.3628  130.7140  149.6513 LP  0  0  0  0  0  0  0  0  0  0  0  0  # atno 17371 bound_to 10713
  140.3576  134.7715  157.4511 LP  0  0  0  0  0  0  0  0  0  0  0  0  # atno 17394 bound_to 11000
  140.0811  134.5730  155.8540 LP  0  0  0  0  0  0  0  0  0  0  0  0  # atno 17395 bound_to 11000

$$$$
