AV-unprocessed.smi:265|AV-procd|sdf|2020|dock6
  -GOLD-   2262021223D 1   1.00000     0.00000
 Structure written by MMmdl.
 52 56  0  0  0  0  0  0  0  0  1 V2000
  145.6766  133.1493  153.3678 C   0  0  0  0  0  0  0  0  0  0  0  0
  145.9900  133.1713  151.8618 C   0  0  1  0  0  0  0  0  0  0  0  0
  146.2499  131.8209  151.4746 O   0  0  0  0  0  0  0  0  0  0  0  0
  145.5072  131.4880  150.3115 C   0  0  0  0  0  0  0  0  0  0  0  0
  144.2700  132.3653  150.4159 C   0  0  0  0  0  0  0  0  0  0  0  0
  144.8484  133.6754  150.9405 C   0  0  1  0  0  0  0  0  0  0  0  0
  143.8365  134.3696  151.6489 O   0  0  0  0  0  0  0  0  0  0  0  0
  145.4013  134.6125  149.8326 C   0  0  0  0  0  0  0  0  0  0  0  0
  146.3640  135.5976  150.3030 N   0  0  0  0  0  0  0  0  0  0  0  0
  147.4823  136.0377  149.6312 C   0  0  0  0  0  0  0  0  0  0  0  0
  148.1964  136.9293  150.2620 N   0  0  0  0  0  0  0  0  0  0  0  0
  147.5322  137.1035  151.4706 C   0  0  0  0  0  0  0  0  0  0  0  0
  147.7592  137.9149  152.6183 C   0  0  0  0  0  0  0  0  0  0  0  0
  148.8253  138.7479  152.7269 N   0  0  0  0  0  0  0  0  0  0  0  0
  148.5837  140.1832  152.5794 C   0  0  0  0  0  0  0  0  0  0  0  0
  149.9011  140.9336  152.3317 C   0  0  0  0  0  0  0  0  0  0  0  0
  150.9503  140.6187  153.4105 C   0  0  1  0  0  0  0  0  0  0  0  0
  150.5523  141.1676  154.6603 O   0  0  0  0  0  0  0  0  0  0  0  0
  151.5554  141.0778  155.6736 C   0  0  0  0  0  0  0  0  0  0  0  0
  152.1506  139.6617  155.7845 C   0  0  0  0  0  0  0  0  0  0  0  0
  152.7974  139.3450  156.7804 O   0  0  0  0  0  0  0  0  0  0  0  0
  151.9763  138.8198  154.7530 N   0  0  0  0  0  0  0  0  0  0  0  0
  151.1223  139.0961  153.6027 C   0  0  1  0  0  0  0  0  0  0  0  0
  149.7633  138.3916  153.7896 C   0  0  0  0  0  0  0  0  0  0  0  0
  146.8583  137.8268  153.6336 N   0  0  0  0  0  0  0  0  0  0  0  0
  145.8151  136.9971  153.5412 C   0  0  0  0  0  0  0  0  0  0  0  0
  145.4851  136.1808  152.5389 N   0  0  0  0  0  0  0  0  0  0  0  0
  146.3771  136.2718  151.5119 C   0  0  0  0  0  0  0  0  0  0  0  0
  151.8986  141.0717  153.1143 H   0  0  0  0  0  0  0  0  0  0  0  0
  151.6084  138.6838  152.7176 H   0  0  0  0  0  0  0  0  0  0  0  0
  145.5077  134.1552  153.7530 H   0  0  0  0  0  0  0  0  0  0  0  0
  146.5067  132.7203  153.9294 H   0  0  0  0  0  0  0  0  0  0  0  0
  144.7895  132.5516  153.5809 H   0  0  0  0  0  0  0  0  0  0  0  0
  146.8955  133.7589  151.7050 H   0  0  0  0  0  0  0  0  0  0  0  0
  146.0889  131.7352  149.4227 H   0  0  0  0  0  0  0  0  0  0  0  0
  145.2690  130.4248  150.2802 H   0  0  0  0  0  0  0  0  0  0  0  0
  143.7217  132.4486  149.4786 H   0  0  0  0  0  0  0  0  0  0  0  0
  143.5910  131.9287  151.1507 H   0  0  0  0  0  0  0  0  0  0  0  0
  143.5144  133.8096  152.3389 H   0  0  0  0  0  0  0  0  0  0  0  0
  145.8738  134.0233  149.0453 H   0  0  0  0  0  0  0  0  0  0  0  0
  144.5841  135.1509  149.3512 H   0  0  0  0  0  0  0  0  0  0  0  0
  147.7480  135.6809  148.6467 H   0  0  0  0  0  0  0  0  0  0  0  0
  147.9025  140.3671  151.7474 H   0  0  0  0  0  0  0  0  0  0  0  0
  148.1015  140.5633  153.4814 H   0  0  0  0  0  0  0  0  0  0  0  0
  150.2955  140.6462  151.3563 H   0  0  0  0  0  0  0  0  0  0  0  0
  149.7189  142.0076  152.2860 H   0  0  0  0  0  0  0  0  0  0  0  0
  152.3586  141.7815  155.4514 H   0  0  0  0  0  0  0  0  0  0  0  0
  151.1221  141.3726  156.6296 H   0  0  0  0  0  0  0  0  0  0  0  0
  152.3987  137.9043  154.8061 H   0  0  0  0  0  0  0  0  0  0  0  0
  149.3207  138.6803  154.7442 H   0  0  0  0  0  0  0  0  0  0  0  0
  149.9207  137.3145  153.8375 H   0  0  0  0  0  0  0  0  0  0  0  0
  145.1501  136.9854  154.3921 H   0  0  0  0  0  0  0  0  0  0  0  0
  1  2  1  0  0  0  0
  1 31  1  0  0  0  0
  1 32  1  0  0  0  0
  1 33  1  0  0  0  0
  2  6  1  0  0  0  0
  2  3  1  0  0  0  0
  2 34  1  0  0  0  0
  3  4  1  0  0  0  0
  4  5  1  0  0  0  0
  4 35  1  0  0  0  0
  4 36  1  0  0  0  0
  5  6  1  0  0  0  0
  5 37  1  0  0  0  0
  5 38  1  0  0  0  0
  6  7  1  0  0  0  0
  6  8  1  0  0  0  0
  7 39  1  0  0  0  0
  8  9  1  0  0  0  0
  8 40  1  0  0  0  0
  8 41  1  0  0  0  0
  9 28  1  0  0  0  0
  9 10  1  0  0  0  0
 10 11  2  0  0  0  0
 10 42  1  0  0  0  0
 11 12  1  0  0  0  0
 12 28  2  0  0  0  0
 12 13  1  0  0  0  0
 13 14  1  0  0  0  0
 13 25  2  0  0  0  0
 14 24  1  0  0  0  0
 14 15  1  0  0  0  0
 15 16  1  0  0  0  0
 15 43  1  0  0  0  0
 15 44  1  0  0  0  0
 16 17  1  0  0  0  0
 16 45  1  0  0  0  0
 16 46  1  0  0  0  0
 17 29  1  0  0  0  0
 17 23  1  0  0  0  0
 17 18  1  0  0  0  0
 18 19  1  0  0  0  0
 19 20  1  0  0  0  0
 19 47  1  0  0  0  0
 19 48  1  0  0  0  0
 20 21  2  0  0  0  0
 20 22  1  0  0  0  0
 22 23  1  0  0  0  0
 22 49  1  0  0  0  0
 23 30  1  0  0  0  0
 23 24  1  0  0  0  0
 24 50  1  0  0  0  0
 24 51  1  0  0  0  0
 25 26  1  0  0  0  0
 26 27  2  0  0  0  0
 26 52  1  0  0  0  0
 27 28  1  0  0  0  0
M  END
> <s_m_source_file>
AV-unprocessed.smi

> <i_m_source_file_index>
265

> <i_lp_mmshare_version>
43012

> <i_f3d_flags>
0

> <s_epik_input>
W0NIMl0xW0NIMl1PW0NAQEhdKFtDSDNdKVtDQEBdMShbT0hdKVtDSDJdbihbY0hdbjIpYyhjMjMpbltjSF1uYzNOKFtDSDJdW0NIMl00KVtDSDJdW0NAQEhdKFtDQEhdNDUpW05IXUMoPU8pW0NIMl1PNQ==

> <s_epik_cmdline>
J2VwaWtfcHl0aG9uJywgJy1waCcsICc3LjAnLCAnLXRuJywgJzgnLCAnLW1hJywgJzIwMCcsICctbWV0YWxfYmluZGluZycsICctaW1hZScsICc8aW5maWxlLm1hZT4nLCAnLW9tYWUnLCAnPG91dGZpbGUubWFlPic=

> <r_lp_tautomer_probability>
1

> <r_epik_Ionization_Penalty>
0.00221504

> <r_epik_Ionization_Penalty_Charging>
0

> <r_epik_Ionization_Penalty_Neutral>
0.00221504

> <r_epik_State_Penalty>
-0

> <r_epik_Charging_Adjusted_Penalty>
0

> <i_epik_Tot_Q>
0

> <i_epik_Tot_abs_Q>
0

> <r_epik_Metal_State_Penalty>
-0

> <b_epik_Metal_Only>
0

> <s_lp_Force_Field>
OPLS_2005

> <r_lp_Energy>
44.9484

> <b_lp_Chiralities_Consistent>
1

> <s_lp_Variant>
AV-unprocessed.smi:265-6

> <Gold.Version>
5.8.1

> <Gold.Id.Protein>
6NUR|6NUR_protein|mol2

> <Gold.PLP.Fitness>
47.0440

> <Gold.PLP.PLP>
-36.7314

> <Gold.PLP.part.hbond>
-2.9976

> <Gold.PLP.part.metal>
0.0000

> <Gold.PLP.part.buried>
0.4490

> <Gold.PLP.part.nonpolar>
-38.3916

> <Gold.PLP.part.repulsive>
3.2264

> <Gold.PLP.ligand.clash>
0.0000

> <Gold.PLP.ligand.torsion>
0.7923

> <Gold.PLP.Chemscore.Hbond>
2.8850

> <Gold.PLP.Chemscore.CHOScore>
0.9596

> <Gold.PLP.Chemscore.Metal>
0.0000

> <Gold.Chemscore.Hbonds>
donor molecule, donor type, donor heavy atom, donor atom, acceptor molecule, acceptor atom, score
      P1  H  7997  8009       L1    21  1.00

> <Gold.PLP.Chemscore.Internal.Correction>
0.3632

> <Gold.Rescore>
     Score         DG    S(hbond)    S(metal)    S(lipo)     H(rot)  DE(clash)    DE(int)     intcor
      7.75     -14.12       1.19        0.00      88.86       2.25       4.25       2.12       ----

> <Gold.Chemscore.Fitness>
7.7486

> <Gold.Chemscore.DG>
-14.1166

> <Gold.Chemscore.ZeroCoef>
-5.4800

> <Gold.Chemscore.Hbond>
1.1938

> <Gold.Chemscore.Metal>
0.0000

> <Gold.Chemscore.Lipo>
88.8648

> <Gold.Chemscore.Internal_Hbond>
0.0000

> <Gold.Chemscore.DEClash>
4.2493

> <Gold.Chemscore.DEInternal>
2.1187

> <Gold.Chemscore.Rot>
2.2453

> <Gold.Chemscore.Internal.Correction>
   9.000000E+99

> <Gold.Chemscore.Hbonds>
donor molecule, donor type, donor heavy atom, donor atom, acceptor molecule, acceptor atom, score
      P1  H  7997  8009       L1    21  0.50

> <Gold.Chemscore.Hbond.Weighted>
-3.9873

> <Gold.Chemscore.Metal.Weighted>
-0.0000

> <Gold.Chemscore.Lipo.Weighted>
-10.3972

> <Gold.Chemscore.Internal_Hbond.Weighted>
0.0000

> <Gold.Chemscore.DEClash.Weighted>
4.2493

> <Gold.Chemscore.DEInternal.Weighted>
2.1187

> <Gold.Chemscore.Rot.Weighted>
5.7479

> <Gold.Chemscore.Internal.Correction.Weighted>
   9.000000E+99

> <Gold.Protein.RotatedTorsions>
[ 6907 6896 6895 6894 ] final -109.64 input  -60.11 | X-H torsion
[ 7974 7965 7964 7962 ] final  140.37 input  175.53 | X-H torsion
[ 8008 7997 7996 7995 ] final -174.49 input   59.86 | X-H torsion
[ 10167 10162 10161 10158 ] final   83.88 input  -65.29 | X-H torsion
[ 10718 10713 10712 10709 ] final  142.71 input   66.30 | X-H torsion
[ 10763 10752 10751 10750 ] final  -88.38 input  -60.55 | X-H torsion
[ 11005 11000 10999 10996 ] final -132.89 input  -57.11 | X-H torsion

> <Gold.Protein.ActiveResidues>
 VAL166  LYS551  ARG553  GLY616  TRP617  ASP618  TYR619  PRO620  LYS621  CYS622 
 ASP623  PHE694  ASN695  SER759  ASP760  ASP761  ALA762  ILE779  LEU786  VAL792 
 PHE793  MET794  SER795  GLU796  ALA797  LYS798  CYS799  TRP800  GLU811  SER814 

> <Gold.Protein.RotatedAtoms>
  150.7574  133.9500  159.3482 H   0  0  0  0  0  0  0  0  0  0  0  0  # atno 6907 bound_to 6896
  151.7416  135.0851  160.0326 H   0  0  0  0  0  0  0  0  0  0  0  0  # atno 6908 bound_to 6896
  152.3524  133.6159  159.5991 H   0  0  0  0  0  0  0  0  0  0  0  0  # atno 6909 bound_to 6896
  144.9193  139.5189  143.5671 H   0  0  0  0  0  0  0  0  0  0  0  0  # atno 7974 bound_to 7965
  155.9708  140.1162  157.0814 H   0  0  0  0  0  0  0  0  0  0  0  0  # atno 8008 bound_to 7997
  154.4156  140.1163  156.5371 H   0  0  0  0  0  0  0  0  0  0  0  0  # atno 8009 bound_to 7997
  155.6599  140.3473  155.4781 H   0  0  0  0  0  0  0  0  0  0  0  0  # atno 8010 bound_to 7997
  139.9138  144.6255  150.8510 H   0  0  0  0  0  0  0  0  0  0  0  0  # atno 10167 bound_to 10162
  157.3774  131.0987  151.0771 H   0  0  0  0  0  0  0  0  0  0  0  0  # atno 10718 bound_to 10713
  154.6439  135.5379  153.7822 H   0  0  0  0  0  0  0  0  0  0  0  0  # atno 10763 bound_to 10752
  153.0349  135.6466  154.1118 H   0  0  0  0  0  0  0  0  0  0  0  0  # atno 10764 bound_to 10752
  154.1040  135.2931  155.3225 H   0  0  0  0  0  0  0  0  0  0  0  0  # atno 10765 bound_to 10752
  140.9130  134.1543  157.4374 H   0  0  0  0  0  0  0  0  0  0  0  0  # atno 11005 bound_to 11000
  146.3197  139.8060  142.8955 LP  0  0  0  0  0  0  0  0  0  0  0  0  # atno 17320 bound_to 7965
  145.3323  141.0269  143.3439 LP  0  0  0  0  0  0  0  0  0  0  0  0  # atno 17321 bound_to 7965
  140.7679  143.3346  151.2336 LP  0  0  0  0  0  0  0  0  0  0  0  0  # atno 17342 bound_to 10162
  139.6920  143.9677  152.2864 LP  0  0  0  0  0  0  0  0  0  0  0  0  # atno 17343 bound_to 10162
  157.1852  130.6327  149.5685 LP  0  0  0  0  0  0  0  0  0  0  0  0  # atno 17370 bound_to 10713
  155.9768  130.4740  150.6553 LP  0  0  0  0  0  0  0  0  0  0  0  0  # atno 17371 bound_to 10713
  139.8761  134.9943  156.5686 LP  0  0  0  0  0  0  0  0  0  0  0  0  # atno 17394 bound_to 11000
  140.8086  133.8447  155.8790 LP  0  0  0  0  0  0  0  0  0  0  0  0  # atno 17395 bound_to 11000

$$$$
