AV-unprocessed.smi:1652|AV-procd|sdf|6639|dock8
  -GOLD-   22720 7343D 1   1.00000     0.00000
 Structure written by MMmdl.
 38 40  0  0  0  0  0  0  0  0  1 V2000
  152.2809  140.2502  156.4784 O   0  0  0  0  0  0  0  0  0  0  0  0
  151.2103  140.3803  155.8839 C   0  0  0  0  0  0  0  0  0  0  0  0
  150.5681  139.2959  155.1252 C   0  0  0  0  0  0  0  0  0  0  0  0
  151.2716  137.9420  155.0771 C   0  0  0  0  0  0  0  0  0  0  0  0
  150.5466  137.0320  154.4250 F   0  0  0  0  0  0  0  0  0  0  0  0
  152.4480  138.0447  154.4577 F   0  0  0  0  0  0  0  0  0  0  0  0
  151.4883  137.4835  156.3103 F   0  0  0  0  0  0  0  0  0  0  0  0
  149.3901  139.5145  154.4916 C   0  0  0  0  0  0  0  0  0  0  0  0
  148.7550  140.8152  154.5561 C   0  0  0  0  0  0  0  0  0  0  0  0
  147.4561  141.1296  153.8707 C   0  0  0  0  0  0  0  0  0  0  0  0
  146.8399  142.5098  153.9043 C   0  0  0  0  0  0  0  0  0  0  0  0
  146.1854  141.3709  154.6519 C   0  0  0  0  0  0  0  0  0  0  0  0
  149.3166  141.7634  155.2275 N   0  0  0  0  0  0  0  0  0  0  0  0
  150.5182  141.5575  155.8780 N   0  0  0  0  0  0  0  0  0  0  0  0
  151.0283  142.7464  156.5731 C   0  0  0  0  0  0  0  0  0  0  0  0
  150.4672  142.8659  158.0068 C   0  0  2  0  0  0  0  0  0  0  0  0
  150.1536  144.2195  158.2695 O   0  0  0  0  0  0  0  0  0  0  0  0
  151.4582  142.3215  159.0251 C   0  0  0  0  0  0  0  0  0  0  0  0
  151.7085  140.9338  159.0914 C   0  0  0  0  0  0  0  0  0  0  0  0
  152.6315  140.4221  160.0241 C   0  0  0  0  0  0  0  0  0  0  0  0
  153.3117  141.2951  160.8949 C   0  0  0  0  0  0  0  0  0  0  0  0
  154.1993  140.8026  161.7910 F   0  0  0  0  0  0  0  0  0  0  0  0
  153.0693  142.6806  160.8314 C   0  0  0  0  0  0  0  0  0  0  0  0
  152.1472  143.1929  159.8982 C   0  0  0  0  0  0  0  0  0  0  0  0
  148.9037  138.7307  153.9306 H   0  0  0  0  0  0  0  0  0  0  0  0
  147.3677  140.5739  152.9388 H   0  0  0  0  0  0  0  0  0  0  0  0
  147.3266  143.2795  154.5005 H   0  0  0  0  0  0  0  0  0  0  0  0
  146.3522  142.8622  152.9979 H   0  0  0  0  0  0  0  0  0  0  0  0
  145.2608  140.9673  154.2439 H   0  0  0  0  0  0  0  0  0  0  0  0
  146.2485  141.3843  155.7386 H   0  0  0  0  0  0  0  0  0  0  0  0
  152.1140  142.6441  156.6274 H   0  0  0  0  0  0  0  0  0  0  0  0
  150.8656  143.6670  156.0093 H   0  0  0  0  0  0  0  0  0  0  0  0
  149.5428  142.2925  158.0914 H   0  0  0  0  0  0  0  0  0  0  0  0
  149.3128  144.4132  157.8843 H   0  0  0  0  0  0  0  0  0  0  0  0
  151.1955  140.2556  158.4252 H   0  0  0  0  0  0  0  0  0  0  0  0
  152.8189  139.3594  160.0703 H   0  0  0  0  0  0  0  0  0  0  0  0
  153.5921  143.3513  161.4975 H   0  0  0  0  0  0  0  0  0  0  0  0
  151.9719  144.2579  159.8527 H   0  0  0  0  0  0  0  0  0  0  0  0
  1  2  2  0  0  0  0
  2 14  1  0  0  0  0
  2  3  1  0  0  0  0
  3  4  1  0  0  0  0
  3  8  2  0  0  0  0
  4  5  1  0  0  0  0
  4  6  1  0  0  0  0
  4  7  1  0  0  0  0
  8  9  1  0  0  0  0
  8 25  1  0  0  0  0
  9 10  1  0  0  0  0
  9 13  2  0  0  0  0
 10 12  1  0  0  0  0
 10 11  1  0  0  0  0
 10 26  1  0  0  0  0
 11 12  1  0  0  0  0
 11 27  1  0  0  0  0
 11 28  1  0  0  0  0
 12 29  1  0  0  0  0
 12 30  1  0  0  0  0
 13 14  1  0  0  0  0
 14 15  1  0  0  0  0
 15 16  1  0  0  0  0
 15 31  1  0  0  0  0
 15 32  1  0  0  0  0
 16 17  1  0  0  0  0
 16 18  1  0  0  0  0
 16 33  1  0  0  0  0
 17 34  1  0  0  0  0
 18 24  1  0  0  0  0
 18 19  2  0  0  0  0
 19 20  1  0  0  0  0
 19 35  1  0  0  0  0
 20 21  2  0  0  0  0
 20 36  1  0  0  0  0
 21 22  1  0  0  0  0
 21 23  1  0  0  0  0
 23 24  2  0  0  0  0
 23 37  1  0  0  0  0
 24 38  1  0  0  0  0
M  END
> <s_m_source_file>
AV-unprocessed.smi

> <i_m_source_file_index>
1652

> <i_lp_mmshare_version>
43012

> <i_f3d_flags>
0

> <s_epik_input>
Tz1jMWMoQyhGKShGKUYpW2NIXWMoW0NIXTJbQ0gyXVtDSDJdMilubjFbQ0gyXVtDQEhdKFtPSF0pYzNbY0hdW2NIXWMoRilbY0hdW2NIXTM=

> <s_epik_cmdline>
J2VwaWtfcHl0aG9uJywgJy1waCcsICc3LjAnLCAnLXRuJywgJzgnLCAnLW1hJywgJzIwMCcsICctbWV0YWxfYmluZGluZycsICctaW1hZScsICc8aW5maWxlLm1hZT4nLCAnLW9tYWUnLCAnPG91dGZpbGUubWFlPic=

> <r_lp_tautomer_probability>
1

> <r_epik_Ionization_Penalty>
9.17026e-08

> <r_epik_Ionization_Penalty_Charging>
9.677e-10

> <r_epik_Ionization_Penalty_Neutral>
9.07349e-08

> <r_epik_State_Penalty>
-0

> <r_epik_Charging_Adjusted_Penalty>
9.677e-10

> <i_epik_Tot_Q>
0

> <i_epik_Tot_abs_Q>
0

> <r_epik_Metal_State_Penalty>
-0

> <b_epik_Metal_Only>
0

> <s_lp_Force_Field>
OPLS_2005

> <r_lp_Energy>
34.1346

> <b_lp_Chiralities_Consistent>
1

> <s_lp_Variant>
AV-unprocessed.smi:1652-1

> <Gold.Version>
5.8.1

> <Gold.Id.Protein>
6NUR|6NUR_protein|mol2

> <Gold.PLP.Fitness>
53.2467

> <Gold.PLP.PLP>
-51.2307

> <Gold.PLP.part.hbond>
-3.0000

> <Gold.PLP.part.metal>
0.0000

> <Gold.PLP.part.buried>
0.0702

> <Gold.PLP.part.nonpolar>
-48.8319

> <Gold.PLP.part.repulsive>
1.3655

> <Gold.PLP.ligand.clash>
0.3824

> <Gold.PLP.ligand.torsion>
1.2930

> <Gold.PLP.Chemscore.Hbond>
1.4477

> <Gold.PLP.Chemscore.CHOScore>
0.0000

> <Gold.PLP.Chemscore.Metal>
0.0000

> <Gold.Chemscore.Hbonds>
donor molecule, donor type, donor heavy atom, donor atom, acceptor molecule, acceptor atom, score
      L1  H    17    34       P1  8029  0.31
      P1  H  7997  8010       L1     1  0.94

> <Gold.PLP.Chemscore.Internal.Correction>
0.6412

> <Gold.Rescore>
     Score         DG    S(hbond)    S(metal)    S(lipo)     H(rot)  DE(clash)    DE(int)     intcor
     10.12     -16.38       0.86        0.00     116.66       2.20       1.14       5.12       ----

> <Gold.Chemscore.Fitness>
10.1180

> <Gold.Chemscore.DG>
-16.3785

> <Gold.Chemscore.ZeroCoef>
-5.4800

> <Gold.Chemscore.Hbond>
0.8629

> <Gold.Chemscore.Metal>
0.0000

> <Gold.Chemscore.Lipo>
116.6596

> <Gold.Chemscore.Internal_Hbond>
0.0000

> <Gold.Chemscore.DEClash>
1.1447

> <Gold.Chemscore.DEInternal>
5.1158

> <Gold.Chemscore.Rot>
2.2003

> <Gold.Chemscore.Internal.Correction>
   9.000000E+99

> <Gold.Chemscore.Hbonds>
donor molecule, donor type, donor heavy atom, donor atom, acceptor molecule, acceptor atom, score
      L1  H    17    34       P1  8029  0.01
      P1  H  7997  8010       L1     1  0.88

> <Gold.Chemscore.Hbond.Weighted>
-2.8821

> <Gold.Chemscore.Metal.Weighted>
-0.0000

> <Gold.Chemscore.Lipo.Weighted>
-13.6492

> <Gold.Chemscore.Internal_Hbond.Weighted>
0.0000

> <Gold.Chemscore.DEClash.Weighted>
1.1447

> <Gold.Chemscore.DEInternal.Weighted>
5.1158

> <Gold.Chemscore.Rot.Weighted>
5.6328

> <Gold.Chemscore.Internal.Correction.Weighted>
   9.000000E+99

> <Gold.Protein.RotatedTorsions>
[ 6907 6896 6895 6894 ] final  177.19 input  -60.11 | X-H torsion
[ 7974 7965 7964 7962 ] final -101.84 input  175.53 | X-H torsion
[ 8008 7997 7996 7995 ] final   76.16 input   59.86 | X-H torsion
[ 10167 10162 10161 10158 ] final   68.41 input  -65.29 | X-H torsion
[ 10718 10713 10712 10709 ] final   -7.62 input   66.30 | X-H torsion
[ 10763 10752 10751 10750 ] final -178.23 input  -60.55 | X-H torsion
[ 11005 11000 10999 10996 ] final   52.44 input  -57.11 | X-H torsion

> <Gold.Protein.ActiveResidues>
 VAL166  LYS551  ARG553  GLY616  TRP617  ASP618  TYR619  PRO620  LYS621  CYS622 
 ASP623  PHE694  ASN695  SER759  ASP760  ASP761  ALA762  ILE779  LEU786  VAL792 
 PHE793  MET794  SER795  GLU796  ALA797  LYS798  CYS799  TRP800  GLU811  SER814 

> <Gold.Protein.RotatedAtoms>
  151.7080  133.3312  159.3283 H   0  0  0  0  0  0  0  0  0  0  0  0  # atno 6907 bound_to 6896
  150.7706  134.6557  159.6322 H   0  0  0  0  0  0  0  0  0  0  0  0  # atno 6908 bound_to 6896
  152.3729  134.6710  160.0222 H   0  0  0  0  0  0  0  0  0  0  0  0  # atno 6909 bound_to 6896
  145.2764  140.9314  143.2957 H   0  0  0  0  0  0  0  0  0  0  0  0  # atno 7974 bound_to 7965
  155.8233  140.3469  155.5527 H   0  0  0  0  0  0  0  0  0  0  0  0  # atno 8008 bound_to 7997
  155.8319  140.0928  157.1807 H   0  0  0  0  0  0  0  0  0  0  0  0  # atno 8009 bound_to 7997
  154.4004  140.1410  156.3612 H   0  0  0  0  0  0  0  0  0  0  0  0  # atno 8010 bound_to 7997
  140.0790  144.5087  150.7175 H   0  0  0  0  0  0  0  0  0  0  0  0  # atno 10167 bound_to 10162
  156.7145  130.5132  149.5883 H   0  0  0  0  0  0  0  0  0  0  0  0  # atno 10718 bound_to 10713
  154.5503  135.2812  155.1015 H   0  0  0  0  0  0  0  0  0  0  0  0  # atno 10763 bound_to 10752
  154.2463  135.6347  153.5228 H   0  0  0  0  0  0  0  0  0  0  0  0  # atno 10764 bound_to 10752
  153.0001  135.5572  154.6067 H   0  0  0  0  0  0  0  0  0  0  0  0  # atno 10765 bound_to 10752
  140.0849  134.5288  155.8909 H   0  0  0  0  0  0  0  0  0  0  0  0  # atno 11005 bound_to 11000
  144.9290  139.4320  143.6504 LP  0  0  0  0  0  0  0  0  0  0  0  0  # atno 17320 bound_to 7965
  146.3230  139.8191  142.8930 LP  0  0  0  0  0  0  0  0  0  0  0  0  # atno 17321 bound_to 7965
  140.7087  143.2488  151.4647 LP  0  0  0  0  0  0  0  0  0  0  0  0  # atno 17342 bound_to 10162
  139.5791  144.1751  152.1943 LP  0  0  0  0  0  0  0  0  0  0  0  0  # atno 17343 bound_to 10162
  156.1637  130.6391  151.0751 LP  0  0  0  0  0  0  0  0  0  0  0  0  # atno 17370 bound_to 10713
  157.6923  131.0806  150.7073 LP  0  0  0  0  0  0  0  0  0  0  0  0  # atno 17371 bound_to 10713
  141.2059  133.6651  156.6210 LP  0  0  0  0  0  0  0  0  0  0  0  0  # atno 17394 bound_to 11000
  140.3434  134.7829  157.4415 LP  0  0  0  0  0  0  0  0  0  0  0  0  # atno 17395 bound_to 11000

$$$$
