AV-unprocessed.smi:1978|AV-procd|sdf|8010|dock2
  -GOLD-   2272010193D 1   1.00000     0.00000
 Structure written by MMmdl.
 44 45  0  0  0  0  0  0  0  0  3 V2000
  152.5381  144.2797  159.6089 C   0  0  0  0  0  0  0  0  0  0  0  0
  151.9957  143.1731  158.7714 C   0  0  0  0  0  0  0  0  0  0  0  0
  151.0376  143.1259  157.7981 C   0  0  0  0  0  0  0  0  0  0  0  0
  151.0214  141.7542  157.4298 C   0  0  0  0  0  0  0  0  0  0  0  0
  150.1343  141.2853  156.4253 N   0  0  0  0  0  0  0  0  0  0  0  0
  150.4030  140.5080  155.3607 C   0  0  0  0  0  0  0  0  0  0  0  0
  151.5526  140.0983  155.1604 O   0  0  0  0  0  0  0  0  0  0  0  0
  149.2970  140.2710  154.6023 N   0  5  0  0  0  0  0  0  0  0  0  0
  148.9071  138.9607  154.0793 C   0  0  0  0  0  0  0  0  0  0  0  0
  147.4712  139.0061  153.4551 C   0  0  2  0  0  0  0  0  0  0  0  0
  146.4593  139.7994  154.3183 C   0  0  0  0  0  0  0  0  0  0  0  0
  146.8932  137.6686  153.0590 N   0  3  2  0  0  0  0  0  0  0  0  0
  145.8916  137.7061  151.9462 C   0  0  0  0  0  0  0  0  0  0  0  0
  145.6437  136.3069  151.3671 C   0  0  0  0  0  0  0  0  0  0  0  0
  145.1672  135.3519  152.4627 C   0  0  0  0  0  0  0  0  0  0  0  0
  146.1877  135.3300  153.6043 C   0  0  0  0  0  0  0  0  0  0  0  0
  146.4647  136.7419  154.1664 C   0  0  1  0  0  0  0  0  0  0  0  0
  147.4915  136.6199  155.3116 C   0  0  0  0  0  0  0  0  0  0  0  0
  151.8972  141.0313  158.1124 N   0  0  0  0  0  0  0  0  0  0  0  0
  152.5252  141.9367  158.9756 O   0  0  0  0  0  0  0  0  0  0  0  0
  151.9692  145.1973  159.4589 H   0  0  0  0  0  0  0  0  0  0  0  0
  153.5789  144.4810  159.3556 H   0  0  0  0  0  0  0  0  0  0  0  0
  152.4901  144.0219  160.6670 H   0  0  0  0  0  0  0  0  0  0  0  0
  150.4418  143.9410  157.4153 H   0  0  0  0  0  0  0  0  0  0  0  0
  149.1717  141.5713  156.5257 H   0  0  0  0  0  0  0  0  0  0  0  0
  149.6132  138.6100  153.3258 H   0  0  0  0  0  0  0  0  0  0  0  0
  148.9282  138.2007  154.8602 H   0  0  0  0  0  0  0  0  0  0  0  0
  147.5326  139.5916  152.5401 H   0  0  0  0  0  0  0  0  0  0  0  0
  146.7342  140.8527  154.3986 H   0  0  0  0  0  0  0  0  0  0  0  0
  146.3673  139.4162  155.3355 H   0  0  0  0  0  0  0  0  0  0  0  0
  145.4662  139.7731  153.8690 H   0  0  0  0  0  0  0  0  0  0  0  0
  144.9468  138.1196  152.3021 H   0  0  0  0  0  0  0  0  0  0  0  0
  146.2301  138.3511  151.1373 H   0  0  0  0  0  0  0  0  0  0  0  0
  144.9010  136.3594  150.5706 H   0  0  0  0  0  0  0  0  0  0  0  0
  146.5600  135.9262  150.9139 H   0  0  0  0  0  0  0  0  0  0  0  0
  144.1946  135.6719  152.8390 H   0  0  0  0  0  0  0  0  0  0  0  0
  145.0329  134.3489  152.0569 H   0  0  0  0  0  0  0  0  0  0  0  0
  145.8231  134.6764  154.3977 H   0  0  0  0  0  0  0  0  0  0  0  0
  147.1189  134.8879  153.2468 H   0  0  0  0  0  0  0  0  0  0  0  0
  145.5328  137.1182  154.5909 H   0  0  0  0  0  0  0  0  0  0  0  0
  147.2011  135.8373  156.0131 H   0  0  0  0  0  0  0  0  0  0  0  0
  147.5671  137.5360  155.8961 H   0  0  0  0  0  0  0  0  0  0  0  0
  148.4839  136.3712  154.9341 H   0  0  0  0  0  0  0  0  0  0  0  0
  147.6893  137.1969  152.6556 H   0  0  0  0  0  0  0  0  0  0  0  0
  1  2  1  0  0  0  0
  1 21  1  0  0  0  0
  1 22  1  0  0  0  0
  1 23  1  0  0  0  0
  2 20  1  0  0  0  0
  2  3  2  0  0  0  0
  3  4  1  0  0  0  0
  3 24  1  0  0  0  0
  4  5  1  0  0  0  0
  4 19  2  0  0  0  0
  5  6  1  0  0  0  0
  5 25  1  0  0  0  0
  6  7  2  0  0  0  0
  6  8  1  0  0  0  0
  8  9  1  0  0  0  0
  9 10  1  0  0  0  0
  9 26  1  0  0  0  0
  9 27  1  0  0  0  0
 10 11  1  0  0  0  0
 10 12  1  0  0  0  0
 10 28  1  0  0  0  0
 11 29  1  0  0  0  0
 11 30  1  0  0  0  0
 11 31  1  0  0  0  0
 12 17  1  0  0  0  0
 12 13  1  0  0  0  0
 12 44  1  0  0  0  0
 13 14  1  0  0  0  0
 13 32  1  0  0  0  0
 13 33  1  0  0  0  0
 14 15  1  0  0  0  0
 14 34  1  0  0  0  0
 14 35  1  0  0  0  0
 15 16  1  0  0  0  0
 15 36  1  0  0  0  0
 15 37  1  0  0  0  0
 16 17  1  0  0  0  0
 16 38  1  0  0  0  0
 16 39  1  0  0  0  0
 17 18  1  0  0  0  0
 17 40  1  0  0  0  0
 18 41  1  0  0  0  0
 18 42  1  0  0  0  0
 18 43  1  0  0  0  0
 19 20  1  0  0  0  0
M  CHG  1   8  -1
M  CHG  1  12   1
M  END
> <s_m_source_file>
AV-unprocessed.smi

> <i_m_source_file_index>
1978

> <i_lp_mmshare_version>
43012

> <i_f3d_flags>
0

> <s_epik_input>
W0NIM11jMVtjSF1jKG5vMSlbTkhdQyg9TylbTkhdW0NIMl1bQ0BIXShbQ0gzXSlOMltDSDJdW0NIMl1bQ0gyXVtDSDJdW0NASF0yW0NIM10=

> <s_epik_cmdline>
J2VwaWtfcHl0aG9uJywgJy1waCcsICc3LjAnLCAnLXRuJywgJzgnLCAnLW1hJywgJzIwMCcsICctbWV0YWxfYmluZGluZycsICctaW1hZScsICc8aW5maWxlLm1hZT4nLCAnLW9tYWUnLCAnPG91dGZpbGUubWFlPic=

> <r_epik_Ionization_Penalty>
6.7666

> <r_epik_Ionization_Penalty_Charging>
6.7666

> <r_epik_Ionization_Penalty_Neutral>
5.77131e-06

> <r_epik_State_Penalty>
6.79217

> <r_epik_Charging_Adjusted_Penalty>
13.5588

> <i_epik_Tot_Q>
0

> <i_epik_Tot_abs_Q>
2

> <r_epik_Metal_State_Penalty>
2.72569

> <b_epik_Metal_Only>
1

> <s_lp_Force_Field>
OPLS_2005

> <r_lp_Energy>
22.3249

> <b_lp_Chiralities_Consistent>
1

> <s_lp_Variant>
AV-unprocessed.smi:1978-19

> <Gold.Version>
5.8.1

> <Gold.Id.Protein>
6NUR|6NUR_protein|mol2

> <Gold.PLP.Fitness>
36.3881

> <Gold.PLP.PLP>
-30.0912

> <Gold.PLP.part.hbond>
-2.0000

> <Gold.PLP.part.metal>
0.0000

> <Gold.PLP.part.buried>
-2.4734

> <Gold.PLP.part.nonpolar>
-26.0966

> <Gold.PLP.part.repulsive>
0.2395

> <Gold.PLP.ligand.clash>
0.0000

> <Gold.PLP.ligand.torsion>
1.2050

> <Gold.PLP.Chemscore.Hbond>
2.8000

> <Gold.PLP.Chemscore.CHOScore>
0.0000

> <Gold.PLP.Chemscore.Metal>
0.0000

> <Gold.Chemscore.Hbonds>
donor molecule, donor type, donor heavy atom, donor atom, acceptor molecule, acceptor atom, score
      L1  H    12    44       P1  7948  2.00
      P1  H  7989  7998       L1     7  0.65

> <Gold.PLP.Chemscore.Internal.Correction>
0.3069

> <Gold.Rescore>
     Score         DG    S(hbond)    S(metal)    S(lipo)     H(rot)  DE(clash)    DE(int)     intcor
     13.80     -15.65       1.90        0.00      65.74       1.52       0.09       1.75       ----

> <Gold.Chemscore.Fitness>
13.7997

> <Gold.Chemscore.DG>
-15.6456

> <Gold.Chemscore.ZeroCoef>
-5.4800

> <Gold.Chemscore.Hbond>
1.9050

> <Gold.Chemscore.Metal>
0.0000

> <Gold.Chemscore.Lipo>
65.7404

> <Gold.Chemscore.Internal_Hbond>
0.0000

> <Gold.Chemscore.DEClash>
0.0911

> <Gold.Chemscore.DEInternal>
1.7548

> <Gold.Chemscore.Rot>
1.5190

> <Gold.Chemscore.Internal.Correction>
   9.000000E+99

> <Gold.Chemscore.Hbonds>
donor molecule, donor type, donor heavy atom, donor atom, acceptor molecule, acceptor atom, score
      L1  H    12    44       P1  7948  1.00
      P1  H  7989  7998       L1     7  0.05

> <Gold.Chemscore.Hbond.Weighted>
-6.3626

> <Gold.Chemscore.Metal.Weighted>
-0.0000

> <Gold.Chemscore.Lipo.Weighted>
-7.6916

> <Gold.Chemscore.Internal_Hbond.Weighted>
0.0000

> <Gold.Chemscore.DEClash.Weighted>
0.0911

> <Gold.Chemscore.DEInternal.Weighted>
1.7548

> <Gold.Chemscore.Rot.Weighted>
3.8886

> <Gold.Chemscore.Internal.Correction.Weighted>
   9.000000E+99

> <Gold.Protein.RotatedTorsions>
[ 6907 6896 6895 6894 ] final   39.12 input  -60.11 | X-H torsion
[ 7974 7965 7964 7962 ] final  -18.13 input  175.53 | X-H torsion
[ 8008 7997 7996 7995 ] final   43.98 input   59.86 | X-H torsion
[ 10167 10162 10161 10158 ] final  -26.26 input  -65.29 | X-H torsion
[ 10718 10713 10712 10709 ] final  156.08 input   66.30 | X-H torsion
[ 10763 10752 10751 10750 ] final   34.20 input  -60.55 | X-H torsion
[ 11005 11000 10999 10996 ] final  144.47 input  -57.11 | X-H torsion

> <Gold.Protein.ActiveResidues>
 VAL166  LYS551  ARG553  GLY616  TRP617  ASP618  TYR619  PRO620  LYS621  CYS622 
 ASP623  PHE694  ASN695  SER759  ASP760  ASP761  ALA762  ILE779  LEU786  VAL792 
 PHE793  MET794  SER795  GLU796  ALA797  LYS798  CYS799  TRP800  GLU811  SER814 

> <Gold.Protein.RotatedAtoms>
  152.1654  134.8878  160.0538 H   0  0  0  0  0  0  0  0  0  0  0  0  # atno 6907 bound_to 6896
  151.9858  133.3768  159.4133 H   0  0  0  0  0  0  0  0  0  0  0  0  # atno 6908 bound_to 6896
  150.6894  134.3913  159.5121 H   0  0  0  0  0  0  0  0  0  0  0  0  # atno 6909 bound_to 6896
  146.1907  140.3878  142.8459 H   0  0  0  0  0  0  0  0  0  0  0  0  # atno 7974 bound_to 7965
  155.3118  140.3391  155.4243 H   0  0  0  0  0  0  0  0  0  0  0  0  # atno 8008 bound_to 7997
  156.1952  140.1712  156.8050 H   0  0  0  0  0  0  0  0  0  0  0  0  # atno 8009 bound_to 7997
  154.5490  140.0709  156.8620 H   0  0  0  0  0  0  0  0  0  0  0  0  # atno 8010 bound_to 7997
  140.7283  143.4194  151.0976 H   0  0  0  0  0  0  0  0  0  0  0  0  # atno 10167 bound_to 10162
  157.2098  131.0695  151.1976 H   0  0  0  0  0  0  0  0  0  0  0  0  # atno 10718 bound_to 10713
  153.0175  135.6367  154.1631 H   0  0  0  0  0  0  0  0  0  0  0  0  # atno 10763 bound_to 10752
  154.1368  135.2837  155.3173 H   0  0  0  0  0  0  0  0  0  0  0  0  # atno 10764 bound_to 10752
  154.6154  135.5542  153.7579 H   0  0  0  0  0  0  0  0  0  0  0  0  # atno 10765 bound_to 10752
  140.0635  134.9191  157.1224 H   0  0  0  0  0  0  0  0  0  0  0  0  # atno 11005 bound_to 11000
  144.8481  140.6960  143.6186 LP  0  0  0  0  0  0  0  0  0  0  0  0  # atno 17320 bound_to 7965
  145.3801  139.1639  143.4285 LP  0  0  0  0  0  0  0  0  0  0  0  0  # atno 17321 bound_to 7965
  139.7837  143.8318  152.3141 LP  0  0  0  0  0  0  0  0  0  0  0  0  # atno 17342 bound_to 10162
  139.8278  144.7267  150.9490 LP  0  0  0  0  0  0  0  0  0  0  0  0  # atno 17343 bound_to 10162
  157.3684  130.7168  149.6548 LP  0  0  0  0  0  0  0  0  0  0  0  0  # atno 17370 bound_to 10713
  155.9692  130.4206  150.4429 LP  0  0  0  0  0  0  0  0  0  0  0  0  # atno 17371 bound_to 10713
  140.3734  134.2365  155.7176 LP  0  0  0  0  0  0  0  0  0  0  0  0  # atno 17394 bound_to 11000
  141.1983  133.8039  157.0589 LP  0  0  0  0  0  0  0  0  0  0  0  0  # atno 17395 bound_to 11000

$$$$
