#       Name:                AV-unprocessed.smi:1333
#       Creating user name   scv26
#       Creation time:       Fri Mar 27 05:06:57 2020


#       File generated by GOLD software.
#

@<TRIPOS>MOLECULE
AV-unprocessed.smi:1333
    38    39     1
SMALL
NO_CHARGES


@<TRIPOS>ATOM
      1 ****         0.9015   0.8056   0.1684 O.2            1 S1                 0.0000
      2 ****         1.6585  -0.1689   0.1605 C.2            1 S1                 0.0000
      3 ****         3.1768   0.0397   0.0827 C.3            1 S1                 0.0000
      4 ****         3.5700   1.4519   0.1755 N.pl3          1 S1                 0.0000
      5 ****         3.8072   2.1759   1.3163 C.2            1 S1                 0.0000
      6 ****         4.1337   3.4452   0.9130 C.2            1 S1                 0.0000
      7 ****         4.0825   3.4425  -0.4552 N.pl3          1 S1                 1.0000
      8 ****         3.7395   2.2299  -0.9020 C.2            1 S1                 0.0000
      9 ****         1.2734  -1.4648   0.2126 N.am           1 S1                 0.0000
     10 ****         0.0430  -2.0264   0.2886 C.2            1 S1                 0.0000
     11 ****        -0.0845  -3.2492   0.3181 O.2            1 S1                 0.0000
     12 ****        -1.0128  -1.1914   0.3267 N.am           1 S1                 0.0000
     13 ****        -2.4131  -1.5975   0.4073 C.3            1 S1                 0.0000
     14 ****        -2.9595  -2.0184  -0.9716 C.3            1 S1                 0.0000
     15 ****        -3.8886  -0.8893  -1.4167 C.3            1 S1                 0.0000
     16 ****        -4.4591  -0.3423  -0.1123 C.3            1 S1                 0.0000
     17 ****        -3.2942  -0.4232   0.8764 C.3            1 S1                 0.0000
     18 ****         3.6667  -0.4984   0.8954 H              1 S1                 0.0000
     19 ****         3.5587  -0.3655  -0.8556 H              1 S1                 0.0000
     20 ****         3.7244   1.7466   2.3045 H              1 S1                 0.0000
     21 ****         4.3901   4.3269   1.4822 H              1 S1                 0.0000
     22 ****         3.6186   1.9388  -1.9304 H              1 S1                 0.0000
     23 ****         2.0307  -2.1321   0.1896 H              1 S1                 0.0000
     24 ****        -0.8297  -0.1984   0.2988 H              1 S1                 0.0000
     25 ****        -2.5109  -2.4288   1.1080 H              1 S1                 0.0000
     26 ****        -2.1804  -2.2206  -1.7078 H              1 S1                 0.0000
     27 ****        -3.5388  -2.9360  -0.8608 H              1 S1                 0.0000
     28 ****        -3.3103  -0.1136  -1.9199 H              1 S1                 0.0000
     29 ****        -4.6628  -1.2292  -2.1052 H              1 S1                 0.0000
     30 ****        -4.8520   0.6695  -0.2164 H              1 S1                 0.0000
     31 ****        -5.2745  -0.9826   0.2273 H              1 S1                 0.0000
     32 ****        -3.6418  -0.5541   1.9017 H              1 S1                 0.0000
     33 ****        -2.7366   0.5145   0.8446 H              1 S1                 0.0000
     34 ****         4.2734   4.2423  -1.0459 H              1 S1                 0.0000
     35 ****         1.2775   1.7312   0.1242 LP             1 S1                 0.0000
     36 ****        -0.0879   0.6698   0.2191 LP             1 S1                 0.0000
     37 ****         0.7238  -3.8371   0.2860 LP             1 S1                 0.0000
     38 ****        -0.9964  -3.6556   0.3743 LP             1 S1                 0.0000
@<TRIPOS>BOND
    1    1    2 2     
    2    2    3 1     
    3    2    9 1     
    4    3    4 1     
    5    3   18 1     
    6    3   19 1     
    7    4    8 1     
    8    4    5 1     
    9    5    6 2     
   10    5   20 1     
   11    6    7 1     
   12    6   21 1     
   13    7    8 2     
   14    7   34 1     
   15    8   22 1     
   16    9   10 1     
   17    9   23 1     
   18   10   11 2     
   19   10   12 1     
   20   12   13 1     
   21   12   24 1     
   22   13   17 1     
   23   13   14 1     
   24   13   25 1     
   25   14   15 1     
   26   14   26 1     
   27   14   27 1     
   28   15   16 1     
   29   15   28 1     
   30   15   29 1     
   31   16   17 1     
   32   16   30 1     
   33   16   31 1     
   34   17   32 1     
   35   17   33 1     
   36    1   35 1     
   37    1   36 1     
   38   11   37 1     
   39   11   38 1     
@<TRIPOS>SUBSTRUCTURE
      1 S1             1
@<TRIPOS>SET
LONE_PAIRS      STATIC     ATOMS    <user>   **** ""
4 35 36 37 38
DONOR_HYDROGENS      STATIC     ATOMS    <user>   **** ""
3 34 23 24
ATOM$BLUE        STATIC     ATOMS    COLORGROUP SYSTEM
4 35 36 37 38
ATOM$RED        STATIC     ATOMS    COLORGROUP SYSTEM
3 34 23 24
