AV-unprocessed.smi:2060|AV-procd|sdf|8357|dock8
  -GOLD-   2272011 23D 1   1.00000     0.00000
 Structure written by MMmdl.
 46 47  0  0  0  0  0  0  0  0  2 V2000
  144.0609  132.4895  149.8410 C   0  0  0  0  0  0  0  0  0  0  0  0
  144.7075  132.0417  151.1644 C   0  0  0  0  0  0  0  0  0  0  0  0
  145.2368  133.1888  152.0794 C   0  0  2  0  0  0  0  0  0  0  0  0
  145.6923  134.3455  151.1510 C   0  0  0  0  0  0  0  0  0  0  0  0
  146.4563  132.6647  152.9011 C   0  0  0  0  0  0  0  0  0  0  0  0
  147.2308  131.6309  152.2145 N   0  0  0  0  0  0  0  0  0  0  0  0
  147.3307  130.3485  152.5945 C   0  0  0  0  0  0  0  0  0  0  0  0
  146.7813  129.8916  153.5972 O   0  0  0  0  0  0  0  0  0  0  0  0
  148.1021  129.6473  151.7466 N   0  0  0  0  0  0  0  0  0  0  0  0
  148.4480  128.2745  151.8272 C   0  0  0  0  0  0  0  0  0  0  0  0
  149.2346  127.6613  150.8163 C   0  0  0  0  0  0  0  0  0  0  0  0
  149.3436  126.3706  151.2519 C   0  0  0  0  0  0  0  0  0  0  0  0
  150.0257  125.1676  150.6959 C   0  0  0  0  0  0  0  0  0  0  0  0
  148.6828  126.2109  152.4306 O   0  0  0  0  0  0  0  0  0  0  0  0
  148.1102  127.4354  152.7946 N   0  0  0  0  0  0  0  0  0  0  0  0
  144.1428  133.6707  153.0004 N   0  3  0  0  0  0  0  0  0  0  0  0
  144.5634  134.6158  154.0740 C   0  0  0  0  0  0  0  0  0  0  0  0
  143.4083  134.8620  155.0580 C   0  0  0  0  0  0  0  0  0  0  0  0
  142.2859  135.3757  154.3549 O   0  0  0  0  0  0  0  0  0  0  0  0
  141.8114  134.4574  153.3805 C   0  0  0  0  0  0  0  0  0  0  0  0
  142.9107  134.1880  152.3390 C   0  0  0  0  0  0  0  0  0  0  0  0
  143.7241  131.6232  149.2715 H   0  0  0  0  0  0  0  0  0  0  0  0
  144.7624  133.0356  149.2109 H   0  0  0  0  0  0  0  0  0  0  0  0
  143.1910  133.1248  150.0066 H   0  0  0  0  0  0  0  0  0  0  0  0
  144.0017  131.4142  151.7081 H   0  0  0  0  0  0  0  0  0  0  0  0
  145.5276  131.3677  150.9142 H   0  0  0  0  0  0  0  0  0  0  0  0
  146.3021  133.9837  150.3226 H   0  0  0  0  0  0  0  0  0  0  0  0
  146.3009  135.0794  151.6794 H   0  0  0  0  0  0  0  0  0  0  0  0
  144.8442  134.8747  150.7162 H   0  0  0  0  0  0  0  0  0  0  0  0
  147.1149  133.4838  153.1905 H   0  0  0  0  0  0  0  0  0  0  0  0
  146.1209  132.2128  153.8338 H   0  0  0  0  0  0  0  0  0  0  0  0
  147.7193  131.9140  151.3777 H   0  0  0  0  0  0  0  0  0  0  0  0
  148.4834  130.1478  150.9574 H   0  0  0  0  0  0  0  0  0  0  0  0
  149.6509  128.0933  149.9184 H   0  0  0  0  0  0  0  0  0  0  0  0
  150.1571  125.2591  149.6176 H   0  0  0  0  0  0  0  0  0  0  0  0
  149.4444  124.2657  150.8890 H   0  0  0  0  0  0  0  0  0  0  0  0
  151.0098  125.0397  151.1471 H   0  0  0  0  0  0  0  0  0  0  0  0
  145.4086  134.2303  154.6402 H   0  0  0  0  0  0  0  0  0  0  0  0
  144.8726  135.5678  153.6419 H   0  0  0  0  0  0  0  0  0  0  0  0
  143.1396  133.9439  155.5831 H   0  0  0  0  0  0  0  0  0  0  0  0
  143.7094  135.5857  155.8157 H   0  0  0  0  0  0  0  0  0  0  0  0
  141.4937  133.5300  153.8598 H   0  0  0  0  0  0  0  0  0  0  0  0
  140.9320  134.8819  152.8958 H   0  0  0  0  0  0  0  0  0  0  0  0
  143.1299  135.1084  151.7974 H   0  0  0  0  0  0  0  0  0  0  0  0
  142.5107  133.4779  151.6179 H   0  0  0  0  0  0  0  0  0  0  0  0
  143.8436  132.8375  153.4868 H   0  0  0  0  0  0  0  0  0  0  0  0
  1  2  1  0  0  0  0
  1 22  1  0  0  0  0
  1 23  1  0  0  0  0
  1 24  1  0  0  0  0
  2  3  1  0  0  0  0
  2 25  1  0  0  0  0
  2 26  1  0  0  0  0
  3  4  1  0  0  0  0
  3  5  1  0  0  0  0
  3 16  1  0  0  0  0
  4 27  1  0  0  0  0
  4 28  1  0  0  0  0
  4 29  1  0  0  0  0
  5  6  1  0  0  0  0
  5 30  1  0  0  0  0
  5 31  1  0  0  0  0
  6  7  1  0  0  0  0
  6 32  1  0  0  0  0
  7  8  2  0  0  0  0
  7  9  1  0  0  0  0
  9 10  1  0  0  0  0
  9 33  1  0  0  0  0
 10 15  2  0  0  0  0
 10 11  1  0  0  0  0
 11 12  2  0  0  0  0
 11 34  1  0  0  0  0
 12 13  1  0  0  0  0
 12 14  1  0  0  0  0
 13 35  1  0  0  0  0
 13 36  1  0  0  0  0
 13 37  1  0  0  0  0
 14 15  1  0  0  0  0
 16 21  1  0  0  0  0
 16 17  1  0  0  0  0
 16 46  1  0  0  0  0
 17 18  1  0  0  0  0
 17 38  1  0  0  0  0
 17 39  1  0  0  0  0
 18 19  1  0  0  0  0
 18 40  1  0  0  0  0
 18 41  1  0  0  0  0
 19 20  1  0  0  0  0
 20 21  1  0  0  0  0
 20 42  1  0  0  0  0
 20 43  1  0  0  0  0
 21 44  1  0  0  0  0
 21 45  1  0  0  0  0
M  CHG  1  16   1
M  END
> <s_m_source_file>
AV-unprocessed.smi

> <i_m_source_file_index>
2060

> <i_lp_mmshare_version>
43012

> <i_f3d_flags>
0

> <s_epik_input>
W0NIMl0xW0NIMl1PW0NIMl1bQ0gyXU4xW0NAQF0oW0NIM10pKFtDSDJdW0NIM10pW0NIMl1bTkhdQyg9TylbTkhdYzJbY0hdYyhbQ0gzXSlvbjI=

> <s_epik_cmdline>
J2VwaWtfcHl0aG9uJywgJy1waCcsICc3LjAnLCAnLXRuJywgJzgnLCAnLW1hJywgJzIwMCcsICctbWV0YWxfYmluZGluZycsICctaW1hZScsICc8aW5maWxlLm1hZT4nLCAnLW9tYWUnLCAnPG91dGZpbGUubWFlPic=

> <r_epik_Ionization_Penalty>
0.563843

> <r_epik_Ionization_Penalty_Charging>
0.563819

> <r_epik_Ionization_Penalty_Neutral>
2.4442e-05

> <r_epik_State_Penalty>
0.575199

> <r_epik_Charging_Adjusted_Penalty>
1.13902

> <i_epik_Tot_Q>
1

> <i_epik_Tot_abs_Q>
1

> <r_epik_Metal_State_Penalty>
0.577669

> <b_epik_Metal_Only>
0

> <s_lp_Force_Field>
OPLS_2005

> <r_lp_Energy>
25.7644

> <b_lp_Chiralities_Consistent>
1

> <s_lp_Variant>
AV-unprocessed.smi:2060-4

> <Gold.Version>
5.8.1

> <Gold.Id.Protein>
6NUR|6NUR_protein|mol2

> <Gold.PLP.Fitness>
46.8997

> <Gold.PLP.PLP>
-37.9303

> <Gold.PLP.part.hbond>
-3.7362

> <Gold.PLP.part.metal>
0.0000

> <Gold.PLP.part.buried>
-6.4414

> <Gold.PLP.part.nonpolar>
-28.7964

> <Gold.PLP.part.repulsive>
0.3268

> <Gold.PLP.ligand.clash>
0.0000

> <Gold.PLP.ligand.torsion>
1.1577

> <Gold.PLP.Chemscore.Hbond>
3.6960

> <Gold.PLP.Chemscore.CHOScore>
0.0000

> <Gold.PLP.Chemscore.Metal>
0.0000

> <Gold.Chemscore.Hbonds>
donor molecule, donor type, donor heavy atom, donor atom, acceptor molecule, acceptor atom, score
      L1  H     6    32       P1 10747  0.58
      L1  H    16    46       P1 10957  1.92

> <Gold.PLP.Chemscore.Internal.Correction>
0.1968

> <Gold.Rescore>
     Score         DG    S(hbond)    S(metal)    S(lipo)     H(rot)  DE(clash)    DE(int)     intcor
     13.52     -16.48       2.22        0.00      69.18       1.77       0.02       2.94       ----

> <Gold.Chemscore.Fitness>
13.5218

> <Gold.Chemscore.DG>
-16.4784

> <Gold.Chemscore.ZeroCoef>
-5.4800

> <Gold.Chemscore.Hbond>
2.2238

> <Gold.Chemscore.Metal>
0.0000

> <Gold.Chemscore.Lipo>
69.1820

> <Gold.Chemscore.Internal_Hbond>
0.0000

> <Gold.Chemscore.DEClash>
0.0216

> <Gold.Chemscore.DEInternal>
2.9351

> <Gold.Chemscore.Rot>
1.7670

> <Gold.Chemscore.Internal.Correction>
   9.000000E+99

> <Gold.Chemscore.Hbonds>
donor molecule, donor type, donor heavy atom, donor atom, acceptor molecule, acceptor atom, score
      L1  H     6    32       P1 10747  0.57
      L1  H     9    33       P1 10747  0.01
      L1  H    16    46       P1 10957  0.63

> <Gold.Chemscore.Hbond.Weighted>
-7.4276

> <Gold.Chemscore.Metal.Weighted>
-0.0000

> <Gold.Chemscore.Lipo.Weighted>
-8.0943

> <Gold.Chemscore.Internal_Hbond.Weighted>
0.0000

> <Gold.Chemscore.DEClash.Weighted>
0.0216

> <Gold.Chemscore.DEInternal.Weighted>
2.9351

> <Gold.Chemscore.Rot.Weighted>
4.5235

> <Gold.Chemscore.Internal.Correction.Weighted>
   9.000000E+99

> <Gold.Protein.RotatedTorsions>
[ 6907 6896 6895 6894 ] final   -9.02 input  -60.11 | X-H torsion
[ 7974 7965 7964 7962 ] final  143.11 input  175.53 | X-H torsion
[ 8008 7997 7996 7995 ] final -114.77 input   59.86 | X-H torsion
[ 10167 10162 10161 10158 ] final -145.74 input  -65.29 | X-H torsion
[ 10718 10713 10712 10709 ] final  -72.55 input   66.30 | X-H torsion
[ 10763 10752 10751 10750 ] final  173.58 input  -60.55 | X-H torsion
[ 11005 11000 10999 10996 ] final  169.40 input  -57.11 | X-H torsion

> <Gold.Protein.ActiveResidues>
 VAL166  LYS551  ARG553  GLY616  TRP617  ASP618  TYR619  PRO620  LYS621  CYS622 
 ASP623  PHE694  ASN695  SER759  ASP760  ASP761  ALA762  ILE779  LEU786  VAL792 
 PHE793  MET794  SER795  GLU796  ALA797  LYS798  CYS799  TRP800  GLU811  SER814 

> <Gold.Protein.RotatedAtoms>
  151.4244  135.1002  159.9623 H   0  0  0  0  0  0  0  0  0  0  0  0  # atno 6907 bound_to 6896
  152.4977  133.8676  159.7292 H   0  0  0  0  0  0  0  0  0  0  0  0  # atno 6908 bound_to 6896
  150.9200  133.6835  159.2862 H   0  0  0  0  0  0  0  0  0  0  0  0  # atno 6909 bound_to 6896
  144.8949  139.5505  143.5781 H   0  0  0  0  0  0  0  0  0  0  0  0  # atno 7974 bound_to 7965
  155.0416  140.0392  157.2511 H   0  0  0  0  0  0  0  0  0  0  0  0  # atno 8008 bound_to 7997
  154.7212  140.2712  155.6516 H   0  0  0  0  0  0  0  0  0  0  0  0  # atno 8009 bound_to 7997
  156.2817  140.2702  156.1884 H   0  0  0  0  0  0  0  0  0  0  0  0  # atno 8010 bound_to 7997
  139.7778  143.8145  152.2634 H   0  0  0  0  0  0  0  0  0  0  0  0  # atno 10167 bound_to 10162
  156.0316  130.4374  150.2609 H   0  0  0  0  0  0  0  0  0  0  0  0  # atno 10718 bound_to 10713
  154.4421  135.2762  155.1840 H   0  0  0  0  0  0  0  0  0  0  0  0  # atno 10763 bound_to 10752
  154.3702  135.6110  153.5740 H   0  0  0  0  0  0  0  0  0  0  0  0  # atno 10764 bound_to 10752
  152.9841  135.5855  154.4750 H   0  0  0  0  0  0  0  0  0  0  0  0  # atno 10765 bound_to 10752
  140.2973  134.7624  157.3888 H   0  0  0  0  0  0  0  0  0  0  0  0  # atno 11005 bound_to 11000
  146.3075  139.7631  142.9045 LP  0  0  0  0  0  0  0  0  0  0  0  0  # atno 17320 bound_to 7965
  145.3717  141.0344  143.3227 LP  0  0  0  0  0  0  0  0  0  0  0  0  # atno 17321 bound_to 7965
  139.8199  144.7300  150.9587 LP  0  0  0  0  0  0  0  0  0  0  0  0  # atno 17342 bound_to 10162
  140.7817  143.4169  151.0902 LP  0  0  0  0  0  0  0  0  0  0  0  0  # atno 17343 bound_to 10162
  157.0711  131.0117  151.3190 LP  0  0  0  0  0  0  0  0  0  0  0  0  # atno 17370 bound_to 10713
  157.4998  130.7873  149.7593 LP  0  0  0  0  0  0  0  0  0  0  0  0  # atno 17371 bound_to 10713
  140.1141  134.5307  155.8240 LP  0  0  0  0  0  0  0  0  0  0  0  0  # atno 17394 bound_to 11000
  141.2135  133.6734  156.6743 LP  0  0  0  0  0  0  0  0  0  0  0  0  # atno 17395 bound_to 11000

$$$$
