AV-unprocessed.smi:2526|AV-procd|sdf|9934|dock9
  -GOLD-   2272013573D 1   1.00000     0.00000
 Structure written by MMmdl.
 29 30  0  0  0  0  0  0  0  0  2 V2000
  151.8742  145.5184  159.5749 C   0  0  0  0  0  0  0  0  0  0  0  0
  151.8622  144.1241  159.1880 N   0  0  0  0  0  0  0  0  0  0  0  0
  151.2314  143.5357  158.1136 C   0  0  0  0  0  0  0  0  0  0  0  0
  151.5083  142.1963  158.1547 C   0  0  0  0  0  0  0  0  0  0  0  0
  151.0597  141.0974  157.2210 C   0  0  2  0  0  0  0  0  0  0  0  0
  152.2097  140.3279  156.7385 N   0  0  0  0  0  0  0  0  0  0  0  0
  152.3510  139.7621  155.5263 C   0  0  0  0  0  0  0  0  0  0  0  0
  153.3342  139.0803  155.2489 O   0  0  0  0  0  0  0  0  0  0  0  0
  151.2764  140.0063  154.4555 C   0  0  0  0  0  0  0  0  0  0  0  0
  149.9577  140.5634  155.0170 C   0  0  0  0  0  0  0  0  0  0  0  0
  150.2234  141.6644  156.0501 C   0  0  1  0  0  0  0  0  0  0  0  0
  148.9635  142.2684  156.5207 N   0  3  0  0  0  0  0  0  0  0  0  0
  152.3329  142.0706  159.3101 C   0  0  0  0  0  0  0  0  0  0  0  0
  152.5396  143.2218  159.9263 N   0  0  0  0  0  0  0  0  0  0  0  0
  151.0610  146.0501  159.0797 H   0  0  0  0  0  0  0  0  0  0  0  0
  152.8235  145.9707  159.2858 H   0  0  0  0  0  0  0  0  0  0  0  0
  151.7486  145.6084  160.6546 H   0  0  0  0  0  0  0  0  0  0  0  0
  150.6417  144.1128  157.4161 H   0  0  0  0  0  0  0  0  0  0  0  0
  150.4406  140.3844  157.7680 H   0  0  0  0  0  0  0  0  0  0  0  0
  152.9494  140.1662  157.4072 H   0  0  0  0  0  0  0  0  0  0  0  0
  151.6895  140.7129  153.7350 H   0  0  0  0  0  0  0  0  0  0  0  0
  151.0892  139.0806  153.9099 H   0  0  0  0  0  0  0  0  0  0  0  0
  149.3519  140.9522  154.1977 H   0  0  0  0  0  0  0  0  0  0  0  0
  149.3812  139.7556  155.4709 H   0  0  0  0  0  0  0  0  0  0  0  0
  150.7900  142.4593  155.5618 H   0  0  0  0  0  0  0  0  0  0  0  0
  148.7728  141.9623  157.4642 H   0  0  0  0  0  0  0  0  0  0  0  0
  148.2067  141.9841  155.9152 H   0  0  0  0  0  0  0  0  0  0  0  0
  152.7829  141.1781  159.7192 H   0  0  0  0  0  0  0  0  0  0  0  0
  149.0475  143.2749  156.5031 H   0  0  0  0  0  0  0  0  0  0  0  0
  1  2  1  0  0  0  0
  1 15  1  0  0  0  0
  1 16  1  0  0  0  0
  1 17  1  0  0  0  0
  2 14  1  0  0  0  0
  2  3  1  0  0  0  0
  3  4  2  0  0  0  0
  3 18  1  0  0  0  0
  4  5  1  0  0  0  0
  4 13  1  0  0  0  0
  5 11  1  0  0  0  0
  5  6  1  0  0  0  0
  5 19  1  0  0  0  0
  6  7  1  0  0  0  0
  6 20  1  0  0  0  0
  7  8  2  0  0  0  0
  7  9  1  0  0  0  0
  9 10  1  0  0  0  0
  9 21  1  0  0  0  0
  9 22  1  0  0  0  0
 10 11  1  0  0  0  0
 10 23  1  0  0  0  0
 10 24  1  0  0  0  0
 11 12  1  0  0  0  0
 11 25  1  0  0  0  0
 12 26  1  0  0  0  0
 12 27  1  0  0  0  0
 12 29  1  0  0  0  0
 13 14  2  0  0  0  0
 13 28  1  0  0  0  0
M  CHG  1  12   1
M  END
> <s_m_source_file>
AV-unprocessed.smi

> <i_m_source_file_index>
2526

> <i_lp_mmshare_version>
43012

> <i_f3d_flags>
0

> <s_epik_input>
W0NIM11uMVtjSF1jKFtjSF1uMSlbQ0BASF0yW05IXUMoPU8pW0NIMl1bQ0gyXVtDQEhdMltOSDJd

> <s_epik_cmdline>
J2VwaWtfcHl0aG9uJywgJy1waCcsICc3LjAnLCAnLXRuJywgJzgnLCAnLW1hJywgJzIwMCcsICctbWV0YWxfYmluZGluZycsICctaW1hZScsICc8aW5maWxlLm1hZT4nLCAnLW9tYWUnLCAnPG91dGZpbGUubWFlPic=

> <r_lp_tautomer_probability>
1

> <r_epik_Ionization_Penalty>
0.00878543

> <r_epik_Ionization_Penalty_Charging>
0.00874185

> <r_epik_Ionization_Penalty_Neutral>
4.35793e-05

> <r_epik_State_Penalty>
0.00660351

> <r_epik_Charging_Adjusted_Penalty>
0.0153454

> <i_epik_Tot_Q>
1

> <i_epik_Tot_abs_Q>
1

> <r_epik_Metal_State_Penalty>
0.00660727

> <b_epik_Metal_Only>
0

> <s_lp_Force_Field>
OPLS_2005

> <r_lp_Energy>
10.7235

> <b_lp_Chiralities_Consistent>
1

> <s_lp_Variant>
AV-unprocessed.smi:2526-1

> <Gold.Version>
5.8.1

> <Gold.Id.Protein>
6NUR|6NUR_protein|mol2

> <Gold.PLP.Fitness>
41.8984

> <Gold.PLP.PLP>
-30.5979

> <Gold.PLP.part.hbond>
-2.0000

> <Gold.PLP.part.metal>
0.0000

> <Gold.PLP.part.buried>
-0.8577

> <Gold.PLP.part.nonpolar>
-27.8017

> <Gold.PLP.part.repulsive>
0.1385

> <Gold.PLP.ligand.clash>
0.0000

> <Gold.PLP.ligand.torsion>
0.0605

> <Gold.PLP.Chemscore.Hbond>
2.8000

> <Gold.PLP.Chemscore.CHOScore>
1.0000

> <Gold.PLP.Chemscore.Metal>
0.0000

> <Gold.Chemscore.Hbonds>
donor molecule, donor type, donor heavy atom, donor atom, acceptor molecule, acceptor atom, score
      L1  H    12    29       P1  8028  1.98
      P1  H  7997  8008       L1     8  0.75
      L1  C     3    18       P1  8028  1.00

> <Gold.PLP.Chemscore.Internal.Correction>
0.0215

> <Gold.Rescore>
     Score         DG    S(hbond)    S(metal)    S(lipo)     H(rot)  DE(clash)    DE(int)     intcor
     14.13     -14.23       1.00        0.00      68.01       1.00       0.07       0.02       ----

> <Gold.Chemscore.Fitness>
14.1308

> <Gold.Chemscore.DG>
-14.2284

> <Gold.Chemscore.ZeroCoef>
-5.4800

> <Gold.Chemscore.Hbond>
1.0032

> <Gold.Chemscore.Metal>
0.0000

> <Gold.Chemscore.Lipo>
68.0142

> <Gold.Chemscore.Internal_Hbond>
0.0000

> <Gold.Chemscore.DEClash>
0.0749

> <Gold.Chemscore.DEInternal>
0.0227

> <Gold.Chemscore.Rot>
1.0000

> <Gold.Chemscore.Internal.Correction>
   9.000000E+99

> <Gold.Chemscore.Hbonds>
donor molecule, donor type, donor heavy atom, donor atom, acceptor molecule, acceptor atom, score
      L1  H    12    29       P1  8028  0.92
      P1  H  7997  8008       L1     8  0.09

> <Gold.Chemscore.Hbond.Weighted>
-3.3507

> <Gold.Chemscore.Metal.Weighted>
-0.0000

> <Gold.Chemscore.Lipo.Weighted>
-7.9577

> <Gold.Chemscore.Internal_Hbond.Weighted>
0.0000

> <Gold.Chemscore.DEClash.Weighted>
0.0749

> <Gold.Chemscore.DEInternal.Weighted>
0.0227

> <Gold.Chemscore.Rot.Weighted>
2.5600

> <Gold.Chemscore.Internal.Correction.Weighted>
   9.000000E+99

> <Gold.Protein.RotatedTorsions>
[ 6907 6896 6895 6894 ] final    5.09 input  -60.11 | X-H torsion
[ 7974 7965 7964 7962 ] final  -29.47 input  175.53 | X-H torsion
[ 8008 7997 7996 7995 ] final  -16.47 input   59.86 | X-H torsion
[ 10167 10162 10161 10158 ] final -144.28 input  -65.29 | X-H torsion
[ 10718 10713 10712 10709 ] final -118.44 input   66.30 | X-H torsion
[ 10763 10752 10751 10750 ] final  136.79 input  -60.55 | X-H torsion
[ 11005 11000 10999 10996 ] final -158.53 input  -57.11 | X-H torsion

> <Gold.Protein.ActiveResidues>
 VAL166  LYS551  ARG553  GLY616  TRP617  ASP618  TYR619  PRO620  LYS621  CYS622 
 ASP623  PHE694  ASN695  SER759  ASP760  ASP761  ALA762  ILE779  LEU786  VAL792 
 PHE793  MET794  SER795  GLU796  ALA797  LYS798  CYS799  TRP800  GLU811  SER814 

> <Gold.Protein.RotatedAtoms>
  151.6518  135.1000  160.0161 H   0  0  0  0  0  0  0  0  0  0  0  0  # atno 6907 bound_to 6896
  152.3996  133.6794  159.6314 H   0  0  0  0  0  0  0  0  0  0  0  0  # atno 6908 bound_to 6896
  150.7898  133.8731  159.3305 H   0  0  0  0  0  0  0  0  0  0  0  0  # atno 6909 bound_to 6896
  146.1214  140.5417  142.8734 H   0  0  0  0  0  0  0  0  0  0  0  0  # atno 7974 bound_to 7965
  154.5050  140.2168  155.9269 H   0  0  0  0  0  0  0  0  0  0  0  0  # atno 8008 bound_to 7997
  156.1482  140.3166  155.8572 H   0  0  0  0  0  0  0  0  0  0  0  0  # atno 8009 bound_to 7997
  155.3989  140.0483  157.3028 H   0  0  0  0  0  0  0  0  0  0  0  0  # atno 8010 bound_to 7997
  139.7914  143.7961  152.2650 H   0  0  0  0  0  0  0  0  0  0  0  0  # atno 10167 bound_to 10162
  156.1106  130.6246  150.9291 H   0  0  0  0  0  0  0  0  0  0  0  0  # atno 10718 bound_to 10713
  153.8624  135.3066  155.3438 H   0  0  0  0  0  0  0  0  0  0  0  0  # atno 10763 bound_to 10752
  154.7843  135.4818  153.9914 H   0  0  0  0  0  0  0  0  0  0  0  0  # atno 10764 bound_to 10752
  153.1454  135.6832  153.9058 H   0  0  0  0  0  0  0  0  0  0  0  0  # atno 10765 bound_to 10752
  140.6525  134.4435  157.5235 H   0  0  0  0  0  0  0  0  0  0  0  0  # atno 11005 bound_to 11000
  144.7600  140.5400  143.6742 LP  0  0  0  0  0  0  0  0  0  0  0  0  # atno 17320 bound_to 7965
  145.5458  139.1476  143.3421 LP  0  0  0  0  0  0  0  0  0  0  0  0  # atno 17321 bound_to 7965
  139.8053  144.7358  150.9769 LP  0  0  0  0  0  0  0  0  0  0  0  0  # atno 17342 bound_to 10162
  140.7820  143.4304  151.0703 LP  0  0  0  0  0  0  0  0  0  0  0  0  # atno 17343 bound_to 10162
  157.6287  131.0923  150.8483 LP  0  0  0  0  0  0  0  0  0  0  0  0  # atno 17370 bound_to 10713
  156.8595  130.5108  149.5305 LP  0  0  0  0  0  0  0  0  0  0  0  0  # atno 17371 bound_to 10713
  139.9041  134.8490  156.1777 LP  0  0  0  0  0  0  0  0  0  0  0  0  # atno 17394 bound_to 11000
  141.0526  133.6881  156.1800 LP  0  0  0  0  0  0  0  0  0  0  0  0  # atno 17395 bound_to 11000

$$$$
