AV-unprocessed.smi:510|AV-procd|sdf|2762|dock1
  -GOLD-   2262023223D 1   1.00000     0.00000
 Structure written by MMmdl.
 30 31  0  0  0  0  0  0  0  0  1 V2000
  152.1541  145.3910  158.9742 C   0  0  0  0  0  0  0  0  0  0  0  0
  151.0927  144.4831  158.7408 O   0  0  0  0  0  0  0  0  0  0  0  0
  151.4160  143.5049  157.7660 C   0  0  0  0  0  0  0  0  0  0  0  0
  150.2062  142.5931  157.5153 C   0  0  0  0  0  0  0  0  0  0  0  0
  150.5085  141.5288  156.5635 N   0  0  0  0  0  0  0  0  0  0  0  0
  150.0221  141.3815  155.3061 C   0  0  0  0  0  0  0  0  0  0  0  0
  149.1296  142.3038  154.7797 N   0  0  0  0  0  0  0  0  0  0  0  0
  150.4629  140.3066  154.6493 N   0  0  0  0  0  0  0  0  0  0  0  0
  151.3060  139.7108  155.5777 C   0  0  0  0  0  0  0  0  0  0  0  0
  151.3470  140.4264  156.7307 C   0  0  0  0  0  0  0  0  0  0  0  0
  152.1570  140.0157  157.8843 C   0  0  0  0  0  0  0  0  0  0  0  0
  152.2047  140.6442  158.9392 O   0  0  0  0  0  0  0  0  0  0  0  0
  152.8469  138.8698  157.6658 N   0  0  0  0  0  0  0  0  0  0  0  0
  152.8528  138.1038  156.5317 C   0  0  0  0  0  0  0  0  0  0  0  0
  153.5395  137.0835  156.4899 O   0  0  0  0  0  0  0  0  0  0  0  0
  152.0775  138.5200  155.4774 N   0  0  0  0  0  0  0  0  0  0  0  0
  152.0085  137.7696  154.2219 C   0  0  0  0  0  0  0  0  0  0  0  0
  153.4222  138.5427  158.4282 H   0  0  0  0  0  0  0  0  0  0  0  0
  151.8535  146.1197  159.7269 H   0  0  0  0  0  0  0  0  0  0  0  0
  152.4155  145.9340  158.0651 H   0  0  0  0  0  0  0  0  0  0  0  0
  153.0414  144.8739  159.3415 H   0  0  0  0  0  0  0  0  0  0  0  0
  151.7124  143.9924  156.8359 H   0  0  0  0  0  0  0  0  0  0  0  0
  152.2634  142.9067  158.1040 H   0  0  0  0  0  0  0  0  0  0  0  0
  149.8757  142.1472  158.4536 H   0  0  0  0  0  0  0  0  0  0  0  0
  149.3584  143.1736  157.1547 H   0  0  0  0  0  0  0  0  0  0  0  0
  148.8223  143.1023  155.3165 H   0  0  0  0  0  0  0  0  0  0  0  0
  148.7568  142.2069  153.8465 H   0  0  0  0  0  0  0  0  0  0  0  0
  152.6267  136.8717  154.2058 H   0  0  0  0  0  0  0  0  0  0  0  0
  152.3293  138.4012  153.3928 H   0  0  0  0  0  0  0  0  0  0  0  0
  150.9805  137.4609  154.0293 H   0  0  0  0  0  0  0  0  0  0  0  0
  1  2  1  0  0  0  0
  1 19  1  0  0  0  0
  1 20  1  0  0  0  0
  1 21  1  0  0  0  0
  2  3  1  0  0  0  0
  3  4  1  0  0  0  0
  3 22  1  0  0  0  0
  3 23  1  0  0  0  0
  4  5  1  0  0  0  0
  4 24  1  0  0  0  0
  4 25  1  0  0  0  0
  5 10  1  0  0  0  0
  5  6  1  0  0  0  0
  6  7  1  0  0  0  0
  6  8  2  0  0  0  0
  7 26  1  0  0  0  0
  7 27  1  0  0  0  0
  8  9  1  0  0  0  0
  9 16  1  0  0  0  0
  9 10  2  0  0  0  0
 10 11  1  0  0  0  0
 11 12  2  0  0  0  0
 11 13  1  0  0  0  0
 13 18  1  0  0  0  0
 13 14  1  0  0  0  0
 14 15  2  0  0  0  0
 14 16  1  0  0  0  0
 16 17  1  0  0  0  0
 17 28  1  0  0  0  0
 17 29  1  0  0  0  0
 17 30  1  0  0  0  0
M  END
> <s_m_source_file>
AV-unprocessed.smi

> <i_m_source_file_index>
510

> <i_lp_mmshare_version>
43012

> <i_f3d_flags>
0

> <s_epik_input>
W0NIM11PW0NIMl1bQ0gyXW4oYyhuMSlbTkgyXSljKGMxMiljKD1PKVtuSF1jKD1PKW4yW0NIM10=

> <s_epik_cmdline>
J2VwaWtfcHl0aG9uJywgJy1waCcsICc3LjAnLCAnLXRuJywgJzgnLCAnLW1hJywgJzIwMCcsICctbWV0YWxfYmluZGluZycsICctaW1hZScsICc8aW5maWxlLm1hZT4nLCAnLW9tYWUnLCAnPG91dGZpbGUubWFlPic=

> <r_lp_tautomer_probability>
1

> <r_epik_Ionization_Penalty>
0.000102378

> <r_epik_Ionization_Penalty_Charging>
3.81714e-05

> <r_epik_Ionization_Penalty_Neutral>
6.42066e-05

> <r_epik_State_Penalty>
-0

> <r_epik_Charging_Adjusted_Penalty>
3.81714e-05

> <i_epik_Tot_Q>
0

> <i_epik_Tot_abs_Q>
0

> <r_epik_Metal_State_Penalty>
0.0348186

> <b_epik_Metal_Only>
0

> <s_lp_Force_Field>
OPLS_2005

> <r_lp_Energy>
22.8727

> <b_lp_Chiralities_Consistent>
1

> <s_lp_Variant>
AV-unprocessed.smi:510-1

> <Gold.Version>
5.8.1

> <Gold.Id.Protein>
6NUR|6NUR_protein|mol2

> <Gold.PLP.Fitness>
38.8479

> <Gold.PLP.PLP>
-31.3000

> <Gold.PLP.part.hbond>
-2.9592

> <Gold.PLP.part.metal>
0.0000

> <Gold.PLP.part.buried>
-4.5049

> <Gold.PLP.part.nonpolar>
-24.9628

> <Gold.PLP.part.repulsive>
0.7596

> <Gold.PLP.ligand.clash>
0.0000

> <Gold.PLP.ligand.torsion>
0.0785

> <Gold.PLP.Chemscore.Hbond>
2.5680

> <Gold.PLP.Chemscore.CHOScore>
0.0000

> <Gold.PLP.Chemscore.Metal>
0.0000

> <Gold.Chemscore.Hbonds>
donor molecule, donor type, donor heavy atom, donor atom, acceptor molecule, acceptor atom, score
      L1  H     7    26       P1  8028  1.00
      P1  H  7989  7998       L1     8  1.00
      P1  H 10752 10764       L1    15  0.66

> <Gold.PLP.Chemscore.Internal.Correction>
0.0010

> <Gold.Rescore>
     Score         DG    S(hbond)    S(metal)    S(lipo)     H(rot)  DE(clash)    DE(int)     intcor
     12.01     -12.26       1.78        0.00      46.20       1.78       0.17       0.09       ----

> <Gold.Chemscore.Fitness>
12.0099

> <Gold.Chemscore.DG>
-12.2630

> <Gold.Chemscore.ZeroCoef>
-5.4800

> <Gold.Chemscore.Hbond>
1.7789

> <Gold.Chemscore.Metal>
0.0000

> <Gold.Chemscore.Lipo>
46.2041

> <Gold.Chemscore.Internal_Hbond>
0.0000

> <Gold.Chemscore.DEClash>
0.1663

> <Gold.Chemscore.DEInternal>
0.0868

> <Gold.Chemscore.Rot>
1.7830

> <Gold.Chemscore.Internal.Correction>
   9.000000E+99

> <Gold.Chemscore.Hbonds>
donor molecule, donor type, donor heavy atom, donor atom, acceptor molecule, acceptor atom, score
      L1  H     7    26       P1  8028  0.94
      P1  H  7989  7998       L1     8  0.16
      P1  H 10752 10764       L1    15  0.62

> <Gold.Chemscore.Hbond.Weighted>
-5.9417

> <Gold.Chemscore.Metal.Weighted>
-0.0000

> <Gold.Chemscore.Lipo.Weighted>
-5.4059

> <Gold.Chemscore.Internal_Hbond.Weighted>
0.0000

> <Gold.Chemscore.DEClash.Weighted>
0.1663

> <Gold.Chemscore.DEInternal.Weighted>
0.0868

> <Gold.Chemscore.Rot.Weighted>
4.5646

> <Gold.Chemscore.Internal.Correction.Weighted>
   9.000000E+99

> <Gold.Protein.RotatedTorsions>
[ 6907 6896 6895 6894 ] final  155.73 input  -60.11 | X-H torsion
[ 7974 7965 7964 7962 ] final  164.29 input  175.53 | X-H torsion
[ 8008 7997 7996 7995 ] final  -49.66 input   59.86 | X-H torsion
[ 10167 10162 10161 10158 ] final  165.53 input  -65.29 | X-H torsion
[ 10718 10713 10712 10709 ] final  -19.36 input   66.30 | X-H torsion
[ 10763 10752 10751 10750 ] final    0.36 input  -60.55 | X-H torsion
[ 11005 11000 10999 10996 ] final   16.42 input  -57.11 | X-H torsion

> <Gold.Protein.ActiveResidues>
 VAL166  LYS551  ARG553  GLY616  TRP617  ASP618  TYR619  PRO620  LYS621  CYS622 
 ASP623  PHE694  ASN695  SER759  ASP760  ASP761  ALA762  ILE779  LEU786  VAL792 
 PHE793  MET794  SER795  GLU796  ALA797  LYS798  CYS799  TRP800  GLU811  SER814 

> <Gold.Protein.RotatedAtoms>
  152.0400  133.3973  159.4332 H   0  0  0  0  0  0  0  0  0  0  0  0  # atno 6907 bound_to 6896
  150.6876  134.3426  159.4883 H   0  0  0  0  0  0  0  0  0  0  0  0  # atno 6908 bound_to 6896
  152.1223  134.9196  160.0613 H   0  0  0  0  0  0  0  0  0  0  0  0  # atno 6909 bound_to 6896
  144.7551  139.8305  143.6352 H   0  0  0  0  0  0  0  0  0  0  0  0  # atno 7974 bound_to 7965
  154.4048  140.1291  156.4539 H   0  0  0  0  0  0  0  0  0  0  0  0  # atno 8008 bound_to 7997
  155.7339  140.3491  155.5052 H   0  0  0  0  0  0  0  0  0  0  0  0  # atno 8009 bound_to 7997
  155.9102  140.1034  157.1275 H   0  0  0  0  0  0  0  0  0  0  0  0  # atno 8010 bound_to 7997
  139.4907  144.4122  151.9286 H   0  0  0  0  0  0  0  0  0  0  0  0  # atno 10167 bound_to 10162
  156.5468  130.4692  149.6471 H   0  0  0  0  0  0  0  0  0  0  0  0  # atno 10718 bound_to 10713
  153.3216  135.6969  153.7025 H   0  0  0  0  0  0  0  0  0  0  0  0  # atno 10763 bound_to 10752
  153.5863  135.3488  155.2895 H   0  0  0  0  0  0  0  0  0  0  0  0  # atno 10764 bound_to 10752
  154.8599  135.4307  154.2382 H   0  0  0  0  0  0  0  0  0  0  0  0  # atno 10765 bound_to 10752
  140.4473  134.1260  155.7698 H   0  0  0  0  0  0  0  0  0  0  0  0  # atno 11005 bound_to 11000
  146.1552  139.4648  143.0023 LP  0  0  0  0  0  0  0  0  0  0  0  0  # atno 17320 bound_to 7965
  145.6806  141.0192  143.1608 LP  0  0  0  0  0  0  0  0  0  0  0  0  # atno 17321 bound_to 7965
  140.3564  144.3027  150.5940 LP  0  0  0  0  0  0  0  0  0  0  0  0  # atno 17342 bound_to 10162
  140.5441  143.2218  151.8036 LP  0  0  0  0  0  0  0  0  0  0  0  0  # atno 17343 bound_to 10162
  156.2921  130.7130  151.1981 LP  0  0  0  0  0  0  0  0  0  0  0  0  # atno 17370 bound_to 10713
  157.7395  131.0528  150.5227 LP  0  0  0  0  0  0  0  0  0  0  0  0  # atno 17371 bound_to 10713
  141.1679  133.8666  157.1659 LP  0  0  0  0  0  0  0  0  0  0  0  0  # atno 17394 bound_to 11000
  140.0030  135.0020  157.0231 LP  0  0  0  0  0  0  0  0  0  0  0  0  # atno 17395 bound_to 11000

$$$$
