AV-unprocessed.smi:99|AV-procd|sdf|873|dock4
  -GOLD-   2262017333D 1   1.00000     0.00000
 Structure written by MMmdl.
 53 56  0  0  0  0  0  0  0  0  1 V2000
  146.4793  135.6010  157.5455 O   0  0  0  0  0  0  0  0  0  0  0  0
  146.9830  136.2451  158.4679 C   0  0  0  0  0  0  0  0  0  0  0  0
  147.6055  137.4267  158.3002 O   0  0  0  0  0  0  0  0  0  0  0  0
  147.8569  137.9228  156.9953 C   0  0  0  0  0  0  0  0  0  0  0  0
  148.9172  137.0420  156.3193 C   0  0  2  0  0  0  0  0  0  0  0  0
  149.4588  136.1045  157.2410 O   0  0  0  0  0  0  0  0  0  0  0  0
  150.7173  135.6806  156.8049 C   0  0  1  0  0  0  0  0  0  0  0  0
  150.6294  134.2646  156.2639 N   0  0  0  0  0  0  0  0  0  0  0  0
  149.6760  133.8750  155.3305 C   0  0  0  0  0  0  0  0  0  0  0  0
  149.5962  132.6164  154.8371 C   0  0  0  0  0  0  0  0  0  0  0  0
  150.5311  131.5863  155.2773 C   0  0  0  0  0  0  0  0  0  0  0  0
  150.5381  130.4212  154.8857 O   0  0  0  0  0  0  0  0  0  0  0  0
  151.4685  132.0186  156.2190 N   0  0  0  0  0  0  0  0  0  0  0  0
  151.5608  133.3122  156.7343 C   0  0  0  0  0  0  0  0  0  0  0  0
  152.4325  133.5870  157.5582 O   0  0  0  0  0  0  0  0  0  0  0  0
  151.2190  136.7066  155.7568 C   0  0  1  0  0  0  0  0  0  0  0  0
  151.3414  136.2050  154.4375 O   0  0  0  0  0  0  0  0  0  0  0  0
  150.1442  137.7850  155.7864 C   0  0  2  0  0  0  0  0  0  0  0  0
  150.5116  138.8404  156.6685 O   0  0  0  0  0  0  0  0  0  0  0  0
  151.0933  139.9643  156.2009 C   0  0  0  0  0  0  0  0  0  0  0  0
  151.3093  140.1764  155.0062 O   0  0  0  0  0  0  0  0  0  0  0  0
  151.4488  140.9229  157.2855 C   0  0  0  0  0  0  0  0  0  0  0  0
  151.1750  142.2993  157.1115 C   0  0  0  0  0  0  0  0  0  0  0  0
  151.4992  143.2280  158.1196 C   0  0  0  0  0  0  0  0  0  0  0  0
  152.0996  142.7908  159.3146 C   0  0  0  0  0  0  0  0  0  0  0  0
  152.3746  141.4235  159.5010 C   0  0  0  0  0  0  0  0  0  0  0  0
  152.0520  140.4934  158.4937 C   0  0  0  0  0  0  0  0  0  0  0  0
  146.9656  135.7993  159.8905 C   0  0  0  0  0  0  0  0  0  0  0  0
  146.6638  134.4505  160.1909 C   0  0  0  0  0  0  0  0  0  0  0  0
  146.6421  134.0007  161.5254 C   0  0  0  0  0  0  0  0  0  0  0  0
  146.9249  134.8937  162.5755 C   0  0  0  0  0  0  0  0  0  0  0  0
  147.2295  136.2372  162.2895 C   0  0  0  0  0  0  0  0  0  0  0  0
  147.2497  136.6896  160.9557 C   0  0  0  0  0  0  0  0  0  0  0  0
  152.1366  131.3390  156.5522 H   0  0  0  0  0  0  0  0  0  0  0  0
  146.9382  137.9176  156.4066 H   0  0  0  0  0  0  0  0  0  0  0  0
  148.2006  138.9560  157.0530 H   0  0  0  0  0  0  0  0  0  0  0  0
  148.4599  136.4972  155.4928 H   0  0  0  0  0  0  0  0  0  0  0  0
  151.3584  135.6189  157.6864 H   0  0  0  0  0  0  0  0  0  0  0  0
  148.9509  134.5855  154.9666 H   0  0  0  0  0  0  0  0  0  0  0  0
  148.8342  132.3693  154.1122 H   0  0  0  0  0  0  0  0  0  0  0  0
  152.1925  137.0903  156.0645 H   0  0  0  0  0  0  0  0  0  0  0  0
  151.2018  136.9168  153.8317 H   0  0  0  0  0  0  0  0  0  0  0  0
  149.9324  138.1853  154.7933 H   0  0  0  0  0  0  0  0  0  0  0  0
  150.7142  142.6586  156.2025 H   0  0  0  0  0  0  0  0  0  0  0  0
  151.2871  144.2772  157.9747 H   0  0  0  0  0  0  0  0  0  0  0  0
  152.3481  143.5033  160.0873 H   0  0  0  0  0  0  0  0  0  0  0  0
  152.8340  141.0864  160.4183 H   0  0  0  0  0  0  0  0  0  0  0  0
  152.2749  139.4511  158.6703 H   0  0  0  0  0  0  0  0  0  0  0  0
  146.4431  133.7467  159.4013 H   0  0  0  0  0  0  0  0  0  0  0  0
  146.4086  132.9688  161.7428 H   0  0  0  0  0  0  0  0  0  0  0  0
  146.9095  134.5478  163.5986 H   0  0  0  0  0  0  0  0  0  0  0  0
  147.4493  136.9227  163.0946 H   0  0  0  0  0  0  0  0  0  0  0  0
  147.4910  137.7263  160.7706 H   0  0  0  0  0  0  0  0  0  0  0  0
  1  2  2  0  0  0  0
  2  3  1  0  0  0  0
  2 28  1  0  0  0  0
  3  4  1  0  0  0  0
  4  5  1  0  0  0  0
  4 35  1  0  0  0  0
  4 36  1  0  0  0  0
  5 18  1  0  0  0  0
  5  6  1  0  0  0  0
  5 37  1  0  0  0  0
  6  7  1  0  0  0  0
  7  8  1  0  0  0  0
  7 16  1  0  0  0  0
  7 38  1  0  0  0  0
  8 14  1  0  0  0  0
  8  9  1  0  0  0  0
  9 10  2  0  0  0  0
  9 39  1  0  0  0  0
 10 11  1  0  0  0  0
 10 40  1  0  0  0  0
 11 12  2  0  0  0  0
 11 13  1  0  0  0  0
 13 34  1  0  0  0  0
 13 14  1  0  0  0  0
 14 15  2  0  0  0  0
 16 17  1  0  0  0  0
 16 18  1  0  0  0  0
 16 41  1  0  0  0  0
 17 42  1  0  0  0  0
 18 19  1  0  0  0  0
 18 43  1  0  0  0  0
 19 20  1  0  0  0  0
 20 21  2  0  0  0  0
 20 22  1  0  0  0  0
 22 27  1  0  0  0  0
 22 23  2  0  0  0  0
 23 24  1  0  0  0  0
 23 44  1  0  0  0  0
 24 25  2  0  0  0  0
 24 45  1  0  0  0  0
 25 26  1  0  0  0  0
 25 46  1  0  0  0  0
 26 27  2  0  0  0  0
 26 47  1  0  0  0  0
 27 48  1  0  0  0  0
 28 33  1  0  0  0  0
 28 29  2  0  0  0  0
 29 30  1  0  0  0  0
 29 49  1  0  0  0  0
 30 31  2  0  0  0  0
 30 50  1  0  0  0  0
 31 32  1  0  0  0  0
 31 51  1  0  0  0  0
 32 33  2  0  0  0  0
 32 52  1  0  0  0  0
 33 53  1  0  0  0  0
M  END
> <s_m_source_file>
AV-unprocessed.smi

> <i_m_source_file_index>
99

> <i_lp_mmshare_version>
43012

> <i_f3d_flags>
0

> <s_epik_input>
W2NIXTFbY0hdW2NIXVtjSF1bY0hdYzFDKD1PKU9bQ0gyXVtDQEBIXTJPW0NAQEhdKG4zW2NIXVtjSF1jKD1PKVtuSF1jMz1PKVtDQEBIXShbT0hdKVtDQEhdMk9DKD1PKWM0W2NIXVtjSF1bY0hdW2NIXVtjSF00

> <s_epik_cmdline>
J2VwaWtfcHl0aG9uJywgJy1waCcsICc3LjAnLCAnLXRuJywgJzgnLCAnLW1hJywgJzIwMCcsICctbWV0YWxfYmluZGluZycsICctaW1hZScsICc8aW5maWxlLm1hZT4nLCAnLW9tYWUnLCAnPG91dGZpbGUubWFlPic=

> <r_lp_tautomer_probability>
1

> <r_epik_Ionization_Penalty>
0.00454555

> <r_epik_Ionization_Penalty_Charging>
0.0045191

> <r_epik_Ionization_Penalty_Neutral>
2.64449e-05

> <r_epik_State_Penalty>
-0

> <r_epik_Charging_Adjusted_Penalty>
0.0045191

> <i_epik_Tot_Q>
0

> <i_epik_Tot_abs_Q>
0

> <r_epik_Metal_State_Penalty>
1.27877

> <b_epik_Metal_Only>
0

> <s_epik_Chemistry_Notes>
This compound has an ester and may undergo hydrolysis at high or low pH. This compound contains an acetal/aminal-like group ( X-CH(R)-Y where X, Y are N, S, or O) that may be acid/base labile, releasing an aldehyde.

> <s_lp_Force_Field>
OPLS_2005

> <r_lp_Energy>
38.1357

> <b_lp_Chiralities_Consistent>
1

> <s_lp_Variant>
AV-unprocessed.smi:99-9

> <Gold.Version>
5.8.1

> <Gold.Id.Protein>
6NUR|6NUR_protein|mol2

> <Gold.PLP.Fitness>
55.4801

> <Gold.PLP.PLP>
-52.0653

> <Gold.PLP.part.hbond>
-4.0000

> <Gold.PLP.part.metal>
0.0000

> <Gold.PLP.part.buried>
-8.0740

> <Gold.PLP.part.nonpolar>
-40.1943

> <Gold.PLP.part.repulsive>
0.1568

> <Gold.PLP.ligand.clash>
0.0017

> <Gold.PLP.ligand.torsion>
2.2767

> <Gold.PLP.Chemscore.Hbond>
2.4755

> <Gold.PLP.Chemscore.CHOScore>
0.0000

> <Gold.PLP.Chemscore.Metal>
0.0000

> <Gold.Chemscore.Hbonds>
donor molecule, donor type, donor heavy atom, donor atom, acceptor molecule, acceptor atom, score
      P1  H  6896  6907       L1    15  0.45
      P1  H  7989  7998       L1    21  1.00
      P1  H 10752 10765       L1    17  1.00

> <Gold.PLP.Chemscore.Internal.Correction>
0.5434

> <Gold.Rescore>
     Score         DG    S(hbond)    S(metal)    S(lipo)     H(rot)  DE(clash)    DE(int)     intcor
     12.08     -15.55       1.40        0.00     115.88       3.19       0.04       3.43       ----

> <Gold.Chemscore.Fitness>
12.0772

> <Gold.Chemscore.DG>
-15.5472

> <Gold.Chemscore.ZeroCoef>
-5.4800

> <Gold.Chemscore.Hbond>
1.4001

> <Gold.Chemscore.Metal>
0.0000

> <Gold.Chemscore.Lipo>
115.8787

> <Gold.Chemscore.Internal_Hbond>
0.0000

> <Gold.Chemscore.DEClash>
0.0400

> <Gold.Chemscore.DEInternal>
3.4300

> <Gold.Chemscore.Rot>
3.1903

> <Gold.Chemscore.Internal.Correction>
   9.000000E+99

> <Gold.Chemscore.Hbonds>
donor molecule, donor type, donor heavy atom, donor atom, acceptor molecule, acceptor atom, score
      P1  H  6896  6907       L1    15  0.45
      P1  H  7989  7998       L1    21  0.98
      P1  H 10752 10765       L1    17  0.42

> <Gold.Chemscore.Hbond.Weighted>
-4.6765

> <Gold.Chemscore.Metal.Weighted>
-0.0000

> <Gold.Chemscore.Lipo.Weighted>
-13.5578

> <Gold.Chemscore.Internal_Hbond.Weighted>
0.0000

> <Gold.Chemscore.DEClash.Weighted>
0.0400

> <Gold.Chemscore.DEInternal.Weighted>
3.4300

> <Gold.Chemscore.Rot.Weighted>
8.1671

> <Gold.Chemscore.Internal.Correction.Weighted>
   9.000000E+99

> <Gold.Protein.RotatedTorsions>
[ 6907 6896 6895 6894 ] final  153.62 input  -60.11 | X-H torsion
[ 7974 7965 7964 7962 ] final  176.73 input  175.53 | X-H torsion
[ 8008 7997 7996 7995 ] final -124.86 input   59.86 | X-H torsion
[ 10167 10162 10161 10158 ] final    1.02 input  -65.29 | X-H torsion
[ 10718 10713 10712 10709 ] final -115.31 input   66.30 | X-H torsion
[ 10763 10752 10751 10750 ] final  160.74 input  -60.55 | X-H torsion
[ 11005 11000 10999 10996 ] final  -31.37 input  -57.11 | X-H torsion

> <Gold.Protein.ActiveResidues>
 VAL166  LYS551  ARG553  GLY616  TRP617  ASP618  TYR619  PRO620  LYS621  CYS622 
 ASP623  PHE694  ASN695  SER759  ASP760  ASP761  ALA762  ILE779  LEU786  VAL792 
 PHE793  MET794  SER795  GLU796  ALA797  LYS798  CYS799  TRP800  GLU811  SER814 

> <Gold.Protein.RotatedAtoms>
  152.0701  133.4102  159.4455 H   0  0  0  0  0  0  0  0  0  0  0  0  # atno 6907 bound_to 6896
  150.6864  134.3102  159.4752 H   0  0  0  0  0  0  0  0  0  0  0  0  # atno 6908 bound_to 6896
  152.0932  134.9392  160.0622 H   0  0  0  0  0  0  0  0  0  0  0  0  # atno 6909 bound_to 6896
  144.7179  140.0141  143.6440 H   0  0  0  0  0  0  0  0  0  0  0  0  # atno 7974 bound_to 7965
  155.2037  140.0416  157.2922 H   0  0  0  0  0  0  0  0  0  0  0  0  # atno 8008 bound_to 7997
  154.6057  140.2464  155.7705 H   0  0  0  0  0  0  0  0  0  0  0  0  # atno 8009 bound_to 7997
  156.2349  140.2925  156.0295 H   0  0  0  0  0  0  0  0  0  0  0  0  # atno 8010 bound_to 7997
  140.6702  143.7069  150.7908 H   0  0  0  0  0  0  0  0  0  0  0  0  # atno 10167 bound_to 10162
  156.0887  130.6074  150.8889 H   0  0  0  0  0  0  0  0  0  0  0  0  # atno 10718 bound_to 10713
  154.2521  135.2771  155.2812 H   0  0  0  0  0  0  0  0  0  0  0  0  # atno 10763 bound_to 10752
  154.5456  135.5690  153.6880 H   0  0  0  0  0  0  0  0  0  0  0  0  # atno 10764 bound_to 10752
  152.9978  135.6262  154.2668 H   0  0  0  0  0  0  0  0  0  0  0  0  # atno 10765 bound_to 10752
  140.9462  133.7248  156.1150 H   0  0  0  0  0  0  0  0  0  0  0  0  # atno 11005 bound_to 11000
  146.0234  139.3271  143.0799 LP  0  0  0  0  0  0  0  0  0  0  0  0  # atno 17320 bound_to 7965
  145.8540  140.9513  143.0735 LP  0  0  0  0  0  0  0  0  0  0  0  0  # atno 17321 bound_to 7965
  140.0753  143.5021  152.2558 LP  0  0  0  0  0  0  0  0  0  0  0  0  # atno 17342 bound_to 10162
  139.5967  144.7569  151.3269 LP  0  0  0  0  0  0  0  0  0  0  0  0  # atno 17343 bound_to 10162
  157.6030  131.0940  150.8928 LP  0  0  0  0  0  0  0  0  0  0  0  0  # atno 17370 bound_to 10713
  156.9081  130.5271  149.5281 LP  0  0  0  0  0  0  0  0  0  0  0  0  # atno 17371 bound_to 10713
  140.7666  134.3880  157.5516 LP  0  0  0  0  0  0  0  0  0  0  0  0  # atno 17394 bound_to 11000
  139.8834  134.8995  156.2768 LP  0  0  0  0  0  0  0  0  0  0  0  0  # atno 17395 bound_to 11000

$$$$
