AV-unprocessed.smi:1973|AV-procd|sdf|7979|dock6
  -GOLD-   2272010153D 1   1.00000     0.00000
 Structure written by MMmdl.
 48 50  0  0  0  0  0  0  0  0  2 V2000
  147.9989  141.7861  154.4664 C   0  0  0  0  0  0  0  0  0  0  0  0
  149.2135  141.2344  153.9887 O   0  0  0  0  0  0  0  0  0  0  0  0
  149.8135  140.3530  154.9227 C   0  0  0  0  0  0  0  0  0  0  0  0
  150.4829  139.1993  154.1605 C   0  0  0  0  0  0  0  0  0  0  0  0
  151.1895  138.2911  155.0696 N   0  0  0  0  0  0  0  0  0  0  0  0
  150.5519  137.0768  155.2652 N   0  0  0  0  0  0  0  0  0  0  0  0
  151.0728  136.1881  156.0486 C   0  0  0  0  0  0  0  0  0  0  0  0
  150.4202  134.8702  156.2861 C   0  0  0  0  0  0  0  0  0  0  0  0
  150.1190  134.4876  157.4179 O   0  0  0  0  0  0  0  0  0  0  0  0
  150.1867  134.1342  155.1845 N   0  0  0  0  0  0  0  0  0  0  0  0
  149.5494  132.8215  155.1707 C   0  0  0  0  0  0  0  0  0  0  0  0
  148.3089  132.7881  154.2580 C   0  0  1  0  0  0  0  0  0  0  0  0
  147.1720  133.6947  154.7204 C   0  0  0  0  0  0  0  0  0  0  0  0
  146.3358  133.8467  153.4532 C   0  0  0  0  0  0  0  0  0  0  0  0
  147.3112  133.8885  152.3429 N   0  3  2  0  0  0  0  0  0  0  0  0
  146.7938  133.3440  151.0697 C   0  0  0  0  0  0  0  0  0  0  0  0
  145.3186  133.5922  150.8632 C   0  0  0  0  0  0  0  0  0  0  0  0
  145.8090  132.2142  151.2524 C   0  0  0  0  0  0  0  0  0  0  0  0
  148.5613  133.2470  152.8135 C   0  0  0  0  0  0  0  0  0  0  0  0
  152.3283  136.4446  156.7342 C   0  0  0  0  0  0  0  0  0  0  0  0
  152.9342  137.6363  156.5391 C   0  0  0  0  0  0  0  0  0  0  0  0
  152.3648  138.6605  155.6625 C   0  0  0  0  0  0  0  0  0  0  0  0
  152.8922  139.7569  155.4776 O   0  0  0  0  0  0  0  0  0  0  0  0
  147.5747  142.4481  153.7116 H   0  0  0  0  0  0  0  0  0  0  0  0
  148.1614  142.3707  155.3729 H   0  0  0  0  0  0  0  0  0  0  0  0
  147.2671  141.0057  154.6795 H   0  0  0  0  0  0  0  0  0  0  0  0
  150.5508  140.8912  155.5206 H   0  0  0  0  0  0  0  0  0  0  0  0
  149.0563  139.9631  155.6049 H   0  0  0  0  0  0  0  0  0  0  0  0
  149.7263  138.6489  153.5984 H   0  0  0  0  0  0  0  0  0  0  0  0
  151.1690  139.5962  153.4100 H   0  0  0  0  0  0  0  0  0  0  0  0
  150.4577  134.5224  154.2922 H   0  0  0  0  0  0  0  0  0  0  0  0
  150.2694  132.0637  154.8576 H   0  0  0  0  0  0  0  0  0  0  0  0
  149.2682  132.5727  156.1945 H   0  0  0  0  0  0  0  0  0  0  0  0
  147.9186  131.7692  154.2238 H   0  0  0  0  0  0  0  0  0  0  0  0
  146.6054  133.2745  155.5518 H   0  0  0  0  0  0  0  0  0  0  0  0
  147.5599  134.6662  155.0300 H   0  0  0  0  0  0  0  0  0  0  0  0
  145.6848  132.9774  153.3429 H   0  0  0  0  0  0  0  0  0  0  0  0
  145.7069  134.7372  153.4682 H   0  0  0  0  0  0  0  0  0  0  0  0
  147.4791  133.3515  150.2237 H   0  0  0  0  0  0  0  0  0  0  0  0
  144.7823  134.1670  151.6163 H   0  0  0  0  0  0  0  0  0  0  0  0
  144.9694  133.7258  149.8414 H   0  0  0  0  0  0  0  0  0  0  0  0
  145.7836  131.4418  150.4863 H   0  0  0  0  0  0  0  0  0  0  0  0
  145.5979  131.8727  152.2642 H   0  0  0  0  0  0  0  0  0  0  0  0
  149.3549  133.9939  152.7731 H   0  0  0  0  0  0  0  0  0  0  0  0
  148.8667  132.4112  152.1817 H   0  0  0  0  0  0  0  0  0  0  0  0
  152.7717  135.7074  157.3879 H   0  0  0  0  0  0  0  0  0  0  0  0
  153.8666  137.8415  157.0442 H   0  0  0  0  0  0  0  0  0  0  0  0
  147.5339  134.8615  152.1876 H   0  0  0  0  0  0  0  0  0  0  0  0
  1  2  1  0  0  0  0
  1 24  1  0  0  0  0
  1 25  1  0  0  0  0
  1 26  1  0  0  0  0
  2  3  1  0  0  0  0
  3  4  1  0  0  0  0
  3 27  1  0  0  0  0
  3 28  1  0  0  0  0
  4  5  1  0  0  0  0
  4 29  1  0  0  0  0
  4 30  1  0  0  0  0
  5 22  1  0  0  0  0
  5  6  1  0  0  0  0
  6  7  2  0  0  0  0
  7  8  1  0  0  0  0
  7 20  1  0  0  0  0
  8  9  2  0  0  0  0
  8 10  1  0  0  0  0
 10 11  1  0  0  0  0
 10 31  1  0  0  0  0
 11 12  1  0  0  0  0
 11 32  1  0  0  0  0
 11 33  1  0  0  0  0
 12 19  1  0  0  0  0
 12 13  1  0  0  0  0
 12 34  1  0  0  0  0
 13 14  1  0  0  0  0
 13 35  1  0  0  0  0
 13 36  1  0  0  0  0
 14 15  1  0  0  0  0
 14 37  1  0  0  0  0
 14 38  1  0  0  0  0
 15 16  1  0  0  0  0
 15 19  1  0  0  0  0
 15 48  1  0  0  0  0
 16 18  1  0  0  0  0
 16 17  1  0  0  0  0
 16 39  1  0  0  0  0
 17 18  1  0  0  0  0
 17 40  1  0  0  0  0
 17 41  1  0  0  0  0
 18 42  1  0  0  0  0
 18 43  1  0  0  0  0
 19 44  1  0  0  0  0
 19 45  1  0  0  0  0
 20 21  2  0  0  0  0
 20 46  1  0  0  0  0
 21 22  1  0  0  0  0
 21 47  1  0  0  0  0
 22 23  2  0  0  0  0
M  CHG  1  15   1
M  END
> <s_m_source_file>
AV-unprocessed.smi

> <i_m_source_file_index>
1973

> <i_lp_mmshare_version>
43012

> <i_f3d_flags>
0

> <s_epik_input>
W0NIM11PW0NIMl1bQ0gyXW4xbmMoW2NIXVtjSF1jMT1PKUMoPU8pW05IXVtDSDJdW0NAQEhdMltDSDJdW0NIMl1OKFtDSDJdMilbQ0hdM1tDSDJdW0NIMl0z

> <s_epik_cmdline>
J2VwaWtfcHl0aG9uJywgJy1waCcsICc3LjAnLCAnLXRuJywgJzgnLCAnLW1hJywgJzIwMCcsICctbWV0YWxfYmluZGluZycsICctaW1hZScsICc8aW5maWxlLm1hZT4nLCAnLW9tYWUnLCAnPG91dGZpbGUubWFlPic=

> <r_lp_tautomer_probability>
1

> <r_epik_Ionization_Penalty>
0.000225706

> <r_epik_Ionization_Penalty_Charging>
0.000223776

> <r_epik_Ionization_Penalty_Neutral>
1.93004e-06

> <r_epik_State_Penalty>
-0

> <r_epik_Charging_Adjusted_Penalty>
0.000223776

> <i_epik_Tot_Q>
1

> <i_epik_Tot_abs_Q>
1

> <r_epik_Metal_State_Penalty>
-0

> <b_epik_Metal_Only>
0

> <s_lp_Force_Field>
OPLS_2005

> <r_lp_Energy>
57.1885

> <b_lp_Chiralities_Consistent>
1

> <s_lp_Variant>
AV-unprocessed.smi:1973-4

> <Gold.Version>
5.8.1

> <Gold.Id.Protein>
6NUR|6NUR_protein|mol2

> <Gold.PLP.Fitness>
47.6217

> <Gold.PLP.PLP>
-35.9529

> <Gold.PLP.part.hbond>
-5.1663

> <Gold.PLP.part.metal>
0.0000

> <Gold.PLP.part.buried>
-2.9337

> <Gold.PLP.part.nonpolar>
-29.1098

> <Gold.PLP.part.repulsive>
1.8889

> <Gold.PLP.ligand.clash>
0.0000

> <Gold.PLP.ligand.torsion>
2.1077

> <Gold.PLP.Chemscore.Hbond>
4.8080

> <Gold.PLP.Chemscore.CHOScore>
0.0000

> <Gold.PLP.Chemscore.Metal>
0.0000

> <Gold.Chemscore.Hbonds>
donor molecule, donor type, donor heavy atom, donor atom, acceptor molecule, acceptor atom, score
      L1  H    15    48       P1  7948  1.86
      P1  H  6896  6908       L1     9  0.75
      P1  H  7997  8009       L1    23  1.00
      P1  H  8011  8017       L1     2  0.65

> <Gold.PLP.Chemscore.Internal.Correction>
1.4602

> <Gold.Rescore>
     Score         DG    S(hbond)    S(metal)    S(lipo)     H(rot)  DE(clash)    DE(int)     intcor
     17.51     -20.01       3.07        0.00      79.72       1.97       0.30       2.19       ----

> <Gold.Chemscore.Fitness>
17.5133

> <Gold.Chemscore.DG>
-20.0051

> <Gold.Chemscore.ZeroCoef>
-5.4800

> <Gold.Chemscore.Hbond>
3.0669

> <Gold.Chemscore.Metal>
0.0000

> <Gold.Chemscore.Lipo>
79.7224

> <Gold.Chemscore.Internal_Hbond>
0.0000

> <Gold.Chemscore.DEClash>
0.3033

> <Gold.Chemscore.DEInternal>
2.1885

> <Gold.Chemscore.Rot>
1.9711

> <Gold.Chemscore.Internal.Correction>
   9.000000E+99

> <Gold.Chemscore.Hbonds>
donor molecule, donor type, donor heavy atom, donor atom, acceptor molecule, acceptor atom, score
      L1  H    15    48       P1  7948  0.78
      P1  H  6896  6908       L1     9  0.71
      P1  H  7997  8009       L1    23  0.99
      P1  H  8011  8017       L1     2  0.35

> <Gold.Chemscore.Hbond.Weighted>
-10.2436

> <Gold.Chemscore.Metal.Weighted>
-0.0000

> <Gold.Chemscore.Lipo.Weighted>
-9.3275

> <Gold.Chemscore.Internal_Hbond.Weighted>
0.0000

> <Gold.Chemscore.DEClash.Weighted>
0.3033

> <Gold.Chemscore.DEInternal.Weighted>
2.1885

> <Gold.Chemscore.Rot.Weighted>
5.0460

> <Gold.Chemscore.Internal.Correction.Weighted>
   9.000000E+99

> <Gold.Protein.RotatedTorsions>
[ 6907 6896 6895 6894 ] final  145.00 input  -60.11 | X-H torsion
[ 7974 7965 7964 7962 ] final   62.93 input  175.53 | X-H torsion
[ 8008 7997 7996 7995 ] final -145.91 input   59.86 | X-H torsion
[ 10167 10162 10161 10158 ] final  -48.99 input  -65.29 | X-H torsion
[ 10718 10713 10712 10709 ] final -121.90 input   66.30 | X-H torsion
[ 10763 10752 10751 10750 ] final  155.63 input  -60.55 | X-H torsion
[ 11005 11000 10999 10996 ] final  129.67 input  -57.11 | X-H torsion

> <Gold.Protein.ActiveResidues>
 VAL166  LYS551  ARG553  GLY616  TRP617  ASP618  TYR619  PRO620  LYS621  CYS622 
 ASP623  PHE694  ASN695  SER759  ASP760  ASP761  ALA762  ILE779  LEU786  VAL792 
 PHE793  MET794  SER795  GLU796  ALA797  LYS798  CYS799  TRP800  GLU811  SER814 

> <Gold.Protein.RotatedAtoms>
  152.1865  133.4743  159.4984 H   0  0  0  0  0  0  0  0  0  0  0  0  # atno 6907 bound_to 6896
  150.6943  134.1767  159.4242 H   0  0  0  0  0  0  0  0  0  0  0  0  # atno 6908 bound_to 6896
  151.9680  135.0090  160.0602 H   0  0  0  0  0  0  0  0  0  0  0  0  # atno 6909 bound_to 6896
  145.8677  139.3357  143.0781 H   0  0  0  0  0  0  0  0  0  0  0  0  # atno 7974 bound_to 7965
  155.5508  140.0616  157.2850 H   0  0  0  0  0  0  0  0  0  0  0  0  # atno 8008 bound_to 7997
  154.4421  140.1903  156.0729 H   0  0  0  0  0  0  0  0  0  0  0  0  # atno 8009 bound_to 7997
  156.0518  140.3283  155.7363 H   0  0  0  0  0  0  0  0  0  0  0  0  # atno 8010 bound_to 7997
  140.6706  143.2716  151.4150 H   0  0  0  0  0  0  0  0  0  0  0  0  # atno 10167 bound_to 10162
  156.1374  130.6441  150.9718 H   0  0  0  0  0  0  0  0  0  0  0  0  # atno 10718 bound_to 10713
  154.1715  135.2804  155.3079 H   0  0  0  0  0  0  0  0  0  0  0  0  # atno 10763 bound_to 10752
  154.6072  135.5510  153.7438 H   0  0  0  0  0  0  0  0  0  0  0  0  # atno 10764 bound_to 10752
  153.0163  135.6406  154.1855 H   0  0  0  0  0  0  0  0  0  0  0  0  # atno 10765 bound_to 10752
  139.9628  134.9598  156.9182 H   0  0  0  0  0  0  0  0  0  0  0  0  # atno 11005 bound_to 11000
  145.9174  140.9139  143.0423 LP  0  0  0  0  0  0  0  0  0  0  0  0  # atno 17320 bound_to 7965
  144.6726  140.1242  143.7448 LP  0  0  0  0  0  0  0  0  0  0  0  0  # atno 17321 bound_to 7965
  139.5973  144.1371  152.2158 LP  0  0  0  0  0  0  0  0  0  0  0  0  # atno 17342 bound_to 10162
  140.0744  144.5752  150.7168 LP  0  0  0  0  0  0  0  0  0  0  0  0  # atno 17343 bound_to 10162
  157.6545  131.0891  150.7978 LP  0  0  0  0  0  0  0  0  0  0  0  0  # atno 17370 bound_to 10713
  156.8057  130.4935  149.5363 LP  0  0  0  0  0  0  0  0  0  0  0  0  # atno 17371 bound_to 10713
  140.5462  134.0672  155.7355 LP  0  0  0  0  0  0  0  0  0  0  0  0  # atno 17394 bound_to 11000
  141.1307  133.9308  157.2542 LP  0  0  0  0  0  0  0  0  0  0  0  0  # atno 17395 bound_to 11000

$$$$
