AV-unprocessed.smi:3048|AV-procd|sdf|11626|dock2
  -GOLD-   2272017 13D 1   1.00000     0.00000
 Structure written by MMmdl.
 38 39  0  0  0  0  0  0  0  0  2 V2000
  153.1677  143.1630  163.2198 C   0  0  0  0  0  0  0  0  0  0  0  0
  152.8826  143.0124  161.7531 C   0  0  0  0  0  0  0  0  0  0  0  0
  153.2610  141.9418  160.8940 C   0  0  0  0  0  0  0  0  0  0  0  0
  152.8506  142.1133  159.6478 N   0  0  0  0  0  0  0  0  0  0  0  0
  152.1995  143.2962  159.6663 N   0  0  0  0  0  0  0  0  0  0  0  0
  151.5968  143.8092  158.4485 C   0  0  0  0  0  0  0  0  0  0  0  0
  150.5878  142.8232  157.8374 C   0  0  0  0  0  0  0  0  0  0  0  0
  150.7335  142.7351  156.3706 N   0  3  0  0  0  0  0  0  0  0  0  0
  150.6035  141.3693  155.8276 C   0  0  0  0  0  0  0  0  0  0  0  0
  149.1637  141.0974  155.3691 C   0  0  1  0  0  0  0  0  0  0  0  0
  148.1262  141.7020  156.3348 C   0  0  0  0  0  0  0  0  0  0  0  0
  146.7049  141.4814  155.8043 C   0  0  0  0  0  0  0  0  0  0  0  0
  146.6026  142.0029  154.3671 C   0  0  0  0  0  0  0  0  0  0  0  0
  147.7199  141.4030  153.4985 C   0  0  0  0  0  0  0  0  0  0  0  0
  148.9903  141.6822  154.0798 O   0  0  0  0  0  0  0  0  0  0  0  0
  152.2045  143.8610  160.9242 C   0  0  0  0  0  0  0  0  0  0  0  0
  153.8233  142.3738  163.5890 H   0  0  0  0  0  0  0  0  0  0  0  0
  152.2540  143.1245  163.8131 H   0  0  0  0  0  0  0  0  0  0  0  0
  153.6548  144.1132  163.4395 H   0  0  0  0  0  0  0  0  0  0  0  0
  153.8171  141.0487  161.1388 H   0  0  0  0  0  0  0  0  0  0  0  0
  151.0950  144.7475  158.6880 H   0  0  0  0  0  0  0  0  0  0  0  0
  152.3847  144.0521  157.7337 H   0  0  0  0  0  0  0  0  0  0  0  0
  150.7181  141.8345  158.2794 H   0  0  0  0  0  0  0  0  0  0  0  0
  149.5726  143.1464  158.0704 H   0  0  0  0  0  0  0  0  0  0  0  0
  150.0317  143.3203  155.9397 H   0  0  0  0  0  0  0  0  0  0  0  0
  151.2843  141.2657  154.9816 H   0  0  0  0  0  0  0  0  0  0  0  0
  150.9098  140.6411  156.5800 H   0  0  0  0  0  0  0  0  0  0  0  0
  149.0102  140.0185  155.3032 H   0  0  0  0  0  0  0  0  0  0  0  0
  148.2257  141.2577  157.3256 H   0  0  0  0  0  0  0  0  0  0  0  0
  148.3099  142.7712  156.4511 H   0  0  0  0  0  0  0  0  0  0  0  0
  146.4649  140.4175  155.8275 H   0  0  0  0  0  0  0  0  0  0  0  0
  145.9770  141.9813  156.4439 H   0  0  0  0  0  0  0  0  0  0  0  0
  145.6259  141.7622  153.9464 H   0  0  0  0  0  0  0  0  0  0  0  0
  146.6852  143.0906  154.3651 H   0  0  0  0  0  0  0  0  0  0  0  0
  147.5893  140.3258  153.3849 H   0  0  0  0  0  0  0  0  0  0  0  0
  147.6879  141.8342  152.4977 H   0  0  0  0  0  0  0  0  0  0  0  0
  151.7283  144.8097  161.1249 H   0  0  0  0  0  0  0  0  0  0  0  0
  151.6447  143.0943  156.1228 H   0  0  0  0  0  0  0  0  0  0  0  0
  1  2  1  0  0  0  0
  1 17  1  0  0  0  0
  1 18  1  0  0  0  0
  1 19  1  0  0  0  0
  2 16  2  0  0  0  0
  2  3  1  0  0  0  0
  3  4  2  0  0  0  0
  3 20  1  0  0  0  0
  4  5  1  0  0  0  0
  5  6  1  0  0  0  0
  5 16  1  0  0  0  0
  6  7  1  0  0  0  0
  6 21  1  0  0  0  0
  6 22  1  0  0  0  0
  7  8  1  0  0  0  0
  7 23  1  0  0  0  0
  7 24  1  0  0  0  0
  8  9  1  0  0  0  0
  8 25  1  0  0  0  0
  8 38  1  0  0  0  0
  9 10  1  0  0  0  0
  9 26  1  0  0  0  0
  9 27  1  0  0  0  0
 10 15  1  0  0  0  0
 10 11  1  0  0  0  0
 10 28  1  0  0  0  0
 11 12  1  0  0  0  0
 11 29  1  0  0  0  0
 11 30  1  0  0  0  0
 12 13  1  0  0  0  0
 12 31  1  0  0  0  0
 12 32  1  0  0  0  0
 13 14  1  0  0  0  0
 13 33  1  0  0  0  0
 13 34  1  0  0  0  0
 14 15  1  0  0  0  0
 14 35  1  0  0  0  0
 14 36  1  0  0  0  0
 16 37  1  0  0  0  0
M  CHG  1   8   1
M  END
> <s_m_source_file>
AV-unprocessed.smi

> <i_m_source_file_index>
3048

> <i_lp_mmshare_version>
43012

> <i_f3d_flags>
0

> <s_epik_input>
W0NIM11jMVtjSF1ubihbY0hdMSlbQ0gyXVtDSDJdW05IXVtDSDJdW0NAQEhdMltDSDJdW0NIMl1bQ0gyXVtDSDJdTzI=

> <s_epik_cmdline>
J2VwaWtfcHl0aG9uJywgJy1waCcsICc3LjAnLCAnLXRuJywgJzgnLCAnLW1hJywgJzIwMCcsICctbWV0YWxfYmluZGluZycsICctaW1hZScsICc8aW5maWxlLm1hZT4nLCAnLW9tYWUnLCAnPG91dGZpbGUubWFlPic=

> <r_lp_tautomer_probability>
1

> <r_epik_Ionization_Penalty>
0.0084937

> <r_epik_Ionization_Penalty_Charging>
0.00848754

> <r_epik_Ionization_Penalty_Neutral>
6.1613e-06

> <r_epik_State_Penalty>
0.00639836

> <r_epik_Charging_Adjusted_Penalty>
0.0148859

> <i_epik_Tot_Q>
1

> <i_epik_Tot_abs_Q>
1

> <r_epik_Metal_State_Penalty>
0.00642541

> <b_epik_Metal_Only>
0

> <s_lp_Force_Field>
OPLS_2005

> <r_lp_Energy>
10.7756

> <b_lp_Chiralities_Consistent>
1

> <s_lp_Variant>
AV-unprocessed.smi:3048-2

> <Gold.Version>
5.8.1

> <Gold.Id.Protein>
6NUR|6NUR_protein|mol2

> <Gold.PLP.Fitness>
46.0831

> <Gold.PLP.PLP>
-40.7877

> <Gold.PLP.part.hbond>
-2.2098

> <Gold.PLP.part.metal>
0.0000

> <Gold.PLP.part.buried>
-5.6079

> <Gold.PLP.part.nonpolar>
-32.9730

> <Gold.PLP.part.repulsive>
0.2815

> <Gold.PLP.ligand.clash>
0.0000

> <Gold.PLP.ligand.torsion>
1.0224

> <Gold.PLP.Chemscore.Hbond>
2.4212

> <Gold.PLP.Chemscore.CHOScore>
0.0000

> <Gold.PLP.Chemscore.Metal>
0.0000

> <Gold.Chemscore.Hbonds>
donor molecule, donor type, donor heavy atom, donor atom, acceptor molecule, acceptor atom, score
      L1  H     8    25       P1  8028  2.00
      P1  H  8011  8017       L1    15  0.38

> <Gold.PLP.Chemscore.Internal.Correction>
0.0766

> <Gold.Rescore>
     Score         DG    S(hbond)    S(metal)    S(lipo)     H(rot)  DE(clash)    DE(int)     intcor
     16.11     -17.13       1.24        0.00      99.61       1.61       0.09       0.93       ----

> <Gold.Chemscore.Fitness>
16.1087

> <Gold.Chemscore.DG>
-17.1268

> <Gold.Chemscore.ZeroCoef>
-5.4800

> <Gold.Chemscore.Hbond>
1.2354

> <Gold.Chemscore.Metal>
0.0000

> <Gold.Chemscore.Lipo>
99.6129

> <Gold.Chemscore.Internal_Hbond>
0.0000

> <Gold.Chemscore.DEClash>
0.0902

> <Gold.Chemscore.DEInternal>
0.9279

> <Gold.Chemscore.Rot>
1.6149

> <Gold.Chemscore.Internal.Correction>
   9.000000E+99

> <Gold.Chemscore.Hbonds>
donor molecule, donor type, donor heavy atom, donor atom, acceptor molecule, acceptor atom, score
      L1  H     8    25       P1  8028  1.00
      P1  H  8011  8017       L1    15  0.04

> <Gold.Chemscore.Hbond.Weighted>
-4.1262

> <Gold.Chemscore.Metal.Weighted>
-0.0000

> <Gold.Chemscore.Lipo.Weighted>
-11.6547

> <Gold.Chemscore.Internal_Hbond.Weighted>
0.0000

> <Gold.Chemscore.DEClash.Weighted>
0.0902

> <Gold.Chemscore.DEInternal.Weighted>
0.9279

> <Gold.Chemscore.Rot.Weighted>
4.1341

> <Gold.Chemscore.Internal.Correction.Weighted>
   9.000000E+99

> <Gold.Protein.RotatedTorsions>
[ 6907 6896 6895 6894 ] final  166.18 input  -60.11 | X-H torsion
[ 7974 7965 7964 7962 ] final -155.61 input  175.53 | X-H torsion
[ 8008 7997 7996 7995 ] final -167.68 input   59.86 | X-H torsion
[ 10167 10162 10161 10158 ] final  -34.43 input  -65.29 | X-H torsion
[ 10718 10713 10712 10709 ] final  176.43 input   66.30 | X-H torsion
[ 10763 10752 10751 10750 ] final   98.19 input  -60.55 | X-H torsion
[ 11005 11000 10999 10996 ] final   52.77 input  -57.11 | X-H torsion

> <Gold.Protein.ActiveResidues>
 VAL166  LYS551  ARG553  GLY616  TRP617  ASP618  TYR619  PRO620  LYS621  CYS622 
 ASP623  PHE694  ASN695  SER759  ASP760  ASP761  ALA762  ILE779  LEU786  VAL792 
 PHE793  MET794  SER795  GLU796  ALA797  LYS798  CYS799  TRP800  GLU811  SER814 

> <Gold.Protein.RotatedAtoms>
  151.8829  133.3499  159.3772 H   0  0  0  0  0  0  0  0  0  0  0  0  # atno 6907 bound_to 6896
  150.7123  134.5001  159.5566 H   0  0  0  0  0  0  0  0  0  0  0  0  # atno 6908 bound_to 6896
  152.2556  134.8088  160.0490 H   0  0  0  0  0  0  0  0  0  0  0  0  # atno 6909 bound_to 6896
  144.7632  140.4226  143.5961 H   0  0  0  0  0  0  0  0  0  0  0  0  # atno 7974 bound_to 7965
  155.8810  140.1009  157.1485 H   0  0  0  0  0  0  0  0  0  0  0  0  # atno 8008 bound_to 7997
  154.4005  140.1329  156.4259 H   0  0  0  0  0  0  0  0  0  0  0  0  # atno 8009 bound_to 7997
  155.7643  140.3462  155.5216 H   0  0  0  0  0  0  0  0  0  0  0  0  # atno 8010 bound_to 7997
  140.7186  143.3549  151.2080 H   0  0  0  0  0  0  0  0  0  0  0  0  # atno 10167 bound_to 10162
  156.9202  130.9938  151.3006 H   0  0  0  0  0  0  0  0  0  0  0  0  # atno 10718 bound_to 10713
  153.2861  135.4157  155.1123 H   0  0  0  0  0  0  0  0  0  0  0  0  # atno 10763 bound_to 10752
  154.8505  135.3507  154.6046 H   0  0  0  0  0  0  0  0  0  0  0  0  # atno 10764 bound_to 10752
  153.6467  135.7054  153.5280 H   0  0  0  0  0  0  0  0  0  0  0  0  # atno 10765 bound_to 10752
  140.0822  134.5323  155.8935 H   0  0  0  0  0  0  0  0  0  0  0  0  # atno 11005 bound_to 11000
  145.6553  139.1572  143.2839 LP  0  0  0  0  0  0  0  0  0  0  0  0  # atno 17320 bound_to 7965
  146.1715  140.6638  142.9231 LP  0  0  0  0  0  0  0  0  0  0  0  0  # atno 17321 bound_to 7965
  139.7088  143.9411  152.2938 LP  0  0  0  0  0  0  0  0  0  0  0  0  # atno 17342 bound_to 10162
  139.9129  144.6845  150.8543 LP  0  0  0  0  0  0  0  0  0  0  0  0  # atno 17343 bound_to 10162
  157.5913  130.8445  149.8663 LP  0  0  0  0  0  0  0  0  0  0  0  0  # atno 17370 bound_to 10713
  156.0495  130.3720  150.1236 LP  0  0  0  0  0  0  0  0  0  0  0  0  # atno 17371 bound_to 10713
  141.2050  133.6644  156.6156 LP  0  0  0  0  0  0  0  0  0  0  0  0  # atno 17394 bound_to 11000
  140.3472  134.7799  157.4441 LP  0  0  0  0  0  0  0  0  0  0  0  0  # atno 17395 bound_to 11000

$$$$
