AV-unprocessed.smi:1726|AV-procd|sdf|6962|dock10
  -GOLD-   22720 8173D 1   1.00000     0.00000
 Structure written by MMmdl.
 42 43  0  0  0  0  0  0  0  0  3 V2000
  145.1965  132.7889  150.6602 C   0  0  0  0  0  0  0  0  0  0  0  0
  146.4890  133.6183  150.6487 C   0  0  0  0  0  0  0  0  0  0  0  0
  147.0081  133.8697  152.0161 N   0  3  2  0  0  0  0  0  0  0  0  0
  147.4940  132.6311  152.6782 C   0  0  0  0  0  0  0  0  0  0  0  0
  148.1697  132.9483  154.0240 C   0  0  0  0  0  0  0  0  0  0  0  0
  147.2413  133.7601  154.9436 C   0  0  0  0  0  0  0  0  0  0  0  0
  146.7032  135.0087  154.2218 C   0  0  1  0  0  0  0  0  0  0  0  0
  147.7858  135.9722  154.0187 N   0  0  0  0  0  0  0  0  0  0  0  0
  148.3907  136.6771  154.9859 C   0  0  0  0  0  0  0  0  0  0  0  0
  148.0921  136.5761  156.1752 O   0  0  0  0  0  0  0  0  0  0  0  0
  149.3389  137.4795  154.4702 N   0  0  0  0  0  0  0  0  0  0  0  0
  150.1693  138.4158  155.1105 C   0  0  0  0  0  0  0  0  0  0  0  0
  149.7683  139.6358  155.5659 C   0  0  0  0  0  0  0  0  0  0  0  0
  150.6868  140.5665  156.2106 C   0  0  0  0  0  0  0  0  0  0  0  0
  150.2899  141.9301  156.7466 C   0  0  0  0  0  0  0  0  0  0  0  0
  149.7801  142.6786  155.7689 F   0  0  0  0  0  0  0  0  0  0  0  0
  149.3611  141.8004  157.6933 F   0  0  0  0  0  0  0  0  0  0  0  0
  151.3352  142.5728  157.2677 F   0  0  0  0  0  0  0  0  0  0  0  0
  151.9726  140.0701  156.2854 C   0  0  0  0  0  0  0  0  0  0  0  0
  152.4528  138.8841  155.8522 N   0  5  0  0  0  0  0  0  0  0  0  0
  151.5856  138.0190  155.2550 C   0  0  0  0  0  0  0  0  0  0  0  0
  151.9569  136.9224  154.8349 O   0  0  0  0  0  0  0  0  0  0  0  0
  146.0457  134.5964  152.8859 C   0  0  0  0  0  0  0  0  0  0  0  0
  144.7988  132.6852  149.6504 H   0  0  0  0  0  0  0  0  0  0  0  0
  144.4280  133.2662  151.2693 H   0  0  0  0  0  0  0  0  0  0  0  0
  145.3551  131.7835  151.0487 H   0  0  0  0  0  0  0  0  0  0  0  0
  147.2539  133.1360  150.0386 H   0  0  0  0  0  0  0  0  0  0  0  0
  146.2655  134.5710  150.1669 H   0  0  0  0  0  0  0  0  0  0  0  0
  146.6580  131.9459  152.8281 H   0  0  0  0  0  0  0  0  0  0  0  0
  148.2097  132.1212  152.0321 H   0  0  0  0  0  0  0  0  0  0  0  0
  148.4640  132.0224  154.5188 H   0  0  0  0  0  0  0  0  0  0  0  0
  149.0907  133.5048  153.8460 H   0  0  0  0  0  0  0  0  0  0  0  0
  146.4037  133.1329  155.2520 H   0  0  0  0  0  0  0  0  0  0  0  0
  147.7652  134.0414  155.8580 H   0  0  0  0  0  0  0  0  0  0  0  0
  145.9510  135.4763  154.8597 H   0  0  0  0  0  0  0  0  0  0  0  0
  148.1053  136.1046  153.0700 H   0  0  0  0  0  0  0  0  0  0  0  0
  149.5039  137.3983  153.4775 H   0  0  0  0  0  0  0  0  0  0  0  0
  148.7493  139.9632  155.4498 H   0  0  0  0  0  0  0  0  0  0  0  0
  152.7278  140.7277  156.7669 H   0  0  0  0  0  0  0  0  0  0  0  0
  145.6619  135.4790  152.3763 H   0  0  0  0  0  0  0  0  0  0  0  0
  145.1803  133.9598  153.0781 H   0  0  0  0  0  0  0  0  0  0  0  0
  147.8149  134.4675  151.9074 H   0  0  0  0  0  0  0  0  0  0  0  0
  1  2  1  0  0  0  0
  1 24  1  0  0  0  0
  1 25  1  0  0  0  0
  1 26  1  0  0  0  0
  2  3  1  0  0  0  0
  2 27  1  0  0  0  0
  2 28  1  0  0  0  0
  3 23  1  0  0  0  0
  3  4  1  0  0  0  0
  3 42  1  0  0  0  0
  4  5  1  0  0  0  0
  4 29  1  0  0  0  0
  4 30  1  0  0  0  0
  5  6  1  0  0  0  0
  5 31  1  0  0  0  0
  5 32  1  0  0  0  0
  6  7  1  0  0  0  0
  6 33  1  0  0  0  0
  6 34  1  0  0  0  0
  7  8  1  0  0  0  0
  7 23  1  0  0  0  0
  7 35  1  0  0  0  0
  8  9  1  0  0  0  0
  8 36  1  0  0  0  0
  9 10  2  0  0  0  0
  9 11  1  0  0  0  0
 11 12  1  0  0  0  0
 11 37  1  0  0  0  0
 12 21  1  0  0  0  0
 12 13  2  0  0  0  0
 13 14  1  0  0  0  0
 13 38  1  0  0  0  0
 14 15  1  0  0  0  0
 14 19  2  0  0  0  0
 15 16  1  0  0  0  0
 15 17  1  0  0  0  0
 15 18  1  0  0  0  0
 19 20  1  0  0  0  0
 19 39  1  0  0  0  0
 20 21  1  0  0  0  0
 21 22  2  0  0  0  0
 23 40  1  0  0  0  0
 23 41  1  0  0  0  0
M  CHG  1   3   1
M  CHG  1  20  -1
M  END
> <s_m_source_file>
AV-unprocessed.smi

> <i_m_source_file_index>
1726

> <i_lp_mmshare_version>
43012

> <i_f3d_flags>
0

> <s_epik_input>
W0NIM11bQ0gyXU4xW0NIMl1bQ0gyXVtDSDJdW0NASF0oW0NIMl0xKVtOSF1DKD1PKVtOSF1jMltjSF1jKEMoRikoRilGKVtjSF1bbkhdYzI9Tw==

> <s_epik_cmdline>
J2VwaWtfcHl0aG9uJywgJy1waCcsICc3LjAnLCAnLXRuJywgJzgnLCAnLW1hJywgJzIwMCcsICctbWV0YWxfYmluZGluZycsICctaW1hZScsICc8aW5maWxlLm1hZT4nLCAnLW9tYWUnLCAnPG91dGZpbGUubWFlPic=

> <r_lp_tautomer_probability>
1

> <r_epik_Ionization_Penalty>
3.01007

> <r_epik_Ionization_Penalty_Charging>
0.14897

> <r_epik_Ionization_Penalty_Neutral>
2.8611

> <r_epik_State_Penalty>
2.85632

> <r_epik_Charging_Adjusted_Penalty>
3.00529

> <i_epik_Tot_Q>
0

> <i_epik_Tot_abs_Q>
2

> <r_epik_Metal_State_Penalty>
0.443826

> <b_epik_Metal_Only>
1

> <s_lp_Force_Field>
OPLS_2005

> <r_lp_Energy>
34.8935

> <b_lp_Chiralities_Consistent>
1

> <s_lp_Variant>
AV-unprocessed.smi:1726-6

> <Gold.Version>
5.8.1

> <Gold.Id.Protein>
6NUR|6NUR_protein|mol2

> <Gold.PLP.Fitness>
39.4694

> <Gold.PLP.PLP>
-27.1009

> <Gold.PLP.part.hbond>
-3.8834

> <Gold.PLP.part.metal>
0.0000

> <Gold.PLP.part.buried>
0.6097

> <Gold.PLP.part.nonpolar>
-24.7608

> <Gold.PLP.part.repulsive>
0.1758

> <Gold.PLP.ligand.clash>
0.0000

> <Gold.PLP.ligand.torsion>
0.8147

> <Gold.PLP.Chemscore.Hbond>
4.6577

> <Gold.PLP.Chemscore.CHOScore>
0.0000

> <Gold.PLP.Chemscore.Metal>
0.0000

> <Gold.Chemscore.Hbonds>
donor molecule, donor type, donor heavy atom, donor atom, acceptor molecule, acceptor atom, score
      L1  H     3    42       P1  7948  1.85
      L1  H     8    36       P1  7948  0.88
      L1  H    11    37       P1  7948  0.81
      P1  H 10752 10763       L1    22  0.99

> <Gold.PLP.Chemscore.Internal.Correction>
0.0249

> <Gold.Rescore>
     Score         DG    S(hbond)    S(metal)    S(lipo)     H(rot)  DE(clash)    DE(int)     intcor
     17.65     -19.44       3.10        0.00      58.70       1.28       0.97       0.82       ----

> <Gold.Chemscore.Fitness>
17.6496

> <Gold.Chemscore.DG>
-19.4391

> <Gold.Chemscore.ZeroCoef>
-5.4800

> <Gold.Chemscore.Hbond>
3.1039

> <Gold.Chemscore.Metal>
0.0000

> <Gold.Chemscore.Lipo>
58.7013

> <Gold.Chemscore.Internal_Hbond>
0.0000

> <Gold.Chemscore.DEClash>
0.9708

> <Gold.Chemscore.DEInternal>
0.8188

> <Gold.Chemscore.Rot>
1.2796

> <Gold.Chemscore.Internal.Correction>
   9.000000E+99

> <Gold.Chemscore.Hbonds>
donor molecule, donor type, donor heavy atom, donor atom, acceptor molecule, acceptor atom, score
      L1  H     3    42       P1  7948  0.20
      L1  H     8    36       P1  7948  0.84
      L1  H    11    37       P1  7948  0.70
      P1  H 10752 10763       L1    22  0.93

> <Gold.Chemscore.Hbond.Weighted>
-10.3669

> <Gold.Chemscore.Metal.Weighted>
-0.0000

> <Gold.Chemscore.Lipo.Weighted>
-6.8681

> <Gold.Chemscore.Internal_Hbond.Weighted>
0.0000

> <Gold.Chemscore.DEClash.Weighted>
0.9708

> <Gold.Chemscore.DEInternal.Weighted>
0.8188

> <Gold.Chemscore.Rot.Weighted>
3.2759

> <Gold.Chemscore.Internal.Correction.Weighted>
   9.000000E+99

> <Gold.Protein.RotatedTorsions>
[ 6907 6896 6895 6894 ] final -132.62 input  -60.11 | X-H torsion
[ 7974 7965 7964 7962 ] final  -60.61 input  175.53 | X-H torsion
[ 8008 7997 7996 7995 ] final  -39.66 input   59.86 | X-H torsion
[ 10167 10162 10161 10158 ] final -172.71 input  -65.29 | X-H torsion
[ 10718 10713 10712 10709 ] final   33.04 input   66.30 | X-H torsion
[ 10763 10752 10751 10750 ] final   63.25 input  -60.55 | X-H torsion
[ 11005 11000 10999 10996 ] final  157.50 input  -57.11 | X-H torsion

> <Gold.Protein.ActiveResidues>
 VAL166  LYS551  ARG553  GLY616  TRP617  ASP618  TYR619  PRO620  LYS621  CYS622 
 ASP623  PHE694  ASN695  SER759  ASP760  ASP761  ALA762  ILE779  LEU786  VAL792 
 PHE793  MET794  SER795  GLU796  ALA797  LYS798  CYS799  TRP800  GLU811  SER814 

> <Gold.Protein.RotatedAtoms>
  150.9645  133.6410  159.2748 H   0  0  0  0  0  0  0  0  0  0  0  0  # atno 6907 bound_to 6896
  151.3720  135.0923  159.9478 H   0  0  0  0  0  0  0  0  0  0  0  0  # atno 6908 bound_to 6896
  152.5160  133.9197  159.7583 H   0  0  0  0  0  0  0  0  0  0  0  0  # atno 6909 bound_to 6896
  145.8134  140.8584  143.0170 H   0  0  0  0  0  0  0  0  0  0  0  0  # atno 7974 bound_to 7965
  154.4020  140.1545  156.2900 H   0  0  0  0  0  0  0  0  0  0  0  0  # atno 8008 bound_to 7997
  155.8794  140.3444  155.5855 H   0  0  0  0  0  0  0  0  0  0  0  0  # atno 8009 bound_to 7997
  155.7685  140.0827  157.2110 H   0  0  0  0  0  0  0  0  0  0  0  0  # atno 8010 bound_to 7997
  139.5729  144.1600  152.1409 H   0  0  0  0  0  0  0  0  0  0  0  0  # atno 10167 bound_to 10162
  157.2929  130.7311  149.6621 H   0  0  0  0  0  0  0  0  0  0  0  0  # atno 10718 bound_to 10713
  153.0011  135.5435  154.6323 H   0  0  0  0  0  0  0  0  0  0  0  0  # atno 10763 bound_to 10752
  154.5597  135.2833  155.0933 H   0  0  0  0  0  0  0  0  0  0  0  0  # atno 10764 bound_to 10752
  154.2140  135.6462  153.5176 H   0  0  0  0  0  0  0  0  0  0  0  0  # atno 10765 bound_to 10752
  140.1776  134.8499  157.2764 H   0  0  0  0  0  0  0  0  0  0  0  0  # atno 11005 bound_to 11000
  144.6755  140.0429  143.7480 LP  0  0  0  0  0  0  0  0  0  0  0  0  # atno 17320 bound_to 7965
  145.9752  139.2900  143.1075 LP  0  0  0  0  0  0  0  0  0  0  0  0  # atno 17321 bound_to 7965
  140.1136  144.5435  150.6908 LP  0  0  0  0  0  0  0  0  0  0  0  0  # atno 17342 bound_to 10162
  140.7013  143.2437  151.4856 LP  0  0  0  0  0  0  0  0  0  0  0  0  # atno 17343 bound_to 10162
  155.9668  130.4303  150.4872 LP  0  0  0  0  0  0  0  0  0  0  0  0  # atno 17370 bound_to 10713
  157.2838  131.0612  151.2180 LP  0  0  0  0  0  0  0  0  0  0  0  0  # atno 17371 bound_to 10713
  140.2305  134.3915  155.7524 LP  0  0  0  0  0  0  0  0  0  0  0  0  # atno 17394 bound_to 11000
  141.2221  133.7212  156.8633 LP  0  0  0  0  0  0  0  0  0  0  0  0  # atno 17395 bound_to 11000

$$$$
