AV-unprocessed.smi:1305|AV-procd|sdf|5433|dock6
  -GOLD-   22720 4593D 1   1.00000     0.00000
 Structure written by MMmdl.
 32 33  0  0  0  0  0  0  0  0  1 V2000
  151.9018  145.1587  160.1335 C   0  0  0  0  0  0  0  0  0  0  0  0
  151.3081  145.1061  158.7218 C   0  0  0  0  0  0  0  0  0  0  0  0
  151.6670  143.8124  157.9809 C   0  0  0  0  0  0  0  0  0  0  0  0
  151.0783  142.3485  158.8821 S   0  0  0  0  0  0  0  0  0  0  0  0
  149.5169  142.0939  158.0878 C   0  0  0  0  0  0  0  0  0  0  0  0
  148.3304  142.2355  158.6874 N   0  0  0  0  0  0  0  0  0  0  0  0
  147.3888  141.9305  157.7318 N   0  0  0  0  0  0  0  0  0  0  0  0
  148.0839  141.6489  156.6285 C   0  0  0  0  0  0  0  0  0  0  0  0
  147.4502  141.2235  155.3414 C   0  0  0  0  0  0  0  0  0  0  0  0
  147.8872  141.8215  154.0225 C   0  0  0  0  0  0  0  0  0  0  0  0
  146.5249  142.1452  154.5761 C   0  0  0  0  0  0  0  0  0  0  0  0
  149.4215  141.7211  156.7928 N   0  0  0  0  0  0  0  0  0  0  0  0
  150.4813  141.4552  155.8256 C   0  0  0  0  0  0  0  0  0  0  0  0
  150.4244  140.0229  155.2867 C   0  0  0  0  0  0  0  0  0  0  0  0
  150.4918  139.0255  156.1725 N   0  0  0  0  0  0  0  0  0  0  0  0
  150.3075  139.8188  154.0806 O   0  0  0  0  0  0  0  0  0  0  0  0
  151.6328  146.0890  160.6339 H   0  0  0  0  0  0  0  0  0  0  0  0
  152.9900  145.0985  160.1054 H   0  0  0  0  0  0  0  0  0  0  0  0
  151.5359  144.3338  160.7453 H   0  0  0  0  0  0  0  0  0  0  0  0
  150.2237  145.2028  158.7845 H   0  0  0  0  0  0  0  0  0  0  0  0
  151.6628  145.9645  158.1504 H   0  0  0  0  0  0  0  0  0  0  0  0
  151.2238  143.8203  156.9846 H   0  0  0  0  0  0  0  0  0  0  0  0
  152.7484  143.7422  157.8582 H   0  0  0  0  0  0  0  0  0  0  0  0
  147.2029  140.1640  155.3657 H   0  0  0  0  0  0  0  0  0  0  0  0
  148.6334  142.6129  154.0450 H   0  0  0  0  0  0  0  0  0  0  0  0
  147.9396  141.1549  153.1641 H   0  0  0  0  0  0  0  0  0  0  0  0
  145.6637  141.6968  154.0856 H   0  0  0  0  0  0  0  0  0  0  0  0
  146.3699  143.1506  154.9623 H   0  0  0  0  0  0  0  0  0  0  0  0
  150.4103  142.1630  154.9996 H   0  0  0  0  0  0  0  0  0  0  0  0
  151.4472  141.6338  156.2997 H   0  0  0  0  0  0  0  0  0  0  0  0
  150.4574  138.0666  155.8573 H   0  0  0  0  0  0  0  0  0  0  0  0
  150.5770  139.2346  157.1566 H   0  0  0  0  0  0  0  0  0  0  0  0
  1  2  1  0  0  0  0
  1 17  1  0  0  0  0
  1 18  1  0  0  0  0
  1 19  1  0  0  0  0
  2  3  1  0  0  0  0
  2 20  1  0  0  0  0
  2 21  1  0  0  0  0
  3  4  1  0  0  0  0
  3 22  1  0  0  0  0
  3 23  1  0  0  0  0
  4  5  1  0  0  0  0
  5 12  1  0  0  0  0
  5  6  2  0  0  0  0
  6  7  1  0  0  0  0
  7  8  2  0  0  0  0
  8  9  1  0  0  0  0
  8 12  1  0  0  0  0
  9 11  1  0  0  0  0
  9 10  1  0  0  0  0
  9 24  1  0  0  0  0
 10 11  1  0  0  0  0
 10 25  1  0  0  0  0
 10 26  1  0  0  0  0
 11 27  1  0  0  0  0
 11 28  1  0  0  0  0
 12 13  1  0  0  0  0
 13 14  1  0  0  0  0
 13 29  1  0  0  0  0
 13 30  1  0  0  0  0
 14 15  1  0  0  0  0
 14 16  2  0  0  0  0
 15 31  1  0  0  0  0
 15 32  1  0  0  0  0
M  END
> <s_m_source_file>
AV-unprocessed.smi

> <i_m_source_file_index>
1305

> <i_lp_mmshare_version>
43012

> <i_f3d_flags>
0

> <s_epik_input>
W0NIM11bQ0gyXVtDSDJdU2Mxbm5jKFtDSF0yW0NIMl1bQ0gyXTIpbjFbQ0gyXUMoPU8pW05IMl0=

> <s_epik_cmdline>
J2VwaWtfcHl0aG9uJywgJy1waCcsICc3LjAnLCAnLXRuJywgJzgnLCAnLW1hJywgJzIwMCcsICctbWV0YWxfYmluZGluZycsICctaW1hZScsICc8aW5maWxlLm1hZT4nLCAnLW9tYWUnLCAnPG91dGZpbGUubWFlPic=

> <r_lp_tautomer_probability>
1

> <r_epik_Ionization_Penalty>
4.21319e-06

> <r_epik_Ionization_Penalty_Charging>
0

> <r_epik_Ionization_Penalty_Neutral>
4.21319e-06

> <r_epik_State_Penalty>
-0

> <r_epik_Charging_Adjusted_Penalty>
0

> <i_epik_Tot_Q>
0

> <i_epik_Tot_abs_Q>
0

> <r_epik_Metal_State_Penalty>
-0

> <b_epik_Metal_Only>
0

> <s_lp_Force_Field>
OPLS_2005

> <r_lp_Energy>
5.08374

> <b_lp_Chiralities_Consistent>
1

> <s_lp_Variant>
AV-unprocessed.smi:1305-1

> <Gold.Version>
5.8.1

> <Gold.Id.Protein>
6NUR|6NUR_protein|mol2

> <Gold.PLP.Fitness>
35.3057

> <Gold.PLP.PLP>
-33.0325

> <Gold.PLP.part.hbond>
-1.5628

> <Gold.PLP.part.metal>
0.0000

> <Gold.PLP.part.buried>
-5.0941

> <Gold.PLP.part.nonpolar>
-27.1447

> <Gold.PLP.part.repulsive>
0.7823

> <Gold.PLP.ligand.clash>
0.0000

> <Gold.PLP.ligand.torsion>
0.4376

> <Gold.PLP.Chemscore.Hbond>
1.0000

> <Gold.PLP.Chemscore.CHOScore>
0.0000

> <Gold.PLP.Chemscore.Metal>
0.0000

> <Gold.Chemscore.Hbonds>
donor molecule, donor type, donor heavy atom, donor atom, acceptor molecule, acceptor atom, score
      P1  H  7989  7998       L1    16  1.00

> <Gold.PLP.Chemscore.Internal.Correction>
0.1483

> <Gold.Rescore>
     Score         DG    S(hbond)    S(metal)    S(lipo)     H(rot)  DE(clash)    DE(int)     intcor
      9.99     -10.32       0.98        0.00      69.77       2.57       0.01       0.32       ----

> <Gold.Chemscore.Fitness>
9.9895

> <Gold.Chemscore.DG>
-10.3225

> <Gold.Chemscore.ZeroCoef>
-5.4800

> <Gold.Chemscore.Hbond>
0.9751

> <Gold.Chemscore.Metal>
0.0000

> <Gold.Chemscore.Lipo>
69.7665

> <Gold.Chemscore.Internal_Hbond>
0.0000

> <Gold.Chemscore.DEClash>
0.0106

> <Gold.Chemscore.DEInternal>
0.3224

> <Gold.Chemscore.Rot>
2.5691

> <Gold.Chemscore.Internal.Correction>
   9.000000E+99

> <Gold.Chemscore.Hbonds>
donor molecule, donor type, donor heavy atom, donor atom, acceptor molecule, acceptor atom, score
      P1  H  7989  7998       L1    16  0.25

> <Gold.Chemscore.Hbond.Weighted>
-3.2568

> <Gold.Chemscore.Metal.Weighted>
-0.0000

> <Gold.Chemscore.Lipo.Weighted>
-8.1627

> <Gold.Chemscore.Internal_Hbond.Weighted>
0.0000

> <Gold.Chemscore.DEClash.Weighted>
0.0106

> <Gold.Chemscore.DEInternal.Weighted>
0.3224

> <Gold.Chemscore.Rot.Weighted>
6.5770

> <Gold.Chemscore.Internal.Correction.Weighted>
   9.000000E+99

> <Gold.Protein.RotatedTorsions>
[ 6907 6896 6895 6894 ] final   67.38 input  -60.11 | X-H torsion
[ 7974 7965 7964 7962 ] final  -55.08 input  175.53 | X-H torsion
[ 8008 7997 7996 7995 ] final  -42.17 input   59.86 | X-H torsion
[ 10167 10162 10161 10158 ] final -148.17 input  -65.29 | X-H torsion
[ 10718 10713 10712 10709 ] final  -32.99 input   66.30 | X-H torsion
[ 10763 10752 10751 10750 ] final  -77.65 input  -60.55 | X-H torsion
[ 11005 11000 10999 10996 ] final -154.65 input  -57.11 | X-H torsion

> <Gold.Protein.ActiveResidues>
 VAL166  LYS551  ARG553  GLY616  TRP617  ASP618  TYR619  PRO620  LYS621  CYS622 
 ASP623  PHE694  ASN695  SER759  ASP760  ASP761  ALA762  ILE779  LEU786  VAL792 
 PHE793  MET794  SER795  GLU796  ALA797  LYS798  CYS799  TRP800  GLU811  SER814 

> <Gold.Protein.RotatedAtoms>
  152.4548  134.5316  159.9812 H   0  0  0  0  0  0  0  0  0  0  0  0  # atno 6907 bound_to 6896
  151.5379  133.3432  159.2938 H   0  0  0  0  0  0  0  0  0  0  0  0  # atno 6908 bound_to 6896
  150.8488  134.7837  159.7055 H   0  0  0  0  0  0  0  0  0  0  0  0  # atno 6909 bound_to 6896
  145.8782  140.8164  142.9853 H   0  0  0  0  0  0  0  0  0  0  0  0  # atno 7974 bound_to 7965
  154.4000  140.1480  156.3310 H   0  0  0  0  0  0  0  0  0  0  0  0  # atno 8008 bound_to 7997
  155.8443  140.3460  155.5630 H   0  0  0  0  0  0  0  0  0  0  0  0  # atno 8009 bound_to 7997
  155.8053  140.0876  157.1925 H   0  0  0  0  0  0  0  0  0  0  0  0  # atno 8010 bound_to 7997
  139.7555  143.8454  152.2596 H   0  0  0  0  0  0  0  0  0  0  0  0  # atno 10167 bound_to 10162
  156.3681  130.4335  149.7568 H   0  0  0  0  0  0  0  0  0  0  0  0  # atno 10718 bound_to 10713
  154.5157  135.5756  153.6640 H   0  0  0  0  0  0  0  0  0  0  0  0  # atno 10763 bound_to 10752
  152.9906  135.6169  154.2820 H   0  0  0  0  0  0  0  0  0  0  0  0  # atno 10764 bound_to 10752
  154.2738  135.2852  155.2706 H   0  0  0  0  0  0  0  0  0  0  0  0  # atno 10765 bound_to 10752
  140.6951  134.3999  157.5215 H   0  0  0  0  0  0  0  0  0  0  0  0  # atno 11005 bound_to 11000
  144.6726  140.1343  143.7441 LP  0  0  0  0  0  0  0  0  0  0  0  0  # atno 17320 bound_to 7965
  145.9055  139.2456  143.1468 LP  0  0  0  0  0  0  0  0  0  0  0  0  # atno 17321 bound_to 7965
  139.8445  144.7194  150.9290 LP  0  0  0  0  0  0  0  0  0  0  0  0  # atno 17342 bound_to 10162
  140.7802  143.3954  151.1239 LP  0  0  0  0  0  0  0  0  0  0  0  0  # atno 17343 bound_to 10162
  156.4706  130.7994  151.3012 LP  0  0  0  0  0  0  0  0  0  0  0  0  # atno 17370 bound_to 10713
  157.7481  131.0037  150.3048 LP  0  0  0  0  0  0  0  0  0  0  0  0  # atno 17371 bound_to 10713
  139.8912  134.8785  156.2330 LP  0  0  0  0  0  0  0  0  0  0  0  0  # atno 17394 bound_to 11000
  141.0210  133.7041  156.1268 LP  0  0  0  0  0  0  0  0  0  0  0  0  # atno 17395 bound_to 11000

$$$$
