#       Name:                AV-unprocessed.smi:1289
#       Creating user name   scv26
#       Creation time:       Fri Mar 27 04:53:58 2020


#       File generated by GOLD software.
#

@<TRIPOS>MOLECULE
AV-unprocessed.smi:1289
    43    45     1
SMALL
NO_CHARGES


@<TRIPOS>ATOM
      1 ****        -8.4466   1.6110   0.9681 N.1            1 S1                 0.0000
      2 ****        -7.3067   1.4146   0.9972 C.1            1 S1                 0.0000
      3 ****        -5.8749   1.1681   1.0333 C.ar           1 S1                 0.0000
      4 ****        -4.9890   2.1961   1.4108 C.ar           1 S1                 0.0000
      5 ****        -3.6017   1.9558   1.4393 C.ar           1 S1                 0.0000
      6 ****        -3.0794   0.6925   1.0938 C.ar           1 S1                 0.0000
      7 ****        -1.7095   0.5478   1.1422 O.3            1 S1                 0.0000
      8 ****        -1.1509  -0.7033   0.7635 C.3            1 S1                 0.0000
      9 ****         0.3810  -0.5994   0.8028 C.3            1 S1                 0.0000
     10 ****         0.9195  -1.8967   0.6409 O.3            1 S1                 0.0000
     11 ****         0.9297   0.3445  -0.2862 C.3            1 S1                 0.0000
     12 ****         2.3952   0.4550  -0.2642 N.pl3          1 S1                 0.0000
     13 ****         3.1931   1.2590   0.4894 C.2            1 S1                 0.0000
     14 ****         4.4845   0.9988   0.1439 N.pl3          1 S1                 1.0000
     15 ****         4.5132   0.0124  -0.8442 C.ar           1 S1                 0.0000
     16 ****         5.5827  -0.5810  -1.5079 C.ar           1 S1                 0.0000
     17 ****         5.2652  -1.5659  -2.4662 C.ar           1 S1                 0.0000
     18 ****         3.9287  -1.9277  -2.7326 C.ar           1 S1                 0.0000
     19 ****         2.8524  -1.3188  -2.0544 C.ar           1 S1                 0.0000
     20 ****         3.1738  -0.3440  -1.1101 C.ar           1 S1                 0.0000
     21 ****        -3.9782  -0.3391   0.7210 C.ar           1 S1                 0.0000
     22 ****        -5.3661  -0.1000   0.6898 C.ar           1 S1                 0.0000
     23 ****        -5.3662   3.1728   1.6782 H              1 S1                 0.0000
     24 ****        -2.9306   2.7514   1.7279 H              1 S1                 0.0000
     25 ****        -1.4888  -1.4719   1.4609 H              1 S1                 0.0000
     26 ****        -1.4758  -0.9891  -0.2385 H              1 S1                 0.0000
     27 ****         0.6901  -0.2393   1.7848 H              1 S1                 0.0000
     28 ****         0.6062  -2.4418   1.3468 H              1 S1                 0.0000
     29 ****         0.6062   0.0343  -1.2800 H              1 S1                 0.0000
     30 ****         0.5332   1.3497  -0.1396 H              1 S1                 0.0000
     31 ****         2.8616   1.9752   1.2274 H              1 S1                 0.0000
     32 ****         6.6076  -0.3075  -1.3044 H              1 S1                 0.0000
     33 ****         6.0627  -2.0553  -3.0063 H              1 S1                 0.0000
     34 ****         3.7243  -2.6891  -3.4713 H              1 S1                 0.0000
     35 ****         1.8330  -1.6085  -2.2623 H              1 S1                 0.0000
     36 ****        -3.6288  -1.3242   0.4523 H              1 S1                 0.0000
     37 ****        -6.0360  -0.8967   0.3995 H              1 S1                 0.0000
     38 ****         5.2852   1.4619   0.5544 H              1 S1                 0.0000
     39 ****        -9.4318   1.7807   0.9430 LP             1 S1                 0.0000
     40 ****        -1.4260   0.7257   2.0845 LP             1 S1                 0.0000
     41 ****        -1.3168   1.2422   0.5392 LP             1 S1                 0.0000
     42 ****         1.9182  -1.8530   0.6663 LP             1 S1                 0.0000
     43 ****         0.6247  -2.2774  -0.2356 LP             1 S1                 0.0000
@<TRIPOS>BOND
    1    1    2 3     
    2    2    3 1     
    3    3   22 ar    
    4    3    4 ar    
    5    4    5 ar    
    6    4   23 1     
    7    5    6 ar    
    8    5   24 1     
    9    6    7 1     
   10    6   21 ar    
   11    7    8 1     
   12    8    9 1     
   13    8   25 1     
   14    8   26 1     
   15    9   10 1     
   16    9   11 1     
   17    9   27 1     
   18   10   28 1     
   19   11   12 1     
   20   11   29 1     
   21   11   30 1     
   22   12   20 1     
   23   12   13 1     
   24   13   14 2     
   25   13   31 1     
   26   14   15 1     
   27   14   38 1     
   28   15   20 ar    
   29   15   16 ar    
   30   16   17 ar    
   31   16   32 1     
   32   17   18 ar    
   33   17   33 1     
   34   18   19 ar    
   35   18   34 1     
   36   19   20 ar    
   37   19   35 1     
   38   21   22 ar    
   39   21   36 1     
   40   22   37 1     
   41    1   39 1     
   42    7   40 1     
   43    7   41 1     
   44   10   42 1     
   45   10   43 1     
@<TRIPOS>SUBSTRUCTURE
      1 S1             1
@<TRIPOS>SET
LONE_PAIRS      STATIC     ATOMS    <user>   **** ""
5 39 40 41 42 43
DONOR_HYDROGENS      STATIC     ATOMS    <user>   **** ""
2 28 38
ATOM$BLUE        STATIC     ATOMS    COLORGROUP SYSTEM
5 39 40 41 42 43
ATOM$RED        STATIC     ATOMS    COLORGROUP SYSTEM
2 28 38
