#       Name:                AV-unprocessed.smi:2864
#       Creating user name   scv26
#       Creation time:       Fri Mar 27 15:47:47 2020


#       File generated by GOLD software.
#

@<TRIPOS>MOLECULE
AV-unprocessed.smi:2864
    42    43     1
SMALL
NO_CHARGES


@<TRIPOS>ATOM
      1 ****        -3.5362  -2.0346  -0.8661 C.3            1 S1                 0.0000
      2 ****        -2.8615  -0.6920  -1.0581 C.ar           1 S1                 0.0000
      3 ****        -3.6295   0.4705  -1.2556 C.ar           1 S1                 0.0000
      4 ****        -2.9922   1.7126  -1.4253 C.ar           1 S1                 0.0000
      5 ****        -1.5842   1.8112  -1.4027 C.ar           1 S1                 0.0000
      6 ****        -0.9616   3.1874  -1.5765 C.3            1 S1                 0.0000
      7 ****        -0.8021   0.6367  -1.2173 C.ar           1 S1                 0.0000
      8 ****         0.7265   0.6469  -1.1739 C.3            1 S1                 0.0000
      9 ****         1.3011   1.3302  -2.2699 O.3            1 S1                 0.0000
     10 ****         1.2698   1.2271   0.1547 C.3            1 S1                 0.0000
     11 ****         2.0875   0.2478   0.8778 N.am           1 S1                 0.0000
     12 ****         1.3697  -0.5524   1.7498 N.2            1 S1                 0.0000
     13 ****         1.9483  -1.4818   2.4398 C.2            1 S1                 0.0000
     14 ****         1.0810  -2.3089   3.3564 C.3            1 S1                 0.0000
     15 ****         1.8015  -3.2302   3.9966 F              1 S1                 0.0000
     16 ****         0.4942  -1.5257   4.2621 F              1 S1                 0.0000
     17 ****         0.1313  -2.9273   2.6533 F              1 S1                 0.0000
     18 ****         3.3814  -1.6791   2.2959 C.2            1 S1                 0.0000
     19 ****         4.0764  -0.9036   1.4363 C.2            1 S1                 0.0000
     20 ****         3.4267   0.1359   0.6419 C.2            1 S1                 0.0000
     21 ****         4.0271   0.8398  -0.1695 O.2            1 S1                 0.0000
     22 ****        -1.4563  -0.6034  -1.0403 C.ar           1 S1                 0.0000
     23 ****        -4.6140  -1.9241  -0.7423 H              1 S1                 0.0000
     24 ****        -3.1431  -2.5339   0.0199 H              1 S1                 0.0000
     25 ****        -3.3550  -2.6739  -1.7304 H              1 S1                 0.0000
     26 ****        -4.7082   0.4163  -1.2740 H              1 S1                 0.0000
     27 ****        -3.5959   2.5966  -1.5706 H              1 S1                 0.0000
     28 ****        -0.5168   3.2825  -2.5671 H              1 S1                 0.0000
     29 ****        -0.1925   3.3733  -0.8282 H              1 S1                 0.0000
     30 ****        -1.7098   3.9740  -1.4738 H              1 S1                 0.0000
     31 ****         1.0656  -0.3848  -1.2814 H              1 S1                 0.0000
     32 ****         1.0512   0.8841  -3.0644 H              1 S1                 0.0000
     33 ****         1.8282   2.1499  -0.0152 H              1 S1                 0.0000
     34 ****         0.4424   1.5311   0.7992 H              1 S1                 0.0000
     35 ****         3.8836  -2.4413   2.8728 H              1 S1                 0.0000
     36 ****         5.1410  -1.0541   1.3319 H              1 S1                 0.0000
     37 ****        -0.8758  -1.5015  -0.8851 H              1 S1                 0.0000
     38 ****         2.2973   1.3312  -2.1824 LP             1 S1                 0.0000
     39 ****         0.9675   2.2726  -2.2927 LP             1 S1                 0.0000
     40 ****         0.3849  -0.4096   1.8485 LP             1 S1                 0.0000
     41 ****         3.5318   1.5334  -0.6926 LP             1 S1                 0.0000
     42 ****         5.0103   0.7182  -0.3058 LP             1 S1                 0.0000
@<TRIPOS>BOND
    1    1    2 1     
    2    1   23 1     
    3    1   24 1     
    4    1   25 1     
    5    2   22 ar    
    6    2    3 ar    
    7    3    4 ar    
    8    3   26 1     
    9    4    5 ar    
   10    4   27 1     
   11    5    6 1     
   12    5    7 ar    
   13    6   28 1     
   14    6   29 1     
   15    6   30 1     
   16    7    8 1     
   17    7   22 ar    
   18    8    9 1     
   19    8   10 1     
   20    8   31 1     
   21    9   32 1     
   22   10   11 1     
   23   10   33 1     
   24   10   34 1     
   25   11   20 am    
   26   11   12 1     
   27   12   13 2     
   28   13   14 1     
   29   13   18 1     
   30   14   15 1     
   31   14   16 1     
   32   14   17 1     
   33   18   19 2     
   34   18   35 1     
   35   19   20 1     
   36   19   36 1     
   37   20   21 2     
   38   22   37 1     
   39    9   38 1     
   40    9   39 1     
   41   12   40 1     
   42   21   41 1     
   43   21   42 1     
@<TRIPOS>SUBSTRUCTURE
      1 S1             1
@<TRIPOS>SET
LONE_PAIRS      STATIC     ATOMS    <user>   **** ""
5 38 39 40 41 42
DONOR_HYDROGENS      STATIC     ATOMS    <user>   **** ""
1 32
ATOM$BLUE        STATIC     ATOMS    COLORGROUP SYSTEM
5 38 39 40 41 42
ATOM$RED        STATIC     ATOMS    COLORGROUP SYSTEM
1 32
