AV-unprocessed.smi:196|AV-procd|sdf|1536|dock7
  -GOLD-   2262019393D 1   1.00000     0.00000
 Structure written by MMmdl.
 47 50  0  0  0  0  0  0  0  0  1 V2000
  152.9556  138.9245  154.7325 C   0  0  0  0  0  0  0  0  0  0  0  0
  151.4843  138.7040  154.3469 C   0  0  2  0  0  0  0  0  0  0  0  0
  150.8370  139.9740  154.3638 O   0  0  0  0  0  0  0  0  0  0  0  0
  149.4764  139.7913  154.7124 C   0  0  0  0  0  0  0  0  0  0  0  0
  149.5575  138.7309  155.7994 C   0  0  0  0  0  0  0  0  0  0  0  0
  150.6423  137.7897  155.2820 C   0  0  1  0  0  0  0  0  0  0  0  0
  150.0159  136.8097  154.4705 O   0  0  0  0  0  0  0  0  0  0  0  0
  151.4146  137.0542  156.4085 C   0  0  0  0  0  0  0  0  0  0  0  0
  150.5913  136.7421  157.5676 N   0  0  0  0  0  0  0  0  0  0  0  0
  150.7006  137.2875  158.8249 C   0  0  0  0  0  0  0  0  0  0  0  0
  149.8408  136.8421  159.6980 N   0  0  0  0  0  0  0  0  0  0  0  0
  149.0651  135.9262  158.9937 C   0  0  0  0  0  0  0  0  0  0  0  0
  147.9568  135.0836  159.3173 C   0  0  0  0  0  0  0  0  0  0  0  0
  147.3555  135.0021  160.5373 N   0  0  0  0  0  0  0  0  0  0  0  0
  146.8150  133.7499  161.0599 C   0  0  0  0  0  0  0  0  0  0  0  0
  146.1706  134.1058  162.4009 C   0  0  2  0  0  0  0  0  0  0  0  0
  144.8709  134.3499  162.2269 F   0  0  0  0  0  0  0  0  0  0  0  0
  146.8937  135.3888  162.8118 C   0  0  0  0  0  0  0  0  0  0  0  0
  147.2133  136.1059  161.4875 C   0  0  2  0  0  0  0  0  0  0  0  0
  146.1022  137.0940  161.0852 C   0  0  0  0  0  0  0  0  0  0  0  0
  145.3390  136.7455  160.0468 N   0  0  0  0  0  0  0  0  0  0  0  0
  145.9319  138.1503  161.6922 O   0  0  0  0  0  0  0  0  0  0  0  0
  147.4690  134.3002  158.3185 N   0  0  0  0  0  0  0  0  0  0  0  0
  148.0044  134.3351  157.0961 C   0  0  0  0  0  0  0  0  0  0  0  0
  149.0252  135.0695  156.6553 N   0  0  0  0  0  0  0  0  0  0  0  0
  149.5312  135.8553  157.6473 C   0  0  0  0  0  0  0  0  0  0  0  0
  146.2537  133.3088  163.1403 H   0  0  0  0  0  0  0  0  0  0  0  0
  148.1565  136.6411  161.6001 H   0  0  0  0  0  0  0  0  0  0  0  0
  153.5140  137.9884  154.7268 H   0  0  0  0  0  0  0  0  0  0  0  0
  153.0480  139.3729  155.7221 H   0  0  0  0  0  0  0  0  0  0  0  0
  153.4408  139.5967  154.0247 H   0  0  0  0  0  0  0  0  0  0  0  0
  151.4514  138.3321  153.3210 H   0  0  0  0  0  0  0  0  0  0  0  0
  149.0206  140.7188  155.0596 H   0  0  0  0  0  0  0  0  0  0  0  0
  148.9173  139.4300  153.8480 H   0  0  0  0  0  0  0  0  0  0  0  0
  149.8840  139.2068  156.7247 H   0  0  0  0  0  0  0  0  0  0  0  0
  148.6030  138.2409  155.9971 H   0  0  0  0  0  0  0  0  0  0  0  0
  150.6342  136.5242  153.8153 H   0  0  0  0  0  0  0  0  0  0  0  0
  151.8380  136.1218  156.0332 H   0  0  0  0  0  0  0  0  0  0  0  0
  152.2546  137.6574  156.7531 H   0  0  0  0  0  0  0  0  0  0  0  0
  151.4471  138.0268  159.0767 H   0  0  0  0  0  0  0  0  0  0  0  0
  146.0941  133.2946  160.3792 H   0  0  0  0  0  0  0  0  0  0  0  0
  147.6353  133.0465  161.2090 H   0  0  0  0  0  0  0  0  0  0  0  0
  146.3134  135.9927  163.5111 H   0  0  0  0  0  0  0  0  0  0  0  0
  147.8277  135.1284  163.3116 H   0  0  0  0  0  0  0  0  0  0  0  0
  144.5986  137.3574  159.7363 H   0  0  0  0  0  0  0  0  0  0  0  0
  145.5098  135.8706  159.5723 H   0  0  0  0  0  0  0  0  0  0  0  0
  147.5482  133.6818  156.3669 H   0  0  0  0  0  0  0  0  0  0  0  0
  1  2  1  0  0  0  0
  1 29  1  0  0  0  0
  1 30  1  0  0  0  0
  1 31  1  0  0  0  0
  2  6  1  0  0  0  0
  2  3  1  0  0  0  0
  2 32  1  0  0  0  0
  3  4  1  0  0  0  0
  4  5  1  0  0  0  0
  4 33  1  0  0  0  0
  4 34  1  0  0  0  0
  5  6  1  0  0  0  0
  5 35  1  0  0  0  0
  5 36  1  0  0  0  0
  6  7  1  0  0  0  0
  6  8  1  0  0  0  0
  7 37  1  0  0  0  0
  8  9  1  0  0  0  0
  8 38  1  0  0  0  0
  8 39  1  0  0  0  0
  9 26  1  0  0  0  0
  9 10  1  0  0  0  0
 10 11  2  0  0  0  0
 10 40  1  0  0  0  0
 11 12  1  0  0  0  0
 12 26  2  0  0  0  0
 12 13  1  0  0  0  0
 13 14  1  0  0  0  0
 13 23  2  0  0  0  0
 14 19  1  0  0  0  0
 14 15  1  0  0  0  0
 15 16  1  0  0  0  0
 15 41  1  0  0  0  0
 15 42  1  0  0  0  0
 16 27  1  0  0  0  0
 16 17  1  0  0  0  0
 16 18  1  0  0  0  0
 18 19  1  0  0  0  0
 18 43  1  0  0  0  0
 18 44  1  0  0  0  0
 19 28  1  0  0  0  0
 19 20  1  0  0  0  0
 20 21  1  0  0  0  0
 20 22  2  0  0  0  0
 21 45  1  0  0  0  0
 21 46  1  0  0  0  0
 23 24  1  0  0  0  0
 24 25  2  0  0  0  0
 24 47  1  0  0  0  0
 25 26  1  0  0  0  0
M  END
> <s_m_source_file>
AV-unprocessed.smi

> <i_m_source_file_index>
196

> <i_lp_mmshare_version>
43012

> <i_f3d_flags>
0

> <s_epik_input>
W0NIMl0xW0NIMl1PW0NAQEhdKFtDSDNdKVtDQEBdMShbT0hdKVtDSDJdbihbY0hdbjIpYyhjMjMpbltjSF1uYzNONFtDSDJdW0NASF0oRilbQ0gyXVtDQEhdNEMoPU8pW05IMl0=

> <s_epik_cmdline>
J2VwaWtfcHl0aG9uJywgJy1waCcsICc3LjAnLCAnLXRuJywgJzgnLCAnLW1hJywgJzIwMCcsICctbWV0YWxfYmluZGluZycsICctaW1hZScsICc8aW5maWxlLm1hZT4nLCAnLW9tYWUnLCAnPG91dGZpbGUubWFlPic=

> <r_lp_tautomer_probability>
1

> <r_epik_Ionization_Penalty>
0.000857933

> <r_epik_Ionization_Penalty_Charging>
0

> <r_epik_Ionization_Penalty_Neutral>
0.000857933

> <r_epik_State_Penalty>
0.000462053

> <r_epik_Charging_Adjusted_Penalty>
0.000462053

> <i_epik_Tot_Q>
0

> <i_epik_Tot_abs_Q>
0

> <r_epik_Metal_State_Penalty>
-0

> <b_epik_Metal_Only>
0

> <s_lp_Force_Field>
OPLS_2005

> <r_lp_Energy>
42.9342

> <b_lp_Chiralities_Consistent>
1

> <s_lp_Variant>
AV-unprocessed.smi:196-9

> <Gold.Version>
5.8.1

> <Gold.Id.Protein>
6NUR|6NUR_protein|mol2

> <Gold.PLP.Fitness>
40.4458

> <Gold.PLP.PLP>
-37.4548

> <Gold.PLP.part.hbond>
-3.9026

> <Gold.PLP.part.metal>
0.0000

> <Gold.PLP.part.buried>
-4.1779

> <Gold.PLP.part.nonpolar>
-29.7432

> <Gold.PLP.part.repulsive>
0.1727

> <Gold.PLP.ligand.clash>
0.0000

> <Gold.PLP.ligand.torsion>
1.1476

> <Gold.PLP.Chemscore.Hbond>
1.7520

> <Gold.PLP.Chemscore.CHOScore>
0.0000

> <Gold.PLP.Chemscore.Metal>
0.0000

> <Gold.Chemscore.Hbonds>
donor molecule, donor type, donor heavy atom, donor atom, acceptor molecule, acceptor atom, score
      P1  H  6896  6909       L1    11  0.01
      P1  H  6934  6947       L1    22  0.62
      P1  H  7989  7998       L1     3  0.86

> <Gold.PLP.Chemscore.Internal.Correction>
0.0302

> <Gold.Rescore>
     Score         DG    S(hbond)    S(metal)    S(lipo)     H(rot)  DE(clash)    DE(int)     intcor
      9.49     -11.23       1.12        0.00      73.92       2.60       0.15       1.60       ----

> <Gold.Chemscore.Fitness>
9.4868

> <Gold.Chemscore.DG>
-11.2301

> <Gold.Chemscore.ZeroCoef>
-5.4800

> <Gold.Chemscore.Hbond>
1.1223

> <Gold.Chemscore.Metal>
0.0000

> <Gold.Chemscore.Lipo>
73.9247

> <Gold.Chemscore.Internal_Hbond>
0.0000

> <Gold.Chemscore.DEClash>
0.1476

> <Gold.Chemscore.DEInternal>
1.5957

> <Gold.Chemscore.Rot>
2.5968

> <Gold.Chemscore.Internal.Correction>
   9.000000E+99

> <Gold.Chemscore.Hbonds>
donor molecule, donor type, donor heavy atom, donor atom, acceptor molecule, acceptor atom, score
      P1  H  6934  6947       L1    22  0.14
      P1  H  7989  7998       L1     3  0.51

> <Gold.Chemscore.Hbond.Weighted>
-3.7486

> <Gold.Chemscore.Metal.Weighted>
-0.0000

> <Gold.Chemscore.Lipo.Weighted>
-8.6492

> <Gold.Chemscore.Internal_Hbond.Weighted>
0.0000

> <Gold.Chemscore.DEClash.Weighted>
0.1476

> <Gold.Chemscore.DEInternal.Weighted>
1.5957

> <Gold.Chemscore.Rot.Weighted>
6.6477

> <Gold.Chemscore.Internal.Correction.Weighted>
   9.000000E+99

> <Gold.Protein.RotatedTorsions>
[ 6907 6896 6895 6894 ] final   93.90 input  -60.11 | X-H torsion
[ 7974 7965 7964 7962 ] final   -7.22 input  175.53 | X-H torsion
[ 8008 7997 7996 7995 ] final  -72.72 input   59.86 | X-H torsion
[ 10167 10162 10161 10158 ] final   67.65 input  -65.29 | X-H torsion
[ 10718 10713 10712 10709 ] final -167.89 input   66.30 | X-H torsion
[ 10763 10752 10751 10750 ] final  172.26 input  -60.55 | X-H torsion
[ 11005 11000 10999 10996 ] final   20.26 input  -57.11 | X-H torsion

> <Gold.Protein.ActiveResidues>
 VAL166  LYS551  ARG553  GLY616  TRP617  ASP618  TYR619  PRO620  LYS621  CYS622 
 ASP623  PHE694  ASN695  SER759  ASP760  ASP761  ALA762  ILE779  LEU786  VAL792 
 PHE793  MET794  SER795  GLU796  ALA797  LYS798  CYS799  TRP800  GLU811  SER814 

> <Gold.Protein.RotatedAtoms>
  152.5451  134.1277  159.8425 H   0  0  0  0  0  0  0  0  0  0  0  0  # atno 6907 bound_to 6896
  151.1326  133.5019  159.2606 H   0  0  0  0  0  0  0  0  0  0  0  0  # atno 6908 bound_to 6896
  151.1659  135.0305  159.8785 H   0  0  0  0  0  0  0  0  0  0  0  0  # atno 6909 bound_to 6896
  146.2312  140.2286  142.8339 H   0  0  0  0  0  0  0  0  0  0  0  0  # atno 7974 bound_to 7965
  154.5189  140.0792  156.8134 H   0  0  0  0  0  0  0  0  0  0  0  0  # atno 8008 bound_to 7997
  155.3620  140.3418  155.4223 H   0  0  0  0  0  0  0  0  0  0  0  0  # atno 8009 bound_to 7997
  156.1659  140.1603  156.8520 H   0  0  0  0  0  0  0  0  0  0  0  0  # atno 8010 bound_to 7997
  140.0872  144.5020  150.7123 H   0  0  0  0  0  0  0  0  0  0  0  0  # atno 10167 bound_to 10162
  156.6890  130.9151  151.3066 H   0  0  0  0  0  0  0  0  0  0  0  0  # atno 10718 bound_to 10713
  154.4236  135.2758  155.1959 H   0  0  0  0  0  0  0  0  0  0  0  0  # atno 10763 bound_to 10752
  154.3895  135.6069  153.5839 H   0  0  0  0  0  0  0  0  0  0  0  0  # atno 10764 bound_to 10752
  152.9834  135.5900  154.4536 H   0  0  0  0  0  0  0  0  0  0  0  0  # atno 10765 bound_to 10752
  140.4046  134.1682  155.7665 H   0  0  0  0  0  0  0  0  0  0  0  0  # atno 11005 bound_to 11000
  144.9575  140.8242  143.5534 LP  0  0  0  0  0  0  0  0  0  0  0  0  # atno 17320 bound_to 7965
  145.2253  139.2140  143.5071 LP  0  0  0  0  0  0  0  0  0  0  0  0  # atno 17321 bound_to 7965
  140.7047  143.2460  151.4760 LP  0  0  0  0  0  0  0  0  0  0  0  0  # atno 17342 bound_to 10162
  139.5745  144.1850  152.1884 LP  0  0  0  0  0  0  0  0  0  0  0  0  # atno 17343 bound_to 10162
  157.7016  130.9339  150.0802 LP  0  0  0  0  0  0  0  0  0  0  0  0  # atno 17370 bound_to 10713
  156.1812  130.3650  149.9033 LP  0  0  0  0  0  0  0  0  0  0  0  0  # atno 17371 bound_to 10713
  141.1844  133.8345  157.1141 LP  0  0  0  0  0  0  0  0  0  0  0  0  # atno 17394 bound_to 11000
  140.0311  134.9900  157.0783 LP  0  0  0  0  0  0  0  0  0  0  0  0  # atno 17395 bound_to 11000

$$$$
