AV-unprocessed.smi:1896|AV-procd|sdf|7683|dock9
  -GOLD-   22720 9423D 1   1.00000     0.00000
 Structure written by MMmdl.
 47 48  0  0  0  0  0  0  0  0  2 V2000
  149.0444  137.1401  158.8495 C   0  0  0  0  0  0  0  0  0  0  0  0
  148.4058  136.4696  160.0319 C   0  0  0  0  0  0  0  0  0  0  0  0
  148.1327  137.1893  161.1069 N   0  0  0  0  0  0  0  0  0  0  0  0
  147.5887  136.3160  161.9775 N   0  0  0  0  0  0  0  0  0  0  0  0
  147.1665  136.7829  163.2837 C   0  0  0  0  0  0  0  0  0  0  0  0
  147.5217  135.0401  161.4530 C   0  0  0  0  0  0  0  0  0  0  0  0
  146.9658  133.8905  162.2302 C   0  0  0  0  0  0  0  0  0  0  0  0
  148.0429  135.0985  160.1875 C   0  0  0  0  0  0  0  0  0  0  0  0
  148.2094  133.9824  159.1874 C   0  0  0  0  0  0  0  0  0  0  0  0
  147.5753  134.3922  157.8587 C   0  0  0  0  0  0  0  0  0  0  0  0
  147.0865  135.5142  157.7279 O   0  0  0  0  0  0  0  0  0  0  0  0
  147.5752  133.4705  156.8849 N   0  0  0  0  0  0  0  0  0  0  0  0
  146.9662  133.6591  155.5740 C   0  0  0  0  0  0  0  0  0  0  0  0
  147.7821  134.6296  154.6851 C   0  0  1  0  0  0  0  0  0  0  0  0
  149.2991  134.4475  154.9168 C   0  0  0  0  0  0  0  0  0  0  0  0
  147.4474  134.4578  153.2411 N   0  3  0  0  0  0  0  0  0  0  0  0
  147.6866  133.1105  152.6782 C   0  0  0  0  0  0  0  0  0  0  0  0
  146.8398  133.0543  151.4122 C   0  0  0  0  0  0  0  0  0  0  0  0
  145.5875  133.8300  151.8023 C   0  0  0  0  0  0  0  0  0  0  0  0
  146.0606  134.8332  152.8632 C   0  0  0  0  0  0  0  0  0  0  0  0
  150.1303  137.0684  158.9049 H   0  0  0  0  0  0  0  0  0  0  0  0
  148.7844  138.1981  158.8006 H   0  0  0  0  0  0  0  0  0  0  0  0
  148.7266  136.6816  157.9132 H   0  0  0  0  0  0  0  0  0  0  0  0
  146.1116  136.5519  163.4324 H   0  0  0  0  0  0  0  0  0  0  0  0
  147.3062  137.8613  163.3720 H   0  0  0  0  0  0  0  0  0  0  0  0
  147.7533  136.2867  164.0571 H   0  0  0  0  0  0  0  0  0  0  0  0
  147.0641  132.9543  161.6812 H   0  0  0  0  0  0  0  0  0  0  0  0
  145.9081  134.0441  162.4447 H   0  0  0  0  0  0  0  0  0  0  0  0
  147.4905  133.7741  163.1786 H   0  0  0  0  0  0  0  0  0  0  0  0
  149.2609  133.7492  159.0178 H   0  0  0  0  0  0  0  0  0  0  0  0
  147.7549  133.0564  159.5415 H   0  0  0  0  0  0  0  0  0  0  0  0
  147.9977  132.5733  157.0760 H   0  0  0  0  0  0  0  0  0  0  0  0
  146.8747  132.6883  155.0835 H   0  0  0  0  0  0  0  0  0  0  0  0
  145.9544  134.0353  155.7303 H   0  0  0  0  0  0  0  0  0  0  0  0
  147.5148  135.6498  154.9665 H   0  0  0  0  0  0  0  0  0  0  0  0
  149.5719  134.6349  155.9549 H   0  0  0  0  0  0  0  0  0  0  0  0
  149.8950  135.1365  154.3190 H   0  0  0  0  0  0  0  0  0  0  0  0
  149.6172  133.4344  154.6690 H   0  0  0  0  0  0  0  0  0  0  0  0
  148.7422  132.9356  152.4680 H   0  0  0  0  0  0  0  0  0  0  0  0
  147.3458  132.3499  153.3829 H   0  0  0  0  0  0  0  0  0  0  0  0
  147.3555  133.5657  150.5979 H   0  0  0  0  0  0  0  0  0  0  0  0
  146.6254  132.0352  151.0886 H   0  0  0  0  0  0  0  0  0  0  0  0
  145.1162  134.3147  150.9467 H   0  0  0  0  0  0  0  0  0  0  0  0
  144.8564  133.1497  152.2412 H   0  0  0  0  0  0  0  0  0  0  0  0
  145.3860  134.8029  153.7201 H   0  0  0  0  0  0  0  0  0  0  0  0
  146.0583  135.8521  152.4742 H   0  0  0  0  0  0  0  0  0  0  0  0
  148.0527  135.0790  152.7232 H   0  0  0  0  0  0  0  0  0  0  0  0
  1  2  1  0  0  0  0
  1 21  1  0  0  0  0
  1 22  1  0  0  0  0
  1 23  1  0  0  0  0
  2  8  1  0  0  0  0
  2  3  2  0  0  0  0
  3  4  1  0  0  0  0
  4  5  1  0  0  0  0
  4  6  1  0  0  0  0
  5 24  1  0  0  0  0
  5 25  1  0  0  0  0
  5 26  1  0  0  0  0
  6  7  1  0  0  0  0
  6  8  2  0  0  0  0
  7 27  1  0  0  0  0
  7 28  1  0  0  0  0
  7 29  1  0  0  0  0
  8  9  1  0  0  0  0
  9 10  1  0  0  0  0
  9 30  1  0  0  0  0
  9 31  1  0  0  0  0
 10 11  2  0  0  0  0
 10 12  1  0  0  0  0
 12 13  1  0  0  0  0
 12 32  1  0  0  0  0
 13 14  1  0  0  0  0
 13 33  1  0  0  0  0
 13 34  1  0  0  0  0
 14 15  1  0  0  0  0
 14 16  1  0  0  0  0
 14 35  1  0  0  0  0
 15 36  1  0  0  0  0
 15 37  1  0  0  0  0
 15 38  1  0  0  0  0
 16 20  1  0  0  0  0
 16 17  1  0  0  0  0
 16 47  1  0  0  0  0
 17 18  1  0  0  0  0
 17 39  1  0  0  0  0
 17 40  1  0  0  0  0
 18 19  1  0  0  0  0
 18 41  1  0  0  0  0
 18 42  1  0  0  0  0
 19 20  1  0  0  0  0
 19 43  1  0  0  0  0
 19 44  1  0  0  0  0
 20 45  1  0  0  0  0
 20 46  1  0  0  0  0
M  CHG  1  16   1
M  END
> <s_m_source_file>
AV-unprocessed.smi

> <i_m_source_file_index>
1896

> <i_lp_mmshare_version>
43012

> <i_f3d_flags>
0

> <s_epik_input>
W0NIM11jMW5uKFtDSDNdKWMoW0NIM10pYzFbQ0gyXUMoPU8pW05IXVtDSDJdW0NASF0oW0NIM10pTjJbQ0gyXVtDSDJdW0NIMl1bQ0gyXTI=

> <s_epik_cmdline>
J2VwaWtfcHl0aG9uJywgJy1waCcsICc3LjAnLCAnLXRuJywgJzgnLCAnLW1hJywgJzIwMCcsICctbWV0YWxfYmluZGluZycsICctaW1hZScsICc8aW5maWxlLm1hZT4nLCAnLW9tYWUnLCAnPG91dGZpbGUubWFlPic=

> <r_lp_tautomer_probability>
1

> <r_epik_Ionization_Penalty>
0.00723064

> <r_epik_Ionization_Penalty_Charging>
0.0050435

> <r_epik_Ionization_Penalty_Neutral>
0.00218714

> <r_epik_State_Penalty>
-0

> <r_epik_Charging_Adjusted_Penalty>
0.0050435

> <i_epik_Tot_Q>
1

> <i_epik_Tot_abs_Q>
1

> <r_epik_Metal_State_Penalty>
-0

> <b_epik_Metal_Only>
0

> <s_lp_Force_Field>
OPLS_2005

> <r_lp_Energy>
24.4883

> <b_lp_Chiralities_Consistent>
1

> <s_lp_Variant>
AV-unprocessed.smi:1896-2

> <Gold.Version>
5.8.1

> <Gold.Id.Protein>
6NUR|6NUR_protein|mol2

> <Gold.PLP.Fitness>
42.8332

> <Gold.PLP.PLP>
-32.8796

> <Gold.PLP.part.hbond>
-2.9428

> <Gold.PLP.part.metal>
0.0000

> <Gold.PLP.part.buried>
-3.1913

> <Gold.PLP.part.nonpolar>
-27.3665

> <Gold.PLP.part.repulsive>
0.0000

> <Gold.PLP.ligand.clash>
0.0000

> <Gold.PLP.ligand.torsion>
0.3929

> <Gold.PLP.Chemscore.Hbond>
3.5616

> <Gold.PLP.Chemscore.CHOScore>
0.0000

> <Gold.PLP.Chemscore.Metal>
0.0000

> <Gold.Chemscore.Hbonds>
donor molecule, donor type, donor heavy atom, donor atom, acceptor molecule, acceptor atom, score
      L1  H    16    47       P1  7948  2.00
      P1  H  6931  6943       L1     3  1.00
      P1  H  6934  6947       L1     3  0.60

> <Gold.PLP.Chemscore.Internal.Correction>
0.0546

> <Gold.Rescore>
     Score         DG    S(hbond)    S(metal)    S(lipo)     H(rot)  DE(clash)    DE(int)     intcor
     16.00     -17.97       2.51        0.00      71.30       1.65       0.59       1.39       ----

> <Gold.Chemscore.Fitness>
16.0013

> <Gold.Chemscore.DG>
-17.9743

> <Gold.Chemscore.ZeroCoef>
-5.4800

> <Gold.Chemscore.Hbond>
2.5073

> <Gold.Chemscore.Metal>
0.0000

> <Gold.Chemscore.Lipo>
71.3045

> <Gold.Chemscore.Internal_Hbond>
0.0000

> <Gold.Chemscore.DEClash>
0.5875

> <Gold.Chemscore.DEInternal>
1.3856

> <Gold.Chemscore.Rot>
1.6495

> <Gold.Chemscore.Internal.Correction>
   9.000000E+99

> <Gold.Chemscore.Hbonds>
donor molecule, donor type, donor heavy atom, donor atom, acceptor molecule, acceptor atom, score
      L1  H    16    47       P1  7948  0.94
      P1  H  6931  6943       L1     3  0.70
      P1  H  6934  6947       L1     3  0.54

> <Gold.Chemscore.Hbond.Weighted>
-8.3744

> <Gold.Chemscore.Metal.Weighted>
-0.0000

> <Gold.Chemscore.Lipo.Weighted>
-8.3426

> <Gold.Chemscore.Internal_Hbond.Weighted>
0.0000

> <Gold.Chemscore.DEClash.Weighted>
0.5875

> <Gold.Chemscore.DEInternal.Weighted>
1.3856

> <Gold.Chemscore.Rot.Weighted>
4.2227

> <Gold.Chemscore.Internal.Correction.Weighted>
   9.000000E+99

> <Gold.Protein.RotatedTorsions>
[ 6907 6896 6895 6894 ] final   32.26 input  -60.11 | X-H torsion
[ 7974 7965 7964 7962 ] final  -49.68 input  175.53 | X-H torsion
[ 8008 7997 7996 7995 ] final -120.43 input   59.86 | X-H torsion
[ 10167 10162 10161 10158 ] final  -79.02 input  -65.29 | X-H torsion
[ 10718 10713 10712 10709 ] final -130.60 input   66.30 | X-H torsion
[ 10763 10752 10751 10750 ] final  -68.44 input  -60.55 | X-H torsion
[ 11005 11000 10999 10996 ] final  -97.55 input  -57.11 | X-H torsion

> <Gold.Protein.ActiveResidues>
 VAL166  LYS551  ARG553  GLY616  TRP617  ASP618  TYR619  PRO620  LYS621  CYS622 
 ASP623  PHE694  ASN695  SER759  ASP760  ASP761  ALA762  ILE779  LEU786  VAL792 
 PHE793  MET794  SER795  GLU796  ALA797  LYS798  CYS799  TRP800  GLU811  SER814 

> <Gold.Protein.RotatedAtoms>
  152.0719  134.9528  160.0574 H   0  0  0  0  0  0  0  0  0  0  0  0  # atno 6907 bound_to 6896
  152.0850  133.4167  159.4526 H   0  0  0  0  0  0  0  0  0  0  0  0  # atno 6908 bound_to 6896
  150.6836  134.2858  159.4689 H   0  0  0  0  0  0  0  0  0  0  0  0  # atno 6909 bound_to 6896
  145.9380  140.7688  142.9566 H   0  0  0  0  0  0  0  0  0  0  0  0  # atno 7974 bound_to 7965
  155.1317  140.0400  157.2776 H   0  0  0  0  0  0  0  0  0  0  0  0  # atno 8008 bound_to 7997
  154.6538  140.2575  155.7158 H   0  0  0  0  0  0  0  0  0  0  0  0  # atno 8009 bound_to 7997
  156.2589  140.2831  156.0982 H   0  0  0  0  0  0  0  0  0  0  0  0  # atno 8010 bound_to 7997
  140.4630  143.2448  151.8320 H   0  0  0  0  0  0  0  0  0  0  0  0  # atno 10167 bound_to 10162
  156.2161  130.6949  151.0704 H   0  0  0  0  0  0  0  0  0  0  0  0  # atno 10718 bound_to 10713
  154.3890  135.6057  153.5832 H   0  0  0  0  0  0  0  0  0  0  0  0  # atno 10763 bound_to 10752
  152.9787  135.5879  154.4320 H   0  0  0  0  0  0  0  0  0  0  0  0  # atno 10764 bound_to 10752
  154.4101  135.2844  155.2020 H   0  0  0  0  0  0  0  0  0  0  0  0  # atno 10765 bound_to 10752
  141.1375  133.8179  157.0722 H   0  0  0  0  0  0  0  0  0  0  0  0  # atno 11005 bound_to 11000
  144.6774  140.2234  143.7364 LP  0  0  0  0  0  0  0  0  0  0  0  0  # atno 17320 bound_to 7965
  145.8338  139.2098  143.1867 LP  0  0  0  0  0  0  0  0  0  0  0  0  # atno 17321 bound_to 7965
  139.4808  144.4985  151.9092 LP  0  0  0  0  0  0  0  0  0  0  0  0  # atno 17342 bound_to 10162
  140.4070  144.2419  150.5890 LP  0  0  0  0  0  0  0  0  0  0  0  0  # atno 17343 bound_to 10162
  157.7064  131.0754  150.6653 LP  0  0  0  0  0  0  0  0  0  0  0  0  # atno 17370 bound_to 10713
  156.6714  130.4540  149.5656 LP  0  0  0  0  0  0  0  0  0  0  0  0  # atno 17371 bound_to 10713
  140.0504  134.9808  157.1126 LP  0  0  0  0  0  0  0  0  0  0  0  0  # atno 17394 bound_to 11000
  140.3998  134.2095  155.7164 LP  0  0  0  0  0  0  0  0  0  0  0  0  # atno 17395 bound_to 11000

$$$$
