AV-unprocessed.smi:2698|AV-procd|sdf|10421|dock1
  -GOLD-   2272014453D 1   1.00000     0.00000
 Structure written by MMmdl.
 33 33  0  0  0  0  0  0  0  0  2 V2000
  151.8896  145.3261  159.8879 C   0  0  0  0  0  0  0  0  0  0  0  0
  151.7472  143.8961  160.4435 C   0  0  0  0  0  0  0  0  0  0  0  0
  152.4321  143.7963  161.8158 C   0  0  0  0  0  0  0  0  0  0  0  0
  152.2935  142.8113  159.4829 C   0  0  0  0  0  0  0  0  0  0  0  0
  151.6262  142.7741  158.1003 C   0  0  0  0  0  0  0  0  0  0  0  0
  151.5411  143.7898  157.4104 O   0  0  0  0  0  0  0  0  0  0  0  0
  151.1577  141.5797  157.7060 N   0  0  0  0  0  0  0  0  0  0  0  0
  150.5072  141.2907  156.4306 C   0  0  2  0  0  0  0  0  0  0  0  0
  149.0324  140.8864  156.6452 C   0  0  0  0  0  0  0  0  0  0  0  0
  148.1852  140.9121  155.3965 C   0  0  0  0  0  0  0  0  0  0  0  0
  148.1966  141.8300  154.3656 C   0  0  0  0  0  0  0  0  0  0  0  0
  147.2264  141.4190  153.4695 N   0  0  0  0  0  0  0  0  0  0  0  0
  146.6809  140.3086  153.9673 C   0  0  0  0  0  0  0  0  0  0  0  0
  147.2122  139.9427  155.1264 N   0  0  0  0  0  0  0  0  0  0  0  0
  151.3409  140.2705  155.6456 C   0  0  0  0  0  0  0  0  0  0  0  0
  152.3964  139.8630  156.1798 O   0  0  0  0  0  0  0  0  0  0  0  0
  150.9096  139.9113  154.5282 O   0  5  0  0  0  0  0  0  0  0  0  0
  146.9734  141.8776  152.6061 H   0  0  0  0  0  0  0  0  0  0  0  0
  152.9323  145.5656  159.6774 H   0  0  0  0  0  0  0  0  0  0  0  0
  151.5212  146.0606  160.6047 H   0  0  0  0  0  0  0  0  0  0  0  0
  151.3245  145.4717  158.9685 H   0  0  0  0  0  0  0  0  0  0  0  0
  150.6847  143.7067  160.6045 H   0  0  0  0  0  0  0  0  0  0  0  0
  153.5058  143.9699  161.7352 H   0  0  0  0  0  0  0  0  0  0  0  0
  152.2864  142.8111  162.2598 H   0  0  0  0  0  0  0  0  0  0  0  0
  152.0272  144.5305  162.5129 H   0  0  0  0  0  0  0  0  0  0  0  0
  153.3691  142.9319  159.3501 H   0  0  0  0  0  0  0  0  0  0  0  0
  152.1585  141.8306  159.9422 H   0  0  0  0  0  0  0  0  0  0  0  0
  151.2746  140.7945  158.3303 H   0  0  0  0  0  0  0  0  0  0  0  0
  150.5098  142.2093  155.8398 H   0  0  0  0  0  0  0  0  0  0  0  0
  148.9881  139.8799  157.0634 H   0  0  0  0  0  0  0  0  0  0  0  0
  148.5644  141.5407  157.3813 H   0  0  0  0  0  0  0  0  0  0  0  0
  148.7921  142.7176  154.2101 H   0  0  0  0  0  0  0  0  0  0  0  0
  145.8873  139.7632  153.4782 H   0  0  0  0  0  0  0  0  0  0  0  0
  1  2  1  0  0  0  0
  1 19  1  0  0  0  0
  1 20  1  0  0  0  0
  1 21  1  0  0  0  0
  2  3  1  0  0  0  0
  2  4  1  0  0  0  0
  2 22  1  0  0  0  0
  3 23  1  0  0  0  0
  3 24  1  0  0  0  0
  3 25  1  0  0  0  0
  4  5  1  0  0  0  0
  4 26  1  0  0  0  0
  4 27  1  0  0  0  0
  5  6  2  0  0  0  0
  5  7  1  0  0  0  0
  7  8  1  0  0  0  0
  7 28  1  0  0  0  0
  8  9  1  0  0  0  0
  8 15  1  0  0  0  0
  8 29  1  0  0  0  0
  9 10  1  0  0  0  0
  9 30  1  0  0  0  0
  9 31  1  0  0  0  0
 10 14  1  0  0  0  0
 10 11  2  0  0  0  0
 11 12  1  0  0  0  0
 11 32  1  0  0  0  0
 12 18  1  0  0  0  0
 12 13  1  0  0  0  0
 13 14  2  0  0  0  0
 13 33  1  0  0  0  0
 15 16  2  0  0  0  0
 15 17  1  0  0  0  0
M  CHG  1  17  -1
M  END
> <s_m_source_file>
AV-unprocessed.smi

> <i_m_source_file_index>
2698

> <i_lp_mmshare_version>
43012

> <i_f3d_flags>
0

> <s_epik_input>
W0NIM11bQ0hdKFtDSDNdKVtDSDJdQyg9TylbTkhdW0NAQEhdKEMoPU8pW09IXSlbQ0gyXWMxW2NIXVtuSF1bY0hdbjE=

> <s_epik_cmdline>
J2VwaWtfcHl0aG9uJywgJy1waCcsICc3LjAnLCAnLXRuJywgJzgnLCAnLW1hJywgJzIwMCcsICctbWV0YWxfYmluZGluZycsICctaW1hZScsICc8aW5maWxlLm1hZT4nLCAnLW9tYWUnLCAnPG91dGZpbGUubWFlPic=

> <r_lp_tautomer_probability>
0.5

> <r_epik_Ionization_Penalty>
0.818672

> <r_epik_Ionization_Penalty_Charging>
0.818672

> <r_epik_Ionization_Penalty_Neutral>
7.99661e-08

> <r_epik_State_Penalty>
0.927032

> <r_epik_Charging_Adjusted_Penalty>
1.7457

> <i_epik_Tot_Q>
-1

> <i_epik_Tot_abs_Q>
1

> <r_epik_Metal_State_Penalty>
0.525537

> <b_epik_Metal_Only>
0

> <s_lp_Force_Field>
OPLS_2005

> <r_lp_Energy>
1.77679

> <b_lp_Chiralities_Consistent>
1

> <s_lp_Variant>
AV-unprocessed.smi:2698-5

> <Gold.Version>
5.8.1

> <Gold.Id.Protein>
6NUR|6NUR_protein|mol2

> <Gold.PLP.Fitness>
46.9613

> <Gold.PLP.PLP>
-32.8085

> <Gold.PLP.part.hbond>
-2.0000

> <Gold.PLP.part.metal>
0.0000

> <Gold.PLP.part.buried>
-3.7074

> <Gold.PLP.part.nonpolar>
-26.3898

> <Gold.PLP.part.repulsive>
0.4215

> <Gold.PLP.ligand.clash>
0.0000

> <Gold.PLP.ligand.torsion>
0.4767

> <Gold.PLP.Chemscore.Hbond>
3.0000

> <Gold.PLP.Chemscore.CHOScore>
1.9745

> <Gold.PLP.Chemscore.Metal>
0.0000

> <Gold.Chemscore.Hbonds>
donor molecule, donor type, donor heavy atom, donor atom, acceptor molecule, acceptor atom, score
      P1  H  7989  7998       L1    17  1.00
      P1  H  7997  8009       L1    16  2.00
      L1  C    11    32       P1  8028  0.95
      L1  C    13    33       P1 10175  1.00

> <Gold.PLP.Chemscore.Internal.Correction>
0.1828

> <Gold.Rescore>
     Score         DG    S(hbond)    S(metal)    S(lipo)     H(rot)  DE(clash)    DE(int)     intcor
     10.51     -12.32       1.96        0.00      68.42       3.01       0.00       1.81       ----

> <Gold.Chemscore.Fitness>
10.5122

> <Gold.Chemscore.DG>
-12.3211

> <Gold.Chemscore.ZeroCoef>
-5.4800

> <Gold.Chemscore.Hbond>
1.9621

> <Gold.Chemscore.Metal>
0.0000

> <Gold.Chemscore.Lipo>
68.4152

> <Gold.Chemscore.Internal_Hbond>
0.0000

> <Gold.Chemscore.DEClash>
0.0038

> <Gold.Chemscore.DEInternal>
1.8051

> <Gold.Chemscore.Rot>
3.0145

> <Gold.Chemscore.Internal.Correction>
   9.000000E+99

> <Gold.Chemscore.Hbonds>
donor molecule, donor type, donor heavy atom, donor atom, acceptor molecule, acceptor atom, score
      P1  H  7989  7998       L1    17  0.49
      P1  H  7997  8009       L1    16  0.99

> <Gold.Chemscore.Hbond.Weighted>
-6.5536

> <Gold.Chemscore.Metal.Weighted>
-0.0000

> <Gold.Chemscore.Lipo.Weighted>
-8.0046

> <Gold.Chemscore.Internal_Hbond.Weighted>
0.0000

> <Gold.Chemscore.DEClash.Weighted>
0.0038

> <Gold.Chemscore.DEInternal.Weighted>
1.8051

> <Gold.Chemscore.Rot.Weighted>
7.7171

> <Gold.Chemscore.Internal.Correction.Weighted>
   9.000000E+99

> <Gold.Protein.RotatedTorsions>
[ 6907 6896 6895 6894 ] final  -98.37 input  -60.11 | X-H torsion
[ 7974 7965 7964 7962 ] final -155.08 input  175.53 | X-H torsion
[ 8008 7997 7996 7995 ] final -160.09 input   59.86 | X-H torsion
[ 10167 10162 10161 10158 ] final -154.81 input  -65.29 | X-H torsion
[ 10718 10713 10712 10709 ] final -147.50 input   66.30 | X-H torsion
[ 10763 10752 10751 10750 ] final  -30.70 input  -60.55 | X-H torsion
[ 11005 11000 10999 10996 ] final   22.01 input  -57.11 | X-H torsion

> <Gold.Protein.ActiveResidues>
 VAL166  LYS551  ARG553  GLY616  TRP617  ASP618  TYR619  PRO620  LYS621  CYS622 
 ASP623  PHE694  ASN695  SER759  ASP760  ASP761  ALA762  ILE779  LEU786  VAL792 
 PHE793  MET794  SER795  GLU796  ALA797  LYS798  CYS799  TRP800  GLU811  SER814 

> <Gold.Protein.RotatedAtoms>
  150.7045  134.1205  159.4032 H   0  0  0  0  0  0  0  0  0  0  0  0  # atno 6907 bound_to 6896
  151.9191  135.0304  160.0530 H   0  0  0  0  0  0  0  0  0  0  0  0  # atno 6908 bound_to 6896
  152.2271  133.4993  159.5231 H   0  0  0  0  0  0  0  0  0  0  0  0  # atno 6909 bound_to 6896
  144.7658  140.4300  143.5943 H   0  0  0  0  0  0  0  0  0  0  0  0  # atno 7974 bound_to 7965
  155.7723  140.0853  157.2102 H   0  0  0  0  0  0  0  0  0  0  0  0  # atno 8008 bound_to 7997
  154.3995  140.1523  156.3013 H   0  0  0  0  0  0  0  0  0  0  0  0  # atno 8009 bound_to 7997
  155.8735  140.3424  155.5840 H   0  0  0  0  0  0  0  0  0  0  0  0  # atno 8010 bound_to 7997
  139.6983  143.9305  152.2417 H   0  0  0  0  0  0  0  0  0  0  0  0  # atno 10167 bound_to 10162
  156.4083  130.7968  151.2184 H   0  0  0  0  0  0  0  0  0  0  0  0  # atno 10718 bound_to 10713
  153.7852  135.6902  153.4881 H   0  0  0  0  0  0  0  0  0  0  0  0  # atno 10763 bound_to 10752
  153.1785  135.4515  154.9995 H   0  0  0  0  0  0  0  0  0  0  0  0  # atno 10764 bound_to 10752
  154.8066  135.3359  154.7352 H   0  0  0  0  0  0  0  0  0  0  0  0  # atno 10765 bound_to 10752
  140.3853  134.1877  155.7663 H   0  0  0  0  0  0  0  0  0  0  0  0  # atno 11005 bound_to 11000
  145.6476  139.1560  143.2880 LP  0  0  0  0  0  0  0  0  0  0  0  0  # atno 17320 bound_to 7965
  146.1763  140.6567  142.9210 LP  0  0  0  0  0  0  0  0  0  0  0  0  # atno 17321 bound_to 7965
  139.9141  144.6839  150.8531 LP  0  0  0  0  0  0  0  0  0  0  0  0  # atno 17342 bound_to 10162
  140.7702  143.3422  151.2184 LP  0  0  0  0  0  0  0  0  0  0  0  0  # atno 17343 bound_to 10162
  157.7506  131.0265  150.3967 LP  0  0  0  0  0  0  0  0  0  0  0  0  # atno 17370 bound_to 10713
  156.4260  130.3962  149.6793 LP  0  0  0  0  0  0  0  0  0  0  0  0  # atno 17371 bound_to 10713
  141.1909  133.8206  157.0899 LP  0  0  0  0  0  0  0  0  0  0  0  0  # atno 17394 bound_to 11000
  140.0447  134.9836  157.1027 LP  0  0  0  0  0  0  0  0  0  0  0  0  # atno 17395 bound_to 11000

$$$$
