AV-unprocessed.smi:1768|AV-procd|sdf|7149|dock10
  -GOLD-   22720 8393D 1   1.00000     0.00000
 Structure written by MMmdl.
 32 33  0  0  0  0  0  0  0  0  2 V2000
  144.1225  143.8712  155.0826 C   0  0  0  0  0  0  0  0  0  0  0  0
  145.4311  143.1676  154.9692 C   0  0  0  0  0  0  0  0  0  0  0  0
  145.8821  142.3275  155.9038 N   0  0  0  0  0  0  0  0  0  0  0  0
  147.1196  141.7942  155.5733 N   0  0  0  0  0  0  0  0  0  0  0  0
  147.5816  142.2292  154.3923 C   0  0  0  0  0  0  0  0  0  0  0  0
  148.7633  141.8321  153.8918 N   0  5  0  0  0  0  0  0  0  0  0  0
  149.6782  141.2493  154.7000 C   0  0  0  0  0  0  0  0  0  0  0  0
  150.2141  140.1524  154.5243 O   0  0  0  0  0  0  0  0  0  0  0  0
  149.9898  141.9822  155.7787 N   0  0  0  0  0  0  0  0  0  0  0  0
  150.9457  141.6197  156.8230 C   0  0  2  0  0  0  0  0  0  0  0  0
  150.5937  140.2316  157.3870 C   0  0  0  0  0  0  0  0  0  0  0  0
  150.9389  142.7100  157.9117 C   0  0  1  0  0  0  0  0  0  0  0  0
  151.7681  142.3813  159.1548 C   0  0  0  0  0  0  0  0  0  0  0  0
  152.1456  143.7459  159.7113 C   0  0  0  0  0  0  0  0  0  0  0  0
  151.8236  144.7163  158.5722 C   0  0  0  0  0  0  0  0  0  0  0  0
  151.5744  143.8905  157.4445 O   0  0  0  0  0  0  0  0  0  0  0  0
  146.5038  143.3749  153.5950 S   0  0  0  0  0  0  0  0  0  0  0  0
  143.3107  143.1905  154.8259 H   0  0  0  0  0  0  0  0  0  0  0  0
  144.0917  144.7250  154.4054 H   0  0  0  0  0  0  0  0  0  0  0  0
  143.9732  144.2292  156.1015 H   0  0  0  0  0  0  0  0  0  0  0  0
  149.5286  142.8745  155.8774 H   0  0  0  0  0  0  0  0  0  0  0  0
  151.9470  141.5779  156.3906 H   0  0  0  0  0  0  0  0  0  0  0  0
  151.3098  139.9172  158.1461 H   0  0  0  0  0  0  0  0  0  0  0  0
  150.6016  139.4732  156.6035 H   0  0  0  0  0  0  0  0  0  0  0  0
  149.6026  140.2287  157.8416 H   0  0  0  0  0  0  0  0  0  0  0  0
  149.9149  142.9532  158.2031 H   0  0  0  0  0  0  0  0  0  0  0  0
  151.2228  141.7690  159.8736 H   0  0  0  0  0  0  0  0  0  0  0  0
  152.6732  141.8416  158.8723 H   0  0  0  0  0  0  0  0  0  0  0  0
  151.5660  143.9915  160.6016 H   0  0  0  0  0  0  0  0  0  0  0  0
  153.2023  143.7765  159.9791 H   0  0  0  0  0  0  0  0  0  0  0  0
  150.9253  145.2913  158.8008 H   0  0  0  0  0  0  0  0  0  0  0  0
  152.6355  145.4165  158.3746 H   0  0  0  0  0  0  0  0  0  0  0  0
  1  2  1  0  0  0  0
  1 18  1  0  0  0  0
  1 19  1  0  0  0  0
  1 20  1  0  0  0  0
  2 17  1  0  0  0  0
  2  3  2  0  0  0  0
  3  4  1  0  0  0  0
  4  5  2  0  0  0  0
  5  6  1  0  0  0  0
  5 17  1  0  0  0  0
  6  7  1  0  0  0  0
  7  8  2  0  0  0  0
  7  9  1  0  0  0  0
  9 10  1  0  0  0  0
  9 21  1  0  0  0  0
 10 11  1  0  0  0  0
 10 12  1  0  0  0  0
 10 22  1  0  0  0  0
 11 23  1  0  0  0  0
 11 24  1  0  0  0  0
 11 25  1  0  0  0  0
 12 16  1  0  0  0  0
 12 13  1  0  0  0  0
 12 26  1  0  0  0  0
 13 14  1  0  0  0  0
 13 27  1  0  0  0  0
 13 28  1  0  0  0  0
 14 15  1  0  0  0  0
 14 29  1  0  0  0  0
 14 30  1  0  0  0  0
 15 16  1  0  0  0  0
 15 31  1  0  0  0  0
 15 32  1  0  0  0  0
M  CHG  1   6  -1
M  END
> <s_m_source_file>
AV-unprocessed.smi

> <i_m_source_file_index>
1768

> <i_lp_mmshare_version>
43012

> <i_f3d_flags>
0

> <s_epik_input>
W0NIM11jMW5uYyhzMSlbTkhdQyg9TylbTkhdW0NASF0oW0NIM10pW0NAQEhdMltDSDJdW0NIMl1bQ0gyXU8y

> <s_epik_cmdline>
J2VwaWtfcHl0aG9uJywgJy1waCcsICc3LjAnLCAnLXRuJywgJzgnLCAnLW1hJywgJzIwMCcsICctbWV0YWxfYmluZGluZycsICctaW1hZScsICc8aW5maWxlLm1hZT4nLCAnLW9tYWUnLCAnPG91dGZpbGUubWFlPic=

> <r_lp_tautomer_probability>
1

> <r_epik_Ionization_Penalty>
4.3376

> <r_epik_Ionization_Penalty_Charging>
4.19392

> <r_epik_Ionization_Penalty_Neutral>
0.143681

> <r_epik_State_Penalty>
4.19342

> <r_epik_Charging_Adjusted_Penalty>
8.38735

> <i_epik_Tot_Q>
-1

> <i_epik_Tot_abs_Q>
1

> <r_epik_Metal_State_Penalty>
0.686065

> <b_epik_Metal_Only>
1

> <s_lp_Force_Field>
OPLS_2005

> <r_lp_Energy>
16.4236

> <b_lp_Chiralities_Consistent>
1

> <s_lp_Variant>
AV-unprocessed.smi:1768-7

> <Gold.Version>
5.8.1

> <Gold.Id.Protein>
6NUR|6NUR_protein|mol2

> <Gold.PLP.Fitness>
40.4444

> <Gold.PLP.PLP>
-34.5155

> <Gold.PLP.part.hbond>
-3.0000

> <Gold.PLP.part.metal>
0.0000

> <Gold.PLP.part.buried>
-5.5065

> <Gold.PLP.part.nonpolar>
-26.9418

> <Gold.PLP.part.repulsive>
0.7479

> <Gold.PLP.ligand.clash>
0.0000

> <Gold.PLP.ligand.torsion>
0.7137

> <Gold.PLP.Chemscore.Hbond>
2.4423

> <Gold.PLP.Chemscore.CHOScore>
0.0000

> <Gold.PLP.Chemscore.Metal>
0.0000

> <Gold.Chemscore.Hbonds>
donor molecule, donor type, donor heavy atom, donor atom, acceptor molecule, acceptor atom, score
      L1  H     9    21       P1  8028  1.00
      P1  H  7989  7998       L1     8  0.65
      P1  H  8011  8017       L1     6  0.53

> <Gold.PLP.Chemscore.Internal.Correction>
0.0297

> <Gold.Rescore>
     Score         DG    S(hbond)    S(metal)    S(lipo)     H(rot)  DE(clash)    DE(int)     intcor
     13.26     -15.64       1.64        0.00      67.85       1.28       0.04       2.34       ----

> <Gold.Chemscore.Fitness>
13.2589

> <Gold.Chemscore.DG>
-15.6350

> <Gold.Chemscore.ZeroCoef>
-5.4800

> <Gold.Chemscore.Hbond>
1.6428

> <Gold.Chemscore.Metal>
0.0000

> <Gold.Chemscore.Lipo>
67.8529

> <Gold.Chemscore.Internal_Hbond>
0.0000

> <Gold.Chemscore.DEClash>
0.0354

> <Gold.Chemscore.DEInternal>
2.3407

> <Gold.Chemscore.Rot>
1.2776

> <Gold.Chemscore.Internal.Correction>
   9.000000E+99

> <Gold.Chemscore.Hbonds>
donor molecule, donor type, donor heavy atom, donor atom, acceptor molecule, acceptor atom, score
      L1  H     9    21       P1  8028  0.98
      P1  H  7989  7998       L1     8  0.06
      P1  H  8011  8017       L1     6  0.26

> <Gold.Chemscore.Hbond.Weighted>
-5.4868

> <Gold.Chemscore.Metal.Weighted>
-0.0000

> <Gold.Chemscore.Lipo.Weighted>
-7.9388

> <Gold.Chemscore.Internal_Hbond.Weighted>
0.0000

> <Gold.Chemscore.DEClash.Weighted>
0.0354

> <Gold.Chemscore.DEInternal.Weighted>
2.3407

> <Gold.Chemscore.Rot.Weighted>
3.2706

> <Gold.Chemscore.Internal.Correction.Weighted>
   9.000000E+99

> <Gold.Protein.RotatedTorsions>
[ 6907 6896 6895 6894 ] final -108.69 input  -60.11 | X-H torsion
[ 7974 7965 7964 7962 ] final  -29.87 input  175.53 | X-H torsion
[ 8008 7997 7996 7995 ] final  -23.30 input   59.86 | X-H torsion
[ 10167 10162 10161 10158 ] final  160.36 input  -65.29 | X-H torsion
[ 10718 10713 10712 10709 ] final  152.40 input   66.30 | X-H torsion
[ 10763 10752 10751 10750 ] final  -56.22 input  -60.55 | X-H torsion
[ 11005 11000 10999 10996 ] final  -77.71 input  -57.11 | X-H torsion

> <Gold.Protein.ActiveResidues>
 VAL166  LYS551  ARG553  GLY616  TRP617  ASP618  TYR619  PRO620  LYS621  CYS622 
 ASP623  PHE694  ASN695  SER759  ASP760  ASP761  ALA762  ILE779  LEU786  VAL792 
 PHE793  MET794  SER795  GLU796  ALA797  LYS798  CYS799  TRP800  GLU811  SER814 

> <Gold.Protein.RotatedAtoms>
  150.7517  133.9640  159.3524 H   0  0  0  0  0  0  0  0  0  0  0  0  # atno 6907 bound_to 6896
  151.7568  135.0817  160.0349 H   0  0  0  0  0  0  0  0  0  0  0  0  # atno 6908 bound_to 6896
  152.3429  133.6051  159.5925 H   0  0  0  0  0  0  0  0  0  0  0  0  # atno 6909 bound_to 6896
  146.1185  140.5467  142.8746 H   0  0  0  0  0  0  0  0  0  0  0  0  # atno 7974 bound_to 7965
  154.4593  140.1984  156.0289 H   0  0  0  0  0  0  0  0  0  0  0  0  # atno 8008 bound_to 7997
  156.0809  140.3271  155.7664 H   0  0  0  0  0  0  0  0  0  0  0  0  # atno 8009 bound_to 7997
  155.5113  140.0562  157.2914 H   0  0  0  0  0  0  0  0  0  0  0  0  # atno 8010 bound_to 7997
  139.4839  144.4642  151.8664 H   0  0  0  0  0  0  0  0  0  0  0  0  # atno 10167 bound_to 10162
  157.2583  131.0793  151.1683 H   0  0  0  0  0  0  0  0  0  0  0  0  # atno 10718 bound_to 10713
  154.2032  135.6407  153.5093 H   0  0  0  0  0  0  0  0  0  0  0  0  # atno 10763 bound_to 10752
  153.0007  135.5456  154.6294 H   0  0  0  0  0  0  0  0  0  0  0  0  # atno 10764 bound_to 10752
  154.5712  135.2917  155.0799 H   0  0  0  0  0  0  0  0  0  0  0  0  # atno 10765 bound_to 10752
  141.1661  133.7033  156.7862 H   0  0  0  0  0  0  0  0  0  0  0  0  # atno 11005 bound_to 11000
  144.7575  140.5343  143.6758 LP  0  0  0  0  0  0  0  0  0  0  0  0  # atno 17320 bound_to 7965
  145.5516  139.1477  143.3391 LP  0  0  0  0  0  0  0  0  0  0  0  0  # atno 17321 bound_to 7965
  140.4106  144.2374  150.5889 LP  0  0  0  0  0  0  0  0  0  0  0  0  # atno 17342 bound_to 10162
  140.4970  143.2329  151.8735 LP  0  0  0  0  0  0  0  0  0  0  0  0  # atno 17343 bound_to 10162
  157.3203  130.6934  149.6265 LP  0  0  0  0  0  0  0  0  0  0  0  0  # atno 17370 bound_to 10713
  155.9664  130.4337  150.5018 LP  0  0  0  0  0  0  0  0  0  0  0  0  # atno 17371 bound_to 10713
  140.2358  134.8651  157.3524 LP  0  0  0  0  0  0  0  0  0  0  0  0  # atno 17394 bound_to 11000
  140.1845  134.4449  155.7752 LP  0  0  0  0  0  0  0  0  0  0  0  0  # atno 17395 bound_to 11000

$$$$
