AV-unprocessed.smi:733|AV-procd|sdf|3529|dock4
  -GOLD-   22720 0523D 1   1.00000     0.00000
 Structure written by MMmdl.
 43 44  0  0  0  0  0  0  0  0  1 V2000
  145.7436  130.4695  152.1950 C   0  0  0  0  0  0  0  0  0  0  0  0
  146.8940  131.0835  152.9320 C   0  0  0  0  0  0  0  0  0  0  0  0
  147.0260  132.4747  152.9711 N   0  0  0  0  0  0  0  0  0  0  0  0
  148.0999  132.8621  153.6666 C   0  0  0  0  0  0  0  0  0  0  0  0
  148.4772  134.2150  153.8719 N   0  0  0  0  0  0  0  0  0  0  0  0
  148.7173  134.8437  155.0356 C   0  0  0  0  0  0  0  0  0  0  0  0
  148.6324  134.3305  156.1517 O   0  0  0  0  0  0  0  0  0  0  0  0
  149.0715  136.1205  154.8295 N   0  0  0  0  0  0  0  0  0  0  0  0
  149.4245  137.0908  155.8654 C   0  0  0  0  0  0  0  0  0  0  0  0
  149.9086  138.4491  155.2844 C   0  0  0  0  0  0  0  0  0  0  0  0
  148.8366  139.1090  154.3659 C   0  0  0  0  0  0  0  0  0  0  0  0
  148.9685  140.6242  154.1017 C   0  0  0  0  0  0  0  0  0  0  0  0
  149.9568  140.9098  153.1354 O   0  0  0  0  0  0  0  0  0  0  0  0
  150.3182  139.3906  156.4435 C   0  0  0  0  0  0  0  0  0  0  0  0
  151.8276  139.2418  156.6051 C   0  0  0  0  0  0  0  0  0  0  0  0
  152.3127  139.0943  155.1708 C   0  0  0  0  0  0  0  0  0  0  0  0
  151.2316  138.2519  154.4891 C   0  0  0  0  0  0  0  0  0  0  0  0
  149.0303  131.5281  154.3262 S   0  0  0  0  0  0  0  0  0  0  0  0
  147.8891  130.4173  153.6098 C   0  0  0  0  0  0  0  0  0  0  0  0
  148.0531  128.9421  153.7671 C   0  0  0  0  0  0  0  0  0  0  0  0
  146.0912  129.8866  151.3420 H   0  0  0  0  0  0  0  0  0  0  0  0
  145.0547  131.2262  151.8179 H   0  0  0  0  0  0  0  0  0  0  0  0
  145.1743  129.8021  152.8422 H   0  0  0  0  0  0  0  0  0  0  0  0
  148.5847  134.7664  153.0335 H   0  0  0  0  0  0  0  0  0  0  0  0
  149.1115  136.4490  153.8760 H   0  0  0  0  0  0  0  0  0  0  0  0
  148.5412  137.2393  156.4864 H   0  0  0  0  0  0  0  0  0  0  0  0
  150.1786  136.6839  156.5416 H   0  0  0  0  0  0  0  0  0  0  0  0
  148.8034  138.5852  153.4094 H   0  0  0  0  0  0  0  0  0  0  0  0
  147.8536  138.9428  154.8085 H   0  0  0  0  0  0  0  0  0  0  0  0
  148.0198  141.0059  153.7235 H   0  0  0  0  0  0  0  0  0  0  0  0
  149.1778  141.1788  155.0156 H   0  0  0  0  0  0  0  0  0  0  0  0
  149.9670  140.2115  152.4987 H   0  0  0  0  0  0  0  0  0  0  0  0
  150.1101  140.4289  156.1813 H   0  0  0  0  0  0  0  0  0  0  0  0
  149.7834  139.1862  157.3718 H   0  0  0  0  0  0  0  0  0  0  0  0
  152.2824  140.0896  157.1181 H   0  0  0  0  0  0  0  0  0  0  0  0
  152.0574  138.3393  157.1732 H   0  0  0  0  0  0  0  0  0  0  0  0
  152.3666  140.0763  154.6986 H   0  0  0  0  0  0  0  0  0  0  0  0
  153.3016  138.6392  155.1065 H   0  0  0  0  0  0  0  0  0  0  0  0
  151.5485  137.2094  154.5067 H   0  0  0  0  0  0  0  0  0  0  0  0
  151.1386  138.5224  153.4366 H   0  0  0  0  0  0  0  0  0  0  0  0
  147.2270  128.5206  154.3403 H   0  0  0  0  0  0  0  0  0  0  0  0
  148.9806  128.7001  154.2864 H   0  0  0  0  0  0  0  0  0  0  0  0
  148.0755  128.4499  152.7947 H   0  0  0  0  0  0  0  0  0  0  0  0
  1  2  1  0  0  0  0
  1 21  1  0  0  0  0
  1 22  1  0  0  0  0
  1 23  1  0  0  0  0
  2 19  2  0  0  0  0
  2  3  1  0  0  0  0
  3  4  2  0  0  0  0
  4  5  1  0  0  0  0
  4 18  1  0  0  0  0
  5  6  1  0  0  0  0
  5 24  1  0  0  0  0
  6  7  2  0  0  0  0
  6  8  1  0  0  0  0
  8  9  1  0  0  0  0
  8 25  1  0  0  0  0
  9 10  1  0  0  0  0
  9 26  1  0  0  0  0
  9 27  1  0  0  0  0
 10 17  1  0  0  0  0
 10 11  1  0  0  0  0
 10 14  1  0  0  0  0
 11 12  1  0  0  0  0
 11 28  1  0  0  0  0
 11 29  1  0  0  0  0
 12 13  1  0  0  0  0
 12 30  1  0  0  0  0
 12 31  1  0  0  0  0
 13 32  1  0  0  0  0
 14 15  1  0  0  0  0
 14 33  1  0  0  0  0
 14 34  1  0  0  0  0
 15 16  1  0  0  0  0
 15 35  1  0  0  0  0
 15 36  1  0  0  0  0
 16 17  1  0  0  0  0
 16 37  1  0  0  0  0
 16 38  1  0  0  0  0
 17 39  1  0  0  0  0
 17 40  1  0  0  0  0
 18 19  1  0  0  0  0
 19 20  1  0  0  0  0
 20 41  1  0  0  0  0
 20 42  1  0  0  0  0
 20 43  1  0  0  0  0
M  END
> <s_m_source_file>
AV-unprocessed.smi

> <i_m_source_file_index>
733

> <i_lp_mmshare_version>
43012

> <i_f3d_flags>
0

> <s_epik_input>
W0NIM11jMW5jKHNjMVtDSDNdKVtOSF1DKD1PKVtOSF1bQ0gyXUMyKFtDSDJdW0NIMl1bT0hdKVtDSDJdW0NIMl1bQ0gyXVtDSDJdMg==

> <s_epik_cmdline>
J2VwaWtfcHl0aG9uJywgJy1waCcsICc3LjAnLCAnLXRuJywgJzgnLCAnLW1hJywgJzIwMCcsICctbWV0YWxfYmluZGluZycsICctaW1hZScsICc8aW5maWxlLm1hZT4nLCAnLW9tYWUnLCAnPG91dGZpbGUubWFlPic=

> <r_lp_tautomer_probability>
0.999

> <r_epik_Ionization_Penalty>
0.000695797

> <r_epik_Ionization_Penalty_Charging>
0

> <r_epik_Ionization_Penalty_Neutral>
0.000695797

> <r_epik_State_Penalty>
0.000177984

> <r_epik_Charging_Adjusted_Penalty>
0.000177984

> <i_epik_Tot_Q>
0

> <i_epik_Tot_abs_Q>
0

> <r_epik_Metal_State_Penalty>
-0

> <b_epik_Metal_Only>
0

> <s_lp_Force_Field>
OPLS_2005

> <r_lp_Energy>
29.226

> <b_lp_Chiralities_Consistent>
1

> <s_lp_Variant>
AV-unprocessed.smi:733-1

> <Gold.Version>
5.8.1

> <Gold.Id.Protein>
6NUR|6NUR_protein|mol2

> <Gold.PLP.Fitness>
42.8165

> <Gold.PLP.PLP>
-32.5230

> <Gold.PLP.part.hbond>
-4.3978

> <Gold.PLP.part.metal>
0.0000

> <Gold.PLP.part.buried>
-2.5312

> <Gold.PLP.part.nonpolar>
-25.4781

> <Gold.PLP.part.repulsive>
0.1375

> <Gold.PLP.ligand.clash>
0.0000

> <Gold.PLP.ligand.torsion>
0.8709

> <Gold.PLP.Chemscore.Hbond>
3.9908

> <Gold.PLP.Chemscore.CHOScore>
0.0000

> <Gold.PLP.Chemscore.Metal>
0.0000

> <Gold.Chemscore.Hbonds>
donor molecule, donor type, donor heavy atom, donor atom, acceptor molecule, acceptor atom, score
      L1  H     5    24       P1  7948  1.00
      L1  H     8    25       P1  7948  1.00
      L1  H    13    32       P1  7957  0.49
      P1  H  7989  7998       L1    13  0.10
      P1  H  8011  8017       L1    13  1.00

> <Gold.PLP.Chemscore.Internal.Correction>
0.0628

> <Gold.Rescore>
     Score         DG    S(hbond)    S(metal)    S(lipo)     H(rot)  DE(clash)    DE(int)     intcor
     16.48     -17.31       2.77        0.00      72.24       2.30       0.04       0.79       ----

> <Gold.Chemscore.Fitness>
16.4806

> <Gold.Chemscore.DG>
-17.3059

> <Gold.Chemscore.ZeroCoef>
-5.4800

> <Gold.Chemscore.Hbond>
2.7721

> <Gold.Chemscore.Metal>
0.0000

> <Gold.Chemscore.Lipo>
72.2429

> <Gold.Chemscore.Internal_Hbond>
0.0000

> <Gold.Chemscore.DEClash>
0.0383

> <Gold.Chemscore.DEInternal>
0.7870

> <Gold.Chemscore.Rot>
2.2990

> <Gold.Chemscore.Internal.Correction>
   9.000000E+99

> <Gold.Chemscore.Hbonds>
donor molecule, donor type, donor heavy atom, donor atom, acceptor molecule, acceptor atom, score
      L1  H     5    24       P1  7948  0.40
      L1  H     8    25       P1  7948  0.91
      L1  H    13    32       P1  7957  0.48
      P1  H  7989  7998       L1    13  0.02
      P1  H  8011  8017       L1    13  0.65

> <Gold.Chemscore.Hbond.Weighted>
-9.2589

> <Gold.Chemscore.Metal.Weighted>
-0.0000

> <Gold.Chemscore.Lipo.Weighted>
-8.4524

> <Gold.Chemscore.Internal_Hbond.Weighted>
0.0000

> <Gold.Chemscore.DEClash.Weighted>
0.0383

> <Gold.Chemscore.DEInternal.Weighted>
0.7870

> <Gold.Chemscore.Rot.Weighted>
5.8854

> <Gold.Chemscore.Internal.Correction.Weighted>
   9.000000E+99

> <Gold.Protein.RotatedTorsions>
[ 6907 6896 6895 6894 ] final  177.42 input  -60.11 | X-H torsion
[ 7974 7965 7964 7962 ] final   76.55 input  175.53 | X-H torsion
[ 8008 7997 7996 7995 ] final  140.25 input   59.86 | X-H torsion
[ 10167 10162 10161 10158 ] final   30.94 input  -65.29 | X-H torsion
[ 10718 10713 10712 10709 ] final -151.61 input   66.30 | X-H torsion
[ 10763 10752 10751 10750 ] final -120.11 input  -60.55 | X-H torsion
[ 11005 11000 10999 10996 ] final   11.34 input  -57.11 | X-H torsion

> <Gold.Protein.ActiveResidues>
 VAL166  LYS551  ARG553  GLY616  TRP617  ASP618  TYR619  PRO620  LYS621  CYS622 
 ASP623  PHE694  ASN695  SER759  ASP760  ASP761  ALA762  ILE779  LEU786  VAL792 
 PHE793  MET794  SER795  GLU796  ALA797  LYS798  CYS799  TRP800  GLU811  SER814 

> <Gold.Protein.RotatedAtoms>
  151.7042  133.3311  159.3274 H   0  0  0  0  0  0  0  0  0  0  0  0  # atno 6907 bound_to 6896
  150.7722  134.6589  159.6338 H   0  0  0  0  0  0  0  0  0  0  0  0  # atno 6908 bound_to 6896
  152.3751  134.6679  160.0214 H   0  0  0  0  0  0  0  0  0  0  0  0  # atno 6909 bound_to 6896
  145.7014  139.2584  143.1703 H   0  0  0  0  0  0  0  0  0  0  0  0  # atno 7974 bound_to 7965
  156.2981  140.2346  156.4370 H   0  0  0  0  0  0  0  0  0  0  0  0  # atno 8008 bound_to 7997
  154.8220  140.0437  157.1437 H   0  0  0  0  0  0  0  0  0  0  0  0  # atno 8009 bound_to 7997
  154.9304  140.3016  155.5174 H   0  0  0  0  0  0  0  0  0  0  0  0  # atno 8010 bound_to 7997
  140.4633  144.0873  150.6218 H   0  0  0  0  0  0  0  0  0  0  0  0  # atno 10167 bound_to 10162
  156.4615  130.8215  151.2446 H   0  0  0  0  0  0  0  0  0  0  0  0  # atno 10718 bound_to 10713
  154.8635  135.4214  154.2406 H   0  0  0  0  0  0  0  0  0  0  0  0  # atno 10763 bound_to 10752
  153.3372  135.6991  153.6903 H   0  0  0  0  0  0  0  0  0  0  0  0  # atno 10764 bound_to 10752
  153.5896  135.3557  155.2879 H   0  0  0  0  0  0  0  0  0  0  0  0  # atno 10765 bound_to 10752
  140.5043  134.0715  155.7801 H   0  0  0  0  0  0  0  0  0  0  0  0  # atno 11005 bound_to 11000
  146.0795  140.7780  142.9649 LP  0  0  0  0  0  0  0  0  0  0  0  0  # atno 17320 bound_to 7965
  144.6967  140.3466  143.7189 LP  0  0  0  0  0  0  0  0  0  0  0  0  # atno 17321 bound_to 7965
  140.4067  143.2677  151.9883 LP  0  0  0  0  0  0  0  0  0  0  0  0  # atno 17342 bound_to 10162
  139.4809  144.5951  151.7704 LP  0  0  0  0  0  0  0  0  0  0  0  0  # atno 17343 bound_to 10162
  157.7497  131.0106  150.3311 LP  0  0  0  0  0  0  0  0  0  0  0  0  # atno 17370 bound_to 10713
  156.3712  130.3864  149.7174 LP  0  0  0  0  0  0  0  0  0  0  0  0  # atno 17371 bound_to 10713
  141.1419  133.9123  157.2305 LP  0  0  0  0  0  0  0  0  0  0  0  0  # atno 17394 bound_to 11000
  139.9695  135.0132  156.9476 LP  0  0  0  0  0  0  0  0  0  0  0  0  # atno 17395 bound_to 11000

$$$$
