AV-unprocessed.smi:899|AV-procd|sdf|4087|dock3
  -GOLD-   22720 1573D 1   1.00000     0.00000
 Structure written by MMmdl.
 33 34  0  0  0  0  0  0  0  0  1 V2000
  152.0585  146.5532  160.0540 N   0  0  0  0  0  0  0  0  0  0  0  0
  151.9780  145.4860  159.6147 C   0  0  0  0  0  0  0  0  0  0  0  0
  151.8759  144.1291  159.0565 C   0  0  0  0  0  0  0  0  0  0  0  0
  152.6318  143.1126  159.8869 C   0  0  0  0  0  0  0  0  0  0  0  0
  152.6724  143.2368  161.2893 C   0  0  0  0  0  0  0  0  0  0  0  0
  153.3729  142.2909  162.0619 C   0  0  0  0  0  0  0  0  0  0  0  0
  154.0396  141.2092  161.4503 C   0  0  0  0  0  0  0  0  0  0  0  0
  154.6951  140.3277  162.2828 O   0  0  0  0  0  0  0  0  0  0  0  0
  155.0007  139.0331  161.7843 C   0  0  0  0  0  0  0  0  0  0  0  0
  153.9211  138.0549  162.2728 C   0  0  0  0  0  0  0  0  0  0  0  0
  154.3736  136.6861  162.2977 N   0  0  0  0  0  0  0  0  0  0  0  0
  154.2247  135.8731  163.4107 C   0  0  0  0  0  0  0  0  0  0  0  0
  154.6592  134.5904  163.4566 C   0  0  0  0  0  0  0  0  0  0  0  0
  154.4369  133.6395  164.8815 Cl  0  0  0  0  0  0  0  0  0  0  0  0
  155.3253  134.0013  162.2953 C   0  0  0  0  0  0  0  0  0  0  0  0
  155.7551  132.8515  162.2279 O   0  0  0  0  0  0  0  0  0  0  0  0
  155.4604  134.8599  161.1999 N   0  0  0  0  0  0  0  0  0  0  0  0
  155.0181  136.1820  161.1447 C   0  0  0  0  0  0  0  0  0  0  0  0
  155.1999  136.8484  160.1255 O   0  0  0  0  0  0  0  0  0  0  0  0
  153.9974  141.0923  160.0377 C   0  0  0  0  0  0  0  0  0  0  0  0
  153.2976  142.0387  159.2640 C   0  0  0  0  0  0  0  0  0  0  0  0
  155.9194  134.4922  160.3791 H   0  0  0  0  0  0  0  0  0  0  0  0
  150.8219  143.8548  159.0059 H   0  0  0  0  0  0  0  0  0  0  0  0
  152.2596  144.1471  158.0361 H   0  0  0  0  0  0  0  0  0  0  0  0
  152.1667  144.0583  161.7755 H   0  0  0  0  0  0  0  0  0  0  0  0
  153.3969  142.3959  163.1367 H   0  0  0  0  0  0  0  0  0  0  0  0
  155.0294  139.0490  160.6937 H   0  0  0  0  0  0  0  0  0  0  0  0
  155.9788  138.7127  162.1470 H   0  0  0  0  0  0  0  0  0  0  0  0
  153.6177  138.2946  163.2930 H   0  0  0  0  0  0  0  0  0  0  0  0
  153.0136  138.0944  161.6662 H   0  0  0  0  0  0  0  0  0  0  0  0
  153.7407  136.2782  164.2883 H   0  0  0  0  0  0  0  0  0  0  0  0
  154.4936  140.2845  159.5218 H   0  0  0  0  0  0  0  0  0  0  0  0
  153.2735  141.9362  158.1890 H   0  0  0  0  0  0  0  0  0  0  0  0
  1  2  3  0  0  0  0
  2  3  1  0  0  0  0
  3  4  1  0  0  0  0
  3 23  1  0  0  0  0
  3 24  1  0  0  0  0
  4 21  1  0  0  0  0
  4  5  2  0  0  0  0
  5  6  1  0  0  0  0
  5 25  1  0  0  0  0
  6  7  2  0  0  0  0
  6 26  1  0  0  0  0
  7  8  1  0  0  0  0
  7 20  1  0  0  0  0
  8  9  1  0  0  0  0
  9 10  1  0  0  0  0
  9 27  1  0  0  0  0
  9 28  1  0  0  0  0
 10 11  1  0  0  0  0
 10 29  1  0  0  0  0
 10 30  1  0  0  0  0
 11 18  1  0  0  0  0
 11 12  1  0  0  0  0
 12 13  2  0  0  0  0
 12 31  1  0  0  0  0
 13 14  1  0  0  0  0
 13 15  1  0  0  0  0
 15 16  2  0  0  0  0
 15 17  1  0  0  0  0
 17 22  1  0  0  0  0
 17 18  1  0  0  0  0
 18 19  2  0  0  0  0
 20 21  2  0  0  0  0
 20 32  1  0  0  0  0
 21 33  1  0  0  0  0
M  END
> <s_m_source_file>
AV-unprocessed.smi

> <i_m_source_file_index>
899

> <i_lp_mmshare_version>
43012

> <i_f3d_flags>
0

> <s_epik_input>
TiNDW0NIMl1jMVtjSF1bY0hdYyhbY0hdW2NIXTEpT1tDSDJdW0NIMl1uMltjSF1jKENsKWMoPU8pW25IXWMyPU8=

> <s_epik_cmdline>
J2VwaWtfcHl0aG9uJywgJy1waCcsICc3LjAnLCAnLXRuJywgJzgnLCAnLW1hJywgJzIwMCcsICctbWV0YWxfYmluZGluZycsICctaW1hZScsICc8aW5maWxlLm1hZT4nLCAnLW9tYWUnLCAnPG91dGZpbGUubWFlPic=

> <r_lp_tautomer_probability>
0.999537

> <r_epik_Ionization_Penalty>
0.0457407

> <r_epik_Ionization_Penalty_Charging>
0.0457407

> <r_epik_Ionization_Penalty_Neutral>
1.03254e-10

> <r_epik_State_Penalty>
0.0388483

> <r_epik_Charging_Adjusted_Penalty>
0.0845889

> <i_epik_Tot_Q>
0

> <i_epik_Tot_abs_Q>
0

> <r_epik_Metal_State_Penalty>
2.50663

> <b_epik_Metal_Only>
0

> <s_lp_Force_Field>
OPLS_2005

> <r_lp_Energy>
13.2906

> <b_lp_Chiralities_Consistent>
1

> <s_lp_Variant>
AV-unprocessed.smi:899-1

> <Gold.Version>
5.8.1

> <Gold.Id.Protein>
6NUR|6NUR_protein|mol2

> <Gold.PLP.Fitness>
46.0513

> <Gold.PLP.PLP>
-48.2075

> <Gold.PLP.part.hbond>
-2.0000

> <Gold.PLP.part.metal>
0.0000

> <Gold.PLP.part.buried>
-4.4467

> <Gold.PLP.part.nonpolar>
-41.6247

> <Gold.PLP.part.repulsive>
0.5116

> <Gold.PLP.ligand.clash>
0.0000

> <Gold.PLP.ligand.torsion>
1.1013

> <Gold.PLP.Chemscore.Hbond>
0.0000

> <Gold.PLP.Chemscore.CHOScore>
0.0000

> <Gold.PLP.Chemscore.Metal>
0.0000

> <Gold.PLP.Chemscore.Internal.Correction>
0.0463

> <Gold.Rescore>
     Score         DG    S(hbond)    S(metal)    S(lipo)     H(rot)  DE(clash)    DE(int)     intcor
      8.96     -12.86       0.00        0.00     113.79       2.32       1.55       2.34       ----

> <Gold.Chemscore.Fitness>
8.9644

> <Gold.Chemscore.DG>
-12.8610

> <Gold.Chemscore.ZeroCoef>
-5.4800

> <Gold.Chemscore.Hbond>
0.0000

> <Gold.Chemscore.Metal>
0.0000

> <Gold.Chemscore.Lipo>
113.7896

> <Gold.Chemscore.Internal_Hbond>
0.0000

> <Gold.Chemscore.DEClash>
1.5540

> <Gold.Chemscore.DEInternal>
2.3426

> <Gold.Chemscore.Rot>
2.3174

> <Gold.Chemscore.Internal.Correction>
   9.000000E+99

> <Gold.Chemscore.Hbond.Weighted>
-0.0000

> <Gold.Chemscore.Metal.Weighted>
-0.0000

> <Gold.Chemscore.Lipo.Weighted>
-13.3134

> <Gold.Chemscore.Internal_Hbond.Weighted>
0.0000

> <Gold.Chemscore.DEClash.Weighted>
1.5540

> <Gold.Chemscore.DEInternal.Weighted>
2.3426

> <Gold.Chemscore.Rot.Weighted>
5.9324

> <Gold.Chemscore.Internal.Correction.Weighted>
   9.000000E+99

> <Gold.Protein.RotatedTorsions>
[ 6907 6896 6895 6894 ] final  113.23 input  -60.11 | X-H torsion
[ 7974 7965 7964 7962 ] final -122.39 input  175.53 | X-H torsion
[ 8008 7997 7996 7995 ] final  -68.81 input   59.86 | X-H torsion
[ 10167 10162 10161 10158 ] final   52.73 input  -65.29 | X-H torsion
[ 10718 10713 10712 10709 ] final  153.61 input   66.30 | X-H torsion
[ 10763 10752 10751 10750 ] final  166.03 input  -60.55 | X-H torsion
[ 11005 11000 10999 10996 ] final  145.32 input  -57.11 | X-H torsion

> <Gold.Protein.ActiveResidues>
 VAL166  LYS551  ARG553  GLY616  TRP617  ASP618  TYR619  PRO620  LYS621  CYS622 
 ASP623  PHE694  ASN695  SER759  ASP760  ASP761  ALA762  ILE779  LEU786  VAL792 
 PHE793  MET794  SER795  GLU796  ALA797  LYS798  CYS799  TRP800  GLU811  SER814 

> <Gold.Protein.RotatedAtoms>
  152.4872  133.8404  159.7149 H   0  0  0  0  0  0  0  0  0  0  0  0  # atno 6907 bound_to 6896
  150.8969  133.7159  159.2896 H   0  0  0  0  0  0  0  0  0  0  0  0  # atno 6908 bound_to 6896
  151.4614  135.1042  159.9778 H   0  0  0  0  0  0  0  0  0  0  0  0  # atno 6909 bound_to 6896
  145.0300  140.8060  143.4329 H   0  0  0  0  0  0  0  0  0  0  0  0  # atno 7974 bound_to 7965
  154.4894  140.0865  156.7560 H   0  0  0  0  0  0  0  0  0  0  0  0  # atno 8008 bound_to 7997
  155.4269  140.3448  155.4258 H   0  0  0  0  0  0  0  0  0  0  0  0  # atno 8009 bound_to 7997
  156.1308  140.1501  156.9056 H   0  0  0  0  0  0  0  0  0  0  0  0  # atno 8010 bound_to 7997
  140.2483  144.3507  150.6356 H   0  0  0  0  0  0  0  0  0  0  0  0  # atno 10167 bound_to 10162
  157.2424  131.0762  151.1783 H   0  0  0  0  0  0  0  0  0  0  0  0  # atno 10718 bound_to 10713
  154.3329  135.2754  155.2462 H   0  0  0  0  0  0  0  0  0  0  0  0  # atno 10763 bound_to 10752
  154.4766  135.5869  153.6363 H   0  0  0  0  0  0  0  0  0  0  0  0  # atno 10764 bound_to 10752
  152.9864  135.6101  154.3524 H   0  0  0  0  0  0  0  0  0  0  0  0  # atno 10765 bound_to 10752
  140.0703  134.9155  157.1333 H   0  0  0  0  0  0  0  0  0  0  0  0  # atno 11005 bound_to 11000
  145.1783  139.2366  143.5306 LP  0  0  0  0  0  0  0  0  0  0  0  0  # atno 17320 bound_to 7965
  146.3497  140.1551  142.8591 LP  0  0  0  0  0  0  0  0  0  0  0  0  # atno 17321 bound_to 7965
  140.6060  143.2168  151.6979 LP  0  0  0  0  0  0  0  0  0  0  0  0  # atno 17342 bound_to 10162
  139.5054  144.3717  152.0463 LP  0  0  0  0  0  0  0  0  0  0  0  0  # atno 17343 bound_to 10162
  157.3364  130.7011  149.6355 LP  0  0  0  0  0  0  0  0  0  0  0  0  # atno 17370 bound_to 10713
  155.9669  130.4292  150.4824 LP  0  0  0  0  0  0  0  0  0  0  0  0  # atno 17371 bound_to 10713
  140.3637  134.2465  155.7184 LP  0  0  0  0  0  0  0  0  0  0  0  0  # atno 17394 bound_to 11000
  141.2009  133.7976  157.0467 LP  0  0  0  0  0  0  0  0  0  0  0  0  # atno 17395 bound_to 11000

$$$$
