AV-unprocessed.smi:2358|AV-procd|sdf|9404|dock7
  -GOLD-   2272013 33D 1   1.00000     0.00000
 Structure written by MMmdl.
 45 47  0  0  0  0  0  0  0  0  1 V2000
  151.5560  145.2632  158.7249 C   0  0  0  0  0  0  0  0  0  0  0  0
  151.9589  143.8534  159.1055 C   0  0  0  0  0  0  0  0  0  0  0  0
  152.5939  143.6044  160.3384 C   0  0  0  0  0  0  0  0  0  0  0  0
  152.9648  142.2918  160.6891 C   0  0  0  0  0  0  0  0  0  0  0  0
  153.6418  142.0297  162.0183 C   0  0  0  0  0  0  0  0  0  0  0  0
  152.6991  141.2291  159.8017 C   0  0  0  0  0  0  0  0  0  0  0  0
  152.0677  141.4612  158.5627 C   0  0  0  0  0  0  0  0  0  0  0  0
  151.8498  140.3630  157.7584 O   0  0  0  0  0  0  0  0  0  0  0  0
  151.6676  140.5727  156.3642 C   0  0  0  0  0  0  0  0  0  0  0  0
  150.8988  139.3754  155.7781 C   0  0  1  0  0  0  0  0  0  0  0  0
  150.7027  139.6467  154.4040 O   0  0  0  0  0  0  0  0  0  0  0  0
  151.6982  138.0582  155.8973 C   0  0  0  0  0  0  0  0  0  0  0  0
  150.8429  136.8808  155.7029 N   0  0  0  0  0  0  0  0  0  0  0  0
  149.5807  137.1754  155.2150 N   0  0  0  0  0  0  0  0  0  0  0  0
  148.7242  136.2332  154.9850 C   0  0  0  0  0  0  0  0  0  0  0  0
  147.3897  136.4712  154.4729 N   0  0  0  0  0  0  0  0  0  0  0  0
  147.0083  137.7648  154.1228 C   0  0  0  0  0  0  0  0  0  0  0  0
  145.7085  137.6678  153.6779 C   0  0  0  0  0  0  0  0  0  0  0  0
  145.2796  136.3425  153.7459 N   0  0  0  0  0  0  0  0  0  0  0  0
  146.3296  135.6880  154.2265 C   0  0  0  0  0  0  0  0  0  0  0  0
  149.0809  134.8480  155.2401 C   0  0  0  0  0  0  0  0  0  0  0  0
  150.3158  134.5703  155.7114 C   0  0  0  0  0  0  0  0  0  0  0  0
  151.2989  135.6215  155.9705 C   0  0  0  0  0  0  0  0  0  0  0  0
  152.4345  135.3933  156.3859 O   0  0  0  0  0  0  0  0  0  0  0  0
  151.6991  142.7868  158.2207 C   0  0  0  0  0  0  0  0  0  0  0  0
  151.5947  145.9327  159.5848 H   0  0  0  0  0  0  0  0  0  0  0  0
  150.5385  145.2758  158.3328 H   0  0  0  0  0  0  0  0  0  0  0  0
  152.2251  145.6519  157.9573 H   0  0  0  0  0  0  0  0  0  0  0  0
  152.7968  144.4194  161.0183 H   0  0  0  0  0  0  0  0  0  0  0  0
  154.0254  141.0105  162.0744 H   0  0  0  0  0  0  0  0  0  0  0  0
  152.9344  142.1746  162.8350 H   0  0  0  0  0  0  0  0  0  0  0  0
  154.4776  142.7149  162.1612 H   0  0  0  0  0  0  0  0  0  0  0  0
  152.9814  140.2214  160.0702 H   0  0  0  0  0  0  0  0  0  0  0  0
  151.1456  141.5093  156.1594 H   0  0  0  0  0  0  0  0  0  0  0  0
  152.6544  140.6336  155.9029 H   0  0  0  0  0  0  0  0  0  0  0  0
  149.9364  139.2789  156.2830 H   0  0  0  0  0  0  0  0  0  0  0  0
  150.3265  138.8810  153.9970 H   0  0  0  0  0  0  0  0  0  0  0  0
  152.5596  138.0553  155.2263 H   0  0  0  0  0  0  0  0  0  0  0  0
  152.1307  137.9844  156.8967 H   0  0  0  0  0  0  0  0  0  0  0  0
  147.6546  138.6267  154.2086 H   0  0  0  0  0  0  0  0  0  0  0  0
  145.0526  138.4459  153.3160 H   0  0  0  0  0  0  0  0  0  0  0  0
  146.3160  134.6219  154.3981 H   0  0  0  0  0  0  0  0  0  0  0  0
  148.3782  134.0491  155.0587 H   0  0  0  0  0  0  0  0  0  0  0  0
  150.5875  133.5424  155.9025 H   0  0  0  0  0  0  0  0  0  0  0  0
  151.2138  143.0103  157.2829 H   0  0  0  0  0  0  0  0  0  0  0  0
  1  2  1  0  0  0  0
  1 26  1  0  0  0  0
  1 27  1  0  0  0  0
  1 28  1  0  0  0  0
  2 25  1  0  0  0  0
  2  3  2  0  0  0  0
  3  4  1  0  0  0  0
  3 29  1  0  0  0  0
  4  5  1  0  0  0  0
  4  6  2  0  0  0  0
  5 30  1  0  0  0  0
  5 31  1  0  0  0  0
  5 32  1  0  0  0  0
  6  7  1  0  0  0  0
  6 33  1  0  0  0  0
  7  8  1  0  0  0  0
  7 25  2  0  0  0  0
  8  9  1  0  0  0  0
  9 10  1  0  0  0  0
  9 34  1  0  0  0  0
  9 35  1  0  0  0  0
 10 11  1  0  0  0  0
 10 12  1  0  0  0  0
 10 36  1  0  0  0  0
 11 37  1  0  0  0  0
 12 13  1  0  0  0  0
 12 38  1  0  0  0  0
 12 39  1  0  0  0  0
 13 23  1  0  0  0  0
 13 14  1  0  0  0  0
 14 15  2  0  0  0  0
 15 16  1  0  0  0  0
 15 21  1  0  0  0  0
 16 20  1  0  0  0  0
 16 17  1  0  0  0  0
 17 18  2  0  0  0  0
 17 40  1  0  0  0  0
 18 19  1  0  0  0  0
 18 41  1  0  0  0  0
 19 20  2  0  0  0  0
 20 42  1  0  0  0  0
 21 22  2  0  0  0  0
 21 43  1  0  0  0  0
 22 23  1  0  0  0  0
 22 44  1  0  0  0  0
 23 24  2  0  0  0  0
 25 45  1  0  0  0  0
M  END
> <s_m_source_file>
AV-unprocessed.smi

> <i_m_source_file_index>
2358

> <i_lp_mmshare_version>
43012

> <i_f3d_flags>
0

> <s_epik_input>
W0NIM11jMVtjSF1jKFtDSDNdKVtjSF1jKFtjSF0xKU9bQ0gyXVtDQEhdKFtPSF0pW0NIMl1uMm5jKFtjSF1bY0hdYzI9TyktbjNbY0hdW2NIXW5bY0hdMw==

> <s_epik_cmdline>
J2VwaWtfcHl0aG9uJywgJy1waCcsICc3LjAnLCAnLXRuJywgJzgnLCAnLW1hJywgJzIwMCcsICctbWV0YWxfYmluZGluZycsICctaW1hZScsICc8aW5maWxlLm1hZT4nLCAnLW9tYWUnLCAnPG91dGZpbGUubWFlPic=

> <r_lp_tautomer_probability>
1

> <r_epik_Ionization_Penalty>
0.03707

> <r_epik_Ionization_Penalty_Charging>
0.0370699

> <r_epik_Ionization_Penalty_Neutral>
1.17174e-07

> <r_epik_State_Penalty>
0.0310055

> <r_epik_Charging_Adjusted_Penalty>
0.0680754

> <i_epik_Tot_Q>
0

> <i_epik_Tot_abs_Q>
0

> <r_epik_Metal_State_Penalty>
0.0291724

> <b_epik_Metal_Only>
0

> <s_lp_Force_Field>
OPLS_2005

> <r_lp_Energy>
35.3101

> <b_lp_Chiralities_Consistent>
1

> <s_lp_Variant>
AV-unprocessed.smi:2358-2

> <Gold.Version>
5.8.1

> <Gold.Id.Protein>
6NUR|6NUR_protein|mol2

> <Gold.PLP.Fitness>
48.3151

> <Gold.PLP.PLP>
-40.6491

> <Gold.PLP.part.hbond>
-2.0000

> <Gold.PLP.part.metal>
0.0000

> <Gold.PLP.part.buried>
-4.6781

> <Gold.PLP.part.nonpolar>
-32.6894

> <Gold.PLP.part.repulsive>
0.2116

> <Gold.PLP.ligand.clash>
0.0000

> <Gold.PLP.ligand.torsion>
0.6991

> <Gold.PLP.Chemscore.Hbond>
2.0000

> <Gold.PLP.Chemscore.CHOScore>
1.0000

> <Gold.PLP.Chemscore.Metal>
0.0000

> <Gold.Chemscore.Hbonds>
donor molecule, donor type, donor heavy atom, donor atom, acceptor molecule, acceptor atom, score
      P1  H  7989  7998       L1    11  1.00
      P1  H 10752 10763       L1    24  0.81
      L1  C    18    41       P1 10175  0.87

> <Gold.PLP.Chemscore.Internal.Correction>
0.0641

> <Gold.Rescore>
     Score         DG    S(hbond)    S(metal)    S(lipo)     H(rot)  DE(clash)    DE(int)     intcor
     17.17     -19.29       1.93        0.00     119.88       2.60       0.04       2.08       ----

> <Gold.Chemscore.Fitness>
17.1709

> <Gold.Chemscore.DG>
-19.2912

> <Gold.Chemscore.ZeroCoef>
-5.4800

> <Gold.Chemscore.Hbond>
1.9274

> <Gold.Chemscore.Metal>
0.0000

> <Gold.Chemscore.Lipo>
119.8814

> <Gold.Chemscore.Internal_Hbond>
0.0000

> <Gold.Chemscore.DEClash>
0.0426

> <Gold.Chemscore.DEInternal>
2.0777

> <Gold.Chemscore.Rot>
2.5986

> <Gold.Chemscore.Internal.Correction>
   9.000000E+99

> <Gold.Chemscore.Hbonds>
donor molecule, donor type, donor heavy atom, donor atom, acceptor molecule, acceptor atom, score
      P1  H  7989  7998       L1    11  0.98
      P1  H 10752 10763       L1    24  0.49

> <Gold.Chemscore.Hbond.Weighted>
-6.4374

> <Gold.Chemscore.Metal.Weighted>
-0.0000

> <Gold.Chemscore.Lipo.Weighted>
-14.0261

> <Gold.Chemscore.Internal_Hbond.Weighted>
0.0000

> <Gold.Chemscore.DEClash.Weighted>
0.0426

> <Gold.Chemscore.DEInternal.Weighted>
2.0777

> <Gold.Chemscore.Rot.Weighted>
6.6524

> <Gold.Chemscore.Internal.Correction.Weighted>
   9.000000E+99

> <Gold.Protein.RotatedTorsions>
[ 6907 6896 6895 6894 ] final   33.18 input  -60.11 | X-H torsion
[ 7974 7965 7964 7962 ] final   84.26 input  175.53 | X-H torsion
[ 8008 7997 7996 7995 ] final -113.31 input   59.86 | X-H torsion
[ 10167 10162 10161 10158 ] final -125.35 input  -65.29 | X-H torsion
[ 10718 10713 10712 10709 ] final -153.94 input   66.30 | X-H torsion
[ 10763 10752 10751 10750 ] final  104.92 input  -60.55 | X-H torsion
[ 11005 11000 10999 10996 ] final  -50.91 input  -57.11 | X-H torsion

> <Gold.Protein.ActiveResidues>
 VAL166  LYS551  ARG553  GLY616  TRP617  ASP618  TYR619  PRO620  LYS621  CYS622 
 ASP623  PHE694  ASN695  SER759  ASP760  ASP761  ALA762  ILE779  LEU786  VAL792 
 PHE793  MET794  SER795  GLU796  ALA797  LYS798  CYS799  TRP800  GLU811  SER814 

> <Gold.Protein.RotatedAtoms>
  152.0849  134.9446  160.0572 H   0  0  0  0  0  0  0  0  0  0  0  0  # atno 6907 bound_to 6896
  152.0720  133.4106  159.4472 H   0  0  0  0  0  0  0  0  0  0  0  0  # atno 6908 bound_to 6896
  150.6836  134.3000  159.4746 H   0  0  0  0  0  0  0  0  0  0  0  0  # atno 6909 bound_to 6896
  145.6011  139.2352  143.2245 H   0  0  0  0  0  0  0  0  0  0  0  0  # atno 7974 bound_to 7965
  155.0187  140.0393  157.2428 H   0  0  0  0  0  0  0  0  0  0  0  0  # atno 8008 bound_to 7997
  154.7397  140.2746  155.6360 H   0  0  0  0  0  0  0  0  0  0  0  0  # atno 8009 bound_to 7997
  156.2861  140.2668  156.2121 H   0  0  0  0  0  0  0  0  0  0  0  0  # atno 8010 bound_to 7997
  139.9831  143.5721  152.2371 H   0  0  0  0  0  0  0  0  0  0  0  0  # atno 10167 bound_to 10162
  156.4926  130.8354  151.2577 H   0  0  0  0  0  0  0  0  0  0  0  0  # atno 10718 bound_to 10713
  153.3724  135.3927  155.1798 H   0  0  0  0  0  0  0  0  0  0  0  0  # atno 10763 bound_to 10752
  154.8696  135.3705  154.4961 H   0  0  0  0  0  0  0  0  0  0  0  0  # atno 10764 bound_to 10752
  153.5430  135.7084  153.5688 H   0  0  0  0  0  0  0  0  0  0  0  0  # atno 10765 bound_to 10752
  141.0842  133.6646  156.3799 H   0  0  0  0  0  0  0  0  0  0  0  0  # atno 11005 bound_to 11000
  146.1575  140.6836  142.9293 LP  0  0  0  0  0  0  0  0  0  0  0  0  # atno 17320 bound_to 7965
  144.7309  140.4669  143.6938 LP  0  0  0  0  0  0  0  0  0  0  0  0  # atno 17321 bound_to 7965
  139.6395  144.7653  151.2368 LP  0  0  0  0  0  0  0  0  0  0  0  0  # atno 17342 bound_to 10162
  140.7482  143.6341  150.8395 LP  0  0  0  0  0  0  0  0  0  0  0  0  # atno 17343 bound_to 10162
  157.7472  131.0008  150.2940 LP  0  0  0  0  0  0  0  0  0  0  0  0  # atno 17370 bound_to 10713
  156.3411  130.3815  149.7408 LP  0  0  0  0  0  0  0  0  0  0  0  0  # atno 17371 bound_to 10713
  140.5401  134.6129  157.5377 LP  0  0  0  0  0  0  0  0  0  0  0  0  # atno 17394 bound_to 11000
  139.9658  134.7375  156.0141 LP  0  0  0  0  0  0  0  0  0  0  0  0  # atno 17395 bound_to 11000

$$$$
