AV-unprocessed.smi:311|AV-procd|sdf|2301|dock7
  -GOLD-   2262022203D 1   1.00000     0.00000
 Structure written by MMmdl.
 44 46  0  0  0  0  0  0  0  0  2 V2000
  146.0711  143.2340  155.9563 C   0  0  0  0  0  0  0  0  0  0  0  0
  146.1901  141.9187  155.2411 C   0  0  0  0  0  0  0  0  0  0  0  0
  145.2002  141.0449  155.3127 N   0  0  0  0  0  0  0  0  0  0  0  0
  145.6121  139.9373  154.5652 O   0  0  0  0  0  0  0  0  0  0  0  0
  146.8500  140.1904  154.0690 C   0  0  0  0  0  0  0  0  0  0  0  0
  147.4748  139.1180  153.2423 C   0  0  0  0  0  0  0  0  0  0  0  0
  147.2755  141.4308  154.4578 C   0  0  0  0  0  0  0  0  0  0  0  0
  148.5794  142.1179  154.1426 C   0  0  0  0  0  0  0  0  0  0  0  0
  149.7161  141.4542  154.9214 C   0  0  0  0  0  0  0  0  0  0  0  0
  150.0555  140.3010  154.6565 O   0  0  0  0  0  0  0  0  0  0  0  0
  150.2959  142.1907  155.8824 N   0  0  0  0  0  0  0  0  0  0  0  0
  151.3532  141.7249  156.7779 C   0  0  2  0  0  0  0  0  0  0  0  0
  150.8924  140.5964  157.7193 C   0  0  0  0  0  0  0  0  0  0  0  0
  151.5812  140.9034  159.0532 C   0  0  0  0  0  0  0  0  0  0  0  0
  151.6092  142.3704  159.0755 N   0  3  1  0  0  0  0  0  0  0  0  0
  152.4198  143.0491  160.1066 C   0  0  0  0  0  0  0  0  0  0  0  0
  152.1233  144.5627  160.0380 C   0  0  0  0  0  0  0  0  0  0  0  0
  152.2951  145.1299  158.6102 C   0  0  0  0  0  0  0  0  0  0  0  0
  151.5285  144.2943  157.5617 C   0  0  0  0  0  0  0  0  0  0  0  0
  151.9340  142.8166  157.7094 C   0  0  2  0  0  0  0  0  0  0  0  0
  146.4767  144.0462  155.3534 H   0  0  0  0  0  0  0  0  0  0  0  0
  146.6190  143.2141  156.8985 H   0  0  0  0  0  0  0  0  0  0  0  0
  145.0323  143.4781  156.1809 H   0  0  0  0  0  0  0  0  0  0  0  0
  148.4833  138.8999  153.5938 H   0  0  0  0  0  0  0  0  0  0  0  0
  147.5394  139.4250  152.1985 H   0  0  0  0  0  0  0  0  0  0  0  0
  146.8952  138.1957  153.2887 H   0  0  0  0  0  0  0  0  0  0  0  0
  148.8133  142.0596  153.0792 H   0  0  0  0  0  0  0  0  0  0  0  0
  148.5314  143.1809  154.3828 H   0  0  0  0  0  0  0  0  0  0  0  0
  149.9553  143.1306  156.0257 H   0  0  0  0  0  0  0  0  0  0  0  0
  152.1699  141.3303  156.1697 H   0  0  0  0  0  0  0  0  0  0  0  0
  149.8104  140.6361  157.8567 H   0  0  0  0  0  0  0  0  0  0  0  0
  151.1402  139.6044  157.3402 H   0  0  0  0  0  0  0  0  0  0  0  0
  151.0464  140.4911  159.9095 H   0  0  0  0  0  0  0  0  0  0  0  0
  152.6007  140.5143  159.0588 H   0  0  0  0  0  0  0  0  0  0  0  0
  152.1648  142.6600  161.0931 H   0  0  0  0  0  0  0  0  0  0  0  0
  153.4803  142.8513  159.9433 H   0  0  0  0  0  0  0  0  0  0  0  0
  151.0988  144.7394  160.3683 H   0  0  0  0  0  0  0  0  0  0  0  0
  152.7656  145.1021  160.7348 H   0  0  0  0  0  0  0  0  0  0  0  0
  151.9638  146.1683  158.5773 H   0  0  0  0  0  0  0  0  0  0  0  0
  153.3557  145.1386  158.3553 H   0  0  0  0  0  0  0  0  0  0  0  0
  150.4529  144.4105  157.7019 H   0  0  0  0  0  0  0  0  0  0  0  0
  151.7620  144.6604  156.5618 H   0  0  0  0  0  0  0  0  0  0  0  0
  153.0190  142.7601  157.5972 H   0  0  0  0  0  0  0  0  0  0  0  0
  150.6524  142.6508  159.2373 H   0  0  0  0  0  0  0  0  0  0  0  0
  1  2  1  0  0  0  0
  1 21  1  0  0  0  0
  1 22  1  0  0  0  0
  1 23  1  0  0  0  0
  2  7  1  0  0  0  0
  2  3  2  0  0  0  0
  3  4  1  0  0  0  0
  4  5  1  0  0  0  0
  5  6  1  0  0  0  0
  5  7  2  0  0  0  0
  6 24  1  0  0  0  0
  6 25  1  0  0  0  0
  6 26  1  0  0  0  0
  7  8  1  0  0  0  0
  8  9  1  0  0  0  0
  8 27  1  0  0  0  0
  8 28  1  0  0  0  0
  9 10  2  0  0  0  0
  9 11  1  0  0  0  0
 11 12  1  0  0  0  0
 11 29  1  0  0  0  0
 12 20  1  0  0  0  0
 12 13  1  0  0  0  0
 12 30  1  0  0  0  0
 13 14  1  0  0  0  0
 13 31  1  0  0  0  0
 13 32  1  0  0  0  0
 14 15  1  0  0  0  0
 14 33  1  0  0  0  0
 14 34  1  0  0  0  0
 15 20  1  0  0  0  0
 15 16  1  0  0  0  0
 15 44  1  0  0  0  0
 16 17  1  0  0  0  0
 16 35  1  0  0  0  0
 16 36  1  0  0  0  0
 17 18  1  0  0  0  0
 17 37  1  0  0  0  0
 17 38  1  0  0  0  0
 18 19  1  0  0  0  0
 18 39  1  0  0  0  0
 18 40  1  0  0  0  0
 19 20  1  0  0  0  0
 19 41  1  0  0  0  0
 19 42  1  0  0  0  0
 20 43  1  0  0  0  0
M  CHG  1  15   1
M  END
> <s_m_source_file>
AV-unprocessed.smi

> <i_m_source_file_index>
311

> <i_lp_mmshare_version>
43012

> <i_f3d_flags>
0

> <s_epik_input>
W0NIM11jMW5vYyhbQ0gzXSljMVtDSDJdQyg9TylbTkhdW0NASF0oW0NIMl1bQ0gyXTIpW0NAQEhdKE4yMylbQ0gyXVtDSDJdW0NIMl1bQ0gyXTM=

> <s_epik_cmdline>
J2VwaWtfcHl0aG9uJywgJy1waCcsICc3LjAnLCAnLXRuJywgJzgnLCAnLW1hJywgJzIwMCcsICctbWV0YWxfYmluZGluZycsICctaW1hZScsICc8aW5maWxlLm1hZT4nLCAnLW9tYWUnLCAnPG91dGZpbGUubWFlPic=

> <r_epik_Ionization_Penalty>
0.00173669

> <r_epik_Ionization_Penalty_Charging>
0.0017366

> <r_epik_Ionization_Penalty_Neutral>
9.2145e-08

> <r_epik_State_Penalty>
0.00117499

> <r_epik_Charging_Adjusted_Penalty>
0.00291159

> <i_epik_Tot_Q>
1

> <i_epik_Tot_abs_Q>
1

> <r_epik_Metal_State_Penalty>
-0

> <b_epik_Metal_Only>
0

> <s_lp_Force_Field>
OPLS_2005

> <r_lp_Energy>
35.7975

> <b_lp_Chiralities_Consistent>
1

> <s_lp_Variant>
AV-unprocessed.smi:311-5

> <Gold.Version>
5.8.1

> <Gold.Id.Protein>
6NUR|6NUR_protein|mol2

> <Gold.PLP.Fitness>
42.3676

> <Gold.PLP.PLP>
-36.8370

> <Gold.PLP.part.hbond>
-2.0000

> <Gold.PLP.part.metal>
0.0000

> <Gold.PLP.part.buried>
-1.8241

> <Gold.PLP.part.nonpolar>
-33.0395

> <Gold.PLP.part.repulsive>
0.7128

> <Gold.PLP.ligand.clash>
0.0000

> <Gold.PLP.ligand.torsion>
0.2100

> <Gold.PLP.Chemscore.Hbond>
1.9833

> <Gold.PLP.Chemscore.CHOScore>
0.0000

> <Gold.PLP.Chemscore.Metal>
0.0000

> <Gold.Chemscore.Hbonds>
donor molecule, donor type, donor heavy atom, donor atom, acceptor molecule, acceptor atom, score
      L1  H    11    29       P1  8028  1.00
      P1  H  7989  7998       L1    10  0.69

> <Gold.PLP.Chemscore.Internal.Correction>
0.0006

> <Gold.Rescore>
     Score         DG    S(hbond)    S(metal)    S(lipo)     H(rot)  DE(clash)    DE(int)     intcor
     18.70     -19.98       1.56        0.00     109.00       1.36       0.93       0.35       ----

> <Gold.Chemscore.Fitness>
18.6958

> <Gold.Chemscore.DG>
-19.9823

> <Gold.Chemscore.ZeroCoef>
-5.4800

> <Gold.Chemscore.Hbond>
1.5635

> <Gold.Chemscore.Metal>
0.0000

> <Gold.Chemscore.Lipo>
109.0036

> <Gold.Chemscore.Internal_Hbond>
0.0000

> <Gold.Chemscore.DEClash>
0.9330

> <Gold.Chemscore.DEInternal>
0.3535

> <Gold.Chemscore.Rot>
1.3567

> <Gold.Chemscore.Internal.Correction>
   9.000000E+99

> <Gold.Chemscore.Hbonds>
donor molecule, donor type, donor heavy atom, donor atom, acceptor molecule, acceptor atom, score
      L1  H    11    29       P1  8028  0.98
      P1  H  7989  7998       L1    10  0.06

> <Gold.Chemscore.Hbond.Weighted>
-5.2220

> <Gold.Chemscore.Metal.Weighted>
-0.0000

> <Gold.Chemscore.Lipo.Weighted>
-12.7534

> <Gold.Chemscore.Internal_Hbond.Weighted>
0.0000

> <Gold.Chemscore.DEClash.Weighted>
0.9330

> <Gold.Chemscore.DEInternal.Weighted>
0.3535

> <Gold.Chemscore.Rot.Weighted>
3.4731

> <Gold.Chemscore.Internal.Correction.Weighted>
   9.000000E+99

> <Gold.Protein.RotatedTorsions>
[ 6907 6896 6895 6894 ] final  156.61 input  -60.11 | X-H torsion
[ 7974 7965 7964 7962 ] final   86.67 input  175.53 | X-H torsion
[ 8008 7997 7996 7995 ] final  -26.62 input   59.86 | X-H torsion
[ 10167 10162 10161 10158 ] final -147.02 input  -65.29 | X-H torsion
[ 10718 10713 10712 10709 ] final  -69.09 input   66.30 | X-H torsion
[ 10763 10752 10751 10750 ] final   39.49 input  -60.55 | X-H torsion
[ 11005 11000 10999 10996 ] final  170.14 input  -57.11 | X-H torsion

> <Gold.Protein.ActiveResidues>
 VAL166  LYS551  ARG553  GLY616  TRP617  ASP618  TYR619  PRO620  LYS621  CYS622 
 ASP623  PHE694  ASN695  SER759  ASP760  ASP761  ALA762  ILE779  LEU786  VAL792 
 PHE793  MET794  SER795  GLU796  ALA797  LYS798  CYS799  TRP800  GLU811  SER814 

> <Gold.Protein.RotatedAtoms>
  152.0272  133.3922  159.4282 H   0  0  0  0  0  0  0  0  0  0  0  0  # atno 6907 bound_to 6896
  150.6885  134.3560  159.4939 H   0  0  0  0  0  0  0  0  0  0  0  0  # atno 6908 bound_to 6896
  152.1342  134.9111  160.0608 H   0  0  0  0  0  0  0  0  0  0  0  0  # atno 6909 bound_to 6896
  145.5692  139.2312  143.2416 H   0  0  0  0  0  0  0  0  0  0  0  0  # atno 7974 bound_to 7965
  154.4416  140.1894  156.0804 H   0  0  0  0  0  0  0  0  0  0  0  0  # atno 8008 bound_to 7997
  156.0443  140.3316  155.7252 H   0  0  0  0  0  0  0  0  0  0  0  0  # atno 8009 bound_to 7997
  155.5653  140.0607  157.2810 H   0  0  0  0  0  0  0  0  0  0  0  0  # atno 8010 bound_to 7997
  139.7660  143.8307  152.2616 H   0  0  0  0  0  0  0  0  0  0  0  0  # atno 10167 bound_to 10162
  156.0472  130.4306  150.2097 H   0  0  0  0  0  0  0  0  0  0  0  0  # atno 10718 bound_to 10713
  152.9966  135.6219  154.2473 H   0  0  0  0  0  0  0  0  0  0  0  0  # atno 10763 bound_to 10752
  154.2213  135.2796  155.2925 H   0  0  0  0  0  0  0  0  0  0  0  0  # atno 10764 bound_to 10752
  154.5526  135.5729  153.6994 H   0  0  0  0  0  0  0  0  0  0  0  0  # atno 10765 bound_to 10752
  140.3052  134.7563  157.3947 H   0  0  0  0  0  0  0  0  0  0  0  0  # atno 11005 bound_to 11000
  146.1796  140.6518  142.9195 LP  0  0  0  0  0  0  0  0  0  0  0  0  # atno 17320 bound_to 7965
  144.7446  140.5033  143.6845 LP  0  0  0  0  0  0  0  0  0  0  0  0  # atno 17321 bound_to 7965
  139.8327  144.7246  150.9430 LP  0  0  0  0  0  0  0  0  0  0  0  0  # atno 17342 bound_to 10162
  140.7811  143.4055  151.1078 LP  0  0  0  0  0  0  0  0  0  0  0  0  # atno 17343 bound_to 10162
  157.0185  130.9972  151.3346 LP  0  0  0  0  0  0  0  0  0  0  0  0  # atno 17370 bound_to 10713
  157.5361  130.8089  149.7973 LP  0  0  0  0  0  0  0  0  0  0  0  0  # atno 17371 bound_to 10713
  140.1074  134.5391  155.8297 LP  0  0  0  0  0  0  0  0  0  0  0  0  # atno 17394 bound_to 11000
  141.2120  133.6713  156.6624 LP  0  0  0  0  0  0  0  0  0  0  0  0  # atno 17395 bound_to 11000

$$$$
