#       Name:                AV-unprocessed.smi:1377
#       Creating user name   scv26
#       Creation time:       Fri Mar 27 05:20:01 2020


#       File generated by GOLD software.
#

@<TRIPOS>MOLECULE
AV-unprocessed.smi:1377
    34    35     1
SMALL
NO_CHARGES


@<TRIPOS>ATOM
      1 ****        -4.6729   2.0678   3.4565 N.am           1 S1                 0.0000
      2 ****        -3.4391   1.7908   3.0272 C.2            1 S1                 0.0000
      3 ****        -2.4677   2.4645   3.3680 O.2            1 S1                 0.0000
      4 ****        -3.3009   0.5890   2.0826 C.3            1 S1                 0.0000
      5 ****        -1.8683   0.1772   1.8842 C.2            1 S1                 0.0000
      6 ****        -1.0738  -0.5063   2.7690 C.2            1 S1                 0.0000
      7 ****         0.5204  -0.7779   2.1267 S.3            1 S1                 0.0000
      8 ****         0.0466   0.0390   0.6358 C.2            1 S1                 0.0000
      9 ****         0.8455   0.2265  -0.4262 N.pl3          1 S1                -1.0000
     10 ****         1.0447  -0.7881  -1.3009 C.2            1 S1                 0.0000
     11 ****         0.5679  -1.9245  -1.2832 O.2            1 S1                 0.0000
     12 ****         1.9919  -0.3645  -2.4346 C.3            1 S1                 0.0000
     13 ****         2.4992  -1.4954  -3.3504 C.3            1 S1                 0.0000
     14 ****         3.8916  -0.8598  -3.2856 C.3            1 S1                 0.0000
     15 ****         3.4527  -0.1519  -2.0004 C.3            1 S1                 0.0000
     16 ****        -1.2166   0.4756   0.6839 N.2            1 S1                 0.0000
     17 ****        -4.8220   2.8501   4.0771 H              1 S1                 0.0000
     18 ****        -5.4510   1.4985   3.1575 H              1 S1                 0.0000
     19 ****        -3.8746  -0.2461   2.4861 H              1 S1                 0.0000
     20 ****        -3.7626   0.8466   1.1286 H              1 S1                 0.0000
     21 ****        -1.3257  -0.8582   3.7579 H              1 S1                 0.0000
     22 ****         1.6073   0.4801  -3.0097 H              1 S1                 0.0000
     23 ****         2.4786  -2.4891  -2.8998 H              1 S1                 0.0000
     24 ****         2.0582  -1.5001  -4.3473 H              1 S1                 0.0000
     25 ****         4.7110  -1.5676  -3.1586 H              1 S1                 0.0000
     26 ****         4.0770  -0.1661  -4.1070 H              1 S1                 0.0000
     27 ****         3.7570   0.8931  -1.9394 H              1 S1                 0.0000
     28 ****         3.7263  -0.7020  -1.0979 H              1 S1                 0.0000
     29 ****        -2.5905   3.2436   3.9828 LP             1 S1                 0.0000
     30 ****        -1.5554   2.2329   3.0302 LP             1 S1                 0.0000
     31 ****         1.2910   1.1100  -0.5708 LP             1 S1                 0.0000
     32 ****        -0.0566  -2.1934  -0.5499 LP             1 S1                 0.0000
     33 ****         0.8055  -2.5777  -2.0022 LP             1 S1                 0.0000
     34 ****        -1.6539   0.9690  -0.0680 LP             1 S1                 0.0000
@<TRIPOS>BOND
    1    1    2 am    
    2    1   17 1     
    3    1   18 1     
    4    2    3 2     
    5    2    4 1     
    6    4    5 1     
    7    4   19 1     
    8    4   20 1     
    9    5   16 1     
   10    5    6 2     
   11    6    7 1     
   12    6   21 1     
   13    7    8 1     
   14    8    9 1     
   15    8   16 2     
   16    9   10 1     
   17   10   11 2     
   18   10   12 1     
   19   12   15 1     
   20   12   13 1     
   21   12   22 1     
   22   13   14 1     
   23   13   23 1     
   24   13   24 1     
   25   14   15 1     
   26   14   25 1     
   27   14   26 1     
   28   15   27 1     
   29   15   28 1     
   30    3   29 1     
   31    3   30 1     
   32    9   31 1     
   33   11   32 1     
   34   11   33 1     
   35   16   34 1     
@<TRIPOS>SUBSTRUCTURE
      1 S1             1
@<TRIPOS>SET
LONE_PAIRS      STATIC     ATOMS    <user>   **** ""
6 29 30 31 32 33 34
DONOR_HYDROGENS      STATIC     ATOMS    <user>   **** ""
2 17 18
ATOM$BLUE        STATIC     ATOMS    COLORGROUP SYSTEM
6 29 30 31 32 33 34
ATOM$RED        STATIC     ATOMS    COLORGROUP SYSTEM
2 17 18
