AV-unprocessed.smi:772|AV-procd|sdf|3685|dock2
  -GOLD-   22720 1103D 1   1.00000     0.00000
 Structure written by MMmdl.
 46 47  0  0  0  0  0  0  0  0  1 V2000
  145.2415  132.4645  150.7956 C   0  0  0  0  0  0  0  0  0  0  0  0
  145.3982  133.8356  151.4189 C   0  0  0  0  0  0  0  0  0  0  0  0
  145.8575  133.9794  152.7451 C   0  0  0  0  0  0  0  0  0  0  0  0
  145.9696  135.2776  153.2785 C   0  0  0  0  0  0  0  0  0  0  0  0
  145.6193  136.3777  152.4695 C   0  0  0  0  0  0  0  0  0  0  0  0
  145.6827  137.7940  153.0140 C   0  0  0  0  0  0  0  0  0  0  0  0
  146.6922  138.6920  152.2727 C   0  0  0  0  0  0  0  0  0  0  0  0
  147.9734  138.7708  152.9714 N   0  0  0  0  0  0  0  0  0  0  0  0
  148.2890  139.6480  153.9409 C   0  0  0  0  0  0  0  0  0  0  0  0
  147.4787  140.4687  154.3743 O   0  0  0  0  0  0  0  0  0  0  0  0
  149.5802  139.5937  154.3551 N   0  0  0  0  0  0  0  0  0  0  0  0
  150.5190  138.4875  154.1092 C   0  0  0  0  0  0  0  0  0  0  0  0
  150.5261  137.5585  155.3331 C   0  0  0  0  0  0  0  0  0  0  0  0
  151.1168  138.4362  156.8134 S   0  0  0  0  0  0  0  0  0  0  0  0
  150.0653  139.9306  156.7452 C   0  0  1  0  0  0  0  0  0  0  0  0
  150.4113  140.9468  157.8628 C   0  0  0  0  0  0  0  0  0  0  0  0
  149.5278  142.2085  157.8566 C   0  0  0  0  0  0  0  0  0  0  0  0
  151.9034  141.3212  157.8578 C   0  0  0  0  0  0  0  0  0  0  0  0
  150.1129  140.5514  155.3313 C   0  0  0  0  0  0  0  0  0  0  0  0
  145.1783  136.1249  151.1530 C   0  0  0  0  0  0  0  0  0  0  0  0
  145.0657  134.8839  150.6337 N   0  0  0  0  0  0  0  0  0  0  0  0
  145.6835  131.6914  151.4247 H   0  0  0  0  0  0  0  0  0  0  0  0
  145.7302  132.4291  149.8214 H   0  0  0  0  0  0  0  0  0  0  0  0
  144.1850  132.2317  150.6600 H   0  0  0  0  0  0  0  0  0  0  0  0
  146.1109  133.1175  153.3445 H   0  0  0  0  0  0  0  0  0  0  0  0
  146.3057  135.4243  154.2944 H   0  0  0  0  0  0  0  0  0  0  0  0
  144.6874  138.2358  152.9572 H   0  0  0  0  0  0  0  0  0  0  0  0
  145.9366  137.7559  154.0741 H   0  0  0  0  0  0  0  0  0  0  0  0
  146.8316  138.3335  151.2515 H   0  0  0  0  0  0  0  0  0  0  0  0
  146.2886  139.7008  152.1855 H   0  0  0  0  0  0  0  0  0  0  0  0
  148.6954  138.1364  152.6628 H   0  0  0  0  0  0  0  0  0  0  0  0
  150.2844  137.9163  153.2111 H   0  0  0  0  0  0  0  0  0  0  0  0
  151.5211  138.8821  153.9350 H   0  0  0  0  0  0  0  0  0  0  0  0
  149.5245  137.1716  155.5242 H   0  0  0  0  0  0  0  0  0  0  0  0
  151.1730  136.6992  155.1553 H   0  0  0  0  0  0  0  0  0  0  0  0
  149.0415  139.5951  156.9189 H   0  0  0  0  0  0  0  0  0  0  0  0
  150.2302  140.4430  158.8133 H   0  0  0  0  0  0  0  0  0  0  0  0
  149.6577  142.7901  156.9438 H   0  0  0  0  0  0  0  0  0  0  0  0
  149.7778  142.8591  158.6950 H   0  0  0  0  0  0  0  0  0  0  0  0
  148.4707  141.9619  157.9490 H   0  0  0  0  0  0  0  0  0  0  0  0
  152.1807  141.8635  156.9538 H   0  0  0  0  0  0  0  0  0  0  0  0
  152.5328  140.4330  157.9201 H   0  0  0  0  0  0  0  0  0  0  0  0
  152.1500  141.9559  158.7093 H   0  0  0  0  0  0  0  0  0  0  0  0
  151.1352  140.8168  155.0598 H   0  0  0  0  0  0  0  0  0  0  0  0
  149.5583  141.4910  155.3107 H   0  0  0  0  0  0  0  0  0  0  0  0
  144.8913  136.9385  150.5031 H   0  0  0  0  0  0  0  0  0  0  0  0
  1  2  1  0  0  0  0
  1 22  1  0  0  0  0
  1 23  1  0  0  0  0
  1 24  1  0  0  0  0
  2 21  1  0  0  0  0
  2  3  2  0  0  0  0
  3  4  1  0  0  0  0
  3 25  1  0  0  0  0
  4  5  2  0  0  0  0
  4 26  1  0  0  0  0
  5  6  1  0  0  0  0
  5 20  1  0  0  0  0
  6  7  1  0  0  0  0
  6 27  1  0  0  0  0
  6 28  1  0  0  0  0
  7  8  1  0  0  0  0
  7 29  1  0  0  0  0
  7 30  1  0  0  0  0
  8  9  1  0  0  0  0
  8 31  1  0  0  0  0
  9 10  2  0  0  0  0
  9 11  1  0  0  0  0
 11 19  1  0  0  0  0
 11 12  1  0  0  0  0
 12 13  1  0  0  0  0
 12 32  1  0  0  0  0
 12 33  1  0  0  0  0
 13 14  1  0  0  0  0
 13 34  1  0  0  0  0
 13 35  1  0  0  0  0
 14 15  1  0  0  0  0
 15 16  1  0  0  0  0
 15 19  1  0  0  0  0
 15 36  1  0  0  0  0
 16 17  1  0  0  0  0
 16 18  1  0  0  0  0
 16 37  1  0  0  0  0
 17 38  1  0  0  0  0
 17 39  1  0  0  0  0
 17 40  1  0  0  0  0
 18 41  1  0  0  0  0
 18 42  1  0  0  0  0
 18 43  1  0  0  0  0
 19 44  1  0  0  0  0
 19 45  1  0  0  0  0
 20 21  2  0  0  0  0
 20 46  1  0  0  0  0
M  END
> <s_m_source_file>
AV-unprocessed.smi

> <i_m_source_file_index>
772

> <i_lp_mmshare_version>
43012

> <i_f3d_flags>
0

> <s_epik_input>
W0NIM11jMVtjSF1bY0hdYyhbY0hdbjEpW0NIMl1bQ0gyXVtOSF1DKD1PKU4yW0NIMl1bQ0gyXVNbQ0BIXShbQ0gyXTIpW0NIXShbQ0gzXSlbQ0gzXQ==

> <s_epik_cmdline>
J2VwaWtfcHl0aG9uJywgJy1waCcsICc3LjAnLCAnLXRuJywgJzgnLCAnLW1hJywgJzIwMCcsICctbWV0YWxfYmluZGluZycsICctaW1hZScsICc8aW5maWxlLm1hZT4nLCAnLW9tYWUnLCAnPG91dGZpbGUubWFlPic=

> <r_epik_Ionization_Penalty>
0.0566916

> <r_epik_Ionization_Penalty_Charging>
0

> <r_epik_Ionization_Penalty_Neutral>
0.0566916

> <r_epik_State_Penalty>
0.0488669

> <r_epik_Charging_Adjusted_Penalty>
0.0488669

> <i_epik_Tot_Q>
0

> <i_epik_Tot_abs_Q>
0

> <r_epik_Metal_State_Penalty>
0.0445784

> <b_epik_Metal_Only>
0

> <s_lp_Force_Field>
OPLS_2005

> <r_lp_Energy>
25.3974

> <b_lp_Chiralities_Consistent>
1

> <s_lp_Variant>
AV-unprocessed.smi:772-1

> <Gold.Version>
5.8.1

> <Gold.Id.Protein>
6NUR|6NUR_protein|mol2

> <Gold.PLP.Fitness>
38.6310

> <Gold.PLP.PLP>
-34.3819

> <Gold.PLP.part.hbond>
-2.0000

> <Gold.PLP.part.metal>
0.0000

> <Gold.PLP.part.buried>
-3.0293

> <Gold.PLP.part.nonpolar>
-29.4907

> <Gold.PLP.part.repulsive>
1.0469

> <Gold.PLP.ligand.clash>
0.0000

> <Gold.PLP.ligand.torsion>
0.5531

> <Gold.PLP.Chemscore.Hbond>
0.7520

> <Gold.PLP.Chemscore.CHOScore>
1.0000

> <Gold.PLP.Chemscore.Metal>
0.0000

> <Gold.Chemscore.Hbonds>
donor molecule, donor type, donor heavy atom, donor atom, acceptor molecule, acceptor atom, score
      L1  H     8    31       P1  7948  0.80
      L1  C    20    46       P1 10171  1.00

> <Gold.PLP.Chemscore.Internal.Correction>
0.0993

> <Gold.Rescore>
     Score         DG    S(hbond)    S(metal)    S(lipo)     H(rot)  DE(clash)    DE(int)     intcor
     14.38     -15.08       0.76        0.00      89.26       1.32       0.16       0.54       ----

> <Gold.Chemscore.Fitness>
14.3808

> <Gold.Chemscore.DG>
-15.0849

> <Gold.Chemscore.ZeroCoef>
-5.4800

> <Gold.Chemscore.Hbond>
0.7632

> <Gold.Chemscore.Metal>
0.0000

> <Gold.Chemscore.Lipo>
89.2608

> <Gold.Chemscore.Internal_Hbond>
0.0000

> <Gold.Chemscore.DEClash>
0.1619

> <Gold.Chemscore.DEInternal>
0.5421

> <Gold.Chemscore.Rot>
1.3233

> <Gold.Chemscore.Internal.Correction>
   9.000000E+99

> <Gold.Chemscore.Hbonds>
donor molecule, donor type, donor heavy atom, donor atom, acceptor molecule, acceptor atom, score
      L1  H     8    31       P1  7948  0.75

> <Gold.Chemscore.Hbond.Weighted>
-2.5490

> <Gold.Chemscore.Metal.Weighted>
-0.0000

> <Gold.Chemscore.Lipo.Weighted>
-10.4435

> <Gold.Chemscore.Internal_Hbond.Weighted>
0.0000

> <Gold.Chemscore.DEClash.Weighted>
0.1619

> <Gold.Chemscore.DEInternal.Weighted>
0.5421

> <Gold.Chemscore.Rot.Weighted>
3.3876

> <Gold.Chemscore.Internal.Correction.Weighted>
   9.000000E+99

> <Gold.Protein.RotatedTorsions>
[ 6907 6896 6895 6894 ] final   34.73 input  -60.11 | X-H torsion
[ 7974 7965 7964 7962 ] final  -99.81 input  175.53 | X-H torsion
[ 8008 7997 7996 7995 ] final -131.77 input   59.86 | X-H torsion
[ 10167 10162 10161 10158 ] final   79.67 input  -65.29 | X-H torsion
[ 10718 10713 10712 10709 ] final   48.89 input   66.30 | X-H torsion
[ 10763 10752 10751 10750 ] final -166.22 input  -60.55 | X-H torsion
[ 11005 11000 10999 10996 ] final -157.43 input  -57.11 | X-H torsion

> <Gold.Protein.ActiveResidues>
 VAL166  LYS551  ARG553  GLY616  TRP617  ASP618  TYR619  PRO620  LYS621  CYS622 
 ASP623  PHE694  ASN695  SER759  ASP760  ASP761  ALA762  ILE779  LEU786  VAL792 
 PHE793  MET794  SER795  GLU796  ALA797  LYS798  CYS799  TRP800  GLU811  SER814 

> <Gold.Protein.RotatedAtoms>
  152.1064  134.9305  160.0567 H   0  0  0  0  0  0  0  0  0  0  0  0  # atno 6907 bound_to 6896
  152.0499  133.4010  159.4381 H   0  0  0  0  0  0  0  0  0  0  0  0  # atno 6908 bound_to 6896
  150.6841  134.3240  159.4842 H   0  0  0  0  0  0  0  0  0  0  0  0  # atno 6909 bound_to 6896
  145.3027  140.9381  143.2814 H   0  0  0  0  0  0  0  0  0  0  0  0  # atno 7974 bound_to 7965
  155.3178  140.0460  157.3038 H   0  0  0  0  0  0  0  0  0  0  0  0  # atno 8008 bound_to 7997
  154.5397  140.2284  155.8628 H   0  0  0  0  0  0  0  0  0  0  0  0  # atno 8009 bound_to 7997
  156.1869  140.3060  155.9262 H   0  0  0  0  0  0  0  0  0  0  0  0  # atno 8010 bound_to 7997
  139.9578  144.5982  150.8100 H   0  0  0  0  0  0  0  0  0  0  0  0  # atno 10167 bound_to 10162
  157.4732  130.8268  149.8011 H   0  0  0  0  0  0  0  0  0  0  0  0  # atno 10718 bound_to 10713
  154.6854  135.2961  154.9554 H   0  0  0  0  0  0  0  0  0  0  0  0  # atno 10763 bound_to 10752
  154.0535  135.6641  153.4807 H   0  0  0  0  0  0  0  0  0  0  0  0  # atno 10764 bound_to 10752
  153.0576  135.5135  154.7919 H   0  0  0  0  0  0  0  0  0  0  0  0  # atno 10765 bound_to 10752
  140.6647  134.4312  157.5233 H   0  0  0  0  0  0  0  0  0  0  0  0  # atno 11005 bound_to 11000
  144.9080  139.4564  143.6600 LP  0  0  0  0  0  0  0  0  0  0  0  0  # atno 17320 bound_to 7965
  146.3146  139.7873  142.8993 LP  0  0  0  0  0  0  0  0  0  0  0  0  # atno 17321 bound_to 7965
  140.7563  143.3062  151.2955 LP  0  0  0  0  0  0  0  0  0  0  0  0  # atno 17342 bound_to 10162
  139.6577  144.0245  152.2671 LP  0  0  0  0  0  0  0  0  0  0  0  0  # atno 17343 bound_to 10162
  156.0084  130.3845  150.2351 LP  0  0  0  0  0  0  0  0  0  0  0  0  # atno 17370 bound_to 10713
  157.0534  131.0069  151.3246 LP  0  0  0  0  0  0  0  0  0  0  0  0  # atno 17371 bound_to 10713
  139.9001  134.8576  156.1932 LP  0  0  0  0  0  0  0  0  0  0  0  0  # atno 17394 bound_to 11000
  141.0438  133.6924  156.1647 LP  0  0  0  0  0  0  0  0  0  0  0  0  # atno 17395 bound_to 11000

$$$$
