AV-unprocessed.smi:2816|AV-procd|sdf|10843|dock9
  -GOLD-   2272015283D 1   1.00000     0.00000
 Structure written by MMmdl.
 43 45  0  0  0  0  0  0  0  0  1 V2000
  152.6802  130.9499  155.7365 C   0  0  0  0  0  0  0  0  0  0  0  0
  151.8970  131.1012  157.0522 C   0  0  0  0  0  0  0  0  0  0  0  0
  150.9410  129.9066  157.2229 C   0  0  0  0  0  0  0  0  0  0  0  0
  152.8856  131.1708  158.2308 C   0  0  0  0  0  0  0  0  0  0  0  0
  150.9128  132.6781  156.9478 S   0  0  0  0  0  0  0  0  0  0  0  0
  149.9809  132.7205  158.0860 O   0  0  0  0  0  0  0  0  0  0  0  0
  151.8608  133.7871  156.7559 O   0  0  0  0  0  0  0  0  0  0  0  0
  149.9296  132.5460  155.4528 C   0  0  0  0  0  0  0  0  0  0  0  0
  149.7353  131.2890  154.8457 C   0  0  0  0  0  0  0  0  0  0  0  0
  148.9204  131.2238  153.7003 C   0  0  0  0  0  0  0  0  0  0  0  0
  148.3238  132.4111  153.2129 C   0  0  0  0  0  0  0  0  0  0  0  0
  147.4907  132.4512  152.0854 N   0  0  0  0  0  0  0  0  0  0  0  0
  146.2584  133.2315  152.0755 C   0  0  1  0  0  0  0  0  0  0  0  0
  146.1065  134.1524  150.8590 C   0  0  0  0  0  0  0  0  0  0  0  0
  144.7294  133.7388  150.3215 C   0  0  1  0  0  0  0  0  0  0  0  0
  144.7925  132.3892  149.5958 C   0  0  0  0  0  0  0  0  0  0  0  0
  144.9703  131.4195  150.7621 C   0  0  0  0  0  0  0  0  0  0  0  0
  144.9858  132.3714  151.9714 C   0  0  2  0  0  0  0  0  0  0  0  0
  144.0728  133.3575  151.5193 O   0  0  0  0  0  0  0  0  0  0  0  0
  148.5855  133.6119  153.9078 C   0  0  0  0  0  0  0  0  0  0  0  0
  149.3632  133.6880  155.0079 N   0  0  0  0  0  0  0  0  0  0  0  0
  153.2833  130.0414  155.7342 H   0  0  0  0  0  0  0  0  0  0  0  0
  153.3533  131.7929  155.5778 H   0  0  0  0  0  0  0  0  0  0  0  0
  152.0088  130.9007  154.8787 H   0  0  0  0  0  0  0  0  0  0  0  0
  150.2152  129.8574  156.4107 H   0  0  0  0  0  0  0  0  0  0  0  0
  150.3858  129.9669  158.1589 H   0  0  0  0  0  0  0  0  0  0  0  0
  151.4876  128.9631  157.2315 H   0  0  0  0  0  0  0  0  0  0  0  0
  153.5269  130.2893  158.2570 H   0  0  0  0  0  0  0  0  0  0  0  0
  152.3703  131.2190  159.1892 H   0  0  0  0  0  0  0  0  0  0  0  0
  153.5342  132.0442  158.1570 H   0  0  0  0  0  0  0  0  0  0  0  0
  150.1930  130.3964  155.2454 H   0  0  0  0  0  0  0  0  0  0  0  0
  148.7640  130.2702  153.2196 H   0  0  0  0  0  0  0  0  0  0  0  0
  147.8393  132.1006  151.2046 H   0  0  0  0  0  0  0  0  0  0  0  0
  146.1964  133.8197  152.9919 H   0  0  0  0  0  0  0  0  0  0  0  0
  146.1048  135.1964  151.1741 H   0  0  0  0  0  0  0  0  0  0  0  0
  146.8899  134.0267  150.1100 H   0  0  0  0  0  0  0  0  0  0  0  0
  144.2213  134.5207  149.7568 H   0  0  0  0  0  0  0  0  0  0  0  0
  143.8593  132.1867  149.0690 H   0  0  0  0  0  0  0  0  0  0  0  0
  145.6098  132.3413  148.8756 H   0  0  0  0  0  0  0  0  0  0  0  0
  144.1181  130.7414  150.8211 H   0  0  0  0  0  0  0  0  0  0  0  0
  145.8733  130.8148  150.6786 H   0  0  0  0  0  0  0  0  0  0  0  0
  144.6993  131.8955  152.9096 H   0  0  0  0  0  0  0  0  0  0  0  0
  148.1502  134.5431  153.5751 H   0  0  0  0  0  0  0  0  0  0  0  0
  1  2  1  0  0  0  0
  1 22  1  0  0  0  0
  1 23  1  0  0  0  0
  1 24  1  0  0  0  0
  2  3  1  0  0  0  0
  2  4  1  0  0  0  0
  2  5  1  0  0  0  0
  3 25  1  0  0  0  0
  3 26  1  0  0  0  0
  3 27  1  0  0  0  0
  4 28  1  0  0  0  0
  4 29  1  0  0  0  0
  4 30  1  0  0  0  0
  5  6  2  0  0  0  0
  5  7  2  0  0  0  0
  5  8  1  0  0  0  0
  8 21  1  0  0  0  0
  8  9  2  0  0  0  0
  9 10  1  0  0  0  0
  9 31  1  0  0  0  0
 10 11  2  0  0  0  0
 10 32  1  0  0  0  0
 11 12  1  0  0  0  0
 11 20  1  0  0  0  0
 12 13  1  0  0  0  0
 12 33  1  0  0  0  0
 13 18  1  0  0  0  0
 13 14  1  0  0  0  0
 13 34  1  0  0  0  0
 14 15  1  0  0  0  0
 14 35  1  0  0  0  0
 14 36  1  0  0  0  0
 15 19  1  0  0  0  0
 15 16  1  0  0  0  0
 15 37  1  0  0  0  0
 16 17  1  0  0  0  0
 16 38  1  0  0  0  0
 16 39  1  0  0  0  0
 17 18  1  0  0  0  0
 17 40  1  0  0  0  0
 17 41  1  0  0  0  0
 18 19  1  0  0  0  0
 18 42  1  0  0  0  0
 20 21  2  0  0  0  0
 20 43  1  0  0  0  0
M  END
> <s_m_source_file>
AV-unprocessed.smi

> <i_m_source_file_index>
2816

> <i_lp_mmshare_version>
43012

> <i_f3d_flags>
0

> <s_epik_input>
W0NIM11DKFtDSDNdKShbQ0gzXSlTKD1PKSg9TyljMVtjSF1bY0hdYyhbY0hdbjEpW05IXVtDQEhdKFtDSDJdW0NAQEhdMjMpW0NAQEhdKE8zKVtDSDJdW0NIMl0y

> <s_epik_cmdline>
J2VwaWtfcHl0aG9uJywgJy1waCcsICc3LjAnLCAnLXRuJywgJzgnLCAnLW1hJywgJzIwMCcsICctbWV0YWxfYmluZGluZycsICctaW1hZScsICc8aW5maWxlLm1hZT4nLCAnLW9tYWUnLCAnPG91dGZpbGUubWFlPic=

> <r_lp_tautomer_probability>
1

> <r_epik_Ionization_Penalty>
1.94439e-07

> <r_epik_Ionization_Penalty_Charging>
0

> <r_epik_Ionization_Penalty_Neutral>
1.94439e-07

> <r_epik_State_Penalty>
-0

> <r_epik_Charging_Adjusted_Penalty>
0

> <i_epik_Tot_Q>
0

> <i_epik_Tot_abs_Q>
0

> <r_epik_Metal_State_Penalty>
-0

> <b_epik_Metal_Only>
0

> <s_lp_Force_Field>
OPLS_2005

> <r_lp_Energy>
43.8741

> <b_lp_Chiralities_Consistent>
1

> <s_lp_Variant>
AV-unprocessed.smi:2816-2

> <Gold.Version>
5.8.1

> <Gold.Id.Protein>
6NUR|6NUR_protein|mol2

> <Gold.PLP.Fitness>
42.3295

> <Gold.PLP.PLP>
-34.7753

> <Gold.PLP.part.hbond>
-2.4369

> <Gold.PLP.part.metal>
0.0000

> <Gold.PLP.part.buried>
-4.2703

> <Gold.PLP.part.nonpolar>
-27.7469

> <Gold.PLP.part.repulsive>
0.2264

> <Gold.PLP.ligand.clash>
0.0000

> <Gold.PLP.ligand.torsion>
1.7983

> <Gold.PLP.Chemscore.Hbond>
1.9760

> <Gold.PLP.Chemscore.CHOScore>
1.0000

> <Gold.PLP.Chemscore.Metal>
0.0000

> <Gold.Chemscore.Hbonds>
donor molecule, donor type, donor heavy atom, donor atom, acceptor molecule, acceptor atom, score
      L1  H    12    33       P1 10747  0.96
      P1  H  6896  6909       L1     6  0.90
      L1  C    20    43       P1  7948  0.99

> <Gold.PLP.Chemscore.Internal.Correction>
2.2229

> <Gold.Rescore>
     Score         DG    S(hbond)    S(metal)    S(lipo)     H(rot)  DE(clash)    DE(int)     intcor
     15.82     -18.79       1.82        0.00      86.95       1.15       0.19       2.77       ----

> <Gold.Chemscore.Fitness>
15.8239

> <Gold.Chemscore.DG>
-18.7867

> <Gold.Chemscore.ZeroCoef>
-5.4800

> <Gold.Chemscore.Hbond>
1.8175

> <Gold.Chemscore.Metal>
0.0000

> <Gold.Chemscore.Lipo>
86.9483

> <Gold.Chemscore.Internal_Hbond>
0.0000

> <Gold.Chemscore.DEClash>
0.1881

> <Gold.Chemscore.DEInternal>
2.7746

> <Gold.Chemscore.Rot>
1.1471

> <Gold.Chemscore.Internal.Correction>
   9.000000E+99

> <Gold.Chemscore.Hbonds>
donor molecule, donor type, donor heavy atom, donor atom, acceptor molecule, acceptor atom, score
      L1  H    12    33       P1 10747  0.92
      P1  H  6896  6909       L1     6  0.18

> <Gold.Chemscore.Hbond.Weighted>
-6.0703

> <Gold.Chemscore.Metal.Weighted>
-0.0000

> <Gold.Chemscore.Lipo.Weighted>
-10.1730

> <Gold.Chemscore.Internal_Hbond.Weighted>
0.0000

> <Gold.Chemscore.DEClash.Weighted>
0.1881

> <Gold.Chemscore.DEInternal.Weighted>
2.7746

> <Gold.Chemscore.Rot.Weighted>
2.9366

> <Gold.Chemscore.Internal.Correction.Weighted>
   9.000000E+99

> <Gold.Protein.RotatedTorsions>
[ 6907 6896 6895 6894 ] final  -19.80 input  -60.11 | X-H torsion
[ 7974 7965 7964 7962 ] final   24.06 input  175.53 | X-H torsion
[ 8008 7997 7996 7995 ] final -156.69 input   59.86 | X-H torsion
[ 10167 10162 10161 10158 ] final   87.78 input  -65.29 | X-H torsion
[ 10718 10713 10712 10709 ] final   50.84 input   66.30 | X-H torsion
[ 10763 10752 10751 10750 ] final -175.69 input  -60.55 | X-H torsion
[ 11005 11000 10999 10996 ] final -130.83 input  -57.11 | X-H torsion

> <Gold.Protein.ActiveResidues>
 VAL166  LYS551  ARG553  GLY616  TRP617  ASP618  TYR619  PRO620  LYS621  CYS622 
 ASP623  PHE694  ASN695  SER759  ASP760  ASP761  ALA762  ILE779  LEU786  VAL792 
 PHE793  MET794  SER795  GLU796  ALA797  LYS798  CYS799  TRP800  GLU811  SER814 

> <Gold.Protein.RotatedAtoms>
  151.2577  135.0643  159.9085 H   0  0  0  0  0  0  0  0  0  0  0  0  # atno 6907 bound_to 6896
  152.5371  134.0265  159.8015 H   0  0  0  0  0  0  0  0  0  0  0  0  # atno 6908 bound_to 6896
  151.0482  133.5597  159.2676 H   0  0  0  0  0  0  0  0  0  0  0  0  # atno 6909 bound_to 6896
  146.1955  139.7658  142.8800 H   0  0  0  0  0  0  0  0  0  0  0  0  # atno 7974 bound_to 7965
  155.7210  140.0790  157.2330 H   0  0  0  0  0  0  0  0  0  0  0  0  # atno 8008 bound_to 7997
  154.4045  140.1612  156.2456 H   0  0  0  0  0  0  0  0  0  0  0  0  # atno 8009 bound_to 7997
  155.9196  140.3398  155.6165 H   0  0  0  0  0  0  0  0  0  0  0  0  # atno 8010 bound_to 7997
  139.8739  144.6477  150.8918 H   0  0  0  0  0  0  0  0  0  0  0  0  # atno 10167 bound_to 10162
  157.4923  130.8384  149.8218 H   0  0  0  0  0  0  0  0  0  0  0  0  # atno 10718 bound_to 10713
  154.5813  135.2836  155.0729 H   0  0  0  0  0  0  0  0  0  0  0  0  # atno 10763 bound_to 10752
  154.2064  135.6415  153.5106 H   0  0  0  0  0  0  0  0  0  0  0  0  # atno 10764 bound_to 10752
  153.0089  135.5481  154.6468 H   0  0  0  0  0  0  0  0  0  0  0  0  # atno 10765 bound_to 10752
  140.9312  134.1317  157.4233 H   0  0  0  0  0  0  0  0  0  0  0  0  # atno 11005 bound_to 11000
  145.3656  141.0333  143.3260 LP  0  0  0  0  0  0  0  0  0  0  0  0  # atno 17320 bound_to 7965
  144.8572  139.5231  143.6829 LP  0  0  0  0  0  0  0  0  0  0  0  0  # atno 17321 bound_to 7965
  140.7756  143.3641  151.1772 LP  0  0  0  0  0  0  0  0  0  0  0  0  # atno 17342 bound_to 10162
  139.7258  143.9150  152.3002 LP  0  0  0  0  0  0  0  0  0  0  0  0  # atno 17343 bound_to 10162
  156.0181  130.3806  150.2048 LP  0  0  0  0  0  0  0  0  0  0  0  0  # atno 17370 bound_to 10713
  157.0237  130.9987  151.3332 LP  0  0  0  0  0  0  0  0  0  0  0  0  # atno 17371 bound_to 10713
  139.8797  135.0005  156.6017 LP  0  0  0  0  0  0  0  0  0  0  0  0  # atno 17394 bound_to 11000
  140.7860  133.8621  155.8606 LP  0  0  0  0  0  0  0  0  0  0  0  0  # atno 17395 bound_to 11000

$$$$
