AV-unprocessed.smi:1093|AV-procd|sdf|4741|dock7
  -GOLD-   22720 3273D 1   1.00000     0.00000
 Structure written by MMmdl.
 48 49  0  0  0  0  0  0  0  0  3 V2000
  141.4834  137.5693  153.3443 C   0  0  0  0  0  0  0  0  0  0  0  0
  142.9024  137.5400  153.9303 C   0  0  0  0  0  0  0  0  0  0  0  0
  143.9533  137.6376  152.8858 N   0  3  2  0  0  0  0  0  0  0  0  0
  143.9897  136.4343  152.0144 C   0  0  0  0  0  0  0  0  0  0  0  0
  144.9839  136.6164  150.8560 C   0  0  0  0  0  0  0  0  0  0  0  0
  146.3863  136.9515  151.3791 C   0  0  0  0  0  0  0  0  0  0  0  0
  146.3241  138.1788  152.3055 C   0  0  2  0  0  0  0  0  0  0  0  0
  147.6385  138.4617  152.8768 N   0  0  0  0  0  0  0  0  0  0  0  0
  147.9042  139.4426  153.7518 C   0  0  0  0  0  0  0  0  0  0  0  0
  147.0523  140.2264  154.1694 O   0  0  0  0  0  0  0  0  0  0  0  0
  149.2067  139.4609  154.0850 N   0  0  0  0  0  0  0  0  0  0  0  0
  149.8735  140.3198  155.0012 C   0  0  0  0  0  0  0  0  0  0  0  0
  150.9059  139.7694  155.7890 C   0  0  0  0  0  0  0  0  0  0  0  0
  151.5843  140.5782  156.7238 C   0  0  0  0  0  0  0  0  0  0  0  0
  151.2201  141.9389  156.8744 C   0  0  0  0  0  0  0  0  0  0  0  0
  151.8494  142.8115  157.7886 N   0  0  0  0  0  0  0  0  0  0  0  0
  151.6008  144.2451  157.7084 C   0  0  0  0  0  0  0  0  0  0  0  0
  152.6356  142.2626  158.8880 C   0  0  0  0  0  0  0  0  0  0  0  0
  150.2134  142.4189  156.1040 N   0  3  0  0  0  0  0  0  0  0  0  0
  149.5390  141.6811  155.1960 C   0  0  0  0  0  0  0  0  0  0  0  0
  145.3001  137.9530  153.4344 C   0  0  0  0  0  0  0  0  0  0  0  0
  140.7433  137.3979  154.1264 H   0  0  0  0  0  0  0  0  0  0  0  0
  141.3520  136.7917  152.5913 H   0  0  0  0  0  0  0  0  0  0  0  0
  141.2481  138.5283  152.8844 H   0  0  0  0  0  0  0  0  0  0  0  0
  143.0317  138.3327  154.6684 H   0  0  0  0  0  0  0  0  0  0  0  0
  143.0171  136.5973  154.4672 H   0  0  0  0  0  0  0  0  0  0  0  0
  144.2596  135.5602  152.6093 H   0  0  0  0  0  0  0  0  0  0  0  0
  142.9970  136.2444  151.6041 H   0  0  0  0  0  0  0  0  0  0  0  0
  145.0193  135.7110  150.2493 H   0  0  0  0  0  0  0  0  0  0  0  0
  144.6379  137.4155  150.1988 H   0  0  0  0  0  0  0  0  0  0  0  0
  146.7894  136.0940  151.9203 H   0  0  0  0  0  0  0  0  0  0  0  0
  147.0598  137.1374  150.5416 H   0  0  0  0  0  0  0  0  0  0  0  0
  145.9953  139.0426  151.7241 H   0  0  0  0  0  0  0  0  0  0  0  0
  148.4007  137.8689  152.5814 H   0  0  0  0  0  0  0  0  0  0  0  0
  149.7994  138.8054  153.5970 H   0  0  0  0  0  0  0  0  0  0  0  0
  151.1839  138.7312  155.6787 H   0  0  0  0  0  0  0  0  0  0  0  0
  152.3744  140.1376  157.3131 H   0  0  0  0  0  0  0  0  0  0  0  0
  151.9333  144.6401  156.7477 H   0  0  0  0  0  0  0  0  0  0  0  0
  152.1344  144.7847  158.4911 H   0  0  0  0  0  0  0  0  0  0  0  0
  150.5371  144.4562  157.8237 H   0  0  0  0  0  0  0  0  0  0  0  0
  153.4565  141.6544  158.5068 H   0  0  0  0  0  0  0  0  0  0  0  0
  152.0121  141.6411  159.5312 H   0  0  0  0  0  0  0  0  0  0  0  0
  153.0660  143.0535  159.5026 H   0  0  0  0  0  0  0  0  0  0  0  0
  148.7548  142.2110  154.6770 H   0  0  0  0  0  0  0  0  0  0  0  0
  145.2517  138.8504  154.0507 H   0  0  0  0  0  0  0  0  0  0  0  0
  145.6249  137.1397  154.0858 H   0  0  0  0  0  0  0  0  0  0  0  0
  143.6902  138.4083  152.2882 H   0  0  0  0  0  0  0  0  0  0  0  0
  149.9458  143.3967  156.2177 H   0  0  0  0  0  0  0  0  0  0  0  0
  1  2  1  0  0  0  0
  1 22  1  0  0  0  0
  1 23  1  0  0  0  0
  1 24  1  0  0  0  0
  2  3  1  0  0  0  0
  2 25  1  0  0  0  0
  2 26  1  0  0  0  0
  3 21  1  0  0  0  0
  3  4  1  0  0  0  0
  3 47  1  0  0  0  0
  4  5  1  0  0  0  0
  4 27  1  0  0  0  0
  4 28  1  0  0  0  0
  5  6  1  0  0  0  0
  5 29  1  0  0  0  0
  5 30  1  0  0  0  0
  6  7  1  0  0  0  0
  6 31  1  0  0  0  0
  6 32  1  0  0  0  0
  7  8  1  0  0  0  0
  7 21  1  0  0  0  0
  7 33  1  0  0  0  0
  8  9  1  0  0  0  0
  8 34  1  0  0  0  0
  9 10  2  0  0  0  0
  9 11  1  0  0  0  0
 11 12  1  0  0  0  0
 11 35  1  0  0  0  0
 12 20  1  0  0  0  0
 12 13  2  0  0  0  0
 13 14  1  0  0  0  0
 13 36  1  0  0  0  0
 14 15  2  0  0  0  0
 14 37  1  0  0  0  0
 15 16  1  0  0  0  0
 15 19  1  0  0  0  0
 16 17  1  0  0  0  0
 16 18  1  0  0  0  0
 17 38  1  0  0  0  0
 17 39  1  0  0  0  0
 17 40  1  0  0  0  0
 18 41  1  0  0  0  0
 18 42  1  0  0  0  0
 18 43  1  0  0  0  0
 19 20  2  0  0  0  0
 19 48  1  0  0  0  0
 20 44  1  0  0  0  0
 21 45  1  0  0  0  0
 21 46  1  0  0  0  0
M  CHG  1   3   1
M  CHG  1  19   1
M  END
> <s_m_source_file>
AV-unprocessed.smi

> <i_m_source_file_index>
1093

> <i_lp_mmshare_version>
43012

> <i_f3d_flags>
0

> <s_epik_input>
W0NIM11bQ0gyXU4xW0NIMl1bQ0gyXVtDSDJdW0NASF0oW0NIMl0xKVtOSF1DKD1PKVtOSF1jMltjSF1bY0hdYyhOKFtDSDNdKVtDSDNdKW5bY0hdMg==

> <s_epik_cmdline>
J2VwaWtfcHl0aG9uJywgJy1waCcsICc3LjAnLCAnLXRuJywgJzgnLCAnLW1hJywgJzIwMCcsICctbWV0YWxfYmluZGluZycsICctaW1hZScsICc8aW5maWxlLm1hZT4nLCAnLW9tYWUnLCAnPG91dGZpbGUubWFlPic=

> <r_lp_tautomer_probability>
0.999994

> <r_epik_Ionization_Penalty>
0.346711

> <r_epik_Ionization_Penalty_Charging>
0.346691

> <r_epik_Ionization_Penalty_Neutral>
1.93006e-05

> <r_epik_State_Penalty>
0.339838

> <r_epik_Charging_Adjusted_Penalty>
0.68653

> <i_epik_Tot_Q>
2

> <i_epik_Tot_abs_Q>
2

> <r_epik_Metal_State_Penalty>
0.600835

> <b_epik_Metal_Only>
0

> <s_lp_Force_Field>
OPLS_2005

> <r_lp_Energy>
27.882

> <b_lp_Chiralities_Consistent>
1

> <s_lp_Variant>
AV-unprocessed.smi:1093-4

> <Gold.Version>
5.8.1

> <Gold.Id.Protein>
6NUR|6NUR_protein|mol2

> <Gold.PLP.Fitness>
45.5818

> <Gold.PLP.PLP>
-33.4346

> <Gold.PLP.part.hbond>
-5.3969

> <Gold.PLP.part.metal>
0.0000

> <Gold.PLP.part.buried>
5.5268

> <Gold.PLP.part.nonpolar>
-34.7433

> <Gold.PLP.part.repulsive>
0.3958

> <Gold.PLP.ligand.clash>
0.0000

> <Gold.PLP.ligand.torsion>
0.4434

> <Gold.PLP.Chemscore.Hbond>
4.3360

> <Gold.PLP.Chemscore.CHOScore>
0.0000

> <Gold.PLP.Chemscore.Metal>
0.0000

> <Gold.Chemscore.Hbonds>
donor molecule, donor type, donor heavy atom, donor atom, acceptor molecule, acceptor atom, score
      L1  H     3    47       P1 10175  1.47
      L1  H     8    34       P1  7948  0.98
      L1  H    19    48       P1  8028  1.89

> <Gold.PLP.Chemscore.Internal.Correction>
0.0258

> <Gold.Rescore>
     Score         DG    S(hbond)    S(metal)    S(lipo)     H(rot)  DE(clash)    DE(int)     intcor
     15.73     -20.94       2.58        0.00      84.48       1.19       2.96       2.24       ----

> <Gold.Chemscore.Fitness>
15.7311

> <Gold.Chemscore.DG>
-20.9350

> <Gold.Chemscore.ZeroCoef>
-5.4800

> <Gold.Chemscore.Hbond>
2.5837

> <Gold.Chemscore.Metal>
0.0000

> <Gold.Chemscore.Lipo>
84.4831

> <Gold.Chemscore.Internal_Hbond>
0.0000

> <Gold.Chemscore.DEClash>
2.9599

> <Gold.Chemscore.DEInternal>
2.2440

> <Gold.Chemscore.Rot>
1.1949

> <Gold.Chemscore.Internal.Correction>
   9.000000E+99

> <Gold.Chemscore.Hbonds>
donor molecule, donor type, donor heavy atom, donor atom, acceptor molecule, acceptor atom, score
      L1  H     3    47       P1 10175  0.67
      L1  H     8    34       P1  7948  0.93
      L1  H    19    48       P1  8028  0.91

> <Gold.Chemscore.Hbond.Weighted>
-8.6295

> <Gold.Chemscore.Metal.Weighted>
-0.0000

> <Gold.Chemscore.Lipo.Weighted>
-9.8845

> <Gold.Chemscore.Internal_Hbond.Weighted>
0.0000

> <Gold.Chemscore.DEClash.Weighted>
2.9599

> <Gold.Chemscore.DEInternal.Weighted>
2.2440

> <Gold.Chemscore.Rot.Weighted>
3.0590

> <Gold.Chemscore.Internal.Correction.Weighted>
   9.000000E+99

> <Gold.Protein.RotatedTorsions>
[ 6907 6896 6895 6894 ] final -115.01 input  -60.11 | X-H torsion
[ 7974 7965 7964 7962 ] final -177.30 input  175.53 | X-H torsion
[ 8008 7997 7996 7995 ] final  -99.33 input   59.86 | X-H torsion
[ 10167 10162 10161 10158 ] final   93.08 input  -65.29 | X-H torsion
[ 10718 10713 10712 10709 ] final -115.63 input   66.30 | X-H torsion
[ 10763 10752 10751 10750 ] final   23.77 input  -60.55 | X-H torsion
[ 11005 11000 10999 10996 ] final   28.58 input  -57.11 | X-H torsion

> <Gold.Protein.ActiveResidues>
 VAL166  LYS551  ARG553  GLY616  TRP617  ASP618  TYR619  PRO620  LYS621  CYS622 
 ASP623  PHE694  ASN695  SER759  ASP760  ASP761  ALA762  ILE779  LEU786  VAL792 
 PHE793  MET794  SER795  GLU796  ALA797  LYS798  CYS799  TRP800  GLU811  SER814 

> <Gold.Protein.RotatedAtoms>
  150.7945  133.8719  159.3260 H   0  0  0  0  0  0  0  0  0  0  0  0  # atno 6907 bound_to 6896
  151.6548  135.0995  160.0177 H   0  0  0  0  0  0  0  0  0  0  0  0  # atno 6908 bound_to 6896
  152.4025  133.6800  159.6363 H   0  0  0  0  0  0  0  0  0  0  0  0  # atno 6909 bound_to 6896
  144.7127  140.1040  143.6415 H   0  0  0  0  0  0  0  0  0  0  0  0  # atno 7974 bound_to 7965
  154.8134  140.0448  157.1359 H   0  0  0  0  0  0  0  0  0  0  0  0  # atno 8008 bound_to 7997
  154.9342  140.3044  155.5132 H   0  0  0  0  0  0  0  0  0  0  0  0  # atno 8009 bound_to 7997
  156.2974  140.2317  156.4405 H   0  0  0  0  0  0  0  0  0  0  0  0  # atno 8010 bound_to 7997
  139.8214  144.6729  150.9514 H   0  0  0  0  0  0  0  0  0  0  0  0  # atno 10167 bound_to 10162
  156.0908  130.6091  150.8930 H   0  0  0  0  0  0  0  0  0  0  0  0  # atno 10718 bound_to 10713
  153.0813  135.6620  154.0039 H   0  0  0  0  0  0  0  0  0  0  0  0  # atno 10763 bound_to 10752
  153.9660  135.2969  155.3432 H   0  0  0  0  0  0  0  0  0  0  0  0  # atno 10764 bound_to 10752
  154.7213  135.5163  153.8888 H   0  0  0  0  0  0  0  0  0  0  0  0  # atno 10765 bound_to 10752
  140.3140  134.2617  155.7729 H   0  0  0  0  0  0  0  0  0  0  0  0  # atno 11005 bound_to 11000
  145.9513  139.2736  143.1210 LP  0  0  0  0  0  0  0  0  0  0  0  0  # atno 17320 bound_to 7965
  145.9320  140.9042  143.0351 LP  0  0  0  0  0  0  0  0  0  0  0  0  # atno 17321 bound_to 7965
  140.7813  143.4088  151.1027 LP  0  0  0  0  0  0  0  0  0  0  0  0  # atno 17342 bound_to 10162
  139.7748  143.8441  152.3127 LP  0  0  0  0  0  0  0  0  0  0  0  0  # atno 17343 bound_to 10162
  157.6057  131.0939  150.8883 LP  0  0  0  0  0  0  0  0  0  0  0  0  # atno 17370 bound_to 10713
  156.9032  130.5254  149.5282 LP  0  0  0  0  0  0  0  0  0  0  0  0  # atno 17371 bound_to 10713
  141.2102  133.7727  156.9950 LP  0  0  0  0  0  0  0  0  0  0  0  0  # atno 17394 bound_to 11000
  140.0999  134.9541  157.1907 LP  0  0  0  0  0  0  0  0  0  0  0  0  # atno 17395 bound_to 11000

$$$$
