AV-unprocessed.smi:1244|AV-procd|sdf|5237|dock1
  -GOLD-   22720 4343D 1   1.00000     0.00000
 Structure written by MMmdl.
 55 57  0  0  0  0  0  0  0  0  4 V2000
  144.6991  131.9118  151.7164 C   0  0  0  0  0  0  0  0  0  0  0  0
  145.8454  132.3831  152.6179 C   0  0  2  0  0  0  0  0  0  0  0  0
  146.4719  133.7003  152.1191 C   0  0  0  0  0  0  0  0  0  0  0  0
  147.6203  134.1003  152.9689 N   0  3  1  0  0  0  0  0  0  0  0  0
  147.2239  134.7033  154.2722 C   0  0  0  0  0  0  0  0  0  0  0  0
  148.4302  135.3059  155.0215 C   0  0  0  0  0  0  0  0  0  0  0  0
  148.1243  136.6646  155.4669 N   0  5  0  0  0  0  0  0  0  0  0  0
  149.0164  137.5117  156.0462 C   0  0  0  0  0  0  0  0  0  0  0  0
  150.1477  137.2464  156.4698 O   0  0  0  0  0  0  0  0  0  0  0  0
  148.5442  138.7672  156.1218 N   0  0  0  0  0  0  0  0  0  0  0  0
  149.2288  139.9346  156.5560 C   0  0  0  0  0  0  0  0  0  0  0  0
  150.3997  139.8315  157.3478 C   0  0  0  0  0  0  0  0  0  0  0  0
  151.0216  140.9962  157.8358 C   0  0  0  0  0  0  0  0  0  0  0  0
  150.4514  142.2458  157.5381 C   0  0  0  0  0  0  0  0  0  0  0  0
  149.3286  142.3093  156.7926 N   0  3  0  0  0  0  0  0  0  0  0  0
  148.6920  141.2254  156.2813 C   0  0  0  0  0  0  0  0  0  0  0  0
  147.5294  141.4468  155.5076 N   0  0  0  0  0  0  0  0  0  0  0  0
  146.3400  142.0362  156.1108 C   0  0  0  0  0  0  0  0  0  0  0  0
  145.4487  142.4205  154.9329 C   0  0  0  0  0  0  0  0  0  0  0  0
  146.4646  142.8390  153.8740 C   0  0  0  0  0  0  0  0  0  0  0  0
  147.6602  141.9159  154.1314 C   0  0  0  0  0  0  0  0  0  0  0  0
  148.6014  132.9855  153.0653 C   0  0  0  0  0  0  0  0  0  0  0  0
  147.9260  131.6683  153.5055 C   0  0  2  0  0  0  0  0  0  0  0  0
  148.9015  130.4867  153.4773 C   0  0  0  0  0  0  0  0  0  0  0  0
  146.8486  131.3729  152.6226 O   0  0  0  0  0  0  0  0  0  0  0  0
  143.8965  132.6491  151.6842 H   0  0  0  0  0  0  0  0  0  0  0  0
  144.2754  130.9762  152.0826 H   0  0  0  0  0  0  0  0  0  0  0  0
  145.0424  131.7447  150.6950 H   0  0  0  0  0  0  0  0  0  0  0  0
  145.4569  132.5125  153.6297 H   0  0  0  0  0  0  0  0  0  0  0  0
  146.8321  133.5694  151.0976 H   0  0  0  0  0  0  0  0  0  0  0  0
  145.7296  134.4986  152.0794 H   0  0  0  0  0  0  0  0  0  0  0  0
  146.5036  135.5048  154.1006 H   0  0  0  0  0  0  0  0  0  0  0  0
  146.7089  133.9691  154.8920 H   0  0  0  0  0  0  0  0  0  0  0  0
  148.7015  134.6543  155.8532 H   0  0  0  0  0  0  0  0  0  0  0  0
  149.2942  135.2985  154.3565 H   0  0  0  0  0  0  0  0  0  0  0  0
  147.6533  138.9216  155.6728 H   0  0  0  0  0  0  0  0  0  0  0  0
  150.8155  138.8682  157.6037 H   0  0  0  0  0  0  0  0  0  0  0  0
  151.9144  140.9298  158.4401 H   0  0  0  0  0  0  0  0  0  0  0  0
  150.8530  143.1906  157.8746 H   0  0  0  0  0  0  0  0  0  0  0  0
  145.8435  141.3352  156.7824 H   0  0  0  0  0  0  0  0  0  0  0  0
  146.6054  142.9299  156.6775 H   0  0  0  0  0  0  0  0  0  0  0  0
  144.8896  141.5497  154.5876 H   0  0  0  0  0  0  0  0  0  0  0  0
  144.7352  143.2078  155.1779 H   0  0  0  0  0  0  0  0  0  0  0  0
  146.0788  142.7576  152.8574 H   0  0  0  0  0  0  0  0  0  0  0  0
  146.7598  143.8759  154.0397 H   0  0  0  0  0  0  0  0  0  0  0  0
  148.6045  142.4350  153.9611 H   0  0  0  0  0  0  0  0  0  0  0  0
  147.6191  141.0568  153.4611 H   0  0  0  0  0  0  0  0  0  0  0  0
  149.0532  132.8504  152.0817 H   0  0  0  0  0  0  0  0  0  0  0  0
  149.4170  133.2439  153.7420 H   0  0  0  0  0  0  0  0  0  0  0  0
  147.5379  131.7619  154.5205 H   0  0  0  0  0  0  0  0  0  0  0  0
  149.7434  130.6571  154.1487 H   0  0  0  0  0  0  0  0  0  0  0  0
  149.2995  130.3255  152.4751 H   0  0  0  0  0  0  0  0  0  0  0  0
  148.4078  129.5667  153.7911 H   0  0  0  0  0  0  0  0  0  0  0  0
  148.0806  134.8505  152.4728 H   0  0  0  0  0  0  0  0  0  0  0  0
  148.9385  143.2306  156.5951 H   0  0  0  0  0  0  0  0  0  0  0  0
  1  2  1  0  0  0  0
  1 26  1  0  0  0  0
  1 27  1  0  0  0  0
  1 28  1  0  0  0  0
  2 25  1  0  0  0  0
  2  3  1  0  0  0  0
  2 29  1  0  0  0  0
  3  4  1  0  0  0  0
  3 30  1  0  0  0  0
  3 31  1  0  0  0  0
  4  5  1  0  0  0  0
  4 22  1  0  0  0  0
  4 54  1  0  0  0  0
  5  6  1  0  0  0  0
  5 32  1  0  0  0  0
  5 33  1  0  0  0  0
  6  7  1  0  0  0  0
  6 34  1  0  0  0  0
  6 35  1  0  0  0  0
  7  8  1  0  0  0  0
  8  9  2  0  0  0  0
  8 10  1  0  0  0  0
 10 11  1  0  0  0  0
 10 36  1  0  0  0  0
 11 16  1  0  0  0  0
 11 12  2  0  0  0  0
 12 13  1  0  0  0  0
 12 37  1  0  0  0  0
 13 14  2  0  0  0  0
 13 38  1  0  0  0  0
 14 15  1  0  0  0  0
 14 39  1  0  0  0  0
 15 16  2  0  0  0  0
 15 55  1  0  0  0  0
 16 17  1  0  0  0  0
 17 21  1  0  0  0  0
 17 18  1  0  0  0  0
 18 19  1  0  0  0  0
 18 40  1  0  0  0  0
 18 41  1  0  0  0  0
 19 20  1  0  0  0  0
 19 42  1  0  0  0  0
 19 43  1  0  0  0  0
 20 21  1  0  0  0  0
 20 44  1  0  0  0  0
 20 45  1  0  0  0  0
 21 46  1  0  0  0  0
 21 47  1  0  0  0  0
 22 23  1  0  0  0  0
 22 48  1  0  0  0  0
 22 49  1  0  0  0  0
 23 24  1  0  0  0  0
 23 25  1  0  0  0  0
 23 50  1  0  0  0  0
 24 51  1  0  0  0  0
 24 52  1  0  0  0  0
 24 53  1  0  0  0  0
M  CHG  1   4   1
M  CHG  1   7  -1
M  CHG  1  15   1
M  END
> <s_m_source_file>
AV-unprocessed.smi

> <i_m_source_file_index>
1244

> <i_lp_mmshare_version>
43012

> <i_f3d_flags>
0

> <s_epik_input>
W0NIM11bQ0BASF0xW0NIMl1OKFtDSDJdW0NASF0oTzEpW0NIM10pW0NIMl1bQ0gyXVtOSF1DKD1PKVtOSF1jMltjSF1bY0hdW2NIXW5jMk4zW0NIMl1bQ0gyXVtDSDJdW0NIMl0z

> <s_epik_cmdline>
J2VwaWtfcHl0aG9uJywgJy1waCcsICc3LjAnLCAnLXRuJywgJzgnLCAnLW1hJywgJzIwMCcsICctbWV0YWxfYmluZGluZycsICctaW1hZScsICc8aW5maWxlLm1hZT4nLCAnLW9tYWUnLCAnPG91dGZpbGUubWFlPic=

> <r_lp_tautomer_probability>
0.999994

> <r_epik_Ionization_Penalty>
8.60539

> <r_epik_Ionization_Penalty_Charging>
8.60539

> <r_epik_Ionization_Penalty_Neutral>
3.60441e-06

> <r_epik_State_Penalty>
8.59967

> <r_epik_Charging_Adjusted_Penalty>
17.2051

> <i_epik_Tot_Q>
1

> <i_epik_Tot_abs_Q>
3

> <r_epik_Metal_State_Penalty>
4.59489

> <b_epik_Metal_Only>
1

> <s_lp_Force_Field>
OPLS_2005

> <r_lp_Energy>
45.4407

> <b_lp_Chiralities_Consistent>
1

> <s_lp_Variant>
AV-unprocessed.smi:1244-17

> <Gold.Version>
5.8.1

> <Gold.Id.Protein>
6NUR|6NUR_protein|mol2

> <Gold.PLP.Fitness>
44.6127

> <Gold.PLP.PLP>
-33.4977

> <Gold.PLP.part.hbond>
-2.0000

> <Gold.PLP.part.metal>
0.0000

> <Gold.PLP.part.buried>
-5.6629

> <Gold.PLP.part.nonpolar>
-25.4205

> <Gold.PLP.part.repulsive>
0.3005

> <Gold.PLP.ligand.clash>
0.2993

> <Gold.PLP.ligand.torsion>
0.7249

> <Gold.PLP.Chemscore.Hbond>
4.0000

> <Gold.PLP.Chemscore.CHOScore>
0.0000

> <Gold.PLP.Chemscore.Metal>
0.0000

> <Gold.Chemscore.Hbonds>
donor molecule, donor type, donor heavy atom, donor atom, acceptor molecule, acceptor atom, score
      L1  H     4    54       P1  7948  2.00
      L1  H    15    55       P1  8028  2.00

> <Gold.PLP.Chemscore.Internal.Correction>
0.8641

> <Gold.Rescore>
     Score         DG    S(hbond)    S(metal)    S(lipo)     H(rot)  DE(clash)    DE(int)     intcor
     14.73     -16.99       1.95        0.00      77.71       1.60       0.08       2.18       ----

> <Gold.Chemscore.Fitness>
14.7292

> <Gold.Chemscore.DG>
-16.9938

> <Gold.Chemscore.ZeroCoef>
-5.4800

> <Gold.Chemscore.Hbond>
1.9496

> <Gold.Chemscore.Metal>
0.0000

> <Gold.Chemscore.Lipo>
77.7149

> <Gold.Chemscore.Internal_Hbond>
0.0000

> <Gold.Chemscore.DEClash>
0.0811

> <Gold.Chemscore.DEInternal>
2.1836

> <Gold.Chemscore.Rot>
1.5978

> <Gold.Chemscore.Internal.Correction>
   9.000000E+99

> <Gold.Chemscore.Hbonds>
donor molecule, donor type, donor heavy atom, donor atom, acceptor molecule, acceptor atom, score
      L1  H     4    54       P1  7948  0.65
      L1  H    15    55       P1  8028  0.91

> <Gold.Chemscore.Hbond.Weighted>
-6.5117

> <Gold.Chemscore.Metal.Weighted>
-0.0000

> <Gold.Chemscore.Lipo.Weighted>
-9.0926

> <Gold.Chemscore.Internal_Hbond.Weighted>
0.0000

> <Gold.Chemscore.DEClash.Weighted>
0.0811

> <Gold.Chemscore.DEInternal.Weighted>
2.1836

> <Gold.Chemscore.Rot.Weighted>
4.0905

> <Gold.Chemscore.Internal.Correction.Weighted>
   9.000000E+99

> <Gold.Protein.RotatedTorsions>
[ 6907 6896 6895 6894 ] final   51.22 input  -60.11 | X-H torsion
[ 7974 7965 7964 7962 ] final    2.51 input  175.53 | X-H torsion
[ 8008 7997 7996 7995 ] final   67.52 input   59.86 | X-H torsion
[ 10167 10162 10161 10158 ] final  -99.05 input  -65.29 | X-H torsion
[ 10718 10713 10712 10709 ] final  -94.35 input   66.30 | X-H torsion
[ 10763 10752 10751 10750 ] final  -81.87 input  -60.55 | X-H torsion
[ 11005 11000 10999 10996 ] final  163.58 input  -57.11 | X-H torsion

> <Gold.Protein.ActiveResidues>
 VAL166  LYS551  ARG553  GLY616  TRP617  ASP618  TYR619  PRO620  LYS621  CYS622 
 ASP623  PHE694  ASN695  SER759  ASP760  ASP761  ALA762  ILE779  LEU786  VAL792 
 PHE793  MET794  SER795  GLU796  ALA797  LYS798  CYS799  TRP800  GLU811  SER814 

> <Gold.Protein.RotatedAtoms>
  152.3103  134.7505  160.0337 H   0  0  0  0  0  0  0  0  0  0  0  0  # atno 6907 bound_to 6896
  151.7988  133.3362  159.3529 H   0  0  0  0  0  0  0  0  0  0  0  0  # atno 6908 bound_to 6896
  150.7317  134.5703  159.5931 H   0  0  0  0  0  0  0  0  0  0  0  0  # atno 6909 bound_to 6896
  146.2444  140.0825  142.8356 H   0  0  0  0  0  0  0  0  0  0  0  0  # atno 7974 bound_to 7965
  155.6942  140.3496  155.4906 H   0  0  0  0  0  0  0  0  0  0  0  0  # atno 8008 bound_to 7997
  155.9497  140.1117  157.1009 H   0  0  0  0  0  0  0  0  0  0  0  0  # atno 8009 bound_to 7997
  154.4119  140.1196  156.5023 H   0  0  0  0  0  0  0  0  0  0  0  0  # atno 8010 bound_to 7997
  140.2665  143.3372  152.0575 H   0  0  0  0  0  0  0  0  0  0  0  0  # atno 10167 bound_to 10162
  156.0026  130.5064  150.5913 H   0  0  0  0  0  0  0  0  0  0  0  0  # atno 10718 bound_to 10713
  154.5688  135.5611  153.7076 H   0  0  0  0  0  0  0  0  0  0  0  0  # atno 10763 bound_to 10752
  153.0042  135.6292  154.2142 H   0  0  0  0  0  0  0  0  0  0  0  0  # atno 10764 bound_to 10752
  154.2082  135.2875  155.2947 H   0  0  0  0  0  0  0  0  0  0  0  0  # atno 10765 bound_to 10752
  140.2372  134.8079  157.3375 H   0  0  0  0  0  0  0  0  0  0  0  0  # atno 11005 bound_to 11000
  145.0721  140.9162  143.4876 LP  0  0  0  0  0  0  0  0  0  0  0  0  # atno 17320 bound_to 7965
  145.0961  139.2856  143.5710 LP  0  0  0  0  0  0  0  0  0  0  0  0  # atno 17321 bound_to 7965
  139.5001  144.6684  151.6300 LP  0  0  0  0  0  0  0  0  0  0  0  0  # atno 17342 bound_to 10162
  140.5924  143.9756  150.6333 LP  0  0  0  0  0  0  0  0  0  0  0  0  # atno 17343 bound_to 10162
  157.3777  131.0776  151.1503 LP  0  0  0  0  0  0  0  0  0  0  0  0  # atno 17370 bound_to 10713
  157.2236  130.6492  149.5821 LP  0  0  0  0  0  0  0  0  0  0  0  0  # atno 17371 bound_to 10713
  140.1690  134.4632  155.7844 LP  0  0  0  0  0  0  0  0  0  0  0  0  # atno 17394 bound_to 11000
  141.2213  133.6933  156.7675 LP  0  0  0  0  0  0  0  0  0  0  0  0  # atno 17395 bound_to 11000

$$$$
