#       Name:                AV-unprocessed.smi:1817
#       Creating user name   scv26
#       Creation time:       Fri Mar 27 09:03:52 2020


#       File generated by GOLD software.
#

@<TRIPOS>MOLECULE
AV-unprocessed.smi:1817
    48    49     1
SMALL
NO_CHARGES


@<TRIPOS>ATOM
      1 ****        -4.5941   1.3143   2.9485 C.3            1 S1                 0.0000
      2 ****        -3.8852   1.7454   1.6566 C.3            1 S1                 0.0000
      3 ****        -2.4254   1.6882   1.7056 N.3            1 S1                 0.0000
      4 ****        -1.8398   2.3047   0.5178 C.3            1 S1                 0.0000
      5 ****        -0.3011   2.2715   0.5563 C.3            1 S1                 0.0000
      6 ****         0.2207   0.9011   0.6484 N.3            1 S1                 0.0000
      7 ****         1.6990   0.8562   0.6731 C.3            1 S1                 0.0000
      8 ****         2.3561   1.5542  -0.5391 C.3            1 S1                 0.0000
      9 ****         2.2835  -0.5758   0.7928 C.3            1 S1                 0.0000
     10 ****         1.7760  -1.4736  -0.2431 N.am           1 S1                 0.0000
     11 ****         2.4339  -1.8409  -1.3518 C.2            1 S1                 0.0000
     12 ****         3.5756  -1.4679  -1.6209 O.2            1 S1                 0.0000
     13 ****         1.6827  -2.6525  -2.1135 N.am           1 S1                 0.0000
     14 ****         2.0239  -3.2461  -3.3546 C.2            1 S1                 0.0000
     15 ****         1.1143  -4.0274  -3.9490 N.2            1 S1                 0.0000
     16 ****         1.5781  -4.5432  -5.1531 N.2            1 S1                 0.0000
     17 ****         2.8209  -4.1302  -5.4198 C.2            1 S1                 0.0000
     18 ****         3.5497  -3.0699  -4.2269 S.3            1 S1                 0.0000
     19 ****        -0.3822   0.2811   1.8366 C.3            1 S1                 0.0000
     20 ****        -1.9211   0.3179   1.7956 C.3            1 S1                 0.0000
     21 ****        -5.6680   1.4835   2.8693 H              1 S1                 0.0000
     22 ****        -4.2325   1.8847   3.8046 H              1 S1                 0.0000
     23 ****        -4.4491   0.2554   3.1606 H              1 S1                 0.0000
     24 ****        -4.2531   1.1463   0.8222 H              1 S1                 0.0000
     25 ****        -4.1892   2.7714   1.4454 H              1 S1                 0.0000
     26 ****        -2.1935   1.7968  -0.3811 H              1 S1                 0.0000
     27 ****        -2.1715   3.3407   0.4399 H              1 S1                 0.0000
     28 ****         0.0557   2.7547  -0.3519 H              1 S1                 0.0000
     29 ****         0.0609   2.8684   1.3950 H              1 S1                 0.0000
     30 ****         2.0359   1.3984   1.5581 H              1 S1                 0.0000
     31 ****         3.4344   1.3931  -0.5521 H              1 S1                 0.0000
     32 ****         2.2118   2.6339  -0.5170 H              1 S1                 0.0000
     33 ****         1.9564   1.1805  -1.4822 H              1 S1                 0.0000
     34 ****         3.3740  -0.5396   0.7741 H              1 S1                 0.0000
     35 ****         2.0459  -1.0103   1.7631 H              1 S1                 0.0000
     36 ****         0.8380  -1.8232  -0.1123 H              1 S1                 0.0000
     37 ****         0.7597  -2.8706  -1.7678 H              1 S1                 0.0000
     38 ****         3.3120  -4.4527  -6.3259 H              1 S1                 0.0000
     39 ****        -0.0853  -0.7633   1.9150 H              1 S1                 0.0000
     40 ****        -0.0256   0.7784   2.7400 H              1 S1                 0.0000
     41 ****        -2.3019  -0.1648   2.6949 H              1 S1                 0.0000
     42 ****        -2.2795  -0.2703   0.9492 H              1 S1                 0.0000
     43 ****        -2.1596   2.1877   2.5302 LP             1 S1                 0.0000
     44 ****        -0.0306   0.3852  -0.1705 LP             1 S1                 0.0000
     45 ****         4.0624  -0.8573  -0.9962 LP             1 S1                 0.0000
     46 ****         4.0163  -1.7753  -2.4642 LP             1 S1                 0.0000
     47 ****         0.2081  -4.2175  -3.5713 LP             1 S1                 0.0000
     48 ****         1.0476  -5.1484  -5.7466 LP             1 S1                 0.0000
@<TRIPOS>BOND
    1    1    2 1     
    2    1   21 1     
    3    1   22 1     
    4    1   23 1     
    5    2    3 1     
    6    2   24 1     
    7    2   25 1     
    8    3   20 1     
    9    3    4 1     
   10    4    5 1     
   11    4   26 1     
   12    4   27 1     
   13    5    6 1     
   14    5   28 1     
   15    5   29 1     
   16    6    7 1     
   17    6   19 1     
   18    7    8 1     
   19    7    9 1     
   20    7   30 1     
   21    8   31 1     
   22    8   32 1     
   23    8   33 1     
   24    9   10 1     
   25    9   34 1     
   26    9   35 1     
   27   10   11 am    
   28   10   36 1     
   29   11   12 2     
   30   11   13 am    
   31   13   14 1     
   32   13   37 1     
   33   14   18 1     
   34   14   15 2     
   35   15   16 1     
   36   16   17 2     
   37   17   18 1     
   38   17   38 1     
   39   19   20 1     
   40   19   39 1     
   41   19   40 1     
   42   20   41 1     
   43   20   42 1     
   44    3   43 1     
   45    6   44 1     
   46   12   45 1     
   47   12   46 1     
   48   15   47 1     
   49   16   48 1     
@<TRIPOS>SUBSTRUCTURE
      1 S1             1
@<TRIPOS>SET
LONE_PAIRS      STATIC     ATOMS    <user>   **** ""
6 43 44 45 46 47 48
DONOR_HYDROGENS      STATIC     ATOMS    <user>   **** ""
2 36 37
ATOM$BLUE        STATIC     ATOMS    COLORGROUP SYSTEM
6 43 44 45 46 47 48
ATOM$RED        STATIC     ATOMS    COLORGROUP SYSTEM
2 36 37
