AV-unprocessed.smi:1406|AV-procd|sdf|5713|dock4
  -GOLD-   22720 5343D 1   1.00000     0.00000
 Structure written by MMmdl.
 41 43  0  0  0  0  0  0  0  0  2 V2000
  150.5005  137.9021  158.2409 C   0  0  0  0  0  0  0  0  0  0  0  0
  151.6577  138.2672  157.2888 C   0  0  2  0  0  0  0  0  0  0  0  0
  152.6701  139.2350  157.9222 C   0  0  0  0  0  0  0  0  0  0  0  0
  153.8683  138.9545  157.9658 O   0  0  0  0  0  0  0  0  0  0  0  0
  152.1702  140.3807  158.4123 N   0  0  0  0  0  0  0  0  0  0  0  0
  152.9471  141.4215  159.0784 C   0  0  2  0  0  0  0  0  0  0  0  0
  153.5083  140.9696  160.4383 C   0  0  0  0  0  0  0  0  0  0  0  0
  153.4080  142.2061  161.3532 C   0  0  0  0  0  0  0  0  0  0  0  0
  152.9102  143.2930  160.4885 N   0  3  2  0  0  0  0  0  0  0  0  0
  152.2070  144.4129  161.1511 C   0  0  0  0  0  0  0  0  0  0  0  0
  151.8455  145.4796  160.0982 C   0  0  0  0  0  0  0  0  0  0  0  0
  151.0626  144.8733  158.9159 C   0  0  0  0  0  0  0  0  0  0  0  0
  151.7981  143.6537  158.3277 C   0  0  0  0  0  0  0  0  0  0  0  0
  152.1003  142.6428  159.4472 C   0  0  1  0  0  0  0  0  0  0  0  0
  151.1750  138.7989  156.0203 N   0  0  0  0  0  0  0  0  0  0  0  0
  151.1336  140.0575  155.5772 C   0  0  0  0  0  0  0  0  0  0  0  0
  150.5830  140.1889  154.3787 N   0  0  0  0  0  0  0  0  0  0  0  0
  150.2783  138.8819  154.1231 C   0  0  0  0  0  0  0  0  0  0  0  0
  150.6018  138.0097  155.0775 N   0  0  0  0  0  0  0  0  0  0  0  0
  150.8750  137.4552  159.1625 H   0  0  0  0  0  0  0  0  0  0  0  0
  149.8307  137.1778  157.7767 H   0  0  0  0  0  0  0  0  0  0  0  0
  149.9044  138.7735  158.5152 H   0  0  0  0  0  0  0  0  0  0  0  0
  152.1933  137.3426  157.0654 H   0  0  0  0  0  0  0  0  0  0  0  0
  151.1748  140.5324  158.3356 H   0  0  0  0  0  0  0  0  0  0  0  0
  153.7845  141.7346  158.4507 H   0  0  0  0  0  0  0  0  0  0  0  0
  152.9218  140.1522  160.8603 H   0  0  0  0  0  0  0  0  0  0  0  0
  154.5363  140.6182  160.3413 H   0  0  0  0  0  0  0  0  0  0  0  0
  152.7011  142.0154  162.1624 H   0  0  0  0  0  0  0  0  0  0  0  0
  154.3671  142.4741  161.7972 H   0  0  0  0  0  0  0  0  0  0  0  0
  151.3077  144.0462  161.6486 H   0  0  0  0  0  0  0  0  0  0  0  0
  152.8489  144.8449  161.9197 H   0  0  0  0  0  0  0  0  0  0  0  0
  151.2655  146.2794  160.5598 H   0  0  0  0  0  0  0  0  0  0  0  0
  152.7605  145.9407  159.7237 H   0  0  0  0  0  0  0  0  0  0  0  0
  150.0718  144.5694  159.2558 H   0  0  0  0  0  0  0  0  0  0  0  0
  150.9062  145.6265  158.1433 H   0  0  0  0  0  0  0  0  0  0  0  0
  151.1862  143.1925  157.5523 H   0  0  0  0  0  0  0  0  0  0  0  0
  152.7247  143.9730  157.8486 H   0  0  0  0  0  0  0  0  0  0  0  0
  151.1623  142.3065  159.8956 H   0  0  0  0  0  0  0  0  0  0  0  0
  151.5097  140.8960  156.1450 H   0  0  0  0  0  0  0  0  0  0  0  0
  149.7976  138.5645  153.2095 H   0  0  0  0  0  0  0  0  0  0  0  0
  153.7174  143.6798  160.0205 H   0  0  0  0  0  0  0  0  0  0  0  0
  1  2  1  0  0  0  0
  1 20  1  0  0  0  0
  1 21  1  0  0  0  0
  1 22  1  0  0  0  0
  2  3  1  0  0  0  0
  2 15  1  0  0  0  0
  2 23  1  0  0  0  0
  3  4  2  0  0  0  0
  3  5  1  0  0  0  0
  5  6  1  0  0  0  0
  5 24  1  0  0  0  0
  6 14  1  0  0  0  0
  6  7  1  0  0  0  0
  6 25  1  0  0  0  0
  7  8  1  0  0  0  0
  7 26  1  0  0  0  0
  7 27  1  0  0  0  0
  8  9  1  0  0  0  0
  8 28  1  0  0  0  0
  8 29  1  0  0  0  0
  9 14  1  0  0  0  0
  9 10  1  0  0  0  0
  9 41  1  0  0  0  0
 10 11  1  0  0  0  0
 10 30  1  0  0  0  0
 10 31  1  0  0  0  0
 11 12  1  0  0  0  0
 11 32  1  0  0  0  0
 11 33  1  0  0  0  0
 12 13  1  0  0  0  0
 12 34  1  0  0  0  0
 12 35  1  0  0  0  0
 13 14  1  0  0  0  0
 13 36  1  0  0  0  0
 13 37  1  0  0  0  0
 14 38  1  0  0  0  0
 15 19  1  0  0  0  0
 15 16  1  0  0  0  0
 16 17  2  0  0  0  0
 16 39  1  0  0  0  0
 17 18  1  0  0  0  0
 18 19  2  0  0  0  0
 18 40  1  0  0  0  0
M  CHG  1   9   1
M  END
> <s_m_source_file>
AV-unprocessed.smi

> <i_m_source_file_index>
1406

> <i_lp_mmshare_version>
43012

> <i_f3d_flags>
0

> <s_epik_input>
bjFbY0hdbltjSF1uMVtDQEhdKFtDSDNdKUMoPU8pW05IXVtDQEhdKFtDSDJdW0NIMl0yKVtDQEBIXShOMjMpW0NIMl1bQ0gyXVtDSDJdW0NIMl0z

> <s_epik_cmdline>
J2VwaWtfcHl0aG9uJywgJy1waCcsICc3LjAnLCAnLXRuJywgJzgnLCAnLW1hJywgJzIwMCcsICctbWV0YWxfYmluZGluZycsICctaW1hZScsICc8aW5maWxlLm1hZT4nLCAnLW9tYWUnLCAnPG91dGZpbGUubWFlPic=

> <r_lp_tautomer_probability>
1

> <r_epik_Ionization_Penalty>
0.00197066

> <r_epik_Ionization_Penalty_Charging>
0.00196223

> <r_epik_Ionization_Penalty_Neutral>
8.43107e-06

> <r_epik_State_Penalty>
0.00133866

> <r_epik_Charging_Adjusted_Penalty>
0.00330089

> <i_epik_Tot_Q>
1

> <i_epik_Tot_abs_Q>
1

> <r_epik_Metal_State_Penalty>
-0

> <b_epik_Metal_Only>
0

> <s_lp_Force_Field>
OPLS_2005

> <r_lp_Energy>
39.8757

> <b_lp_Chiralities_Consistent>
1

> <s_lp_Variant>
AV-unprocessed.smi:1406-5

> <Gold.Version>
5.8.1

> <Gold.Id.Protein>
6NUR|6NUR_protein|mol2

> <Gold.PLP.Fitness>
49.7666

> <Gold.PLP.PLP>
-41.3058

> <Gold.PLP.part.hbond>
-1.8850

> <Gold.PLP.part.metal>
0.0000

> <Gold.PLP.part.buried>
-5.6585

> <Gold.PLP.part.nonpolar>
-33.4115

> <Gold.PLP.part.repulsive>
0.3638

> <Gold.PLP.ligand.clash>
0.0000

> <Gold.PLP.ligand.torsion>
0.6688

> <Gold.PLP.Chemscore.Hbond>
1.9750

> <Gold.PLP.Chemscore.CHOScore>
1.2539

> <Gold.PLP.Chemscore.Metal>
0.0000

> <Gold.Chemscore.Hbonds>
donor molecule, donor type, donor heavy atom, donor atom, acceptor molecule, acceptor atom, score
      P1  H  7989  7998       L1    17  0.99
      P1  H  7997  8009       L1     4  1.00
      L1  C    18    40       P1  7948  0.38
      L1  C    18    40       P1  7957  0.87

> <Gold.PLP.Chemscore.Internal.Correction>
0.1115

> <Gold.Rescore>
     Score         DG    S(hbond)    S(metal)    S(lipo)     H(rot)  DE(clash)    DE(int)     intcor
     17.77     -18.32       1.90        0.00      96.76       1.89       0.12       0.43       ----

> <Gold.Chemscore.Fitness>
17.7733

> <Gold.Chemscore.DG>
-18.3220

> <Gold.Chemscore.ZeroCoef>
-5.4800

> <Gold.Chemscore.Hbond>
1.9015

> <Gold.Chemscore.Metal>
0.0000

> <Gold.Chemscore.Lipo>
96.7560

> <Gold.Chemscore.Internal_Hbond>
0.0000

> <Gold.Chemscore.DEClash>
0.1213

> <Gold.Chemscore.DEInternal>
0.4274

> <Gold.Chemscore.Rot>
1.8865

> <Gold.Chemscore.Internal.Correction>
   9.000000E+99

> <Gold.Chemscore.Hbonds>
donor molecule, donor type, donor heavy atom, donor atom, acceptor molecule, acceptor atom, score
      P1  H  7989  7998       L1    17  0.53
      P1  H  7997  8009       L1     4  0.89

> <Gold.Chemscore.Hbond.Weighted>
-6.3511

> <Gold.Chemscore.Metal.Weighted>
-0.0000

> <Gold.Chemscore.Lipo.Weighted>
-11.3204

> <Gold.Chemscore.Internal_Hbond.Weighted>
0.0000

> <Gold.Chemscore.DEClash.Weighted>
0.1213

> <Gold.Chemscore.DEInternal.Weighted>
0.4274

> <Gold.Chemscore.Rot.Weighted>
4.8295

> <Gold.Chemscore.Internal.Correction.Weighted>
   9.000000E+99

> <Gold.Protein.RotatedTorsions>
[ 6907 6896 6895 6894 ] final -172.54 input  -60.11 | X-H torsion
[ 7974 7965 7964 7962 ] final   13.86 input  175.53 | X-H torsion
[ 8008 7997 7996 7995 ] final  136.14 input   59.86 | X-H torsion
[ 10167 10162 10161 10158 ] final  -54.07 input  -65.29 | X-H torsion
[ 10718 10713 10712 10709 ] final   83.70 input   66.30 | X-H torsion
[ 10763 10752 10751 10750 ] final   15.07 input  -60.55 | X-H torsion
[ 11005 11000 10999 10996 ] final   87.44 input  -57.11 | X-H torsion

> <Gold.Protein.ActiveResidues>
 VAL166  LYS551  ARG553  GLY616  TRP617  ASP618  TYR619  PRO620  LYS621  CYS622 
 ASP623  PHE694  ASN695  SER759  ASP760  ASP761  ALA762  ILE779  LEU786  VAL792 
 PHE793  MET794  SER795  GLU796  ALA797  LYS798  CYS799  TRP800  GLU811  SER814 

> <Gold.Protein.RotatedAtoms>
  151.5416  133.3432  159.2936 H   0  0  0  0  0  0  0  0  0  0  0  0  # atno 6907 bound_to 6896
  150.8532  134.7866  159.7036 H   0  0  0  0  0  0  0  0  0  0  0  0  # atno 6908 bound_to 6896
  152.4573  134.5272  159.9852 H   0  0  0  0  0  0  0  0  0  0  0  0  # atno 6909 bound_to 6896
  146.2319  139.9125  142.8522 H   0  0  0  0  0  0  0  0  0  0  0  0  # atno 7974 bound_to 7965
  156.3004  140.2453  156.3697 H   0  0  0  0  0  0  0  0  0  0  0  0  # atno 8008 bound_to 7997
  154.8800  140.0413  157.1796 H   0  0  0  0  0  0  0  0  0  0  0  0  # atno 8009 bound_to 7997
  154.8705  140.2934  155.5488 H   0  0  0  0  0  0  0  0  0  0  0  0  # atno 8010 bound_to 7997
  140.6451  143.2530  151.4883 H   0  0  0  0  0  0  0  0  0  0  0  0  # atno 10167 bound_to 10162
  157.6884  131.0102  150.2562 H   0  0  0  0  0  0  0  0  0  0  0  0  # atno 10718 bound_to 10713
  153.1560  135.6787  153.8811 H   0  0  0  0  0  0  0  0  0  0  0  0  # atno 10763 bound_to 10752
  153.8222  135.3128  155.3412 H   0  0  0  0  0  0  0  0  0  0  0  0  # atno 10764 bound_to 10752
  154.7898  135.4841  154.0115 H   0  0  0  0  0  0  0  0  0  0  0  0  # atno 10765 bound_to 10752
  139.8919  134.8422  156.2860 H   0  0  0  0  0  0  0  0  0  0  0  0  # atno 11005 bound_to 11000
  145.2215  140.9937  143.4043 LP  0  0  0  0  0  0  0  0  0  0  0  0  # atno 17320 bound_to 7965
  144.9606  139.3984  143.6357 LP  0  0  0  0  0  0  0  0  0  0  0  0  # atno 17321 bound_to 7965
  139.5661  144.2039  152.1766 LP  0  0  0  0  0  0  0  0  0  0  0  0  # atno 17342 bound_to 10162
  140.1322  144.5278  150.6796 LP  0  0  0  0  0  0  0  0  0  0  0  0  # atno 17343 bound_to 10162
  156.3150  130.3777  149.7627 LP  0  0  0  0  0  0  0  0  0  0  0  0  # atno 17370 bound_to 10713
  156.5215  130.8217  151.3205 LP  0  0  0  0  0  0  0  0  0  0  0  0  # atno 17371 bound_to 10713
  141.0007  133.7153  156.0957 LP  0  0  0  0  0  0  0  0  0  0  0  0  # atno 17394 bound_to 11000
  140.7501  134.4054  157.5542 LP  0  0  0  0  0  0  0  0  0  0  0  0  # atno 17395 bound_to 11000

$$$$
