AV-unprocessed.smi:819|AV-procd|sdf|3834|dock1
  -GOLD-   22720 1273D 1   1.00000     0.00000
 Structure written by MMmdl.
 40 41  0  0  0  0  0  0  0  0  1 V2000
  150.3008  133.7651  155.2581 C   0  0  0  0  0  0  0  0  0  0  0  0
  149.1957  134.8189  155.0738 C   0  0  2  0  0  0  0  0  0  0  0  0
  148.5960  134.6273  153.7543 N   0  0  0  0  0  0  0  0  0  0  0  0
  147.4989  133.8954  153.5066 C   0  0  0  0  0  0  0  0  0  0  0  0
  146.8890  133.2743  154.3770 O   0  0  0  0  0  0  0  0  0  0  0  0
  147.1552  133.9566  152.2088 N   0  0  0  0  0  0  0  0  0  0  0  0
  146.0536  133.3380  151.5580 C   0  0  0  0  0  0  0  0  0  0  0  0
  146.2734  132.7610  150.2904 C   0  0  0  0  0  0  0  0  0  0  0  0
  145.2035  132.1284  149.6293 C   0  0  0  0  0  0  0  0  0  0  0  0
  143.9500  132.0891  150.2697 C   0  0  0  0  0  0  0  0  0  0  0  0
  143.7253  132.6219  151.4891 N   0  0  0  0  0  0  0  0  0  0  0  0
  144.7558  133.2287  152.1169 C   0  0  0  0  0  0  0  0  0  0  0  0
  149.8280  136.2163  155.1661 C   0  0  0  0  0  0  0  0  0  0  0  0
  149.5119  136.9873  156.0738 O   0  0  0  0  0  0  0  0  0  0  0  0
  150.7263  136.5235  154.2186 N   0  0  0  0  0  0  0  0  0  0  0  0
  151.4728  137.7759  154.1429 C   0  0  0  0  0  0  0  0  0  0  0  0
  152.3471  137.9679  155.3972 C   0  0  0  0  0  0  0  0  0  0  0  0
  152.0915  139.3977  155.8771 C   0  0  0  0  0  0  0  0  0  0  0  0
  150.6586  139.6899  155.4446 C   0  0  0  0  0  0  0  0  0  0  0  0
  150.5290  138.9954  154.0889 C   0  0  0  0  0  0  0  0  0  0  0  0
  150.7903  133.8710  156.2272 H   0  0  0  0  0  0  0  0  0  0  0  0
  151.0695  133.8397  154.4871 H   0  0  0  0  0  0  0  0  0  0  0  0
  149.8876  132.7571  155.2133 H   0  0  0  0  0  0  0  0  0  0  0  0
  148.4380  134.6901  155.8495 H   0  0  0  0  0  0  0  0  0  0  0  0
  149.0299  135.1132  152.9834 H   0  0  0  0  0  0  0  0  0  0  0  0
  147.7080  134.5742  151.6324 H   0  0  0  0  0  0  0  0  0  0  0  0
  147.2477  132.8054  149.8255 H   0  0  0  0  0  0  0  0  0  0  0  0
  145.3403  131.6831  148.6549 H   0  0  0  0  0  0  0  0  0  0  0  0
  143.1068  131.6117  149.7926 H   0  0  0  0  0  0  0  0  0  0  0  0
  144.5206  133.6117  153.0975 H   0  0  0  0  0  0  0  0  0  0  0  0
  150.9273  135.8289  153.5138 H   0  0  0  0  0  0  0  0  0  0  0  0
  152.1079  137.7666  153.2548 H   0  0  0  0  0  0  0  0  0  0  0  0
  152.0485  137.2738  156.1846 H   0  0  0  0  0  0  0  0  0  0  0  0
  153.4036  137.7886  155.1949 H   0  0  0  0  0  0  0  0  0  0  0  0
  152.2384  139.5130  156.9514 H   0  0  0  0  0  0  0  0  0  0  0  0
  152.7731  140.0829  155.3714 H   0  0  0  0  0  0  0  0  0  0  0  0
  149.9615  139.2432  156.1549 H   0  0  0  0  0  0  0  0  0  0  0  0
  150.4432  140.7575  155.3918 H   0  0  0  0  0  0  0  0  0  0  0  0
  150.8654  139.6738  153.3041 H   0  0  0  0  0  0  0  0  0  0  0  0
  149.4932  138.7375  153.8634 H   0  0  0  0  0  0  0  0  0  0  0  0
  1  2  1  0  0  0  0
  1 21  1  0  0  0  0
  1 22  1  0  0  0  0
  1 23  1  0  0  0  0
  2  3  1  0  0  0  0
  2 13  1  0  0  0  0
  2 24  1  0  0  0  0
  3  4  1  0  0  0  0
  3 25  1  0  0  0  0
  4  5  2  0  0  0  0
  4  6  1  0  0  0  0
  6  7  1  0  0  0  0
  6 26  1  0  0  0  0
  7 12  1  0  0  0  0
  7  8  2  0  0  0  0
  8  9  1  0  0  0  0
  8 27  1  0  0  0  0
  9 10  2  0  0  0  0
  9 28  1  0  0  0  0
 10 11  1  0  0  0  0
 10 29  1  0  0  0  0
 11 12  2  0  0  0  0
 12 30  1  0  0  0  0
 13 14  2  0  0  0  0
 13 15  1  0  0  0  0
 15 16  1  0  0  0  0
 15 31  1  0  0  0  0
 16 20  1  0  0  0  0
 16 17  1  0  0  0  0
 16 32  1  0  0  0  0
 17 18  1  0  0  0  0
 17 33  1  0  0  0  0
 17 34  1  0  0  0  0
 18 19  1  0  0  0  0
 18 35  1  0  0  0  0
 18 36  1  0  0  0  0
 19 20  1  0  0  0  0
 19 37  1  0  0  0  0
 19 38  1  0  0  0  0
 20 39  1  0  0  0  0
 20 40  1  0  0  0  0
M  END
> <s_m_source_file>
AV-unprocessed.smi

> <i_m_source_file_index>
819

> <i_lp_mmshare_version>
43012

> <i_f3d_flags>
0

> <s_epik_input>
W0NIMl0xW0NIMl1bQ0gyXVtDSDJdW0NIXTFbTkhdQyg9TylbQ0BIXShbQ0gzXSlbTkhdQyg9TylbTkhdYzJbY0hdW2NIXVtjSF1uW2NIXTI=

> <s_epik_cmdline>
J2VwaWtfcHl0aG9uJywgJy1waCcsICc3LjAnLCAnLXRuJywgJzgnLCAnLW1hJywgJzIwMCcsICctbWV0YWxfYmluZGluZycsICctaW1hZScsICc8aW5maWxlLm1hZT4nLCAnLW9tYWUnLCAnPG91dGZpbGUubWFlPic=

> <r_epik_Ionization_Penalty>
0.00416979

> <r_epik_Ionization_Penalty_Charging>
0

> <r_epik_Ionization_Penalty_Neutral>
0.00416979

> <r_epik_State_Penalty>
0.00297037

> <r_epik_Charging_Adjusted_Penalty>
0.00297037

> <i_epik_Tot_Q>
0

> <i_epik_Tot_abs_Q>
0

> <r_epik_Metal_State_Penalty>
-0

> <b_epik_Metal_Only>
0

> <s_lp_Force_Field>
OPLS_2005

> <r_lp_Energy>
20.2836

> <b_lp_Chiralities_Consistent>
1

> <s_lp_Variant>
AV-unprocessed.smi:819-1

> <Gold.Version>
5.8.1

> <Gold.Id.Protein>
6NUR|6NUR_protein|mol2

> <Gold.PLP.Fitness>
43.0927

> <Gold.PLP.PLP>
-35.6030

> <Gold.PLP.part.hbond>
-3.8993

> <Gold.PLP.part.metal>
0.0000

> <Gold.PLP.part.buried>
-2.9114

> <Gold.PLP.part.nonpolar>
-29.0168

> <Gold.PLP.part.repulsive>
0.4093

> <Gold.PLP.ligand.clash>
0.0000

> <Gold.PLP.ligand.torsion>
0.7226

> <Gold.PLP.Chemscore.Hbond>
2.1596

> <Gold.PLP.Chemscore.CHOScore>
0.8142

> <Gold.PLP.Chemscore.Metal>
0.0000

> <Gold.Chemscore.Hbonds>
donor molecule, donor type, donor heavy atom, donor atom, acceptor molecule, acceptor atom, score
      L1  H     3    25       P1  7948  0.80
      L1  H     6    26       P1  7948  0.72
      L1  H    15    31       P1  7949  0.48
      L1  C    10    29       P1 10952  0.77

> <Gold.PLP.Chemscore.Internal.Correction>
0.0134

> <Gold.Rescore>
     Score         DG    S(hbond)    S(metal)    S(lipo)     H(rot)  DE(clash)    DE(int)     intcor
     13.71     -16.85       1.71        0.00      81.62       1.52       0.00       3.14       ----

> <Gold.Chemscore.Fitness>
13.7083

> <Gold.Chemscore.DG>
-16.8456

> <Gold.Chemscore.ZeroCoef>
-5.4800

> <Gold.Chemscore.Hbond>
1.7107

> <Gold.Chemscore.Metal>
0.0000

> <Gold.Chemscore.Lipo>
81.6196

> <Gold.Chemscore.Internal_Hbond>
0.0000

> <Gold.Chemscore.DEClash>
0.0009

> <Gold.Chemscore.DEInternal>
3.1365

> <Gold.Chemscore.Rot>
1.5225

> <Gold.Chemscore.Internal.Correction>
   9.000000E+99

> <Gold.Chemscore.Hbonds>
donor molecule, donor type, donor heavy atom, donor atom, acceptor molecule, acceptor atom, score
      L1  H     3    25       P1  7948  0.11
      L1  H     6    26       P1  7948  0.13
      L1  H    15    31       P1  7949  0.06

> <Gold.Chemscore.Hbond.Weighted>
-5.7139

> <Gold.Chemscore.Metal.Weighted>
-0.0000

> <Gold.Chemscore.Lipo.Weighted>
-9.5495

> <Gold.Chemscore.Internal_Hbond.Weighted>
0.0000

> <Gold.Chemscore.DEClash.Weighted>
0.0009

> <Gold.Chemscore.DEInternal.Weighted>
3.1365

> <Gold.Chemscore.Rot.Weighted>
3.8977

> <Gold.Chemscore.Internal.Correction.Weighted>
   9.000000E+99

> <Gold.Protein.RotatedTorsions>
[ 6907 6896 6895 6894 ] final -137.33 input  -60.11 | X-H torsion
[ 7974 7965 7964 7962 ] final  -46.67 input  175.53 | X-H torsion
[ 8008 7997 7996 7995 ] final  -94.40 input   59.86 | X-H torsion
[ 10167 10162 10161 10158 ] final   78.97 input  -65.29 | X-H torsion
[ 10718 10713 10712 10709 ] final -127.38 input   66.30 | X-H torsion
[ 10763 10752 10751 10750 ] final  -49.29 input  -60.55 | X-H torsion
[ 11005 11000 10999 10996 ] final  -59.34 input  -57.11 | X-H torsion

> <Gold.Protein.ActiveResidues>
 VAL166  LYS551  ARG553  GLY616  TRP617  ASP618  TYR619  PRO620  LYS621  CYS622 
 ASP623  PHE694  ASN695  SER759  ASP760  ASP761  ALA762  ILE779  LEU786  VAL792 
 PHE793  MET794  SER795  GLU796  ALA797  LYS798  CYS799  TRP800  GLU811  SER814 

> <Gold.Protein.RotatedAtoms>
  151.0211  133.5876  159.2671 H   0  0  0  0  0  0  0  0  0  0  0  0  # atno 6907 bound_to 6896
  151.2992  135.0763  159.9242 H   0  0  0  0  0  0  0  0  0  0  0  0  # atno 6908 bound_to 6896
  152.5323  133.9895  159.7898 H   0  0  0  0  0  0  0  0  0  0  0  0  # atno 6909 bound_to 6896
  145.9695  140.7397  142.9417 H   0  0  0  0  0  0  0  0  0  0  0  0  # atno 7974 bound_to 7965
  154.7479  140.0489  157.0868 H   0  0  0  0  0  0  0  0  0  0  0  0  # atno 8008 bound_to 7997
  155.0095  140.3134  155.4816 H   0  0  0  0  0  0  0  0  0  0  0  0  # atno 8009 bound_to 7997
  156.2879  140.2187  156.5208 H   0  0  0  0  0  0  0  0  0  0  0  0  # atno 8010 bound_to 7997
  139.9653  144.5932  150.8035 H   0  0  0  0  0  0  0  0  0  0  0  0  # atno 10167 bound_to 10162
  156.1851  130.6758  151.0354 H   0  0  0  0  0  0  0  0  0  0  0  0  # atno 10718 bound_to 10713
  154.0917  135.6576  153.4853 H   0  0  0  0  0  0  0  0  0  0  0  0  # atno 10763 bound_to 10752
  153.0319  135.5204  154.7374 H   0  0  0  0  0  0  0  0  0  0  0  0  # atno 10764 bound_to 10752
  154.6499  135.3000  154.9968 H   0  0  0  0  0  0  0  0  0  0  0  0  # atno 10765 bound_to 10752
  141.1244  133.6616  156.5056 H   0  0  0  0  0  0  0  0  0  0  0  0  # atno 11005 bound_to 11000
  144.6833  140.2725  143.7304 LP  0  0  0  0  0  0  0  0  0  0  0  0  # atno 17320 bound_to 7965
  145.7926  139.1933  143.2094 LP  0  0  0  0  0  0  0  0  0  0  0  0  # atno 17321 bound_to 7965
  140.7540  143.3019  151.3060 LP  0  0  0  0  0  0  0  0  0  0  0  0  # atno 17342 bound_to 10162
  139.6523  144.0340  152.2635 LP  0  0  0  0  0  0  0  0  0  0  0  0  # atno 17343 bound_to 10162
  157.6894  131.0815  150.7152 LP  0  0  0  0  0  0  0  0  0  0  0  0  # atno 17370 bound_to 10713
  156.7208  130.4680  149.5523 LP  0  0  0  0  0  0  0  0  0  0  0  0  # atno 17371 bound_to 10713
  140.4410  134.7015  157.4992 LP  0  0  0  0  0  0  0  0  0  0  0  0  # atno 17394 bound_to 11000
  140.0229  134.6520  155.9214 LP  0  0  0  0  0  0  0  0  0  0  0  0  # atno 17395 bound_to 11000

$$$$
