AV-unprocessed.smi:1838|AV-procd|sdf|7483|dock7
  -GOLD-   22720 9183D 1   1.00000     0.00000
 Structure written by MMmdl.
 35 36  0  0  0  0  0  0  0  0  1 V2000
  151.6585  138.2538  154.4420 C   0  0  0  0  0  0  0  0  0  0  0  0
  150.2928  138.1979  154.0441 O   0  0  0  0  0  0  0  0  0  0  0  0
  149.5196  139.3359  154.1752 C   0  0  0  0  0  0  0  0  0  0  0  0
  150.0853  140.4370  154.7306 N   0  0  0  0  0  0  0  0  0  0  0  0
  149.3346  141.5492  154.8609 C   0  0  0  0  0  0  0  0  0  0  0  0
  147.9923  141.6235  154.4484 C   0  0  0  0  0  0  0  0  0  0  0  0
  147.4026  140.4831  153.8723 C   0  0  0  0  0  0  0  0  0  0  0  0
  148.1774  139.3051  153.7272 C   0  0  0  0  0  0  0  0  0  0  0  0
  147.6997  138.0872  153.1630 N   0  0  0  0  0  0  0  0  0  0  0  0
  146.4408  137.6389  153.0163 C   0  0  0  0  0  0  0  0  0  0  0  0
  145.4198  138.2369  153.3532 O   0  0  0  0  0  0  0  0  0  0  0  0
  146.4285  136.4289  152.4394 N   0  0  0  0  0  0  0  0  0  0  0  0
  145.2337  135.6350  152.1588 C   0  0  1  0  0  0  0  0  0  0  0  0
  145.3577  134.9102  150.8052 C   0  0  0  0  0  0  0  0  0  0  0  0
  144.1911  133.9371  150.6145 C   0  0  0  0  0  0  0  0  0  0  0  0
  144.1497  132.9165  151.7634 C   0  0  0  0  0  0  0  0  0  0  0  0
  144.3171  133.5251  153.0842 N   0  0  0  0  0  0  0  0  0  0  0  0
  144.8706  134.7230  153.3444 C   0  0  0  0  0  0  0  0  0  0  0  0
  145.0492  135.1078  154.4990 O   0  0  0  0  0  0  0  0  0  0  0  0
  152.1211  137.2803  154.2806 H   0  0  0  0  0  0  0  0  0  0  0  0
  151.7559  138.4938  155.5019 H   0  0  0  0  0  0  0  0  0  0  0  0
  152.2155  138.9859  153.8555 H   0  0  0  0  0  0  0  0  0  0  0  0
  149.8186  142.4052  155.3074 H   0  0  0  0  0  0  0  0  0  0  0  0
  147.4263  142.5351  154.5713 H   0  0  0  0  0  0  0  0  0  0  0  0
  146.3733  140.5474  153.5602 H   0  0  0  0  0  0  0  0  0  0  0  0
  148.4231  137.4693  152.8246 H   0  0  0  0  0  0  0  0  0  0  0  0
  147.3141  136.0083  152.1990 H   0  0  0  0  0  0  0  0  0  0  0  0
  144.3879  136.3211  152.0830 H   0  0  0  0  0  0  0  0  0  0  0  0
  145.3752  135.6324  149.9881 H   0  0  0  0  0  0  0  0  0  0  0  0
  146.3002  134.3626  150.7583 H   0  0  0  0  0  0  0  0  0  0  0  0
  143.2545  134.4957  150.5857 H   0  0  0  0  0  0  0  0  0  0  0  0
  144.2754  133.4228  149.6566 H   0  0  0  0  0  0  0  0  0  0  0  0
  143.2112  132.3621  151.7409 H   0  0  0  0  0  0  0  0  0  0  0  0
  144.9483  132.1854  151.6319 H   0  0  0  0  0  0  0  0  0  0  0  0
  144.0475  132.9591  153.8759 H   0  0  0  0  0  0  0  0  0  0  0  0
  1  2  1  0  0  0  0
  1 20  1  0  0  0  0
  1 21  1  0  0  0  0
  1 22  1  0  0  0  0
  2  3  1  0  0  0  0
  3  8  1  0  0  0  0
  3  4  2  0  0  0  0
  4  5  1  0  0  0  0
  5  6  2  0  0  0  0
  5 23  1  0  0  0  0
  6  7  1  0  0  0  0
  6 24  1  0  0  0  0
  7  8  2  0  0  0  0
  7 25  1  0  0  0  0
  8  9  1  0  0  0  0
  9 10  1  0  0  0  0
  9 26  1  0  0  0  0
 10 11  2  0  0  0  0
 10 12  1  0  0  0  0
 12 13  1  0  0  0  0
 12 27  1  0  0  0  0
 13 18  1  0  0  0  0
 13 14  1  0  0  0  0
 13 28  1  0  0  0  0
 14 15  1  0  0  0  0
 14 29  1  0  0  0  0
 14 30  1  0  0  0  0
 15 16  1  0  0  0  0
 15 31  1  0  0  0  0
 15 32  1  0  0  0  0
 16 17  1  0  0  0  0
 16 33  1  0  0  0  0
 16 34  1  0  0  0  0
 17 18  1  0  0  0  0
 17 35  1  0  0  0  0
 18 19  2  0  0  0  0
M  END
> <s_m_source_file>
AV-unprocessed.smi

> <i_m_source_file_index>
1838

> <i_lp_mmshare_version>
43012

> <i_f3d_flags>
0

> <s_epik_input>
W0NIM11PYzFuW2NIXVtjSF1bY0hdYzFbTkhdQyg9TylbTkhdW0NAQEhdMltDSDJdW0NIMl1bQ0gyXVtOSF1DMj1P

> <s_epik_cmdline>
J2VwaWtfcHl0aG9uJywgJy1waCcsICc3LjAnLCAnLXRuJywgJzgnLCAnLW1hJywgJzIwMCcsICctbWV0YWxfYmluZGluZycsICctaW1hZScsICc8aW5maWxlLm1hZT4nLCAnLW9tYWUnLCAnPG91dGZpbGUubWFlPic=

> <r_lp_tautomer_probability>
1

> <r_epik_Ionization_Penalty>
8.30645e-05

> <r_epik_Ionization_Penalty_Charging>
0

> <r_epik_Ionization_Penalty_Neutral>
8.30645e-05

> <r_epik_State_Penalty>
-0

> <r_epik_Charging_Adjusted_Penalty>
0

> <i_epik_Tot_Q>
0

> <i_epik_Tot_abs_Q>
0

> <r_epik_Metal_State_Penalty>
-0

> <b_epik_Metal_Only>
0

> <s_lp_Force_Field>
OPLS_2005

> <r_lp_Energy>
12.0006

> <b_lp_Chiralities_Consistent>
1

> <s_lp_Variant>
AV-unprocessed.smi:1838-2

> <Gold.Version>
5.8.1

> <Gold.Id.Protein>
6NUR|6NUR_protein|mol2

> <Gold.PLP.Fitness>
41.8300

> <Gold.PLP.PLP>
-28.0402

> <Gold.PLP.part.hbond>
-4.0000

> <Gold.PLP.part.metal>
0.0000

> <Gold.PLP.part.buried>
-2.8949

> <Gold.PLP.part.nonpolar>
-23.9206

> <Gold.PLP.part.repulsive>
1.7095

> <Gold.PLP.ligand.clash>
0.0000

> <Gold.PLP.ligand.torsion>
0.4448

> <Gold.PLP.Chemscore.Hbond>
3.9193

> <Gold.PLP.Chemscore.CHOScore>
0.9595

> <Gold.PLP.Chemscore.Metal>
0.0000

> <Gold.Chemscore.Hbonds>
donor molecule, donor type, donor heavy atom, donor atom, acceptor molecule, acceptor atom, score
      L1  H     9    26       P1  7948  1.00
      L1  H    12    27       P1  7948  0.98
      L1  H    17    35       P1 10957  0.97
      P1  H  7989  7998       L1     4  0.96
      L1  C     5    23       P1  8028  0.96

> <Gold.PLP.Chemscore.Internal.Correction>
0.0429

> <Gold.Rescore>
     Score         DG    S(hbond)    S(metal)    S(lipo)     H(rot)  DE(clash)    DE(int)     intcor
     16.77     -19.21       3.11        0.00      57.54       1.33       1.09       1.35       ----

> <Gold.Chemscore.Fitness>
16.7676

> <Gold.Chemscore.DG>
-19.2126

> <Gold.Chemscore.ZeroCoef>
-5.4800

> <Gold.Chemscore.Hbond>
3.1147

> <Gold.Chemscore.Metal>
0.0000

> <Gold.Chemscore.Lipo>
57.5399

> <Gold.Chemscore.Internal_Hbond>
0.0000

> <Gold.Chemscore.DEClash>
1.0944

> <Gold.Chemscore.DEInternal>
1.3505

> <Gold.Chemscore.Rot>
1.3292

> <Gold.Chemscore.Internal.Correction>
   9.000000E+99

> <Gold.Chemscore.Hbonds>
donor molecule, donor type, donor heavy atom, donor atom, acceptor molecule, acceptor atom, score
      L1  H     9    26       P1  7948  0.96
      L1  H    12    27       P1  7948  0.92
      L1  H    17    35       P1 10957  0.81
      P1  H  7989  7998       L1     4  0.24

> <Gold.Chemscore.Hbond.Weighted>
-10.4031

> <Gold.Chemscore.Metal.Weighted>
-0.0000

> <Gold.Chemscore.Lipo.Weighted>
-6.7322

> <Gold.Chemscore.Internal_Hbond.Weighted>
0.0000

> <Gold.Chemscore.DEClash.Weighted>
1.0944

> <Gold.Chemscore.DEInternal.Weighted>
1.3505

> <Gold.Chemscore.Rot.Weighted>
3.4027

> <Gold.Chemscore.Internal.Correction.Weighted>
   9.000000E+99

> <Gold.Protein.RotatedTorsions>
[ 6907 6896 6895 6894 ] final    7.09 input  -60.11 | X-H torsion
[ 7974 7965 7964 7962 ] final -121.53 input  175.53 | X-H torsion
[ 8008 7997 7996 7995 ] final  -27.62 input   59.86 | X-H torsion
[ 10167 10162 10161 10158 ] final   76.81 input  -65.29 | X-H torsion
[ 10718 10713 10712 10709 ] final   74.70 input   66.30 | X-H torsion
[ 10763 10752 10751 10750 ] final -123.41 input  -60.55 | X-H torsion
[ 11005 11000 10999 10996 ] final   79.63 input  -57.11 | X-H torsion

> <Gold.Protein.ActiveResidues>
 VAL166  LYS551  ARG553  GLY616  TRP617  ASP618  TYR619  PRO620  LYS621  CYS622 
 ASP623  PHE694  ASN695  SER759  ASP760  ASP761  ALA762  ILE779  LEU786  VAL792 
 PHE793  MET794  SER795  GLU796  ALA797  LYS798  CYS799  TRP800  GLU811  SER814 

> <Gold.Protein.RotatedAtoms>
  151.6842  135.0957  160.0221 H   0  0  0  0  0  0  0  0  0  0  0  0  # atno 6907 bound_to 6896
  152.3817  133.6551  159.6175 H   0  0  0  0  0  0  0  0  0  0  0  0  # atno 6908 bound_to 6896
  150.7752  133.9019  159.3385 H   0  0  0  0  0  0  0  0  0  0  0  0  # atno 6909 bound_to 6896
  145.0393  140.8131  143.4276 H   0  0  0  0  0  0  0  0  0  0  0  0  # atno 7974 bound_to 7965
  154.4369  140.1867  156.0961 H   0  0  0  0  0  0  0  0  0  0  0  0  # atno 8008 bound_to 7997
  156.0328  140.3328  155.7133 H   0  0  0  0  0  0  0  0  0  0  0  0  # atno 8009 bound_to 7997
  155.5814  140.0622  157.2773 H   0  0  0  0  0  0  0  0  0  0  0  0  # atno 8010 bound_to 7997
  139.9882  144.5776  150.7841 H   0  0  0  0  0  0  0  0  0  0  0  0  # atno 10167 bound_to 10162
  157.6603  130.9691  150.1249 H   0  0  0  0  0  0  0  0  0  0  0  0  # atno 10718 bound_to 10713
  154.8707  135.4099  154.2940 H   0  0  0  0  0  0  0  0  0  0  0  0  # atno 10763 bound_to 10752
  153.3811  135.7011  153.6570 H   0  0  0  0  0  0  0  0  0  0  0  0  # atno 10764 bound_to 10752
  153.5392  135.3651  155.2682 H   0  0  0  0  0  0  0  0  0  0  0  0  # atno 10765 bound_to 10752
  139.9165  134.7857  156.1803 H   0  0  0  0  0  0  0  0  0  0  0  0  # atno 11005 bound_to 11000
  145.1669  139.2426  143.5362 LP  0  0  0  0  0  0  0  0  0  0  0  0  # atno 17320 bound_to 7965
  146.3507  140.1410  142.8594 LP  0  0  0  0  0  0  0  0  0  0  0  0  # atno 17321 bound_to 7965
  140.7464  143.2890  151.3382 LP  0  0  0  0  0  0  0  0  0  0  0  0  # atno 17342 bound_to 10162
  139.6359  144.0631  152.2515 LP  0  0  0  0  0  0  0  0  0  0  0  0  # atno 17343 bound_to 10162
  156.2110  130.3667  149.8670 LP  0  0  0  0  0  0  0  0  0  0  0  0  # atno 17370 bound_to 10713
  156.6548  130.8758  151.3537 LP  0  0  0  0  0  0  0  0  0  0  0  0  # atno 17371 bound_to 10713
  141.0646  133.6825  156.2019 LP  0  0  0  0  0  0  0  0  0  0  0  0  # atno 17394 bound_to 11000
  140.6606  134.4972  157.5583 LP  0  0  0  0  0  0  0  0  0  0  0  0  # atno 17395 bound_to 11000

$$$$
