AV-unprocessed.smi:203|AV-procd|sdf|1591|dock2
  -GOLD-   2262019493D 1   1.00000     0.00000
 Structure written by MMmdl.
 57 61  0  0  0  0  0  0  0  0  1 V2000
  147.8188  142.6038  153.6758 O   0  0  0  0  0  0  0  0  0  0  0  0
  148.3043  141.6399  154.2629 C   0  0  0  0  0  0  0  0  0  0  0  0
  147.8820  141.2081  155.6566 C   0  0  0  0  0  0  0  0  0  0  0  0
  148.9082  140.1201  156.0282 C   0  0  2  0  0  0  0  0  0  0  0  0
  149.8638  140.5178  157.1991 C   0  0  2  0  0  0  0  0  0  0  0  0
  150.5798  141.8733  156.9615 C   0  0  0  0  0  0  0  0  0  0  0  0
  151.4946  142.2435  158.1372 C   0  0  0  0  0  0  0  0  0  0  0  0
  152.4962  141.1130  158.3990 C   0  0  0  0  0  0  0  0  0  0  0  0
  151.7596  139.7863  158.6286 C   0  0  0  0  0  0  0  0  0  0  0  0
  150.8629  139.4804  157.5152 N   0  0  0  0  0  0  0  0  0  0  0  0
  150.3995  138.2147  157.6049 C   0  0  0  0  0  0  0  0  0  0  0  0
  149.7573  137.8707  158.7480 N   0  0  0  0  0  0  0  0  0  0  0  0
  149.3361  136.6146  158.9227 C   0  0  0  0  0  0  0  0  0  0  0  0
  149.4622  135.5700  158.1014 N   0  0  0  0  0  0  0  0  0  0  0  0
  150.0952  135.9213  156.9449 C   0  0  0  0  0  0  0  0  0  0  0  0
  150.5801  137.2150  156.6091 C   0  0  0  0  0  0  0  0  0  0  0  0
  151.1659  137.1921  155.3489 N   0  0  0  0  0  0  0  0  0  0  0  0
  151.0621  135.9464  154.9738 C   0  0  0  0  0  0  0  0  0  0  0  0
  150.4536  135.1114  155.8825 N   0  0  0  0  0  0  0  0  0  0  0  0
  150.2747  133.6774  155.7585 C   0  0  0  0  0  0  0  0  0  0  0  0
  148.7865  133.2744  155.6592 C   0  0  2  0  0  0  0  0  0  0  0  0
  148.7200  131.8694  155.7988 O   0  0  0  0  0  0  0  0  0  0  0  0
  148.0951  133.6911  154.3393 C   0  0  1  0  0  0  0  0  0  0  0  0
  148.6799  133.0533  153.0764 C   0  0  0  0  0  0  0  0  0  0  0  0
  147.5248  133.0777  152.0854 C   0  0  0  0  0  0  0  0  0  0  0  0
  146.2987  133.3748  152.9507 C   0  0  0  0  0  0  0  0  0  0  0  0
  146.7575  133.2138  154.2832 O   0  0  0  0  0  0  0  0  0  0  0  0
  149.6357  139.7844  154.7071 C   0  0  0  0  0  0  0  0  0  0  0  0
  149.2497  140.8341  153.7849 N   0  0  0  0  0  0  0  0  0  0  0  0
  147.8678  142.0478  156.3512 H   0  0  0  0  0  0  0  0  0  0  0  0
  146.8735  140.7963  155.6097 H   0  0  0  0  0  0  0  0  0  0  0  0
  148.3269  139.2470  156.3260 H   0  0  0  0  0  0  0  0  0  0  0  0
  149.2454  140.6403  158.0891 H   0  0  0  0  0  0  0  0  0  0  0  0
  151.1779  141.8316  156.0510 H   0  0  0  0  0  0  0  0  0  0  0  0
  149.8577  142.6753  156.8141 H   0  0  0  0  0  0  0  0  0  0  0  0
  152.0226  143.1737  157.9249 H   0  0  0  0  0  0  0  0  0  0  0  0
  150.8940  142.4206  159.0303 H   0  0  0  0  0  0  0  0  0  0  0  0
  153.1716  141.0153  157.5482 H   0  0  0  0  0  0  0  0  0  0  0  0
  153.1157  141.3520  159.2637 H   0  0  0  0  0  0  0  0  0  0  0  0
  152.4867  138.9823  158.7535 H   0  0  0  0  0  0  0  0  0  0  0  0
  151.1826  139.8400  159.5530 H   0  0  0  0  0  0  0  0  0  0  0  0
  148.8376  136.4149  159.8597 H   0  0  0  0  0  0  0  0  0  0  0  0
  151.4536  135.5945  154.0307 H   0  0  0  0  0  0  0  0  0  0  0  0
  150.8191  133.3385  154.8759 H   0  0  0  0  0  0  0  0  0  0  0  0
  150.7439  133.1964  156.6178 H   0  0  0  0  0  0  0  0  0  0  0  0
  148.2400  133.7113  156.4958 H   0  0  0  0  0  0  0  0  0  0  0  0
  148.0177  131.5461  155.2555 H   0  0  0  0  0  0  0  0  0  0  0  0
  148.0947  134.7783  154.2369 H   0  0  0  0  0  0  0  0  0  0  0  0
  149.5607  133.5813  152.7097 H   0  0  0  0  0  0  0  0  0  0  0  0
  148.9673  132.0198  153.2755 H   0  0  0  0  0  0  0  0  0  0  0  0
  147.6594  133.8511  151.3288 H   0  0  0  0  0  0  0  0  0  0  0  0
  147.4333  132.1186  151.5744 H   0  0  0  0  0  0  0  0  0  0  0  0
  145.9633  134.4034  152.8090 H   0  0  0  0  0  0  0  0  0  0  0  0
  145.4607  132.7112  152.7379 H   0  0  0  0  0  0  0  0  0  0  0  0
  150.7198  139.7368  154.8113 H   0  0  0  0  0  0  0  0  0  0  0  0
  149.3003  138.8238  154.3138 H   0  0  0  0  0  0  0  0  0  0  0  0
  149.6734  140.9390  152.8743 H   0  0  0  0  0  0  0  0  0  0  0  0
  1  2  2  0  0  0  0
  2 29  1  0  0  0  0
  2  3  1  0  0  0  0
  3  4  1  0  0  0  0
  3 30  1  0  0  0  0
  3 31  1  0  0  0  0
  4  5  1  0  0  0  0
  4 28  1  0  0  0  0
  4 32  1  0  0  0  0
  5 10  1  0  0  0  0
  5  6  1  0  0  0  0
  5 33  1  0  0  0  0
  6  7  1  0  0  0  0
  6 34  1  0  0  0  0
  6 35  1  0  0  0  0
  7  8  1  0  0  0  0
  7 36  1  0  0  0  0
  7 37  1  0  0  0  0
  8  9  1  0  0  0  0
  8 38  1  0  0  0  0
  8 39  1  0  0  0  0
  9 10  1  0  0  0  0
  9 40  1  0  0  0  0
  9 41  1  0  0  0  0
 10 11  1  0  0  0  0
 11 16  1  0  0  0  0
 11 12  2  0  0  0  0
 12 13  1  0  0  0  0
 13 14  2  0  0  0  0
 13 42  1  0  0  0  0
 14 15  1  0  0  0  0
 15 19  1  0  0  0  0
 15 16  2  0  0  0  0
 16 17  1  0  0  0  0
 17 18  2  0  0  0  0
 18 19  1  0  0  0  0
 18 43  1  0  0  0  0
 19 20  1  0  0  0  0
 20 21  1  0  0  0  0
 20 44  1  0  0  0  0
 20 45  1  0  0  0  0
 21 22  1  0  0  0  0
 21 23  1  0  0  0  0
 21 46  1  0  0  0  0
 22 47  1  0  0  0  0
 23 27  1  0  0  0  0
 23 24  1  0  0  0  0
 23 48  1  0  0  0  0
 24 25  1  0  0  0  0
 24 49  1  0  0  0  0
 24 50  1  0  0  0  0
 25 26  1  0  0  0  0
 25 51  1  0  0  0  0
 25 52  1  0  0  0  0
 26 27  1  0  0  0  0
 26 53  1  0  0  0  0
 26 54  1  0  0  0  0
 28 29  1  0  0  0  0
 28 55  1  0  0  0  0
 28 56  1  0  0  0  0
 29 57  1  0  0  0  0
M  END
> <s_m_source_file>
AV-unprocessed.smi

> <i_m_source_file_index>
203

> <i_lp_mmshare_version>
43012

> <i_f3d_flags>
0

> <s_epik_input>
Tz1DMVtDSDJdW0NASF0oW0NIMl1bTkhdMSlbQ0BASF0yW0NIMl1bQ0gyXVtDSDJdW0NIMl1OMmMobltjSF1uMyljKGMzNCluW2NIXW40W0NIMl1bQ0BIXShbT0hdKVtDQEBIXTVbQ0gyXVtDSDJdW0NIMl1PNQ==

> <s_epik_cmdline>
J2VwaWtfcHl0aG9uJywgJy1waCcsICc3LjAnLCAnLXRuJywgJzgnLCAnLW1hJywgJzIwMCcsICctbWV0YWxfYmluZGluZycsICctaW1hZScsICc8aW5maWxlLm1hZT4nLCAnLW9tYWUnLCAnPG91dGZpbGUubWFlPic=

> <r_lp_tautomer_probability>
1

> <r_epik_Ionization_Penalty>
0.00175146

> <r_epik_Ionization_Penalty_Charging>
0

> <r_epik_Ionization_Penalty_Neutral>
0.00175146

> <r_epik_State_Penalty>
0.00109045

> <r_epik_Charging_Adjusted_Penalty>
0.00109045

> <i_epik_Tot_Q>
0

> <i_epik_Tot_abs_Q>
0

> <r_epik_Metal_State_Penalty>
-0

> <b_epik_Metal_Only>
0

> <s_lp_Force_Field>
OPLS_2005

> <r_lp_Energy>
54.7877

> <b_lp_Chiralities_Consistent>
1

> <s_lp_Variant>
AV-unprocessed.smi:203-10

> <Gold.Version>
5.8.1

> <Gold.Id.Protein>
6NUR|6NUR_protein|mol2

> <Gold.PLP.Fitness>
40.3404

> <Gold.PLP.PLP>
-32.8424

> <Gold.PLP.part.hbond>
-3.6497

> <Gold.PLP.part.metal>
0.0000

> <Gold.PLP.part.buried>
-3.7117

> <Gold.PLP.part.nonpolar>
-27.7113

> <Gold.PLP.part.repulsive>
1.3183

> <Gold.PLP.ligand.clash>
0.0000

> <Gold.PLP.ligand.torsion>
0.3633

> <Gold.PLP.Chemscore.Hbond>
1.6396

> <Gold.PLP.Chemscore.CHOScore>
1.0000

> <Gold.PLP.Chemscore.Metal>
0.0000

> <Gold.Chemscore.Hbonds>
donor molecule, donor type, donor heavy atom, donor atom, acceptor molecule, acceptor atom, score
      L1  H    29    57       P1  7957  0.77
      P1  H  6896  6907       L1    14  0.54
      P1  H  8022  8030       L1     1  0.26
      L1  C    18    43       P1  7949  0.90

> <Gold.PLP.Chemscore.Internal.Correction>
0.3057

> <Gold.Rescore>
     Score         DG    S(hbond)    S(metal)    S(lipo)     H(rot)  DE(clash)    DE(int)     intcor
      9.62     -11.67       1.29        0.00      75.43       2.72       1.66       0.39       ----

> <Gold.Chemscore.Fitness>
9.6249

> <Gold.Chemscore.DG>
-11.6736

> <Gold.Chemscore.ZeroCoef>
-5.4800

> <Gold.Chemscore.Hbond>
1.2945

> <Gold.Chemscore.Metal>
0.0000

> <Gold.Chemscore.Lipo>
75.4337

> <Gold.Chemscore.Internal_Hbond>
0.0000

> <Gold.Chemscore.DEClash>
1.6615

> <Gold.Chemscore.DEInternal>
0.3873

> <Gold.Chemscore.Rot>
2.7171

> <Gold.Chemscore.Internal.Correction>
   9.000000E+99

> <Gold.Chemscore.Hbonds>
donor molecule, donor type, donor heavy atom, donor atom, acceptor molecule, acceptor atom, score
      L1  H    29    57       P1  7957  0.75
      P1  H  6896  6907       L1    14  0.10
      P1  H  8022  8030       L1     1  0.26

> <Gold.Chemscore.Hbond.Weighted>
-4.3236

> <Gold.Chemscore.Metal.Weighted>
-0.0000

> <Gold.Chemscore.Lipo.Weighted>
-8.8257

> <Gold.Chemscore.Internal_Hbond.Weighted>
0.0000

> <Gold.Chemscore.DEClash.Weighted>
1.6615

> <Gold.Chemscore.DEInternal.Weighted>
0.3873

> <Gold.Chemscore.Rot.Weighted>
6.9557

> <Gold.Chemscore.Internal.Correction.Weighted>
   9.000000E+99

> <Gold.Protein.RotatedTorsions>
[ 6907 6896 6895 6894 ] final  -91.82 input  -60.11 | X-H torsion
[ 7974 7965 7964 7962 ] final -173.42 input  175.53 | X-H torsion
[ 8008 7997 7996 7995 ] final   90.49 input   59.86 | X-H torsion
[ 10167 10162 10161 10158 ] final -171.40 input  -65.29 | X-H torsion
[ 10718 10713 10712 10709 ] final    1.88 input   66.30 | X-H torsion
[ 10763 10752 10751 10750 ] final  179.48 input  -60.55 | X-H torsion
[ 11005 11000 10999 10996 ] final  143.49 input  -57.11 | X-H torsion

> <Gold.Protein.ActiveResidues>
 VAL166  LYS551  ARG553  GLY616  TRP617  ASP618  TYR619  PRO620  LYS621  CYS622 
 ASP623  PHE694  ASN695  SER759  ASP760  ASP761  ALA762  ILE779  LEU786  VAL792 
 PHE793  MET794  SER795  GLU796  ALA797  LYS798  CYS799  TRP800  GLU811  SER814 

> <Gold.Protein.RotatedAtoms>
  150.6897  134.2217  159.4399 H   0  0  0  0  0  0  0  0  0  0  0  0  # atno 6907 bound_to 6896
  152.0173  134.9840  160.0579 H   0  0  0  0  0  0  0  0  0  0  0  0  # atno 6908 bound_to 6896
  152.1431  133.4441  159.4813 H   0  0  0  0  0  0  0  0  0  0  0  0  # atno 6909 bound_to 6896
  144.7138  140.1624  143.6375 H   0  0  0  0  0  0  0  0  0  0  0  0  # atno 7974 bound_to 7965
  156.0126  140.3349  155.6956 H   0  0  0  0  0  0  0  0  0  0  0  0  # atno 8008 bound_to 7997
  155.6136  140.0668  157.2716 H   0  0  0  0  0  0  0  0  0  0  0  0  # atno 8009 bound_to 7997
  154.4287  140.1789  156.1286 H   0  0  0  0  0  0  0  0  0  0  0  0  # atno 8010 bound_to 7997
  139.5805  144.1435  152.1508 H   0  0  0  0  0  0  0  0  0  0  0  0  # atno 10167 bound_to 10162
  156.8548  130.5566  149.5667 H   0  0  0  0  0  0  0  0  0  0  0  0  # atno 10718 bound_to 10713
  154.5212  135.2794  155.1261 H   0  0  0  0  0  0  0  0  0  0  0  0  # atno 10763 bound_to 10752
  154.2818  135.6284  153.5353 H   0  0  0  0  0  0  0  0  0  0  0  0  # atno 10764 bound_to 10752
  152.9937  135.5653  154.5701 H   0  0  0  0  0  0  0  0  0  0  0  0  # atno 10765 bound_to 10752
  140.0558  134.9231  157.1098 H   0  0  0  0  0  0  0  0  0  0  0  0  # atno 11005 bound_to 11000
  145.9018  139.2435  143.1489 LP  0  0  0  0  0  0  0  0  0  0  0  0  # atno 17320 bound_to 7965
  145.9803  140.8688  143.0118 LP  0  0  0  0  0  0  0  0  0  0  0  0  # atno 17321 bound_to 7965
  140.0987  144.5558  150.7004 LP  0  0  0  0  0  0  0  0  0  0  0  0  # atno 17342 bound_to 10162
  140.7083  143.2485  151.4658 LP  0  0  0  0  0  0  0  0  0  0  0  0  # atno 17343 bound_to 10162
  156.0808  130.5819  150.9560 LP  0  0  0  0  0  0  0  0  0  0  0  0  # atno 17370 bound_to 10713
  157.6283  131.0923  150.8491 LP  0  0  0  0  0  0  0  0  0  0  0  0  # atno 17371 bound_to 10713
  140.3846  134.2250  155.7169 LP  0  0  0  0  0  0  0  0  0  0  0  0  # atno 17394 bound_to 11000
  141.1951  133.8113  157.0728 LP  0  0  0  0  0  0  0  0  0  0  0  0  # atno 17395 bound_to 11000

$$$$
