AV-unprocessed.smi:940|AV-procd|sdf|4219|dock1
  -GOLD-   22720 2123D 1   1.00000     0.00000
 Structure written by MMmdl.
 36 36  0  0  0  0  0  0  0  0  1 V2000
  150.8068  140.1224  155.0945 C   0  0  0  0  0  0  0  0  0  0  0  0
  149.9663  141.3984  155.2336 C   0  0  0  0  0  0  0  0  0  0  0  0
  150.5890  142.3534  156.1424 N   0  0  0  0  0  0  0  0  0  0  0  0
  151.2194  142.0345  157.2841 C   0  0  0  0  0  0  0  0  0  0  0  0
  151.3477  140.8792  157.6884 O   0  0  0  0  0  0  0  0  0  0  0  0
  151.7993  143.1961  158.0930 C   0  0  0  0  0  0  0  0  0  0  0  0
  152.4821  142.7199  159.2827 N   0  0  0  0  0  0  0  0  0  0  0  0
  152.5196  143.2955  160.5370 C   0  0  0  0  0  0  0  0  0  0  0  0
  153.2757  142.4883  161.3379 C   0  0  0  0  0  0  0  0  0  0  0  0
  153.6575  141.4261  160.4641 C   0  0  0  0  0  0  0  0  0  0  0  0
  154.4675  140.3125  160.8057 N   0  0  0  0  0  0  0  0  0  0  0  0
  155.2053  140.1215  161.9143 C   0  0  0  0  0  0  0  0  0  0  0  0
  155.2787  140.9128  162.8539 O   0  0  0  0  0  0  0  0  0  0  0  0
  155.9881  138.8107  161.9758 C   0  0  0  0  0  0  0  0  0  0  0  0
  155.6061  138.1087  163.1476 O   0  0  0  0  0  0  0  0  0  0  0  0
  154.3780  137.4176  162.9977 C   0  0  0  0  0  0  0  0  0  0  0  0
  154.1008  136.6196  164.2738 C   0  0  0  0  0  0  0  0  0  0  0  0
  153.1889  141.5691  159.2365 N   0  0  0  0  0  0  0  0  0  0  0  0
  150.3431  139.4286  154.3931 H   0  0  0  0  0  0  0  0  0  0  0  0
  150.9082  139.6074  156.0502 H   0  0  0  0  0  0  0  0  0  0  0  0
  151.8078  140.3479  154.7261 H   0  0  0  0  0  0  0  0  0  0  0  0
  149.8592  141.8757  154.2594 H   0  0  0  0  0  0  0  0  0  0  0  0
  148.9578  141.1546  155.5718 H   0  0  0  0  0  0  0  0  0  0  0  0
  150.5334  143.3285  155.8868 H   0  0  0  0  0  0  0  0  0  0  0  0
  152.4983  143.7683  157.4806 H   0  0  0  0  0  0  0  0  0  0  0  0
  151.0021  143.8782  158.3910 H   0  0  0  0  0  0  0  0  0  0  0  0
  152.0095  144.2225  160.7531 H   0  0  0  0  0  0  0  0  0  0  0  0
  153.5090  142.6490  162.3796 H   0  0  0  0  0  0  0  0  0  0  0  0
  154.4792  139.5638  160.1283 H   0  0  0  0  0  0  0  0  0  0  0  0
  155.7621  138.2210  161.0859 H   0  0  0  0  0  0  0  0  0  0  0  0
  157.0623  139.0044  161.9856 H   0  0  0  0  0  0  0  0  0  0  0  0
  153.5677  138.1257  162.8182 H   0  0  0  0  0  0  0  0  0  0  0  0
  154.4259  136.7445  162.1404 H   0  0  0  0  0  0  0  0  0  0  0  0
  153.1604  136.0738  164.1957 H   0  0  0  0  0  0  0  0  0  0  0  0
  154.0348  137.2785  165.1402 H   0  0  0  0  0  0  0  0  0  0  0  0
  154.8937  135.8957  164.4628 H   0  0  0  0  0  0  0  0  0  0  0  0
  1  2  1  0  0  0  0
  1 19  1  0  0  0  0
  1 20  1  0  0  0  0
  1 21  1  0  0  0  0
  2  3  1  0  0  0  0
  2 22  1  0  0  0  0
  2 23  1  0  0  0  0
  3  4  1  0  0  0  0
  3 24  1  0  0  0  0
  4  5  2  0  0  0  0
  4  6  1  0  0  0  0
  6  7  1  0  0  0  0
  6 25  1  0  0  0  0
  6 26  1  0  0  0  0
  7 18  1  0  0  0  0
  7  8  1  0  0  0  0
  8  9  2  0  0  0  0
  8 27  1  0  0  0  0
  9 10  1  0  0  0  0
  9 28  1  0  0  0  0
 10 11  1  0  0  0  0
 10 18  2  0  0  0  0
 11 12  1  0  0  0  0
 11 29  1  0  0  0  0
 12 13  2  0  0  0  0
 12 14  1  0  0  0  0
 14 15  1  0  0  0  0
 14 30  1  0  0  0  0
 14 31  1  0  0  0  0
 15 16  1  0  0  0  0
 16 17  1  0  0  0  0
 16 32  1  0  0  0  0
 16 33  1  0  0  0  0
 17 34  1  0  0  0  0
 17 35  1  0  0  0  0
 17 36  1  0  0  0  0
M  END
> <s_m_source_file>
AV-unprocessed.smi

> <i_m_source_file_index>
940

> <i_lp_mmshare_version>
43012

> <i_f3d_flags>
0

> <s_epik_input>
W0NIM11bQ0gyXVtOSF1DKD1PKVtDSDJdbjFbY0hdW2NIXWMobjEpW05IXUMoPU8pW0NIMl1PW0NIMl1bQ0gzXQ==

> <s_epik_cmdline>
J2VwaWtfcHl0aG9uJywgJy1waCcsICc3LjAnLCAnLXRuJywgJzgnLCAnLW1hJywgJzIwMCcsICctbWV0YWxfYmluZGluZycsICctaW1hZScsICc8aW5maWxlLm1hZT4nLCAnLW9tYWUnLCAnPG91dGZpbGUubWFlPic=

> <r_lp_tautomer_probability>
1

> <r_epik_Ionization_Penalty>
3.22351e-06

> <r_epik_Ionization_Penalty_Charging>
0

> <r_epik_Ionization_Penalty_Neutral>
3.22351e-06

> <r_epik_State_Penalty>
-0

> <r_epik_Charging_Adjusted_Penalty>
0

> <i_epik_Tot_Q>
0

> <i_epik_Tot_abs_Q>
0

> <r_epik_Metal_State_Penalty>
-0

> <b_epik_Metal_Only>
0

> <s_lp_Force_Field>
OPLS_2005

> <r_lp_Energy>
6.8138

> <b_lp_Chiralities_Consistent>
1

> <s_lp_Variant>
AV-unprocessed.smi:940-1

> <Gold.Version>
5.8.1

> <Gold.Id.Protein>
6NUR|6NUR_protein|mol2

> <Gold.PLP.Fitness>
41.7209

> <Gold.PLP.PLP>
-40.5801

> <Gold.PLP.part.hbond>
-2.0000

> <Gold.PLP.part.metal>
0.0000

> <Gold.PLP.part.buried>
-5.1710

> <Gold.PLP.part.nonpolar>
-33.5767

> <Gold.PLP.part.repulsive>
0.1292

> <Gold.PLP.ligand.clash>
0.0000

> <Gold.PLP.ligand.torsion>
0.6125

> <Gold.PLP.Chemscore.Hbond>
0.7680

> <Gold.PLP.Chemscore.CHOScore>
0.0000

> <Gold.PLP.Chemscore.Metal>
0.0000

> <Gold.Chemscore.Hbonds>
donor molecule, donor type, donor heavy atom, donor atom, acceptor molecule, acceptor atom, score
      L1  H     3    24       P1  8028  0.47

> <Gold.PLP.Chemscore.Internal.Correction>
0.0617

> <Gold.Rescore>
     Score         DG    S(hbond)    S(metal)    S(lipo)     H(rot)  DE(clash)    DE(int)     intcor
      6.13     -10.47       0.96        0.00      66.30       2.34       0.05       4.29       ----

> <Gold.Chemscore.Fitness>
6.1285

> <Gold.Chemscore.DG>
-10.4672

> <Gold.Chemscore.ZeroCoef>
-5.4800

> <Gold.Chemscore.Hbond>
0.9621

> <Gold.Chemscore.Metal>
0.0000

> <Gold.Chemscore.Lipo>
66.3009

> <Gold.Chemscore.Internal_Hbond>
0.0000

> <Gold.Chemscore.DEClash>
0.0476

> <Gold.Chemscore.DEInternal>
4.2911

> <Gold.Chemscore.Rot>
2.3372

> <Gold.Chemscore.Internal.Correction>
   9.000000E+99

> <Gold.Chemscore.Hbonds>
donor molecule, donor type, donor heavy atom, donor atom, acceptor molecule, acceptor atom, score
      L1  H     3    24       P1  8028  0.45

> <Gold.Chemscore.Hbond.Weighted>
-3.2133

> <Gold.Chemscore.Metal.Weighted>
-0.0000

> <Gold.Chemscore.Lipo.Weighted>
-7.7572

> <Gold.Chemscore.Internal_Hbond.Weighted>
0.0000

> <Gold.Chemscore.DEClash.Weighted>
0.0476

> <Gold.Chemscore.DEInternal.Weighted>
4.2911

> <Gold.Chemscore.Rot.Weighted>
5.9833

> <Gold.Chemscore.Internal.Correction.Weighted>
   9.000000E+99

> <Gold.Protein.RotatedTorsions>
[ 6907 6896 6895 6894 ] final  128.70 input  -60.11 | X-H torsion
[ 7974 7965 7964 7962 ] final -149.35 input  175.53 | X-H torsion
[ 8008 7997 7996 7995 ] final  -21.25 input   59.86 | X-H torsion
[ 10167 10162 10161 10158 ] final -145.16 input  -65.29 | X-H torsion
[ 10718 10713 10712 10709 ] final  -79.06 input   66.30 | X-H torsion
[ 10763 10752 10751 10750 ] final  119.76 input  -60.55 | X-H torsion
[ 11005 11000 10999 10996 ] final   35.91 input  -57.11 | X-H torsion

> <Gold.Protein.ActiveResidues>
 VAL166  LYS551  ARG553  GLY616  TRP617  ASP618  TYR619  PRO620  LYS621  CYS622 
 ASP623  PHE694  ASN695  SER759  ASP760  ASP761  ALA762  ILE779  LEU786  VAL792 
 PHE793  MET794  SER795  GLU796  ALA797  LYS798  CYS799  TRP800  GLU811  SER814 

> <Gold.Protein.RotatedAtoms>
  152.3695  133.6400  159.6075 H   0  0  0  0  0  0  0  0  0  0  0  0  # atno 6907 bound_to 6896
  150.7658  133.9294  159.3431 H   0  0  0  0  0  0  0  0  0  0  0  0  # atno 6908 bound_to 6896
  151.7119  135.0912  160.0320 H   0  0  0  0  0  0  0  0  0  0  0  0  # atno 6909 bound_to 6896
  144.7973  140.5077  143.5731 H   0  0  0  0  0  0  0  0  0  0  0  0  # atno 7974 bound_to 7965
  154.4717  140.2040  155.9978 H   0  0  0  0  0  0  0  0  0  0  0  0  # atno 8008 bound_to 7997
  156.1022  140.3242  155.7928 H   0  0  0  0  0  0  0  0  0  0  0  0  # atno 8009 bound_to 7997
  155.4778  140.0536  157.2962 H   0  0  0  0  0  0  0  0  0  0  0  0  # atno 8010 bound_to 7997
  139.7831  143.8072  152.2641 H   0  0  0  0  0  0  0  0  0  0  0  0  # atno 10167 bound_to 10162
  156.0102  130.4535  150.3591 H   0  0  0  0  0  0  0  0  0  0  0  0  # atno 10718 bound_to 10713
  153.5879  135.3471  155.2900 H   0  0  0  0  0  0  0  0  0  0  0  0  # atno 10763 bound_to 10752
  154.8657  135.4198  154.2548 H   0  0  0  0  0  0  0  0  0  0  0  0  # atno 10764 bound_to 10752
  153.3349  135.7046  153.6987 H   0  0  0  0  0  0  0  0  0  0  0  0  # atno 10765 bound_to 10752
  140.2379  134.3449  155.7937 H   0  0  0  0  0  0  0  0  0  0  0  0  # atno 11005 bound_to 11000
  145.5641  139.1480  143.3325 LP  0  0  0  0  0  0  0  0  0  0  0  0  # atno 17320 bound_to 7965
  146.2245  140.5776  142.9002 LP  0  0  0  0  0  0  0  0  0  0  0  0  # atno 17321 bound_to 7965
  139.8141  144.7323  150.9659 LP  0  0  0  0  0  0  0  0  0  0  0  0  # atno 17342 bound_to 10162
  140.7819  143.4222  151.0823 LP  0  0  0  0  0  0  0  0  0  0  0  0  # atno 17343 bound_to 10162
  157.1681  131.0362  151.2809 LP  0  0  0  0  0  0  0  0  0  0  0  0  # atno 17370 bound_to 10713
  157.4253  130.7460  149.6946 LP  0  0  0  0  0  0  0  0  0  0  0  0  # atno 17371 bound_to 10713
  141.2213  133.7282  156.8838 LP  0  0  0  0  0  0  0  0  0  0  0  0  # atno 17394 bound_to 11000
  140.1683  134.9118  157.2801 LP  0  0  0  0  0  0  0  0  0  0  0  0  # atno 17395 bound_to 11000

$$$$
