AV-unprocessed.smi:3250|AV-procd|sdf|12434|dock9
  -GOLD-   2272018323D 1   1.00000     0.00000
 Structure written by MMmdl.
 40 41  0  0  0  0  0  0  0  0  3 V2000
  145.4713  143.5157  154.3508 C   0  0  0  0  0  0  0  0  0  0  0  0
  145.4589  142.0141  154.6698 C   0  0  0  0  0  0  0  0  0  0  0  0
  146.7274  141.3401  154.2956 N   0  3  2  0  0  0  0  0  0  0  0  0
  146.5697  139.8702  154.1921 C   0  0  0  0  0  0  0  0  0  0  0  0
  147.8924  139.2149  153.7660 C   0  0  0  0  0  0  0  0  0  0  0  0
  148.9125  139.5640  154.6929 O   0  0  0  0  0  0  0  0  0  0  0  0
  149.1547  140.9669  154.7259 C   0  0  2  0  0  0  0  0  0  0  0  0
  150.3219  141.2284  155.6889 C   0  0  0  0  0  0  0  0  0  0  0  0
  150.2834  142.5789  156.2305 N   0  0  0  0  0  0  0  0  0  0  0  0
  150.9544  142.9632  157.3766 C   0  0  0  0  0  0  0  0  0  0  0  0
  150.8364  144.2413  157.7660 N   0  3  0  0  0  0  0  0  0  0  0  0
  151.4811  144.6686  158.8795 C   0  0  0  0  0  0  0  0  0  0  0  0
  152.2701  143.7779  159.6293 C   0  0  0  0  0  0  0  0  0  0  0  0
  152.3472  142.4532  159.1690 C   0  0  0  0  0  0  0  0  0  0  0  0
  153.1020  141.5341  159.8679 O   0  0  0  0  0  0  0  0  0  0  0  0
  153.6094  141.9074  161.1444 C   0  0  0  0  0  0  0  0  0  0  0  0
  151.6900  142.0663  158.0496 N   0  0  0  0  0  0  0  0  0  0  0  0
  147.8657  141.6772  155.1875 C   0  0  0  0  0  0  0  0  0  0  0  0
  144.4938  143.9565  154.5483 H   0  0  0  0  0  0  0  0  0  0  0  0
  145.7071  143.6946  153.3013 H   0  0  0  0  0  0  0  0  0  0  0  0
  146.1964  144.0568  154.9579 H   0  0  0  0  0  0  0  0  0  0  0  0
  145.2424  141.8469  155.7259 H   0  0  0  0  0  0  0  0  0  0  0  0
  144.6387  141.5612  154.1110 H   0  0  0  0  0  0  0  0  0  0  0  0
  146.2462  139.4678  155.1534 H   0  0  0  0  0  0  0  0  0  0  0  0
  145.7926  139.6300  153.4654 H   0  0  0  0  0  0  0  0  0  0  0  0
  147.7862  138.1300  153.7489 H   0  0  0  0  0  0  0  0  0  0  0  0
  148.1754  139.5234  152.7582 H   0  0  0  0  0  0  0  0  0  0  0  0
  149.4266  141.3177  153.7282 H   0  0  0  0  0  0  0  0  0  0  0  0
  150.2778  140.5239  156.5205 H   0  0  0  0  0  0  0  0  0  0  0  0
  151.2738  141.0666  155.1814 H   0  0  0  0  0  0  0  0  0  0  0  0
  149.8681  143.3074  155.6682 H   0  0  0  0  0  0  0  0  0  0  0  0
  151.3438  145.7095  159.1338 H   0  0  0  0  0  0  0  0  0  0  0  0
  152.7915  144.0975  160.5198 H   0  0  0  0  0  0  0  0  0  0  0  0
  154.1823  141.0789  161.5608 H   0  0  0  0  0  0  0  0  0  0  0  0
  152.8042  142.1374  161.8436 H   0  0  0  0  0  0  0  0  0  0  0  0
  154.2773  142.7670  161.0719 H   0  0  0  0  0  0  0  0  0  0  0  0
  148.0328  142.7540  155.1927 H   0  0  0  0  0  0  0  0  0  0  0  0
  147.6228  141.3867  156.2112 H   0  0  0  0  0  0  0  0  0  0  0  0
  146.9654  141.6662  153.3697 H   0  0  0  0  0  0  0  0  0  0  0  0
  150.2690  144.9015  157.2340 H   0  0  0  0  0  0  0  0  0  0  0  0
  1  2  1  0  0  0  0
  1 19  1  0  0  0  0
  1 20  1  0  0  0  0
  1 21  1  0  0  0  0
  2  3  1  0  0  0  0
  2 22  1  0  0  0  0
  2 23  1  0  0  0  0
  3 18  1  0  0  0  0
  3  4  1  0  0  0  0
  3 39  1  0  0  0  0
  4  5  1  0  0  0  0
  4 24  1  0  0  0  0
  4 25  1  0  0  0  0
  5  6  1  0  0  0  0
  5 26  1  0  0  0  0
  5 27  1  0  0  0  0
  6  7  1  0  0  0  0
  7  8  1  0  0  0  0
  7 18  1  0  0  0  0
  7 28  1  0  0  0  0
  8  9  1  0  0  0  0
  8 29  1  0  0  0  0
  8 30  1  0  0  0  0
  9 10  1  0  0  0  0
  9 31  1  0  0  0  0
 10 17  1  0  0  0  0
 10 11  2  0  0  0  0
 11 12  1  0  0  0  0
 11 40  1  0  0  0  0
 12 13  2  0  0  0  0
 12 32  1  0  0  0  0
 13 14  1  0  0  0  0
 13 33  1  0  0  0  0
 14 15  1  0  0  0  0
 14 17  2  0  0  0  0
 15 16  1  0  0  0  0
 16 34  1  0  0  0  0
 16 35  1  0  0  0  0
 16 36  1  0  0  0  0
 18 37  1  0  0  0  0
 18 38  1  0  0  0  0
M  CHG  1   3   1
M  CHG  1  11   1
M  END
> <s_m_source_file>
AV-unprocessed.smi

> <i_m_source_file_index>
3250

> <i_lp_mmshare_version>
43012

> <i_f3d_flags>
0

> <s_epik_input>
W0NIM11bQ0gyXU4xW0NIMl1bQ0gyXU9bQ0BIXShbQ0gyXTEpW0NIMl1bTkhdYzJuW2NIXVtjSF1jKG4yKU9bQ0gzXQ==

> <s_epik_cmdline>
J2VwaWtfcHl0aG9uJywgJy1waCcsICc3LjAnLCAnLXRuJywgJzgnLCAnLW1hJywgJzIwMCcsICctbWV0YWxfYmluZGluZycsICctaW1hZScsICc8aW5maWxlLm1hZT4nLCAnLW9tYWUnLCAnPG91dGZpbGUubWFlPic=

> <r_lp_tautomer_probability>
0.999985

> <r_epik_Ionization_Penalty>
2.24691

> <r_epik_Ionization_Penalty_Charging>
2.24686

> <r_epik_Ionization_Penalty_Neutral>
4.52111e-05

> <r_epik_State_Penalty>
2.24709

> <r_epik_Charging_Adjusted_Penalty>
4.49395

> <i_epik_Tot_Q>
2

> <i_epik_Tot_abs_Q>
2

> <r_epik_Metal_State_Penalty>
2.26327

> <b_epik_Metal_Only>
0

> <s_lp_Force_Field>
OPLS_2005

> <r_lp_Energy>
18.1158

> <b_lp_Chiralities_Consistent>
1

> <s_lp_Variant>
AV-unprocessed.smi:3250-10

> <Gold.Version>
5.8.1

> <Gold.Id.Protein>
6NUR|6NUR_protein|mol2

> <Gold.PLP.Fitness>
45.0382

> <Gold.PLP.PLP>
-36.4715

> <Gold.PLP.part.hbond>
-2.0000

> <Gold.PLP.part.metal>
0.0000

> <Gold.PLP.part.buried>
-4.4249

> <Gold.PLP.part.nonpolar>
-31.0568

> <Gold.PLP.part.repulsive>
0.3194

> <Gold.PLP.ligand.clash>
0.0000

> <Gold.PLP.ligand.torsion>
0.6008

> <Gold.PLP.Chemscore.Hbond>
3.2514

> <Gold.PLP.Chemscore.CHOScore>
0.0000

> <Gold.PLP.Chemscore.Metal>
0.0000

> <Gold.Chemscore.Hbonds>
donor molecule, donor type, donor heavy atom, donor atom, acceptor molecule, acceptor atom, score
      L1  H     9    31       P1  8028  1.86
      L1  H    11    40       P1  8028  1.27

> <Gold.PLP.Chemscore.Internal.Correction>
0.0141

> <Gold.Rescore>
     Score         DG    S(hbond)    S(metal)    S(lipo)     H(rot)  DE(clash)    DE(int)     intcor
     13.10     -13.55       1.09        0.00      76.35       1.75       0.01       0.44       ----

> <Gold.Chemscore.Fitness>
13.1039

> <Gold.Chemscore.DG>
-13.5532

> <Gold.Chemscore.ZeroCoef>
-5.4800

> <Gold.Chemscore.Hbond>
1.0861

> <Gold.Chemscore.Metal>
0.0000

> <Gold.Chemscore.Lipo>
76.3513

> <Gold.Chemscore.Internal_Hbond>
0.0000

> <Gold.Chemscore.DEClash>
0.0121

> <Gold.Chemscore.DEInternal>
0.4372

> <Gold.Chemscore.Rot>
1.7530

> <Gold.Chemscore.Internal.Correction>
   9.000000E+99

> <Gold.Chemscore.Hbonds>
donor molecule, donor type, donor heavy atom, donor atom, acceptor molecule, acceptor atom, score
      L1  H     9    31       P1  8028  0.91
      L1  H    11    40       P1  8028  0.14

> <Gold.Chemscore.Hbond.Weighted>
-3.6277

> <Gold.Chemscore.Metal.Weighted>
-0.0000

> <Gold.Chemscore.Lipo.Weighted>
-8.9331

> <Gold.Chemscore.Internal_Hbond.Weighted>
0.0000

> <Gold.Chemscore.DEClash.Weighted>
0.0121

> <Gold.Chemscore.DEInternal.Weighted>
0.4372

> <Gold.Chemscore.Rot.Weighted>
4.4876

> <Gold.Chemscore.Internal.Correction.Weighted>
   9.000000E+99

> <Gold.Protein.RotatedTorsions>
[ 6907 6896 6895 6894 ] final  -97.24 input  -60.11 | X-H torsion
[ 7974 7965 7964 7962 ] final  -30.24 input  175.53 | X-H torsion
[ 8008 7997 7996 7995 ] final  106.67 input   59.86 | X-H torsion
[ 10167 10162 10161 10158 ] final  177.98 input  -65.29 | X-H torsion
[ 10718 10713 10712 10709 ] final   50.47 input   66.30 | X-H torsion
[ 10763 10752 10751 10750 ] final   18.88 input  -60.55 | X-H torsion
[ 11005 11000 10999 10996 ] final  -22.48 input  -57.11 | X-H torsion

> <Gold.Protein.ActiveResidues>
 VAL166  LYS551  ARG553  GLY616  TRP617  ASP618  TYR619  PRO620  LYS621  CYS622 
 ASP623  PHE694  ASN695  SER759  ASP760  ASP761  ALA762  ILE779  LEU786  VAL792 
 PHE793  MET794  SER795  GLU796  ALA797  LYS798  CYS799  TRP800  GLU811  SER814 

> <Gold.Protein.RotatedAtoms>
  150.7011  134.1378  159.4093 H   0  0  0  0  0  0  0  0  0  0  0  0  # atno 6907 bound_to 6896
  151.9363  135.0231  160.0542 H   0  0  0  0  0  0  0  0  0  0  0  0  # atno 6908 bound_to 6896
  152.2132  133.4892  159.5158 H   0  0  0  0  0  0  0  0  0  0  0  0  # atno 6909 bound_to 6896
  146.1157  140.5515  142.8758 H   0  0  0  0  0  0  0  0  0  0  0  0  # atno 7974 bound_to 7965
  156.1762  140.3108  155.9064 H   0  0  0  0  0  0  0  0  0  0  0  0  # atno 8008 bound_to 7997
  155.3482  140.0469  157.3063 H   0  0  0  0  0  0  0  0  0  0  0  0  # atno 8009 bound_to 7997
  154.5293  140.2225  155.8843 H   0  0  0  0  0  0  0  0  0  0  0  0  # atno 8010 bound_to 7997
  139.5275  144.2734  152.0608 H   0  0  0  0  0  0  0  0  0  0  0  0  # atno 10167 bound_to 10162
  157.4888  130.8362  149.8178 H   0  0  0  0  0  0  0  0  0  0  0  0  # atno 10718 bound_to 10713
  153.1210  135.6719  153.9336 H   0  0  0  0  0  0  0  0  0  0  0  0  # atno 10763 bound_to 10752
  153.8851  135.3053  155.3447 H   0  0  0  0  0  0  0  0  0  0  0  0  # atno 10764 bound_to 10752
  154.7621  135.4982  153.9564 H   0  0  0  0  0  0  0  0  0  0  0  0  # atno 10765 bound_to 10752
  140.8661  133.7754  156.0131 H   0  0  0  0  0  0  0  0  0  0  0  0  # atno 11005 bound_to 11000
  144.7551  140.5288  143.6774 LP  0  0  0  0  0  0  0  0  0  0  0  0  # atno 17320 bound_to 7965
  145.5571  139.1478  143.3362 LP  0  0  0  0  0  0  0  0  0  0  0  0  # atno 17321 bound_to 7965
  140.2192  144.4483  150.6349 LP  0  0  0  0  0  0  0  0  0  0  0  0  # atno 17342 bound_to 10162
  140.6429  143.2207  151.6249 LP  0  0  0  0  0  0  0  0  0  0  0  0  # atno 17343 bound_to 10162
  156.0161  130.3813  150.2105 LP  0  0  0  0  0  0  0  0  0  0  0  0  # atno 17370 bound_to 10713
  157.0293  131.0003  151.3317 LP  0  0  0  0  0  0  0  0  0  0  0  0  # atno 17371 bound_to 10713
  140.8627  134.2821  157.5227 LP  0  0  0  0  0  0  0  0  0  0  0  0  # atno 17394 bound_to 11000
  139.8709  134.9527  156.4122 LP  0  0  0  0  0  0  0  0  0  0  0  0  # atno 17395 bound_to 11000

$$$$
