AV-unprocessed.smi:48|AV-procd|sdf|462|dock4
  -GOLD-   2262016333D 1   1.00000     0.00000
 Structure written by MMmdl.
 30 32  0  0  0  0  0  0  0  0  1 V2000
  149.7945  135.8841  154.6126 O   0  0  0  0  0  0  0  0  0  0  0  0
  150.7375  136.7073  155.2650 C   0  0  0  0  0  0  0  0  0  0  0  0
  150.7265  138.1141  154.6482 C   0  0  2  0  0  0  0  0  0  0  0  0
  151.5758  138.9746  155.3973 O   0  0  0  0  0  0  0  0  0  0  0  0
  151.1970  140.2993  155.1874 C   0  0  2  0  0  0  0  0  0  0  0  0
  151.3063  141.0184  156.4924 N   0  0  0  0  0  0  0  0  0  0  0  0
  150.6879  142.1616  156.8525 C   0  0  0  0  0  0  0  0  0  0  0  0
  150.9355  142.6355  158.0729 N   0  0  0  0  0  0  0  0  0  0  0  0
  151.8268  141.6935  158.5594 C   0  0  0  0  0  0  0  0  0  0  0  0
  152.5073  141.5640  159.7944 C   0  0  0  0  0  0  0  0  0  0  0  0
  152.2914  142.7242  161.0532 Cl  0  0  0  0  0  0  0  0  0  0  0  0
  153.3343  140.5054  159.9675 N   0  0  0  0  0  0  0  0  0  0  0  0
  153.4832  139.6205  158.9742 C   0  0  0  0  0  0  0  0  0  0  0  0
  152.9103  139.6101  157.7653 N   0  0  0  0  0  0  0  0  0  0  0  0
  152.0765  140.6781  157.5927 C   0  0  0  0  0  0  0  0  0  0  0  0
  149.7476  140.2999  154.6715 C   0  0  1  0  0  0  0  0  0  0  0  0
  149.6869  140.7916  153.3448 O   0  0  0  0  0  0  0  0  0  0  0  0
  149.3743  138.8202  154.7593 C   0  0  1  0  0  0  0  0  0  0  0  0
  148.4536  138.4077  153.7661 O   0  0  0  0  0  0  0  0  0  0  0  0
  151.0517  138.0974  153.6059 H   0  0  0  0  0  0  0  0  0  0  0  0
  151.9018  140.8039  154.5243 H   0  0  0  0  0  0  0  0  0  0  0  0
  149.1015  140.9132  155.3014 H   0  0  0  0  0  0  0  0  0  0  0  0
  148.9369  138.6190  155.7374 H   0  0  0  0  0  0  0  0  0  0  0  0
  149.8049  136.0882  153.6901 H   0  0  0  0  0  0  0  0  0  0  0  0
  150.4551  136.7567  156.3170 H   0  0  0  0  0  0  0  0  0  0  0  0
  151.7313  136.2605  155.2172 H   0  0  0  0  0  0  0  0  0  0  0  0
  150.0147  142.6753  156.1817 H   0  0  0  0  0  0  0  0  0  0  0  0
  154.1567  138.8011  159.1770 H   0  0  0  0  0  0  0  0  0  0  0  0
  149.3904  140.0959  152.7784 H   0  0  0  0  0  0  0  0  0  0  0  0
  148.8324  137.6860  153.2883 H   0  0  0  0  0  0  0  0  0  0  0  0
  1  2  1  0  0  0  0
  1 24  1  0  0  0  0
  2  3  1  0  0  0  0
  2 25  1  0  0  0  0
  2 26  1  0  0  0  0
  3 20  1  0  0  0  0
  3 18  1  0  0  0  0
  3  4  1  0  0  0  0
  4  5  1  0  0  0  0
  5 21  1  0  0  0  0
  5  6  1  0  0  0  0
  5 16  1  0  0  0  0
  6 15  1  0  0  0  0
  6  7  1  0  0  0  0
  7  8  2  0  0  0  0
  7 27  1  0  0  0  0
  8  9  1  0  0  0  0
  9 15  2  0  0  0  0
  9 10  1  0  0  0  0
 10 11  1  0  0  0  0
 10 12  2  0  0  0  0
 12 13  1  0  0  0  0
 13 14  2  0  0  0  0
 13 28  1  0  0  0  0
 14 15  1  0  0  0  0
 16 22  1  0  0  0  0
 16 17  1  0  0  0  0
 16 18  1  0  0  0  0
 17 29  1  0  0  0  0
 18 23  1  0  0  0  0
 18 19  1  0  0  0  0
 19 30  1  0  0  0  0
M  END
> <s_m_source_file>
AV-unprocessed.smi

> <i_m_source_file_index>
48

> <i_lp_mmshare_version>
43012

> <i_f3d_flags>
0

> <s_epik_input>
W09IXVtDSDJdW0NASF0xT1tDQEhdKFtDQEhdKFtPSF0pW0NAQEhdMVtPSF0pbihbY0hdbjIpYyhjMjMpbltjSF1uYzNDbA==

> <s_epik_cmdline>
J2VwaWtfcHl0aG9uJywgJy1waCcsICc3LjAnLCAnLXRuJywgJzgnLCAnLW1hJywgJzIwMCcsICctbWV0YWxfYmluZGluZycsICctaW1hZScsICc8aW5maWxlLm1hZT4nLCAnLW9tYWUnLCAnPG91dGZpbGUubWFlPic=

> <r_lp_tautomer_probability>
1

> <r_epik_Ionization_Penalty>
3.45505e-06

> <r_epik_Ionization_Penalty_Charging>
0

> <r_epik_Ionization_Penalty_Neutral>
3.45505e-06

> <r_epik_State_Penalty>
-0

> <r_epik_Charging_Adjusted_Penalty>
0

> <i_epik_Tot_Q>
0

> <i_epik_Tot_abs_Q>
0

> <r_epik_Metal_State_Penalty>
-0

> <b_epik_Metal_Only>
0

> <s_epik_Chemistry_Notes>
This compound contains an acetal/aminal-like group ( X-CH(R)-Y where X, Y are N, S, or O) that may be acid/base labile, releasing an aldehyde.

> <s_lp_Force_Field>
OPLS_2005

> <r_lp_Energy>
36.5243

> <b_lp_Chiralities_Consistent>
1

> <s_lp_Variant>
AV-unprocessed.smi:48-16

> <Gold.Version>
5.8.1

> <Gold.Id.Protein>
6NUR|6NUR_protein|mol2

> <Gold.PLP.Fitness>
48.4476

> <Gold.PLP.PLP>
-32.9474

> <Gold.PLP.part.hbond>
-5.2264

> <Gold.PLP.part.metal>
0.0000

> <Gold.PLP.part.buried>
-1.7845

> <Gold.PLP.part.nonpolar>
-25.8510

> <Gold.PLP.part.repulsive>
0.0940

> <Gold.PLP.ligand.clash>
0.0000

> <Gold.PLP.ligand.torsion>
0.6000

> <Gold.PLP.Chemscore.Hbond>
4.5614

> <Gold.PLP.Chemscore.CHOScore>
1.0000

> <Gold.PLP.Chemscore.Metal>
0.0000

> <Gold.Chemscore.Hbonds>
donor molecule, donor type, donor heavy atom, donor atom, acceptor molecule, acceptor atom, score
      L1  H     1    24       P1  7948  0.90
      L1  H    17    29       P1  7957  0.50
      L1  H    19    30       P1  7948  1.00
      P1  H  7989  7998       L1    17  0.09
      P1  H  7997  8009       L1    14  1.00
      P1  H  8011  8017       L1    17  1.00
      L1  C     7    27       P1  8028  1.00

> <Gold.PLP.Chemscore.Internal.Correction>
0.0161

> <Gold.Rescore>
     Score         DG    S(hbond)    S(metal)    S(lipo)     H(rot)  DE(clash)    DE(int)     intcor
      8.59     -12.04       3.06        0.00      51.81       3.80       1.43       2.02       ----

> <Gold.Chemscore.Fitness>
8.5910

> <Gold.Chemscore.DG>
-12.0380

> <Gold.Chemscore.ZeroCoef>
-5.4800

> <Gold.Chemscore.Hbond>
3.0623

> <Gold.Chemscore.Metal>
0.0000

> <Gold.Chemscore.Lipo>
51.8149

> <Gold.Chemscore.Internal_Hbond>
0.0000

> <Gold.Chemscore.DEClash>
1.4255

> <Gold.Chemscore.DEInternal>
2.0216

> <Gold.Chemscore.Rot>
3.8017

> <Gold.Chemscore.Internal.Correction>
   9.000000E+99

> <Gold.Chemscore.Hbonds>
donor molecule, donor type, donor heavy atom, donor atom, acceptor molecule, acceptor atom, score
      L1  H     1    24       P1  7948  0.17
      L1  H    17    29       P1  7957  0.50
      L1  H    19    30       P1  7948  0.94
      P1  H  7997  8009       L1    14  0.11
      P1  H  8011  8017       L1    17  0.69

> <Gold.Chemscore.Hbond.Weighted>
-10.2281

> <Gold.Chemscore.Metal.Weighted>
-0.0000

> <Gold.Chemscore.Lipo.Weighted>
-6.0623

> <Gold.Chemscore.Internal_Hbond.Weighted>
0.0000

> <Gold.Chemscore.DEClash.Weighted>
1.4255

> <Gold.Chemscore.DEInternal.Weighted>
2.0216

> <Gold.Chemscore.Rot.Weighted>
9.7324

> <Gold.Chemscore.Internal.Correction.Weighted>
   9.000000E+99

> <Gold.Protein.RotatedTorsions>
[ 6907 6896 6895 6894 ] final  -55.64 input  -60.11 | X-H torsion
[ 7974 7965 7964 7962 ] final   13.19 input  175.53 | X-H torsion
[ 8008 7997 7996 7995 ] final -175.83 input   59.86 | X-H torsion
[ 10167 10162 10161 10158 ] final  157.54 input  -65.29 | X-H torsion
[ 10718 10713 10712 10709 ] final   85.93 input   66.30 | X-H torsion
[ 10763 10752 10751 10750 ] final  132.35 input  -60.55 | X-H torsion
[ 11005 11000 10999 10996 ] final  169.29 input  -57.11 | X-H torsion

> <Gold.Protein.ActiveResidues>
 VAL166  LYS551  ARG553  GLY616  TRP617  ASP618  TYR619  PRO620  LYS621  CYS622 
 ASP623  PHE694  ASN695  SER759  ASP760  ASP761  ALA762  ILE779  LEU786  VAL792 
 PHE793  MET794  SER795  GLU796  ALA797  LYS798  CYS799  TRP800  GLU811  SER814 

> <Gold.Protein.RotatedAtoms>
  150.8234  134.7453  159.6791 H   0  0  0  0  0  0  0  0  0  0  0  0  # atno 6907 bound_to 6896
  152.4347  134.5705  159.9930 H   0  0  0  0  0  0  0  0  0  0  0  0  # atno 6908 bound_to 6896
  151.5884  133.3332  159.3058 H   0  0  0  0  0  0  0  0  0  0  0  0  # atno 6909 bound_to 6896
  146.2335  139.9225  142.8508 H   0  0  0  0  0  0  0  0  0  0  0  0  # atno 7974 bound_to 7965
  155.9874  140.1194  157.0670 H   0  0  0  0  0  0  0  0  0  0  0  0  # atno 8008 bound_to 7997
  154.4201  140.1132  156.5587 H   0  0  0  0  0  0  0  0  0  0  0  0  # atno 8009 bound_to 7997
  155.6388  140.3473  155.4710 H   0  0  0  0  0  0  0  0  0  0  0  0  # atno 8010 bound_to 7997
  139.4823  144.4908  151.8311 H   0  0  0  0  0  0  0  0  0  0  0  0  # atno 10167 bound_to 10162
  157.6922  131.0195  150.2897 H   0  0  0  0  0  0  0  0  0  0  0  0  # atno 10718 bound_to 10713
  153.7893  135.3157  155.3376 H   0  0  0  0  0  0  0  0  0  0  0  0  # atno 10763 bound_to 10752
  154.8132  135.4654  154.0574 H   0  0  0  0  0  0  0  0  0  0  0  0  # atno 10764 bound_to 10752
  153.1887  135.6905  153.8467 H   0  0  0  0  0  0  0  0  0  0  0  0  # atno 10765 bound_to 10752
  140.2962  134.7633  157.3879 H   0  0  0  0  0  0  0  0  0  0  0  0  # atno 11005 bound_to 11000
  145.2123  140.9900  143.4094 LP  0  0  0  0  0  0  0  0  0  0  0  0  # atno 17320 bound_to 7965
  144.9681  139.3909  143.6322 LP  0  0  0  0  0  0  0  0  0  0  0  0  # atno 17321 bound_to 7965
  140.4392  144.2010  150.5890 LP  0  0  0  0  0  0  0  0  0  0  0  0  # atno 17342 bound_to 10162
  140.4700  143.2416  151.9102 LP  0  0  0  0  0  0  0  0  0  0  0  0  # atno 17343 bound_to 10162
  156.3430  130.3818  149.7393 LP  0  0  0  0  0  0  0  0  0  0  0  0  # atno 17370 bound_to 10713
  156.4896  130.8079  151.3089 LP  0  0  0  0  0  0  0  0  0  0  0  0  # atno 17371 bound_to 10713
  140.1151  134.5294  155.8232 LP  0  0  0  0  0  0  0  0  0  0  0  0  # atno 17394 bound_to 11000
  141.2137  133.6737  156.6761 LP  0  0  0  0  0  0  0  0  0  0  0  0  # atno 17395 bound_to 11000

$$$$
