AV-unprocessed.smi:1701|AV-procd|sdf|6841|dock1
  -GOLD-   22720 8 13D 1   1.00000     0.00000
 Structure written by MMmdl.
 54 56  0  0  0  0  0  0  0  0  4 V2000
  152.6226  142.7657  160.6434 C   0  0  0  0  0  0  0  0  0  0  0  0
  153.0919  142.6318  159.1890 C   0  0  0  0  0  0  0  0  0  0  0  0
  152.0542  143.0216  158.2380 N   0  0  0  0  0  0  0  0  0  0  0  0
  151.8168  144.4431  157.9909 C   0  0  0  0  0  0  0  0  0  0  0  0
  151.5414  145.2188  159.2859 C   0  0  0  0  0  0  0  0  0  0  0  0
  151.3206  142.0384  157.5338 C   0  0  0  0  0  0  0  0  0  0  0  0
  151.5750  140.6486  157.6442 C   0  0  0  0  0  0  0  0  0  0  0  0
  150.8001  139.7304  156.9067 C   0  0  0  0  0  0  0  0  0  0  0  0
  149.7818  140.1996  156.0527 C   0  0  0  0  0  0  0  0  0  0  0  0
  149.0124  139.2366  155.3461 N   0  0  0  0  0  0  0  0  0  0  0  0
  148.1853  139.4090  154.2860 C   0  0  0  0  0  0  0  0  0  0  0  0
  148.0925  140.5240  153.7763 O   0  0  0  0  0  0  0  0  0  0  0  0
  147.4921  138.3430  153.7834 N   0  5  0  0  0  0  0  0  0  0  0  0
  146.5228  137.4574  154.4561 C   0  0  2  0  0  0  0  0  0  0  0  0
  147.2588  136.5905  155.4960 C   0  0  0  0  0  0  0  0  0  0  0  0
  147.6715  135.2988  154.7582 C   0  0  0  0  0  0  0  0  0  0  0  0
  147.1137  135.4212  153.3963 N   0  3  1  0  0  0  0  0  0  0  0  0
  146.7425  134.1675  152.7029 C   0  0  0  0  0  0  0  0  0  0  0  0
  146.2461  134.4928  151.2794 C   0  0  0  0  0  0  0  0  0  0  0  0
  145.1089  135.5348  151.2914 C   0  0  0  0  0  0  0  0  0  0  0  0
  145.5204  136.7954  152.0762 C   0  0  0  0  0  0  0  0  0  0  0  0
  146.0034  136.3838  153.4851 C   0  0  2  0  0  0  0  0  0  0  0  0
  149.5528  141.5936  155.9874 C   0  0  0  0  0  0  0  0  0  0  0  0
  150.3179  142.4372  156.7131 N   0  3  0  0  0  0  0  0  0  0  0  0
  153.4182  142.4825  161.3327 H   0  0  0  0  0  0  0  0  0  0  0  0
  151.7646  142.1249  160.8469 H   0  0  0  0  0  0  0  0  0  0  0  0
  152.3357  143.7923  160.8734 H   0  0  0  0  0  0  0  0  0  0  0  0
  153.9598  143.2742  159.0364 H   0  0  0  0  0  0  0  0  0  0  0  0
  153.4434  141.6203  158.9871 H   0  0  0  0  0  0  0  0  0  0  0  0
  152.6526  144.8885  157.4505 H   0  0  0  0  0  0  0  0  0  0  0  0
  150.9560  144.5396  157.3283 H   0  0  0  0  0  0  0  0  0  0  0  0
  151.3530  146.2710  159.0722 H   0  0  0  0  0  0  0  0  0  0  0  0
  152.3901  145.1661  159.9686 H   0  0  0  0  0  0  0  0  0  0  0  0
  150.6675  144.8254  159.8061 H   0  0  0  0  0  0  0  0  0  0  0  0
  152.3477  140.2637  158.2919 H   0  0  0  0  0  0  0  0  0  0  0  0
  150.9924  138.6710  156.9960 H   0  0  0  0  0  0  0  0  0  0  0  0
  149.1292  138.2813  155.6507 H   0  0  0  0  0  0  0  0  0  0  0  0
  145.6922  137.9993  154.9100 H   0  0  0  0  0  0  0  0  0  0  0  0
  148.1115  137.0991  155.9486 H   0  0  0  0  0  0  0  0  0  0  0  0
  146.5751  136.3373  156.3072 H   0  0  0  0  0  0  0  0  0  0  0  0
  148.7548  135.1826  154.7068 H   0  0  0  0  0  0  0  0  0  0  0  0
  147.2631  134.4246  155.2682 H   0  0  0  0  0  0  0  0  0  0  0  0
  147.6079  133.5057  152.6586 H   0  0  0  0  0  0  0  0  0  0  0  0
  145.9664  133.6484  153.2673 H   0  0  0  0  0  0  0  0  0  0  0  0
  147.0780  134.8767  150.6871 H   0  0  0  0  0  0  0  0  0  0  0  0
  145.9110  133.5810  150.7840 H   0  0  0  0  0  0  0  0  0  0  0  0
  144.8343  135.8019  150.2707 H   0  0  0  0  0  0  0  0  0  0  0  0
  144.2198  135.0969  151.7468 H   0  0  0  0  0  0  0  0  0  0  0  0
  146.3068  137.3134  151.5240 H   0  0  0  0  0  0  0  0  0  0  0  0
  144.6761  137.4835  152.1398 H   0  0  0  0  0  0  0  0  0  0  0  0
  145.1719  135.8800  153.9835 H   0  0  0  0  0  0  0  0  0  0  0  0
  148.7842  142.0692  155.3970 H   0  0  0  0  0  0  0  0  0  0  0  0
  147.8227  135.8822  152.8432 H   0  0  0  0  0  0  0  0  0  0  0  0
  150.1275  143.4364  156.6377 H   0  0  0  0  0  0  0  0  0  0  0  0
  1  2  1  0  0  0  0
  1 25  1  0  0  0  0
  1 26  1  0  0  0  0
  1 27  1  0  0  0  0
  2  3  1  0  0  0  0
  2 28  1  0  0  0  0
  2 29  1  0  0  0  0
  3  4  1  0  0  0  0
  3  6  1  0  0  0  0
  4  5  1  0  0  0  0
  4 30  1  0  0  0  0
  4 31  1  0  0  0  0
  5 32  1  0  0  0  0
  5 33  1  0  0  0  0
  5 34  1  0  0  0  0
  6 24  1  0  0  0  0
  6  7  2  0  0  0  0
  7  8  1  0  0  0  0
  7 35  1  0  0  0  0
  8  9  2  0  0  0  0
  8 36  1  0  0  0  0
  9 10  1  0  0  0  0
  9 23  1  0  0  0  0
 10 11  1  0  0  0  0
 10 37  1  0  0  0  0
 11 12  2  0  0  0  0
 11 13  1  0  0  0  0
 13 14  1  0  0  0  0
 14 22  1  0  0  0  0
 14 15  1  0  0  0  0
 14 38  1  0  0  0  0
 15 16  1  0  0  0  0
 15 39  1  0  0  0  0
 15 40  1  0  0  0  0
 16 17  1  0  0  0  0
 16 41  1  0  0  0  0
 16 42  1  0  0  0  0
 17 22  1  0  0  0  0
 17 18  1  0  0  0  0
 17 53  1  0  0  0  0
 18 19  1  0  0  0  0
 18 43  1  0  0  0  0
 18 44  1  0  0  0  0
 19 20  1  0  0  0  0
 19 45  1  0  0  0  0
 19 46  1  0  0  0  0
 20 21  1  0  0  0  0
 20 47  1  0  0  0  0
 20 48  1  0  0  0  0
 21 22  1  0  0  0  0
 21 49  1  0  0  0  0
 21 50  1  0  0  0  0
 22 51  1  0  0  0  0
 23 24  2  0  0  0  0
 23 52  1  0  0  0  0
 24 54  1  0  0  0  0
M  CHG  1  13  -1
M  CHG  1  17   1
M  CHG  1  24   1
M  END
> <s_m_source_file>
AV-unprocessed.smi

> <i_m_source_file_index>
1701

> <i_lp_mmshare_version>
43012

> <i_f3d_flags>
0

> <s_epik_input>
W0NIM11bQ0gyXU4oW0NIMl1bQ0gzXSljMVtjSF1bY0hdYyhbY0hdbjEpW05IXUMoPU8pW05IXVtDQEhdKFtDSDJdW0NIMl0yKVtDQEBIXShOMjMpW0NIMl1bQ0gyXVtDSDJdW0NIMl0z

> <s_epik_cmdline>
J2VwaWtfcHl0aG9uJywgJy1waCcsICc3LjAnLCAnLXRuJywgJzgnLCAnLW1hJywgJzIwMCcsICctbWV0YWxfYmluZGluZycsICctaW1hZScsICc8aW5maWxlLm1hZT4nLCAnLW9tYWUnLCAnPG91dGZpbGUubWFlPic=

> <r_lp_tautomer_probability>
0.999994

> <r_epik_Ionization_Penalty>
7.37095

> <r_epik_Ionization_Penalty_Charging>
7.37095

> <r_epik_Ionization_Penalty_Neutral>
3.78969e-06

> <r_epik_State_Penalty>
6.83842

> <r_epik_Charging_Adjusted_Penalty>
14.2094

> <i_epik_Tot_Q>
1

> <i_epik_Tot_abs_Q>
3

> <r_epik_Metal_State_Penalty>
2.78552

> <b_epik_Metal_Only>
1

> <s_lp_Force_Field>
OPLS_2005

> <r_lp_Energy>
49.8096

> <b_lp_Chiralities_Consistent>
1

> <s_lp_Variant>
AV-unprocessed.smi:1701-21

> <Gold.Version>
5.8.1

> <Gold.Id.Protein>
6NUR|6NUR_protein|mol2

> <Gold.PLP.Fitness>
49.5045

> <Gold.PLP.PLP>
-40.0795

> <Gold.PLP.part.hbond>
-2.0000

> <Gold.PLP.part.metal>
0.0000

> <Gold.PLP.part.buried>
-5.3539

> <Gold.PLP.part.nonpolar>
-34.2303

> <Gold.PLP.part.repulsive>
1.3867

> <Gold.PLP.ligand.clash>
0.0000

> <Gold.PLP.ligand.torsion>
0.9315

> <Gold.PLP.Chemscore.Hbond>
3.6320

> <Gold.PLP.Chemscore.CHOScore>
0.0000

> <Gold.PLP.Chemscore.Metal>
0.0000

> <Gold.Chemscore.Hbonds>
donor molecule, donor type, donor heavy atom, donor atom, acceptor molecule, acceptor atom, score
      L1  H    17    53       P1  7948  1.98
      L1  H    24    54       P1  8028  1.63

> <Gold.PLP.Chemscore.Internal.Correction>
0.3921

> <Gold.Rescore>
     Score         DG    S(hbond)    S(metal)    S(lipo)     H(rot)  DE(clash)    DE(int)     intcor
     17.18     -19.73       1.80        0.00      98.39       1.28       0.13       2.42       ----

> <Gold.Chemscore.Fitness>
17.1787

> <Gold.Chemscore.DG>
-19.7315

> <Gold.Chemscore.ZeroCoef>
-5.4800

> <Gold.Chemscore.Hbond>
1.8043

> <Gold.Chemscore.Metal>
0.0000

> <Gold.Chemscore.Lipo>
98.3894

> <Gold.Chemscore.Internal_Hbond>
0.0000

> <Gold.Chemscore.DEClash>
0.1307

> <Gold.Chemscore.DEInternal>
2.4220

> <Gold.Chemscore.Rot>
1.2838

> <Gold.Chemscore.Internal.Correction>
   9.000000E+99

> <Gold.Chemscore.Hbonds>
donor molecule, donor type, donor heavy atom, donor atom, acceptor molecule, acceptor atom, score
      L1  H    17    53       P1  7948  0.93
      L1  H    24    54       P1  8028  0.76

> <Gold.Chemscore.Hbond.Weighted>
-6.0264

> <Gold.Chemscore.Metal.Weighted>
-0.0000

> <Gold.Chemscore.Lipo.Weighted>
-11.5116

> <Gold.Chemscore.Internal_Hbond.Weighted>
0.0000

> <Gold.Chemscore.DEClash.Weighted>
0.1307

> <Gold.Chemscore.DEInternal.Weighted>
2.4220

> <Gold.Chemscore.Rot.Weighted>
3.2865

> <Gold.Chemscore.Internal.Correction.Weighted>
   9.000000E+99

> <Gold.Protein.RotatedTorsions>
[ 6907 6896 6895 6894 ] final  -18.51 input  -60.11 | X-H torsion
[ 7974 7965 7964 7962 ] final  -31.82 input  175.53 | X-H torsion
[ 8008 7997 7996 7995 ] final  149.63 input   59.86 | X-H torsion
[ 10167 10162 10161 10158 ] final  158.51 input  -65.29 | X-H torsion
[ 10718 10713 10712 10709 ] final   58.28 input   66.30 | X-H torsion
[ 10763 10752 10751 10750 ] final  -27.52 input  -60.55 | X-H torsion
[ 11005 11000 10999 10996 ] final  -14.59 input  -57.11 | X-H torsion

> <Gold.Protein.ActiveResidues>
 VAL166  LYS551  ARG553  GLY616  TRP617  ASP618  TYR619  PRO620  LYS621  CYS622 
 ASP623  PHE694  ASN695  SER759  ASP760  ASP761  ALA762  ILE779  LEU786  VAL792 
 PHE793  MET794  SER795  GLU796  ALA797  LYS798  CYS799  TRP800  GLU811  SER814 

> <Gold.Protein.RotatedAtoms>
  151.2771  135.0702  159.9155 H   0  0  0  0  0  0  0  0  0  0  0  0  # atno 6907 bound_to 6896
  152.5340  134.0069  159.7931 H   0  0  0  0  0  0  0  0  0  0  0  0  # atno 6908 bound_to 6896
  151.0317  133.5734  159.2691 H   0  0  0  0  0  0  0  0  0  0  0  0  # atno 6909 bound_to 6896
  146.1038  140.5716  142.8809 H   0  0  0  0  0  0  0  0  0  0  0  0  # atno 7974 bound_to 7965
  156.2747  140.2096  156.5889 H   0  0  0  0  0  0  0  0  0  0  0  0  # atno 8008 bound_to 7997
  154.6998  140.0522  157.0470 H   0  0  0  0  0  0  0  0  0  0  0  0  # atno 8009 bound_to 7997
  155.0750  140.3180  155.4621 H   0  0  0  0  0  0  0  0  0  0  0  0  # atno 8010 bound_to 7997
  139.4827  144.4817  151.8434 H   0  0  0  0  0  0  0  0  0  0  0  0  # atno 10167 bound_to 10162
  157.5584  130.8817  149.9071 H   0  0  0  0  0  0  0  0  0  0  0  0  # atno 10718 bound_to 10713
  153.7335  135.6937  153.4983 H   0  0  0  0  0  0  0  0  0  0  0  0  # atno 10763 bound_to 10752
  153.2119  135.4400  155.0388 H   0  0  0  0  0  0  0  0  0  0  0  0  # atno 10764 bound_to 10752
  154.8245  135.3439  154.6864 H   0  0  0  0  0  0  0  0  0  0  0  0  # atno 10765 bound_to 10752
  140.7880  133.8310  155.9353 H   0  0  0  0  0  0  0  0  0  0  0  0  # atno 11005 bound_to 11000
  144.7454  140.5053  143.6840 LP  0  0  0  0  0  0  0  0  0  0  0  0  # atno 17320 bound_to 7965
  145.5802  139.1488  143.3239 LP  0  0  0  0  0  0  0  0  0  0  0  0  # atno 17321 bound_to 7965
  140.4294  144.2136  150.5887 LP  0  0  0  0  0  0  0  0  0  0  0  0  # atno 17342 bound_to 10162
  140.4794  143.2384  151.8976 LP  0  0  0  0  0  0  0  0  0  0  0  0  # atno 17343 bound_to 10162
  156.0639  130.3695  150.0921 LP  0  0  0  0  0  0  0  0  0  0  0  0  # atno 17370 bound_to 10713
  156.9087  130.9644  151.3566 LP  0  0  0  0  0  0  0  0  0  0  0  0  # atno 17371 bound_to 10713
  140.9417  134.1892  157.4792 LP  0  0  0  0  0  0  0  0  0  0  0  0  # atno 17394 bound_to 11000
  139.8734  134.9874  156.5368 LP  0  0  0  0  0  0  0  0  0  0  0  0  # atno 17395 bound_to 11000

$$$$
