AV-unprocessed.smi:1775|AV-procd|sdf|7171|dock7
  -GOLD-   22720 8413D 1   1.00000     0.00000
 Structure written by MMmdl.
 38 40  0  0  0  0  0  0  0  0  1 V2000
  150.0407  142.7795  158.2388 O   0  0  0  0  0  0  0  0  0  0  0  0
  150.8805  142.0070  157.7779 C   0  0  0  0  0  0  0  0  0  0  0  0
  150.7224  141.2385  156.6847 N   0  0  0  0  0  0  0  0  0  0  0  0
  149.6292  141.1639  155.8059 C   0  0  0  0  0  0  0  0  0  0  0  0
  148.4528  141.8218  155.9763 C   0  0  0  0  0  0  0  0  0  0  0  0
  147.3630  141.7132  155.0212 C   0  0  0  0  0  0  0  0  0  0  0  0
  146.0233  142.3906  155.2650 C   0  0  0  0  0  0  0  0  0  0  0  0
  146.0273  143.0770  156.4085 F   0  0  0  0  0  0  0  0  0  0  0  0
  145.7263  143.2307  154.2734 F   0  0  0  0  0  0  0  0  0  0  0  0
  145.0589  141.4741  155.3338 F   0  0  0  0  0  0  0  0  0  0  0  0
  147.5747  140.9167  153.9570 C   0  0  0  0  0  0  0  0  0  0  0  0
  148.7896  140.2555  153.7627 N   0  0  0  0  0  0  0  0  0  0  0  0
  149.8382  140.3265  154.6131 C   0  0  0  0  0  0  0  0  0  0  0  0
  150.8780  139.7155  154.3692 O   0  0  0  0  0  0  0  0  0  0  0  0
  152.0877  141.8074  158.3289 N   0  0  0  0  0  0  0  0  0  0  0  0
  152.6158  142.4424  159.5349 C   0  0  0  0  0  0  0  0  0  0  0  0
  152.8405  143.9403  159.3906 C   0  0  0  0  0  0  0  0  0  0  0  0
  151.7150  144.9245  159.6030 C   0  0  0  0  0  0  0  0  0  0  0  0
  152.2784  144.7052  158.2167 C   0  0  0  0  0  0  0  0  0  0  0  0
  153.8521  141.7588  160.1008 C   0  0  0  0  0  0  0  0  0  0  0  0
  153.8066  140.3214  160.5594 C   0  0  0  0  0  0  0  0  0  0  0  0
  153.9660  141.4344  161.5713 C   0  0  0  0  0  0  0  0  0  0  0  0
  148.8763  139.6897  152.9305 H   0  0  0  0  0  0  0  0  0  0  0  0
  151.4704  140.5921  156.4786 H   0  0  0  0  0  0  0  0  0  0  0  0
  148.2980  142.4702  156.8234 H   0  0  0  0  0  0  0  0  0  0  0  0
  146.8427  140.7227  153.1865 H   0  0  0  0  0  0  0  0  0  0  0  0
  152.7010  141.1482  157.8724 H   0  0  0  0  0  0  0  0  0  0  0  0
  151.8232  142.3157  160.2740 H   0  0  0  0  0  0  0  0  0  0  0  0
  153.8166  144.2709  159.7417 H   0  0  0  0  0  0  0  0  0  0  0  0
  150.7216  144.5292  159.8060 H   0  0  0  0  0  0  0  0  0  0  0  0
  151.9554  145.8604  160.1031 H   0  0  0  0  0  0  0  0  0  0  0  0
  152.8947  145.4947  157.7916 H   0  0  0  0  0  0  0  0  0  0  0  0
  151.6620  144.1602  157.5043 H   0  0  0  0  0  0  0  0  0  0  0  0
  154.7803  142.0718  159.6258 H   0  0  0  0  0  0  0  0  0  0  0  0
  152.8476  139.8080  160.5246 H   0  0  0  0  0  0  0  0  0  0  0  0
  154.6756  139.7014  160.3487 H   0  0  0  0  0  0  0  0  0  0  0  0
  154.9419  141.5556  162.0371 H   0  0  0  0  0  0  0  0  0  0  0  0
  153.1135  141.6537  162.2112 H   0  0  0  0  0  0  0  0  0  0  0  0
  1  2  2  0  0  0  0
  2  3  1  0  0  0  0
  2 15  1  0  0  0  0
  3  4  1  0  0  0  0
  3 24  1  0  0  0  0
  4 13  1  0  0  0  0
  4  5  2  0  0  0  0
  5  6  1  0  0  0  0
  5 25  1  0  0  0  0
  6  7  1  0  0  0  0
  6 11  2  0  0  0  0
  7  8  1  0  0  0  0
  7  9  1  0  0  0  0
  7 10  1  0  0  0  0
 11 12  1  0  0  0  0
 11 26  1  0  0  0  0
 12 23  1  0  0  0  0
 12 13  1  0  0  0  0
 13 14  2  0  0  0  0
 15 16  1  0  0  0  0
 15 27  1  0  0  0  0
 16 17  1  0  0  0  0
 16 20  1  0  0  0  0
 16 28  1  0  0  0  0
 17 19  1  0  0  0  0
 17 18  1  0  0  0  0
 17 29  1  0  0  0  0
 18 19  1  0  0  0  0
 18 30  1  0  0  0  0
 18 31  1  0  0  0  0
 19 32  1  0  0  0  0
 19 33  1  0  0  0  0
 20 22  1  0  0  0  0
 20 21  1  0  0  0  0
 20 34  1  0  0  0  0
 21 22  1  0  0  0  0
 21 35  1  0  0  0  0
 21 36  1  0  0  0  0
 22 37  1  0  0  0  0
 22 38  1  0  0  0  0
M  END
> <s_m_source_file>
AV-unprocessed.smi

> <i_m_source_file_index>
1775

> <i_lp_mmshare_version>
43012

> <i_f3d_flags>
0

> <s_epik_input>
W0NIMl0xW0NIMl1bQ0hdMVtDSF0oW0NIXTJbQ0gyXVtDSDJdMilbTkhdQyg9TylbTkhdYzNbY0hdYyhDKEYpKEYpRilbY0hdW25IXWMzPU8=

> <s_epik_cmdline>
J2VwaWtfcHl0aG9uJywgJy1waCcsICc3LjAnLCAnLXRuJywgJzgnLCAnLW1hJywgJzIwMCcsICctbWV0YWxfYmluZGluZycsICctaW1hZScsICc8aW5maWxlLm1hZT4nLCAnLW9tYWUnLCAnPG91dGZpbGUubWFlPic=

> <r_lp_tautomer_probability>
1

> <r_epik_Ionization_Penalty>
0.00370881

> <r_epik_Ionization_Penalty_Charging>
0.00368697

> <r_epik_Ionization_Penalty_Neutral>
2.18468e-05

> <r_epik_State_Penalty>
-0

> <r_epik_Charging_Adjusted_Penalty>
0.00368697

> <i_epik_Tot_Q>
0

> <i_epik_Tot_abs_Q>
0

> <r_epik_Metal_State_Penalty>
0.370005

> <b_epik_Metal_Only>
0

> <s_lp_Force_Field>
OPLS_2005

> <r_lp_Energy>
35.723

> <b_lp_Chiralities_Consistent>
1

> <s_lp_Variant>
AV-unprocessed.smi:1775-1

> <Gold.Version>
5.8.1

> <Gold.Id.Protein>
6NUR|6NUR_protein|mol2

> <Gold.PLP.Fitness>
51.6768

> <Gold.PLP.PLP>
-47.8127

> <Gold.PLP.part.hbond>
-2.0000

> <Gold.PLP.part.metal>
0.0000

> <Gold.PLP.part.buried>
-4.1234

> <Gold.PLP.part.nonpolar>
-42.7682

> <Gold.PLP.part.repulsive>
0.5560

> <Gold.PLP.ligand.clash>
0.0000

> <Gold.PLP.ligand.torsion>
1.7161

> <Gold.PLP.Chemscore.Hbond>
1.6880

> <Gold.PLP.Chemscore.CHOScore>
0.0000

> <Gold.PLP.Chemscore.Metal>
0.0000

> <Gold.Chemscore.Hbonds>
donor molecule, donor type, donor heavy atom, donor atom, acceptor molecule, acceptor atom, score
      L1  H    12    23       P1  7957  0.67
      P1  H  7989  7998       L1    14  0.95

> <Gold.PLP.Chemscore.Internal.Correction>
2.2324

> <Gold.Rescore>
     Score         DG    S(hbond)    S(metal)    S(lipo)     H(rot)  DE(clash)    DE(int)     intcor
     15.09     -18.34       1.27        0.00     106.58       1.51       0.18       3.07       ----

> <Gold.Chemscore.Fitness>
15.0904

> <Gold.Chemscore.DG>
-18.3430

> <Gold.Chemscore.ZeroCoef>
-5.4800

> <Gold.Chemscore.Hbond>
1.2718

> <Gold.Chemscore.Metal>
0.0000

> <Gold.Chemscore.Lipo>
106.5760

> <Gold.Chemscore.Internal_Hbond>
0.0000

> <Gold.Chemscore.DEClash>
0.1798

> <Gold.Chemscore.DEInternal>
3.0729

> <Gold.Chemscore.Rot>
1.5056

> <Gold.Chemscore.Internal.Correction>
   9.000000E+99

> <Gold.Chemscore.Hbonds>
donor molecule, donor type, donor heavy atom, donor atom, acceptor molecule, acceptor atom, score
      L1  H    12    23       P1  7957  0.65
      P1  H  7989  7998       L1    14  0.21

> <Gold.Chemscore.Hbond.Weighted>
-4.2479

> <Gold.Chemscore.Metal.Weighted>
-0.0000

> <Gold.Chemscore.Lipo.Weighted>
-12.4694

> <Gold.Chemscore.Internal_Hbond.Weighted>
0.0000

> <Gold.Chemscore.DEClash.Weighted>
0.1798

> <Gold.Chemscore.DEInternal.Weighted>
3.0729

> <Gold.Chemscore.Rot.Weighted>
3.8542

> <Gold.Chemscore.Internal.Correction.Weighted>
   9.000000E+99

> <Gold.Protein.RotatedTorsions>
[ 6907 6896 6895 6894 ] final   37.76 input  -60.11 | X-H torsion
[ 7974 7965 7964 7962 ] final  -82.26 input  175.53 | X-H torsion
[ 8008 7997 7996 7995 ] final -165.91 input   59.86 | X-H torsion
[ 10167 10162 10161 10158 ] final -161.87 input  -65.29 | X-H torsion
[ 10718 10713 10712 10709 ] final -163.18 input   66.30 | X-H torsion
[ 10763 10752 10751 10750 ] final   44.73 input  -60.55 | X-H torsion
[ 11005 11000 10999 10996 ] final -178.92 input  -57.11 | X-H torsion

> <Gold.Protein.ActiveResidues>
 VAL166  LYS551  ARG553  GLY616  TRP617  ASP618  TYR619  PRO620  LYS621  CYS622 
 ASP623  PHE694  ASN695  SER759  ASP760  ASP761  ALA762  ILE779  LEU786  VAL792 
 PHE793  MET794  SER795  GLU796  ALA797  LYS798  CYS799  TRP800  GLU811  SER814 

> <Gold.Protein.RotatedAtoms>
  152.1475  134.9014  160.0549 H   0  0  0  0  0  0  0  0  0  0  0  0  # atno 6907 bound_to 6896
  152.0059  133.3838  159.4208 H   0  0  0  0  0  0  0  0  0  0  0  0  # atno 6908 bound_to 6896
  150.6872  134.3705  159.5034 H   0  0  0  0  0  0  0  0  0  0  0  0  # atno 6909 bound_to 6896
  145.5356  140.9516  143.1579 H   0  0  0  0  0  0  0  0  0  0  0  0  # atno 7974 bound_to 7965
  155.8564  140.0971  157.1642 H   0  0  0  0  0  0  0  0  0  0  0  0  # atno 8008 bound_to 7997
  154.3988  140.1373  156.3969 H   0  0  0  0  0  0  0  0  0  0  0  0  # atno 8009 bound_to 7997
  155.7905  140.3456  155.5349 H   0  0  0  0  0  0  0  0  0  0  0  0  # atno 8010 bound_to 7997
  139.6433  144.0218  152.2108 H   0  0  0  0  0  0  0  0  0  0  0  0  # atno 10167 bound_to 10162
  156.6210  130.8890  151.2957 H   0  0  0  0  0  0  0  0  0  0  0  0  # atno 10718 bound_to 10713
  152.9836  135.6061  154.3321 H   0  0  0  0  0  0  0  0  0  0  0  0  # atno 10763 bound_to 10752
  154.3024  135.2772  155.2607 H   0  0  0  0  0  0  0  0  0  0  0  0  # atno 10764 bound_to 10752
  154.4853  135.5906  153.6475 H   0  0  0  0  0  0  0  0  0  0  0  0  # atno 10765 bound_to 10752
  140.4243  134.6577  157.4680 H   0  0  0  0  0  0  0  0  0  0  0  0  # atno 11005 bound_to 11000
  144.7603  139.6973  143.7237 LP  0  0  0  0  0  0  0  0  0  0  0  0  # atno 17320 bound_to 7965
  146.2015  139.5313  142.9740 LP  0  0  0  0  0  0  0  0  0  0  0  0  # atno 17321 bound_to 7965
  139.9914  144.6359  150.7811 LP  0  0  0  0  0  0  0  0  0  0  0  0  # atno 17342 bound_to 10162
  140.7502  143.2951  151.3225 LP  0  0  0  0  0  0  0  0  0  0  0  0  # atno 17343 bound_to 10162
  157.7228  130.9581  150.1507 LP  0  0  0  0  0  0  0  0  0  0  0  0  # atno 17370 bound_to 10713
  156.2312  130.3682  149.8443 LP  0  0  0  0  0  0  0  0  0  0  0  0  # atno 17371 bound_to 10713
  140.0178  134.6593  155.9284 LP  0  0  0  0  0  0  0  0  0  0  0  0  # atno 17394 bound_to 11000
  141.1771  133.6541  156.4872 LP  0  0  0  0  0  0  0  0  0  0  0  0  # atno 17395 bound_to 11000

$$$$
