AV-unprocessed.smi:1905|AV-procd|sdf|7726|dock3
  -GOLD-   22720 9463D 1   1.00000     0.00000
 Structure written by MMmdl.
 38 39  0  0  0  0  0  0  0  0  1 V2000
  151.6924  138.7233  155.9099 C   0  0  0  0  0  0  0  0  0  0  0  0
  151.6999  138.3975  154.4146 C   0  0  0  0  0  0  0  0  0  0  0  0
  150.3533  138.3431  153.9543 O   0  0  0  0  0  0  0  0  0  0  0  0
  149.5461  139.4519  154.1257 C   0  0  0  0  0  0  0  0  0  0  0  0
  150.0968  140.5763  154.6479 N   0  0  0  0  0  0  0  0  0  0  0  0
  149.3114  141.6600  154.8119 C   0  0  0  0  0  0  0  0  0  0  0  0
  147.9493  141.6834  154.4618 C   0  0  0  0  0  0  0  0  0  0  0  0
  147.3753  140.5183  153.9198 C   0  0  0  0  0  0  0  0  0  0  0  0
  148.1842  139.3673  153.7523 C   0  0  0  0  0  0  0  0  0  0  0  0
  147.7231  138.1371  153.2041 N   0  0  0  0  0  0  0  0  0  0  0  0
  146.4774  137.6348  153.1603 C   0  0  0  0  0  0  0  0  0  0  0  0
  145.4699  138.1732  153.6172 O   0  0  0  0  0  0  0  0  0  0  0  0
  146.4644  136.4387  152.5555 N   0  0  0  0  0  0  0  0  0  0  0  0
  145.2777  135.6178  152.3389 C   0  0  0  0  0  0  0  0  0  0  0  0
  145.3756  134.7700  151.0553 C   0  0  1  0  0  0  0  0  0  0  0  0
  146.4957  133.7360  151.0814 C   0  0  0  0  0  0  0  0  0  0  0  0
  145.8967  132.5067  150.3894 C   0  0  0  0  0  0  0  0  0  0  0  0
  144.6469  132.9368  149.8693 O   0  0  0  0  0  0  0  0  0  0  0  0
  144.1410  133.9227  150.7521 C   0  0  0  0  0  0  0  0  0  0  0  0
  152.7077  138.7698  156.3042 H   0  0  0  0  0  0  0  0  0  0  0  0
  151.1492  137.9639  156.4729 H   0  0  0  0  0  0  0  0  0  0  0  0
  151.2156  139.6856  156.0978 H   0  0  0  0  0  0  0  0  0  0  0  0
  152.2587  139.1651  153.8764 H   0  0  0  0  0  0  0  0  0  0  0  0
  152.1958  137.4393  154.2511 H   0  0  0  0  0  0  0  0  0  0  0  0
  149.7842  142.5358  155.2311 H   0  0  0  0  0  0  0  0  0  0  0  0
  147.3583  142.5762  154.6031 H   0  0  0  0  0  0  0  0  0  0  0  0
  146.3352  140.5419  153.6371 H   0  0  0  0  0  0  0  0  0  0  0  0
  148.4484  137.5413  152.8324 H   0  0  0  0  0  0  0  0  0  0  0  0
  147.3399  136.0707  152.2130 H   0  0  0  0  0  0  0  0  0  0  0  0
  145.1110  134.9744  153.2043 H   0  0  0  0  0  0  0  0  0  0  0  0
  144.4178  136.2855  152.2808 H   0  0  0  0  0  0  0  0  0  0  0  0
  145.5494  135.4253  150.2001 H   0  0  0  0  0  0  0  0  0  0  0  0
  147.3784  134.1053  150.5581 H   0  0  0  0  0  0  0  0  0  0  0  0
  146.7961  133.4838  152.0992 H   0  0  0  0  0  0  0  0  0  0  0  0
  146.5367  132.1190  149.5967 H   0  0  0  0  0  0  0  0  0  0  0  0
  145.7272  131.7065  151.1112 H   0  0  0  0  0  0  0  0  0  0  0  0
  143.7532  133.4446  151.6533 H   0  0  0  0  0  0  0  0  0  0  0  0
  143.3372  134.4980  150.2919 H   0  0  0  0  0  0  0  0  0  0  0  0
  1  2  1  0  0  0  0
  1 20  1  0  0  0  0
  1 21  1  0  0  0  0
  1 22  1  0  0  0  0
  2  3  1  0  0  0  0
  2 23  1  0  0  0  0
  2 24  1  0  0  0  0
  3  4  1  0  0  0  0
  4  9  1  0  0  0  0
  4  5  2  0  0  0  0
  5  6  1  0  0  0  0
  6  7  2  0  0  0  0
  6 25  1  0  0  0  0
  7  8  1  0  0  0  0
  7 26  1  0  0  0  0
  8  9  2  0  0  0  0
  8 27  1  0  0  0  0
  9 10  1  0  0  0  0
 10 11  1  0  0  0  0
 10 28  1  0  0  0  0
 11 12  2  0  0  0  0
 11 13  1  0  0  0  0
 13 14  1  0  0  0  0
 13 29  1  0  0  0  0
 14 15  1  0  0  0  0
 14 30  1  0  0  0  0
 14 31  1  0  0  0  0
 15 19  1  0  0  0  0
 15 16  1  0  0  0  0
 15 32  1  0  0  0  0
 16 17  1  0  0  0  0
 16 33  1  0  0  0  0
 16 34  1  0  0  0  0
 17 18  1  0  0  0  0
 17 35  1  0  0  0  0
 17 36  1  0  0  0  0
 18 19  1  0  0  0  0
 19 37  1  0  0  0  0
 19 38  1  0  0  0  0
M  END
> <s_m_source_file>
AV-unprocessed.smi

> <i_m_source_file_index>
1905

> <i_lp_mmshare_version>
43012

> <i_f3d_flags>
0

> <s_epik_input>
W0NIM11bQ0gyXU9jMW5bY0hdW2NIXVtjSF1jMVtOSF1DKD1PKVtOSF1bQ0gyXVtDQEBIXTJbQ0gyXVtDSDJdT1tDSDJdMg==

> <s_epik_cmdline>
J2VwaWtfcHl0aG9uJywgJy1waCcsICc3LjAnLCAnLXRuJywgJzgnLCAnLW1hJywgJzIwMCcsICctbWV0YWxfYmluZGluZycsICctaW1hZScsICc8aW5maWxlLm1hZT4nLCAnLW9tYWUnLCAnPG91dGZpbGUubWFlPic=

> <r_lp_tautomer_probability>
1

> <r_epik_Ionization_Penalty>
0.000115153

> <r_epik_Ionization_Penalty_Charging>
0

> <r_epik_Ionization_Penalty_Neutral>
0.000115153

> <r_epik_State_Penalty>
-0

> <r_epik_Charging_Adjusted_Penalty>
0

> <i_epik_Tot_Q>
0

> <i_epik_Tot_abs_Q>
0

> <r_epik_Metal_State_Penalty>
-0

> <b_epik_Metal_Only>
0

> <s_lp_Force_Field>
OPLS_2005

> <r_lp_Energy>
21.5364

> <b_lp_Chiralities_Consistent>
1

> <s_lp_Variant>
AV-unprocessed.smi:1905-2

> <Gold.Version>
5.8.1

> <Gold.Id.Protein>
6NUR|6NUR_protein|mol2

> <Gold.PLP.Fitness>
42.9335

> <Gold.PLP.PLP>
-31.9282

> <Gold.PLP.part.hbond>
-3.0000

> <Gold.PLP.part.metal>
0.0000

> <Gold.PLP.part.buried>
-2.8642

> <Gold.PLP.part.nonpolar>
-26.6660

> <Gold.PLP.part.repulsive>
0.7737

> <Gold.PLP.ligand.clash>
0.0000

> <Gold.PLP.ligand.torsion>
0.3351

> <Gold.PLP.Chemscore.Hbond>
2.8800

> <Gold.PLP.Chemscore.CHOScore>
1.0000

> <Gold.PLP.Chemscore.Metal>
0.0000

> <Gold.Chemscore.Hbonds>
donor molecule, donor type, donor heavy atom, donor atom, acceptor molecule, acceptor atom, score
      L1  H    10    28       P1  7948  1.00
      L1  H    13    29       P1  7948  1.00
      P1  H  7989  7998       L1     5  0.88
      L1  C     6    25       P1  8028  1.00

> <Gold.PLP.Chemscore.Internal.Correction>
0.0355

> <Gold.Rescore>
     Score         DG    S(hbond)    S(metal)    S(lipo)     H(rot)  DE(clash)    DE(int)     intcor
     14.66     -17.45       2.26        0.00      73.21       1.61       0.18       2.62       ----

> <Gold.Chemscore.Fitness>
14.6585

> <Gold.Chemscore.DG>
-17.4546

> <Gold.Chemscore.ZeroCoef>
-5.4800

> <Gold.Chemscore.Hbond>
2.2573

> <Gold.Chemscore.Metal>
0.0000

> <Gold.Chemscore.Lipo>
73.2051

> <Gold.Chemscore.Internal_Hbond>
0.0000

> <Gold.Chemscore.DEClash>
0.1752

> <Gold.Chemscore.DEInternal>
2.6209

> <Gold.Chemscore.Rot>
1.6131

> <Gold.Chemscore.Internal.Correction>
   9.000000E+99

> <Gold.Chemscore.Hbonds>
donor molecule, donor type, donor heavy atom, donor atom, acceptor molecule, acceptor atom, score
      L1  H    10    28       P1  7948  0.96
      L1  H    13    29       P1  7948  0.97
      P1  H  7989  7998       L1     5  0.29

> <Gold.Chemscore.Hbond.Weighted>
-7.5393

> <Gold.Chemscore.Metal.Weighted>
-0.0000

> <Gold.Chemscore.Lipo.Weighted>
-8.5650

> <Gold.Chemscore.Internal_Hbond.Weighted>
0.0000

> <Gold.Chemscore.DEClash.Weighted>
0.1752

> <Gold.Chemscore.DEInternal.Weighted>
2.6209

> <Gold.Chemscore.Rot.Weighted>
4.1296

> <Gold.Chemscore.Internal.Correction.Weighted>
   9.000000E+99

> <Gold.Protein.RotatedTorsions>
[ 6907 6896 6895 6894 ] final  179.91 input  -60.11 | X-H torsion
[ 7974 7965 7964 7962 ] final  -90.08 input  175.53 | X-H torsion
[ 8008 7997 7996 7995 ] final   43.23 input   59.86 | X-H torsion
[ 10167 10162 10161 10158 ] final  -79.07 input  -65.29 | X-H torsion
[ 10718 10713 10712 10709 ] final  114.02 input   66.30 | X-H torsion
[ 10763 10752 10751 10750 ] final  156.63 input  -60.55 | X-H torsion
[ 11005 11000 10999 10996 ] final   74.97 input  -57.11 | X-H torsion

> <Gold.Protein.ActiveResidues>
 VAL166  LYS551  ARG553  GLY616  TRP617  ASP618  TYR619  PRO620  LYS621  CYS622 
 ASP623  PHE694  ASN695  SER759  ASP760  ASP761  ALA762  ILE779  LEU786  VAL792 
 PHE793  MET794  SER795  GLU796  ALA797  LYS798  CYS799  TRP800  GLU811  SER814 

> <Gold.Protein.RotatedAtoms>
  151.6640  133.3316  159.3180 H   0  0  0  0  0  0  0  0  0  0  0  0  # atno 6907 bound_to 6896
  150.7900  134.6919  159.6511 H   0  0  0  0  0  0  0  0  0  0  0  0  # atno 6908 bound_to 6896
  152.3977  134.6341  160.0134 H   0  0  0  0  0  0  0  0  0  0  0  0  # atno 6909 bound_to 6896
  145.4313  140.9556  143.2126 H   0  0  0  0  0  0  0  0  0  0  0  0  # atno 7974 bound_to 7965
  155.2993  140.3384  155.4248 H   0  0  0  0  0  0  0  0  0  0  0  0  # atno 8008 bound_to 7997
  156.2009  140.1732  156.7940 H   0  0  0  0  0  0  0  0  0  0  0  0  # atno 8009 bound_to 7997
  154.5558  140.0697  156.8725 H   0  0  0  0  0  0  0  0  0  0  0  0  # atno 8010 bound_to 7997
  140.4626  143.2449  151.8326 H   0  0  0  0  0  0  0  0  0  0  0  0  # atno 10167 bound_to 10162
  157.6305  131.0992  150.7126 H   0  0  0  0  0  0  0  0  0  0  0  0  # atno 10718 bound_to 10713
  154.1873  135.2796  155.3033 H   0  0  0  0  0  0  0  0  0  0  0  0  # atno 10763 bound_to 10752
  154.5956  135.5546  153.7325 H   0  0  0  0  0  0  0  0  0  0  0  0  # atno 10764 bound_to 10752
  153.0122  135.6379  154.2012 H   0  0  0  0  0  0  0  0  0  0  0  0  # atno 10765 bound_to 10752
  139.9365  134.7478  156.1214 H   0  0  0  0  0  0  0  0  0  0  0  0  # atno 11005 bound_to 11000
  144.8181  139.5840  143.6999 LP  0  0  0  0  0  0  0  0  0  0  0  0  # atno 17320 bound_to 7965
  146.2605  139.6401  142.9365 LP  0  0  0  0  0  0  0  0  0  0  0  0  # atno 17321 bound_to 7965
  139.4808  144.4990  151.9086 LP  0  0  0  0  0  0  0  0  0  0  0  0  # atno 17342 bound_to 10162
  140.4075  144.2412  150.5890 LP  0  0  0  0  0  0  0  0  0  0  0  0  # atno 17343 bound_to 10162
  156.7466  130.4755  149.5466 LP  0  0  0  0  0  0  0  0  0  0  0  0  # atno 17370 bound_to 10713
  156.1505  130.6307  151.0589 LP  0  0  0  0  0  0  0  0  0  0  0  0  # atno 17371 bound_to 10713
  141.0982  133.6687  156.2692 LP  0  0  0  0  0  0  0  0  0  0  0  0  # atno 17394 bound_to 11000
  140.6061  134.5505  157.5526 LP  0  0  0  0  0  0  0  0  0  0  0  0  # atno 17395 bound_to 11000

$$$$
