#       Name:                AV-unprocessed.smi:891
#       Creating user name   scv26
#       Creation time:       Fri Mar 27 01:55:15 2020


#       File generated by GOLD software.
#

@<TRIPOS>MOLECULE
AV-unprocessed.smi:891
    43    43     1
SMALL
NO_CHARGES


@<TRIPOS>ATOM
      1 ****        -2.2070   1.8879  -3.1867 C.3            1 S1                 0.0000
      2 ****        -2.1939   1.2541  -1.8264 C.2            1 S1                 0.0000
      3 ****        -1.9910   1.9939  -0.7470 N.2            1 S1                 0.0000
      4 ****        -2.0207   1.1277   0.2986 N.pl3          1 S1                 0.0000
      5 ****        -1.7605   1.6395   1.6375 C.3            1 S1                 0.0000
      6 ****        -0.2573   1.6368   1.9181 C.2            1 S1                 0.0000
      7 ****         0.3873   2.6823   1.8444 O.2            1 S1                 0.0000
      8 ****         0.2892   0.4397   2.1792 N.am           1 S1                 0.0000
      9 ****         1.7151   0.1330   2.1643 C.3            1 S1                 0.0000
     10 ****         2.0569  -0.8539   1.0253 C.3            1 S1                 0.0000
     11 ****         3.5280  -1.2904   1.1313 C.3            1 S1                 0.0000
     12 ****         1.7294  -0.2805  -0.3757 C.3            1 S1                 0.0000
     13 ****         1.7514  -1.3257  -1.5017 C.3            1 S1                 0.0000
     14 ****         1.3325  -0.7287  -2.7102 O.3            1 S1                 0.0000
     15 ****        -2.2631  -0.1759  -0.1124 C.2            1 S1                 0.0000
     16 ****        -2.3449  -1.3421   0.8189 C.3            1 S1                 0.0000
     17 ****        -2.3694  -0.1071  -1.4697 C.2            1 S1                 0.0000
     18 ****        -2.6443  -1.4245  -2.5504 Cl             1 S1                 0.0000
     19 ****        -3.2282   2.0738  -3.5192 H              1 S1                 0.0000
     20 ****        -1.7293   1.2417  -3.9232 H              1 S1                 0.0000
     21 ****        -1.6758   2.8402  -3.1908 H              1 S1                 0.0000
     22 ****        -2.1556   2.6533   1.7194 H              1 S1                 0.0000
     23 ****        -2.2863   1.0316   2.3740 H              1 S1                 0.0000
     24 ****        -0.3356  -0.3504   2.2459 H              1 S1                 0.0000
     25 ****         2.3210   1.0360   2.0725 H              1 S1                 0.0000
     26 ****         1.9667  -0.3088   3.1290 H              1 S1                 0.0000
     27 ****         1.4406  -1.7418   1.1743 H              1 S1                 0.0000
     28 ****         4.2028  -0.4517   0.9577 H              1 S1                 0.0000
     29 ****         3.7711  -2.0697   0.4095 H              1 S1                 0.0000
     30 ****         3.7474  -1.6919   2.1210 H              1 S1                 0.0000
     31 ****         0.7345   0.1623  -0.3723 H              1 S1                 0.0000
     32 ****         2.4152   0.5350  -0.6096 H              1 S1                 0.0000
     33 ****         2.7505  -1.7371  -1.6423 H              1 S1                 0.0000
     34 ****         1.0815  -2.1544  -1.2701 H              1 S1                 0.0000
     35 ****         1.3432  -1.3851  -3.3901 H              1 S1                 0.0000
     36 ****        -2.7759  -2.2098   0.3198 H              1 S1                 0.0000
     37 ****        -2.9693  -1.1159   1.6826 H              1 S1                 0.0000
     38 ****        -1.3545  -1.6236   1.1754 H              1 S1                 0.0000
     39 ****        -1.8463   2.9827  -0.7097 LP             1 S1                 0.0000
     40 ****        -0.0718   3.5366   1.6005 LP             1 S1                 0.0000
     41 ****         1.3702   2.6777   2.0284 LP             1 S1                 0.0000
     42 ****         1.9544   0.0163  -2.9513 LP             1 S1                 0.0000
     43 ****         0.4057  -0.3682  -2.6045 LP             1 S1                 0.0000
@<TRIPOS>BOND
    1    1    2 1     
    2    1   19 1     
    3    1   20 1     
    4    1   21 1     
    5    2   17 1     
    6    2    3 2     
    7    3    4 1     
    8    4    5 1     
    9    4   15 1     
   10    5    6 1     
   11    5   22 1     
   12    5   23 1     
   13    6    7 2     
   14    6    8 am    
   15    8    9 1     
   16    8   24 1     
   17    9   10 1     
   18    9   25 1     
   19    9   26 1     
   20   10   11 1     
   21   10   12 1     
   22   10   27 1     
   23   11   28 1     
   24   11   29 1     
   25   11   30 1     
   26   12   13 1     
   27   12   31 1     
   28   12   32 1     
   29   13   14 1     
   30   13   33 1     
   31   13   34 1     
   32   14   35 1     
   33   15   16 1     
   34   15   17 2     
   35   16   36 1     
   36   16   37 1     
   37   16   38 1     
   38   17   18 1     
   39    3   39 1     
   40    7   40 1     
   41    7   41 1     
   42   14   42 1     
   43   14   43 1     
@<TRIPOS>SUBSTRUCTURE
      1 S1             1
@<TRIPOS>SET
LONE_PAIRS      STATIC     ATOMS    <user>   **** ""
5 39 40 41 42 43
DONOR_HYDROGENS      STATIC     ATOMS    <user>   **** ""
2 24 35
ATOM$BLUE        STATIC     ATOMS    COLORGROUP SYSTEM
5 39 40 41 42 43
ATOM$RED        STATIC     ATOMS    COLORGROUP SYSTEM
2 24 35
