AV-unprocessed.smi:1409|AV-procd|sdf|5727|dock2
  -GOLD-   22720 5363D 1   1.00000     0.00000
 Structure written by MMmdl.
 37 38  0  0  0  0  0  0  0  0  1 V2000
  144.9693  134.3091  150.5010 C   0  0  0  0  0  0  0  0  0  0  0  0
  146.0740  134.0962  151.3729 O   0  0  0  0  0  0  0  0  0  0  0  0
  146.2920  132.8225  151.8629 C   0  0  0  0  0  0  0  0  0  0  0  0
  145.4784  131.8212  151.4433 N   0  0  0  0  0  0  0  0  0  0  0  0
  145.6915  130.5774  151.9199 C   0  0  0  0  0  0  0  0  0  0  0  0
  146.7215  130.2657  152.8262 C   0  0  0  0  0  0  0  0  0  0  0  0
  147.5669  131.3024  153.2629 C   0  0  0  0  0  0  0  0  0  0  0  0
  147.3459  132.6163  152.7835 C   0  0  0  0  0  0  0  0  0  0  0  0
  148.1547  133.7291  153.1431 N   0  0  0  0  0  0  0  0  0  0  0  0
  148.9556  133.8669  154.2130 C   0  0  0  0  0  0  0  0  0  0  0  0
  149.1086  133.0279  155.1006 O   0  0  0  0  0  0  0  0  0  0  0  0
  149.5616  135.0623  154.2128 N   0  0  0  0  0  0  0  0  0  0  0  0
  150.4687  135.5431  155.2498 C   0  0  0  0  0  0  0  0  0  0  0  0
  150.8670  137.0178  155.0405 C   0  0  2  0  0  0  0  0  0  0  0  0
  151.9431  137.5110  156.0310 C   0  0  0  0  0  0  0  0  0  0  0  0
  152.0429  139.0350  155.9236 C   0  0  0  0  0  0  0  0  0  0  0  0
  150.3393  139.6148  155.5881 S   0  0  0  0  0  0  0  0  0  0  0  0
  149.7175  140.0591  156.8446 O   0  0  0  0  0  0  0  0  0  0  0  0
  150.3524  140.4830  154.4011 O   0  0  0  0  0  0  0  0  0  0  0  0
  149.6633  137.9692  155.1417 C   0  0  0  0  0  0  0  0  0  0  0  0
  144.9342  135.3600  150.2144 H   0  0  0  0  0  0  0  0  0  0  0  0
  144.0231  134.0686  150.9878 H   0  0  0  0  0  0  0  0  0  0  0  0
  145.0630  133.7199  149.5876 H   0  0  0  0  0  0  0  0  0  0  0  0
  145.0250  129.8062  151.5630 H   0  0  0  0  0  0  0  0  0  0  0  0
  146.8634  129.2532  153.1742 H   0  0  0  0  0  0  0  0  0  0  0  0
  148.3733  131.0692  153.9409 H   0  0  0  0  0  0  0  0  0  0  0  0
  148.0562  134.5417  152.5523 H   0  0  0  0  0  0  0  0  0  0  0  0
  149.3758  135.6898  153.4440 H   0  0  0  0  0  0  0  0  0  0  0  0
  150.0121  135.4106  156.2323 H   0  0  0  0  0  0  0  0  0  0  0  0
  151.3571  134.9111  155.2374 H   0  0  0  0  0  0  0  0  0  0  0  0
  151.2785  137.1290  154.0360 H   0  0  0  0  0  0  0  0  0  0  0  0
  151.6434  137.2476  157.0463 H   0  0  0  0  0  0  0  0  0  0  0  0
  152.9101  137.0402  155.8515 H   0  0  0  0  0  0  0  0  0  0  0  0
  152.4331  139.5056  156.8262 H   0  0  0  0  0  0  0  0  0  0  0  0
  152.6697  139.3214  155.0788 H   0  0  0  0  0  0  0  0  0  0  0  0
  149.0973  138.0356  154.2123 H   0  0  0  0  0  0  0  0  0  0  0  0
  148.9840  137.6647  155.9383 H   0  0  0  0  0  0  0  0  0  0  0  0
  1  2  1  0  0  0  0
  1 21  1  0  0  0  0
  1 22  1  0  0  0  0
  1 23  1  0  0  0  0
  2  3  1  0  0  0  0
  3  8  1  0  0  0  0
  3  4  2  0  0  0  0
  4  5  1  0  0  0  0
  5  6  2  0  0  0  0
  5 24  1  0  0  0  0
  6  7  1  0  0  0  0
  6 25  1  0  0  0  0
  7  8  2  0  0  0  0
  7 26  1  0  0  0  0
  8  9  1  0  0  0  0
  9 10  1  0  0  0  0
  9 27  1  0  0  0  0
 10 11  2  0  0  0  0
 10 12  1  0  0  0  0
 12 13  1  0  0  0  0
 12 28  1  0  0  0  0
 13 14  1  0  0  0  0
 13 29  1  0  0  0  0
 13 30  1  0  0  0  0
 14 20  1  0  0  0  0
 14 15  1  0  0  0  0
 14 31  1  0  0  0  0
 15 16  1  0  0  0  0
 15 32  1  0  0  0  0
 15 33  1  0  0  0  0
 16 17  1  0  0  0  0
 16 34  1  0  0  0  0
 16 35  1  0  0  0  0
 17 18  2  0  0  0  0
 17 19  2  0  0  0  0
 17 20  1  0  0  0  0
 20 36  1  0  0  0  0
 20 37  1  0  0  0  0
M  END
> <s_m_source_file>
AV-unprocessed.smi

> <i_m_source_file_index>
1409

> <i_lp_mmshare_version>
43012

> <i_f3d_flags>
0

> <s_epik_input>
W0NIM11PYzFuW2NIXVtjSF1bY0hdYzFbTkhdQyg9TylbTkhdW0NIMl1bQ0BASF0oW0NIMl0yKVtDSDJdW0NIMl1TMig9Tyk9Tw==

> <s_epik_cmdline>
J2VwaWtfcHl0aG9uJywgJy1waCcsICc3LjAnLCAnLXRuJywgJzgnLCAnLW1hJywgJzIwMCcsICctbWV0YWxfYmluZGluZycsICctaW1hZScsICc8aW5maWxlLm1hZT4nLCAnLW9tYWUnLCAnPG91dGZpbGUubWFlPic=

> <r_lp_tautomer_probability>
1

> <r_epik_Ionization_Penalty>
9.0549e-05

> <r_epik_Ionization_Penalty_Charging>
0

> <r_epik_Ionization_Penalty_Neutral>
9.0549e-05

> <r_epik_State_Penalty>
-0

> <r_epik_Charging_Adjusted_Penalty>
0

> <i_epik_Tot_Q>
0

> <i_epik_Tot_abs_Q>
0

> <r_epik_Metal_State_Penalty>
-0

> <b_epik_Metal_Only>
0

> <s_lp_Force_Field>
OPLS_2005

> <r_lp_Energy>
8.54576

> <b_lp_Chiralities_Consistent>
1

> <s_lp_Variant>
AV-unprocessed.smi:1409-1

> <Gold.Version>
5.8.1

> <Gold.Id.Protein>
6NUR|6NUR_protein|mol2

> <Gold.PLP.Fitness>
37.4294

> <Gold.PLP.PLP>
-29.1092

> <Gold.PLP.part.hbond>
-3.2735

> <Gold.PLP.part.metal>
0.0000

> <Gold.PLP.part.buried>
-2.7217

> <Gold.PLP.part.nonpolar>
-23.2350

> <Gold.PLP.part.repulsive>
0.4624

> <Gold.PLP.ligand.clash>
0.0000

> <Gold.PLP.ligand.torsion>
0.1326

> <Gold.PLP.Chemscore.Hbond>
2.8560

> <Gold.PLP.Chemscore.CHOScore>
0.0000

> <Gold.PLP.Chemscore.Metal>
0.0000

> <Gold.Chemscore.Hbonds>
donor molecule, donor type, donor heavy atom, donor atom, acceptor molecule, acceptor atom, score
      L1  H     9    27       P1  7948  0.91
      L1  H    12    28       P1  7948  1.00
      P1  H  7989  7998       L1    19  0.96

> <Gold.PLP.Chemscore.Internal.Correction>
0.0175

> <Gold.Rescore>
     Score         DG    S(hbond)    S(metal)    S(lipo)     H(rot)  DE(clash)    DE(int)     intcor
     14.76     -16.14       2.54        0.00      53.36       1.59       0.05       1.33       ----

> <Gold.Chemscore.Fitness>
14.7570

> <Gold.Chemscore.DG>
-16.1362

> <Gold.Chemscore.ZeroCoef>
-5.4800

> <Gold.Chemscore.Hbond>
2.5413

> <Gold.Chemscore.Metal>
0.0000

> <Gold.Chemscore.Lipo>
53.3639

> <Gold.Chemscore.Internal_Hbond>
0.0000

> <Gold.Chemscore.DEClash>
0.0480

> <Gold.Chemscore.DEInternal>
1.3312

> <Gold.Chemscore.Rot>
1.5919

> <Gold.Chemscore.Internal.Correction>
   9.000000E+99

> <Gold.Chemscore.Hbonds>
donor molecule, donor type, donor heavy atom, donor atom, acceptor molecule, acceptor atom, score
      L1  H     9    27       P1  7948  0.38
      L1  H    12    28       P1  7948  0.34
      P1  H  7989  7998       L1    19  0.91

> <Gold.Chemscore.Hbond.Weighted>
-8.4880

> <Gold.Chemscore.Metal.Weighted>
-0.0000

> <Gold.Chemscore.Lipo.Weighted>
-6.2436

> <Gold.Chemscore.Internal_Hbond.Weighted>
0.0000

> <Gold.Chemscore.DEClash.Weighted>
0.0480

> <Gold.Chemscore.DEInternal.Weighted>
1.3312

> <Gold.Chemscore.Rot.Weighted>
4.0754

> <Gold.Chemscore.Internal.Correction.Weighted>
   9.000000E+99

> <Gold.Protein.RotatedTorsions>
[ 6907 6896 6895 6894 ] final   68.59 input  -60.11 | X-H torsion
[ 7974 7965 7964 7962 ] final -134.69 input  175.53 | X-H torsion
[ 8008 7997 7996 7995 ] final  113.52 input   59.86 | X-H torsion
[ 10167 10162 10161 10158 ] final  134.75 input  -65.29 | X-H torsion
[ 10718 10713 10712 10709 ] final  -86.06 input   66.30 | X-H torsion
[ 10763 10752 10751 10750 ] final   18.65 input  -60.55 | X-H torsion
[ 11005 11000 10999 10996 ] final  -46.85 input  -57.11 | X-H torsion

> <Gold.Protein.ActiveResidues>
 VAL166  LYS551  ARG553  GLY616  TRP617  ASP618  TYR619  PRO620  LYS621  CYS622 
 ASP623  PHE694  ASN695  SER759  ASP760  ASP761  ALA762  ILE779  LEU786  VAL792 
 PHE793  MET794  SER795  GLU796  ALA797  LYS798  CYS799  TRP800  GLU811  SER814 

> <Gold.Protein.RotatedAtoms>
  152.4631  134.5139  159.9761 H   0  0  0  0  0  0  0  0  0  0  0  0  # atno 6907 bound_to 6896
  151.5183  133.3465  159.2905 H   0  0  0  0  0  0  0  0  0  0  0  0  # atno 6908 bound_to 6896
  150.8602  134.7981  159.7139 H   0  0  0  0  0  0  0  0  0  0  0  0  # atno 6909 bound_to 6896
  144.9080  140.6858  143.5043 H   0  0  0  0  0  0  0  0  0  0  0  0  # atno 7974 bound_to 7965
  156.2263  140.2978  156.0075 H   0  0  0  0  0  0  0  0  0  0  0  0  # atno 8008 bound_to 7997
  155.2347  140.0420  157.2984 H   0  0  0  0  0  0  0  0  0  0  0  0  # atno 8009 bound_to 7997
  154.5921  140.2404  155.7914 H   0  0  0  0  0  0  0  0  0  0  0  0  # atno 8010 bound_to 7997
  139.5244  144.6551  151.5185 H   0  0  0  0  0  0  0  0  0  0  0  0  # atno 10167 bound_to 10162
  155.9992  130.4752  150.4657 H   0  0  0  0  0  0  0  0  0  0  0  0  # atno 10718 bound_to 10713
  153.1231  135.6723  153.9303 H   0  0  0  0  0  0  0  0  0  0  0  0  # atno 10763 bound_to 10752
  153.8812  135.3058  155.3446 H   0  0  0  0  0  0  0  0  0  0  0  0  # atno 10764 bound_to 10752
  154.7640  135.4974  153.9597 H   0  0  0  0  0  0  0  0  0  0  0  0  # atno 10765 bound_to 10752
  141.0604  133.6711  156.3214 H   0  0  0  0  0  0  0  0  0  0  0  0  # atno 11005 bound_to 11000
  145.3502  139.1708  143.4438 LP  0  0  0  0  0  0  0  0  0  0  0  0  # atno 17320 bound_to 7965
  146.3144  140.3553  142.8660 LP  0  0  0  0  0  0  0  0  0  0  0  0  # atno 17321 bound_to 7965
  140.6374  143.8957  150.6659 LP  0  0  0  0  0  0  0  0  0  0  0  0  # atno 17342 bound_to 10162
  140.2281  143.3757  152.1588 LP  0  0  0  0  0  0  0  0  0  0  0  0  # atno 17343 bound_to 10162
  157.2677  131.0580  151.2280 LP  0  0  0  0  0  0  0  0  0  0  0  0  # atno 17370 bound_to 10713
  157.3372  130.7015  149.6359 LP  0  0  0  0  0  0  0  0  0  0  0  0  # atno 17371 bound_to 10713
  140.5879  134.5680  157.5493 LP  0  0  0  0  0  0  0  0  0  0  0  0  # atno 17394 bound_to 11000
  139.9428  134.7756  156.0636 LP  0  0  0  0  0  0  0  0  0  0  0  0  # atno 17395 bound_to 11000

$$$$
