AV-unprocessed.smi:21|AV-procd|sdf|165|dock3
  -GOLD-   2262015413D 1   1.00000     0.00000
 Structure written by MMmdl.
 61 64  0  0  0  0  0  0  0  0  1 V2000
  153.6929  142.6276  162.7055 C   0  0  0  0  0  0  0  0  0  0  0  0
  152.7827  141.9874  161.8253 O   0  0  0  0  0  0  0  0  0  0  0  0
  153.0021  142.3032  160.4571 C   0  0  1  0  0  0  0  0  0  0  0  0
  151.9292  141.6822  159.5463 C   0  0  0  0  0  0  0  0  0  0  0  0
  151.4486  142.8539  158.6824 C   0  0  1  0  0  0  0  0  0  0  0  0
  150.0423  142.6488  158.0764 C   0  0  0  0  0  0  0  0  0  0  0  0
  149.9891  141.5386  157.1243 N   0  0  0  0  0  0  0  0  0  0  0  0
  151.2542  141.0666  156.5627 C   0  0  0  0  0  0  0  0  0  0  0  0
  148.8402  141.2919  156.4301 C   0  0  0  0  0  0  0  0  0  0  0  0
  147.7547  142.0774  156.6725 N   0  0  0  0  0  0  0  0  0  0  0  0
  146.6054  141.8849  156.0204 C   0  0  0  0  0  0  0  0  0  0  0  0
  146.3201  140.9781  155.0869 N   0  0  0  0  0  0  0  0  0  0  0  0
  147.4000  140.1902  154.8227 C   0  0  0  0  0  0  0  0  0  0  0  0
  148.6838  140.2734  155.4387 C   0  0  0  0  0  0  0  0  0  0  0  0
  149.5171  139.3054  154.8867 N   0  0  0  0  0  0  0  0  0  0  0  0
  148.7726  138.6826  154.0163 C   0  0  0  0  0  0  0  0  0  0  0  0
  147.4873  139.1571  153.9071 N   0  0  0  0  0  0  0  0  0  0  0  0
  146.4470  138.6664  153.0210 C   0  0  0  0  0  0  0  0  0  0  0  0
  146.4879  137.1269  152.8453 C   0  0  1  0  0  0  0  0  0  0  0  0
  146.4789  136.4054  154.2132 C   0  0  0  0  0  0  0  0  0  0  0  0
  147.2136  135.2003  154.1623 O   0  0  0  0  0  0  0  0  0  0  0  0
  145.3818  136.5860  151.8979 C   0  0  1  0  0  0  0  0  0  0  0  0
  145.6002  135.1989  151.3107 C   0  0  0  0  0  0  0  0  0  0  0  0
  144.1820  134.8115  150.9157 C   0  0  0  0  0  0  0  0  0  0  0  0
  143.3975  135.2871  151.9992 O   0  0  0  0  0  0  0  0  0  0  0  0
  143.9716  136.4906  152.5041 C   0  0  0  0  0  0  0  0  0  0  0  0
  151.5663  144.0069  159.5590 N   0  0  0  0  0  0  0  0  0  0  0  0
  151.5005  145.2870  158.8668 C   0  0  0  0  0  0  0  0  0  0  0  0
  152.8361  143.8135  160.2374 C   0  0  0  0  0  0  0  0  0  0  0  0
  154.0064  142.0048  160.1515 H   0  0  0  0  0  0  0  0  0  0  0  0
  152.1676  142.9731  157.8706 H   0  0  0  0  0  0  0  0  0  0  0  0
  153.4650  142.3449  163.7331 H   0  0  0  0  0  0  0  0  0  0  0  0
  153.6147  143.7131  162.6312 H   0  0  0  0  0  0  0  0  0  0  0  0
  154.7240  142.3374  162.5009 H   0  0  0  0  0  0  0  0  0  0  0  0
  152.3125  140.8530  158.9509 H   0  0  0  0  0  0  0  0  0  0  0  0
  151.1092  141.3054  160.1547 H   0  0  0  0  0  0  0  0  0  0  0  0
  149.3009  142.5584  158.8670 H   0  0  0  0  0  0  0  0  0  0  0  0
  149.7560  143.5460  157.5272 H   0  0  0  0  0  0  0  0  0  0  0  0
  151.2079  139.9974  156.3523 H   0  0  0  0  0  0  0  0  0  0  0  0
  152.0830  141.2309  157.2502 H   0  0  0  0  0  0  0  0  0  0  0  0
  151.4851  141.5941  155.6365 H   0  0  0  0  0  0  0  0  0  0  0  0
  145.7998  142.5542  156.2844 H   0  0  0  0  0  0  0  0  0  0  0  0
  149.1464  137.8631  153.4199 H   0  0  0  0  0  0  0  0  0  0  0  0
  145.4839  138.9814  153.4230 H   0  0  0  0  0  0  0  0  0  0  0  0
  146.5635  139.1796  152.0672 H   0  0  0  0  0  0  0  0  0  0  0  0
  147.4405  136.8874  152.3695 H   0  0  0  0  0  0  0  0  0  0  0  0
  146.9346  137.0236  154.9860 H   0  0  0  0  0  0  0  0  0  0  0  0
  145.4590  136.1942  154.5355 H   0  0  0  0  0  0  0  0  0  0  0  0
  147.7630  135.2145  153.3933 H   0  0  0  0  0  0  0  0  0  0  0  0
  145.2914  137.2704  151.0533 H   0  0  0  0  0  0  0  0  0  0  0  0
  146.2899  135.1951  150.4662 H   0  0  0  0  0  0  0  0  0  0  0  0
  145.9679  134.4953  152.0567 H   0  0  0  0  0  0  0  0  0  0  0  0
  143.8813  135.3192  149.9978 H   0  0  0  0  0  0  0  0  0  0  0  0
  144.0607  133.7376  150.7727 H   0  0  0  0  0  0  0  0  0  0  0  0
  143.9714  136.4538  153.5925 H   0  0  0  0  0  0  0  0  0  0  0  0
  143.3653  137.3479  152.2088 H   0  0  0  0  0  0  0  0  0  0  0  0
  151.6471  146.1090  159.5681 H   0  0  0  0  0  0  0  0  0  0  0  0
  150.5277  145.4276  158.3961 H   0  0  0  0  0  0  0  0  0  0  0  0
  152.2668  145.3597  158.0941 H   0  0  0  0  0  0  0  0  0  0  0  0
  152.8804  144.3811  161.1675 H   0  0  0  0  0  0  0  0  0  0  0  0
  153.6520  144.1649  159.6032 H   0  0  0  0  0  0  0  0  0  0  0  0
  1  2  1  0  0  0  0
  1 32  1  0  0  0  0
  1 33  1  0  0  0  0
  1 34  1  0  0  0  0
  2  3  1  0  0  0  0
  3 30  1  0  0  0  0
  3 29  1  0  0  0  0
  3  4  1  0  0  0  0
  4  5  1  0  0  0  0
  4 35  1  0  0  0  0
  4 36  1  0  0  0  0
  5 31  1  0  0  0  0
  5  6  1  0  0  0  0
  5 27  1  0  0  0  0
  6  7  1  0  0  0  0
  6 37  1  0  0  0  0
  6 38  1  0  0  0  0
  7  8  1  0  0  0  0
  7  9  1  0  0  0  0
  8 39  1  0  0  0  0
  8 40  1  0  0  0  0
  8 41  1  0  0  0  0
  9 14  1  0  0  0  0
  9 10  2  0  0  0  0
 10 11  1  0  0  0  0
 11 12  2  0  0  0  0
 11 42  1  0  0  0  0
 12 13  1  0  0  0  0
 13 17  1  0  0  0  0
 13 14  2  0  0  0  0
 14 15  1  0  0  0  0
 15 16  2  0  0  0  0
 16 17  1  0  0  0  0
 16 43  1  0  0  0  0
 17 18  1  0  0  0  0
 18 19  1  0  0  0  0
 18 44  1  0  0  0  0
 18 45  1  0  0  0  0
 19 20  1  0  0  0  0
 19 22  1  0  0  0  0
 19 46  1  0  0  0  0
 20 21  1  0  0  0  0
 20 47  1  0  0  0  0
 20 48  1  0  0  0  0
 21 49  1  0  0  0  0
 22 26  1  0  0  0  0
 22 23  1  0  0  0  0
 22 50  1  0  0  0  0
 23 24  1  0  0  0  0
 23 51  1  0  0  0  0
 23 52  1  0  0  0  0
 24 25  1  0  0  0  0
 24 53  1  0  0  0  0
 24 54  1  0  0  0  0
 25 26  1  0  0  0  0
 26 55  1  0  0  0  0
 26 56  1  0  0  0  0
 27 28  1  0  0  0  0
 27 29  1  0  0  0  0
 28 57  1  0  0  0  0
 28 58  1  0  0  0  0
 28 59  1  0  0  0  0
 29 60  1  0  0  0  0
 29 61  1  0  0  0  0
M  END
> <s_m_source_file>
AV-unprocessed.smi

> <i_m_source_file_index>
21

> <i_lp_mmshare_version>
43012

> <i_f3d_flags>
0

> <s_epik_input>
W0NIM11PW0NASF0xW0NIMl1bQ0BIXShOKFtDSDNdKVtDSDJdMSlbQ0gyXU4oW0NIM10pYyhuW2NIXW4yKWMoYzIzKW5bY0hdbjNbQ0gyXVtDQEhdKFtDSDJdW09IXSlbQ0BASF00W0NIMl1bQ0gyXU9bQ0gyXTQ=

> <s_epik_cmdline>
J2VwaWtfcHl0aG9uJywgJy1waCcsICc3LjAnLCAnLXRuJywgJzgnLCAnLW1hJywgJzIwMCcsICctbWV0YWxfYmluZGluZycsICctaW1hZScsICc8aW5maWxlLm1hZT4nLCAnLW9tYWUnLCAnPG91dGZpbGUubWFlPic=

> <r_lp_tautomer_probability>
1

> <r_epik_Ionization_Penalty>
2.17574

> <r_epik_Ionization_Penalty_Charging>
0

> <r_epik_Ionization_Penalty_Neutral>
2.17574

> <r_epik_State_Penalty>
2.31336

> <r_epik_Charging_Adjusted_Penalty>
2.31336

> <i_epik_Tot_Q>
0

> <i_epik_Tot_abs_Q>
0

> <r_epik_Metal_State_Penalty>
2.31025

> <b_epik_Metal_Only>
0

> <s_lp_Force_Field>
OPLS_2005

> <r_lp_Energy>
71.9314

> <b_lp_Chiralities_Consistent>
1

> <s_lp_Variant>
AV-unprocessed.smi:21-45

> <Gold.Version>
5.8.1

> <Gold.Id.Protein>
6NUR|6NUR_protein|mol2

> <Gold.PLP.Fitness>
46.1602

> <Gold.PLP.PLP>
-41.8199

> <Gold.PLP.part.hbond>
-1.0000

> <Gold.PLP.part.metal>
0.0000

> <Gold.PLP.part.buried>
-2.1878

> <Gold.PLP.part.nonpolar>
-38.8667

> <Gold.PLP.part.repulsive>
1.4987

> <Gold.PLP.ligand.clash>
0.0000

> <Gold.PLP.ligand.torsion>
1.1695

> <Gold.PLP.Chemscore.Hbond>
1.0000

> <Gold.PLP.Chemscore.CHOScore>
1.0000

> <Gold.PLP.Chemscore.Metal>
0.0000

> <Gold.Chemscore.Hbonds>
donor molecule, donor type, donor heavy atom, donor atom, acceptor molecule, acceptor atom, score
      L1  H    21    49       P1  7948  0.63
      L1  C    16    43       P1  7948  1.00

> <Gold.PLP.Chemscore.Internal.Correction>
0.6793

> <Gold.Rescore>
     Score         DG    S(hbond)    S(metal)    S(lipo)     H(rot)  DE(clash)    DE(int)     intcor
     12.38     -16.71       1.64        0.00     114.95       3.00       2.02       2.31       ----

> <Gold.Chemscore.Fitness>
12.3800

> <Gold.Chemscore.DG>
-16.7120

> <Gold.Chemscore.ZeroCoef>
-5.4800

> <Gold.Chemscore.Hbond>
1.6378

> <Gold.Chemscore.Metal>
0.0000

> <Gold.Chemscore.Lipo>
114.9536

> <Gold.Chemscore.Internal_Hbond>
0.0000

> <Gold.Chemscore.DEClash>
2.0185

> <Gold.Chemscore.DEInternal>
2.3135

> <Gold.Chemscore.Rot>
3.0031

> <Gold.Chemscore.Internal.Correction>
   9.000000E+99

> <Gold.Chemscore.Hbonds>
donor molecule, donor type, donor heavy atom, donor atom, acceptor molecule, acceptor atom, score
      L1  H    21    49       P1  7948  0.63

> <Gold.Chemscore.Hbond.Weighted>
-5.4704

> <Gold.Chemscore.Metal.Weighted>
-0.0000

> <Gold.Chemscore.Lipo.Weighted>
-13.4496

> <Gold.Chemscore.Internal_Hbond.Weighted>
0.0000

> <Gold.Chemscore.DEClash.Weighted>
2.0185

> <Gold.Chemscore.DEInternal.Weighted>
2.3135

> <Gold.Chemscore.Rot.Weighted>
7.6880

> <Gold.Chemscore.Internal.Correction.Weighted>
   9.000000E+99

> <Gold.Protein.RotatedTorsions>
[ 6907 6896 6895 6894 ] final   51.09 input  -60.11 | X-H torsion
[ 7974 7965 7964 7962 ] final  135.52 input  175.53 | X-H torsion
[ 8008 7997 7996 7995 ] final   44.84 input   59.86 | X-H torsion
[ 10167 10162 10161 10158 ] final -169.83 input  -65.29 | X-H torsion
[ 10718 10713 10712 10709 ] final  126.50 input   66.30 | X-H torsion
[ 10763 10752 10751 10750 ] final -100.38 input  -60.55 | X-H torsion
[ 11005 11000 10999 10996 ] final  -90.00 input  -57.11 | X-H torsion

> <Gold.Protein.ActiveResidues>
 VAL166  LYS551  ARG553  GLY616  TRP617  ASP618  TYR619  PRO620  LYS621  CYS622 
 ASP623  PHE694  ASN695  SER759  ASP760  ASP761  ALA762  ILE779  LEU786  VAL792 
 PHE793  MET794  SER795  GLU796  ALA797  LYS798  CYS799  TRP800  GLU811  SER814 

> <Gold.Protein.RotatedAtoms>
  152.3089  134.7521  160.0340 H   0  0  0  0  0  0  0  0  0  0  0  0  # atno 6907 bound_to 6896
  151.8008  133.3364  159.3534 H   0  0  0  0  0  0  0  0  0  0  0  0  # atno 6908 bound_to 6896
  150.7310  134.5685  159.5923 H   0  0  0  0  0  0  0  0  0  0  0  0  # atno 6909 bound_to 6896
  144.9655  139.4662  143.5458 H   0  0  0  0  0  0  0  0  0  0  0  0  # atno 7974 bound_to 7965
  155.3260  140.3400  155.4240 H   0  0  0  0  0  0  0  0  0  0  0  0  # atno 8008 bound_to 7997
  156.1885  140.1689  156.8175 H   0  0  0  0  0  0  0  0  0  0  0  0  # atno 8009 bound_to 7997
  154.5414  140.0724  156.8500 H   0  0  0  0  0  0  0  0  0  0  0  0  # atno 8010 bound_to 7997
  139.5899  144.1237  152.1621 H   0  0  0  0  0  0  0  0  0  0  0  0  # atno 10167 bound_to 10162
  157.5414  131.1097  150.8853 H   0  0  0  0  0  0  0  0  0  0  0  0  # atno 10718 bound_to 10713
  154.7575  135.4937  153.9401 H   0  0  0  0  0  0  0  0  0  0  0  0  # atno 10763 bound_to 10752
  153.1212  135.6732  153.9340 H   0  0  0  0  0  0  0  0  0  0  0  0  # atno 10764 bound_to 10752
  153.9071  135.3103  155.3427 H   0  0  0  0  0  0  0  0  0  0  0  0  # atno 10765 bound_to 10752
  141.1574  133.7665  156.9676 H   0  0  0  0  0  0  0  0  0  0  0  0  # atno 11005 bound_to 11000
  146.3366  139.8834  142.8820 LP  0  0  0  0  0  0  0  0  0  0  0  0  # atno 17320 bound_to 7965
  145.2635  141.0085  143.3812 LP  0  0  0  0  0  0  0  0  0  0  0  0  # atno 17321 bound_to 7965
  140.0809  144.5701  150.7123 LP  0  0  0  0  0  0  0  0  0  0  0  0  # atno 17342 bound_to 10162
  140.7164  143.2548  151.4421 LP  0  0  0  0  0  0  0  0  0  0  0  0  # atno 17343 bound_to 10162
  156.9404  130.5382  149.5280 LP  0  0  0  0  0  0  0  0  0  0  0  0  # atno 17370 bound_to 10713
  156.0500  130.5570  150.8967 LP  0  0  0  0  0  0  0  0  0  0  0  0  # atno 17371 bound_to 10713
  140.1151  134.9452  157.2122 LP  0  0  0  0  0  0  0  0  0  0  0  0  # atno 17394 bound_to 11000
  140.3143  134.2988  155.7260 LP  0  0  0  0  0  0  0  0  0  0  0  0  # atno 17395 bound_to 11000

$$$$
