AV-unprocessed.smi:1851|AV-procd|sdf|7523|dock10
  -GOLD-   22720 9233D 1   1.00000     0.00000
 Structure written by MMmdl.
 39 41  0  0  0  0  0  0  0  0  1 V2000
  151.2777  137.3417  154.5734 O   0  0  0  0  0  0  0  0  0  0  0  0
  151.5616  138.4418  154.1027 C   0  0  0  0  0  0  0  0  0  0  0  0
  151.1538  139.6139  154.6101 N   0  0  0  0  0  0  0  0  0  0  0  0
  150.3078  139.7685  155.7891 C   0  0  0  0  0  0  0  0  0  0  0  0
  150.8298  140.9003  156.6256 C   0  0  0  0  0  0  0  0  0  0  0  0
  150.7836  142.1663  156.2089 N   0  0  0  0  0  0  0  0  0  0  0  0
  151.3464  142.8558  157.2651 C   0  0  0  0  0  0  0  0  0  0  0  0
  151.5818  144.2384  157.4386 C   0  0  0  0  0  0  0  0  0  0  0  0
  152.1727  144.7182  158.6262 C   0  0  0  0  0  0  0  0  0  0  0  0
  152.5365  143.8245  159.6543 C   0  0  0  0  0  0  0  0  0  0  0  0
  152.3126  142.4428  159.5006 C   0  0  0  0  0  0  0  0  0  0  0  0
  151.7232  141.9692  158.3132 C   0  0  0  0  0  0  0  0  0  0  0  0
  151.3718  140.7040  157.8542 N   0  0  0  0  0  0  0  0  0  0  0  0
  151.5497  139.4521  158.5722 C   0  0  0  0  0  0  0  0  0  0  0  0
  152.5909  138.5569  157.8903 C   0  0  0  0  0  0  0  0  0  0  0  0
  153.8508  138.7722  158.5102 O   0  0  0  0  0  0  0  0  0  0  0  0
  154.0086  138.3750  159.8208 C   0  0  0  0  0  0  0  0  0  0  0  0
  153.2449  137.2701  160.2512 C   0  0  0  0  0  0  0  0  0  0  0  0
  153.3420  136.7971  161.5740 C   0  0  0  0  0  0  0  0  0  0  0  0
  154.2096  137.4283  162.4847 C   0  0  0  0  0  0  0  0  0  0  0  0
  154.3300  136.8516  164.1064 Cl  0  0  0  0  0  0  0  0  0  0  0  0
  154.9787  138.5311  162.0688 C   0  0  0  0  0  0  0  0  0  0  0  0
  154.8810  139.0040  160.7454 C   0  0  0  0  0  0  0  0  0  0  0  0
  152.1852  138.5976  153.2090 H   0  0  0  0  0  0  0  0  0  0  0  0
  151.4448  140.4602  154.1426 H   0  0  0  0  0  0  0  0  0  0  0  0
  149.2711  139.9618  155.5074 H   0  0  0  0  0  0  0  0  0  0  0  0
  150.3086  138.8434  156.3652 H   0  0  0  0  0  0  0  0  0  0  0  0
  151.3059  144.9312  156.6574 H   0  0  0  0  0  0  0  0  0  0  0  0
  152.3467  145.7771  158.7494 H   0  0  0  0  0  0  0  0  0  0  0  0
  152.9874  144.2001  160.5611 H   0  0  0  0  0  0  0  0  0  0  0  0
  152.5897  141.7557  160.2860 H   0  0  0  0  0  0  0  0  0  0  0  0
  151.8373  139.6603  159.6026 H   0  0  0  0  0  0  0  0  0  0  0  0
  150.5885  138.9394  158.6210 H   0  0  0  0  0  0  0  0  0  0  0  0
  152.2963  137.5106  157.9870 H   0  0  0  0  0  0  0  0  0  0  0  0
  152.6480  138.7987  156.8277 H   0  0  0  0  0  0  0  0  0  0  0  0
  152.5759  136.7796  159.5594 H   0  0  0  0  0  0  0  0  0  0  0  0
  152.7499  135.9501  161.8883 H   0  0  0  0  0  0  0  0  0  0  0  0
  155.6462  139.0178  162.7647 H   0  0  0  0  0  0  0  0  0  0  0  0
  155.4871  139.8518  160.4649 H   0  0  0  0  0  0  0  0  0  0  0  0
  1  2  2  0  0  0  0
  2  3  1  0  0  0  0
  2 24  1  0  0  0  0
  3  4  1  0  0  0  0
  3 25  1  0  0  0  0
  4  5  1  0  0  0  0
  4 26  1  0  0  0  0
  4 27  1  0  0  0  0
  5 13  1  0  0  0  0
  5  6  2  0  0  0  0
  6  7  1  0  0  0  0
  7 12  2  0  0  0  0
  7  8  1  0  0  0  0
  8  9  2  0  0  0  0
  8 28  1  0  0  0  0
  9 10  1  0  0  0  0
  9 29  1  0  0  0  0
 10 11  2  0  0  0  0
 10 30  1  0  0  0  0
 11 12  1  0  0  0  0
 11 31  1  0  0  0  0
 12 13  1  0  0  0  0
 13 14  1  0  0  0  0
 14 15  1  0  0  0  0
 14 32  1  0  0  0  0
 14 33  1  0  0  0  0
 15 16  1  0  0  0  0
 15 34  1  0  0  0  0
 15 35  1  0  0  0  0
 16 17  1  0  0  0  0
 17 23  1  0  0  0  0
 17 18  2  0  0  0  0
 18 19  1  0  0  0  0
 18 36  1  0  0  0  0
 19 20  2  0  0  0  0
 19 37  1  0  0  0  0
 20 21  1  0  0  0  0
 20 22  1  0  0  0  0
 22 23  2  0  0  0  0
 22 38  1  0  0  0  0
 23 39  1  0  0  0  0
M  END
> <s_m_source_file>
AV-unprocessed.smi

> <i_m_source_file_index>
1851

> <i_lp_mmshare_version>
43012

> <i_f3d_flags>
0

> <s_epik_input>
Tz1bQ0hdW05IXVtDSDJdYyhuMSluKGMoYzEyKVtjSF1bY0hdW2NIXVtjSF0yKVtDSDJdW0NIMl1PYzNbY0hdW2NIXWMoQ2wpW2NIXVtjSF0z

> <s_epik_cmdline>
J2VwaWtfcHl0aG9uJywgJy1waCcsICc3LjAnLCAnLXRuJywgJzgnLCAnLW1hJywgJzIwMCcsICctbWV0YWxfYmluZGluZycsICctaW1hZScsICc8aW5maWxlLm1hZT4nLCAnLW9tYWUnLCAnPG91dGZpbGUubWFlPic=

> <r_lp_tautomer_probability>
1

> <r_epik_Ionization_Penalty>
0.0670201

> <r_epik_Ionization_Penalty_Charging>
0

> <r_epik_Ionization_Penalty_Neutral>
0.0670201

> <r_epik_State_Penalty>
0.0585513

> <r_epik_Charging_Adjusted_Penalty>
0.0585513

> <i_epik_Tot_Q>
0

> <i_epik_Tot_abs_Q>
0

> <r_epik_Metal_State_Penalty>
0.0525581

> <b_epik_Metal_Only>
0

> <s_lp_Force_Field>
OPLS_2005

> <r_lp_Energy>
12.626

> <b_lp_Chiralities_Consistent>
1

> <s_lp_Variant>
AV-unprocessed.smi:1851-1

> <Gold.Version>
5.8.1

> <Gold.Id.Protein>
6NUR|6NUR_protein|mol2

> <Gold.PLP.Fitness>
52.7451

> <Gold.PLP.PLP>
-48.4892

> <Gold.PLP.part.hbond>
-2.0000

> <Gold.PLP.part.metal>
0.0000

> <Gold.PLP.part.buried>
-6.5674

> <Gold.PLP.part.nonpolar>
-41.1022

> <Gold.PLP.part.repulsive>
1.4345

> <Gold.PLP.ligand.clash>
0.0000

> <Gold.PLP.ligand.torsion>
0.8566

> <Gold.PLP.Chemscore.Hbond>
1.9673

> <Gold.PLP.Chemscore.CHOScore>
0.0000

> <Gold.PLP.Chemscore.Metal>
0.0000

> <Gold.Chemscore.Hbonds>
donor molecule, donor type, donor heavy atom, donor atom, acceptor molecule, acceptor atom, score
      P1  H  7997  8010       L1    16  0.76
      P1  H 10752 10765       L1     1  0.15

> <Gold.PLP.Chemscore.Internal.Correction>
0.0674

> <Gold.Rescore>
     Score         DG    S(hbond)    S(metal)    S(lipo)     H(rot)  DE(clash)    DE(int)     intcor
     17.12     -18.14       0.93        0.00     134.48       2.42       0.05       0.97       ----

> <Gold.Chemscore.Fitness>
17.1169

> <Gold.Chemscore.DG>
-18.1352

> <Gold.Chemscore.ZeroCoef>
-5.4800

> <Gold.Chemscore.Hbond>
0.9334

> <Gold.Chemscore.Metal>
0.0000

> <Gold.Chemscore.Lipo>
134.4794

> <Gold.Chemscore.Internal_Hbond>
0.0000

> <Gold.Chemscore.DEClash>
0.0466

> <Gold.Chemscore.DEInternal>
0.9717

> <Gold.Chemscore.Rot>
2.4205

> <Gold.Chemscore.Internal.Correction>
   9.000000E+99

> <Gold.Chemscore.Hbonds>
donor molecule, donor type, donor heavy atom, donor atom, acceptor molecule, acceptor atom, score
      P1  H  7997  8010       L1    16  0.59
      P1  H 10752 10765       L1     1  0.15

> <Gold.Chemscore.Hbond.Weighted>
-3.1177

> <Gold.Chemscore.Metal.Weighted>
-0.0000

> <Gold.Chemscore.Lipo.Weighted>
-15.7341

> <Gold.Chemscore.Internal_Hbond.Weighted>
0.0000

> <Gold.Chemscore.DEClash.Weighted>
0.0466

> <Gold.Chemscore.DEInternal.Weighted>
0.9717

> <Gold.Chemscore.Rot.Weighted>
6.1965

> <Gold.Chemscore.Internal.Correction.Weighted>
   9.000000E+99

> <Gold.Protein.RotatedTorsions>
[ 6907 6896 6895 6894 ] final  -93.83 input  -60.11 | X-H torsion
[ 7974 7965 7964 7962 ] final   39.75 input  175.53 | X-H torsion
[ 8008 7997 7996 7995 ] final   -1.47 input   59.86 | X-H torsion
[ 10167 10162 10161 10158 ] final -117.50 input  -65.29 | X-H torsion
[ 10718 10713 10712 10709 ] final   34.27 input   66.30 | X-H torsion
[ 10763 10752 10751 10750 ] final  166.51 input  -60.55 | X-H torsion
[ 11005 11000 10999 10996 ] final  -51.80 input  -57.11 | X-H torsion

> <Gold.Protein.ActiveResidues>
 VAL166  LYS551  ARG553  GLY616  TRP617  ASP618  TYR619  PRO620  LYS621  CYS622 
 ASP623  PHE694  ASN695  SER759  ASP760  ASP761  ALA762  ILE779  LEU786  VAL792 
 PHE793  MET794  SER795  GLU796  ALA797  LYS798  CYS799  TRP800  GLU811  SER814 

> <Gold.Protein.RotatedAtoms>
  150.6930  134.1906  159.4283 H   0  0  0  0  0  0  0  0  0  0  0  0  # atno 6907 bound_to 6896
  151.9877  134.9993  160.0569 H   0  0  0  0  0  0  0  0  0  0  0  0  # atno 6908 bound_to 6896
  152.1696  133.4600  159.4939 H   0  0  0  0  0  0  0  0  0  0  0  0  # atno 6909 bound_to 6896
  146.0960  139.5615  142.9445 H   0  0  0  0  0  0  0  0  0  0  0  0  # atno 7974 bound_to 7965
  154.6464  140.2558  155.7263 H   0  0  0  0  0  0  0  0  0  0  0  0  # atno 8008 bound_to 7997
  156.2554  140.2877  156.0800 H   0  0  0  0  0  0  0  0  0  0  0  0  # atno 8009 bound_to 7997
  155.1517  140.0382  157.2813 H   0  0  0  0  0  0  0  0  0  0  0  0  # atno 8010 bound_to 7997
  140.0676  143.4908  152.1997 H   0  0  0  0  0  0  0  0  0  0  0  0  # atno 10167 bound_to 10162
  157.3083  130.7386  149.6709 H   0  0  0  0  0  0  0  0  0  0  0  0  # atno 10718 bound_to 10713
  154.3400  135.2754  155.2427 H   0  0  0  0  0  0  0  0  0  0  0  0  # atno 10763 bound_to 10752
  154.4702  135.5885  153.6320 H   0  0  0  0  0  0  0  0  0  0  0  0  # atno 10764 bound_to 10752
  152.9858  135.6086  154.3601 H   0  0  0  0  0  0  0  0  0  0  0  0  # atno 10765 bound_to 10752
  141.0890  133.6636  156.3930 H   0  0  0  0  0  0  0  0  0  0  0  0  # atno 11005 bound_to 11000
  145.5948  141.0364  143.2050 LP  0  0  0  0  0  0  0  0  0  0  0  0  # atno 17320 bound_to 7965
  144.7395  139.7488  143.7316 LP  0  0  0  0  0  0  0  0  0  0  0  0  # atno 17321 bound_to 7965
  139.5855  144.7529  151.3530 LP  0  0  0  0  0  0  0  0  0  0  0  0  # atno 17342 bound_to 10162
  140.7141  143.7312  150.7622 LP  0  0  0  0  0  0  0  0  0  0  0  0  # atno 17343 bound_to 10162
  155.9676  130.4259  150.4675 LP  0  0  0  0  0  0  0  0  0  0  0  0  # atno 17370 bound_to 10713
  157.2668  131.0578  151.2285 LP  0  0  0  0  0  0  0  0  0  0  0  0  # atno 17371 bound_to 10713
  140.5295  134.6226  157.5345 LP  0  0  0  0  0  0  0  0  0  0  0  0  # atno 17394 bound_to 11000
  139.9713  134.7288  156.0036 LP  0  0  0  0  0  0  0  0  0  0  0  0  # atno 17395 bound_to 11000

$$$$
