AV-unprocessed.smi:1007|AV-procd|sdf|4401|dock3
  -GOLD-   22720 2333D 1   1.00000     0.00000
 Structure written by MMmdl.
 56 58  0  0  0  0  0  0  0  0  2 V2000
  142.6536  134.7598  152.5578 C   0  0  0  0  0  0  0  0  0  0  0  0
  142.7684  135.6922  153.6216 O   0  0  0  0  0  0  0  0  0  0  0  0
  143.0790  137.0174  153.2101 C   0  0  0  0  0  0  0  0  0  0  0  0
  144.5319  137.1444  152.7117 C   0  0  0  0  0  0  0  0  0  0  0  0
  145.1381  138.4590  153.0417 N   0  3  0  0  0  0  0  0  0  0  0  0
  146.4078  138.7334  152.3164 C   0  0  0  0  0  0  0  0  0  0  0  0
  146.9378  140.1341  152.6833 C   0  0  0  0  0  0  0  0  0  0  0  0
  147.1562  140.3094  154.1192 N   0  0  0  0  0  0  0  0  0  0  0  0
  148.2801  139.5472  154.6798 C   0  0  0  0  0  0  0  0  0  0  0  0
  149.6600  140.2384  154.6126 C   0  0  1  0  0  0  0  0  0  0  0  0
  149.7549  140.9051  153.3689 O   0  0  0  0  0  0  0  0  0  0  0  0
  149.8679  141.2939  155.7210 C   0  0  0  0  0  0  0  0  0  0  0  0
  150.9258  140.9256  156.6445 N   0  0  0  0  0  0  0  0  0  0  0  0
  151.7385  139.8539  156.5695 C   0  0  0  0  0  0  0  0  0  0  0  0
  152.6481  139.7121  157.5293 N   0  0  0  0  0  0  0  0  0  0  0  0
  152.3999  140.8237  158.3161 C   0  0  0  0  0  0  0  0  0  0  0  0
  153.0257  141.2671  159.5017 C   0  0  0  0  0  0  0  0  0  0  0  0
  152.6008  142.4506  160.1466 C   0  0  0  0  0  0  0  0  0  0  0  0
  153.3013  142.8895  161.4205 C   0  0  0  0  0  0  0  0  0  0  0  0
  151.5329  143.2108  159.6055 C   0  0  0  0  0  0  0  0  0  0  0  0
  151.0568  144.4835  160.2832 C   0  0  0  0  0  0  0  0  0  0  0  0
  150.8977  142.7830  158.4210 C   0  0  0  0  0  0  0  0  0  0  0  0
  151.3294  141.6036  157.7891 C   0  0  0  0  0  0  0  0  0  0  0  0
  145.8951  140.0423  154.8105 C   0  0  0  0  0  0  0  0  0  0  0  0
  145.3175  138.6441  154.5055 C   0  0  0  0  0  0  0  0  0  0  0  0
  142.3501  133.7923  152.9575 H   0  0  0  0  0  0  0  0  0  0  0  0
  143.6006  134.6184  152.0375 H   0  0  0  0  0  0  0  0  0  0  0  0
  141.8989  135.0730  151.8350 H   0  0  0  0  0  0  0  0  0  0  0  0
  142.3820  137.3457  152.4373 H   0  0  0  0  0  0  0  0  0  0  0  0
  142.9113  137.6812  154.0575 H   0  0  0  0  0  0  0  0  0  0  0  0
  145.1302  136.3466  153.1519 H   0  0  0  0  0  0  0  0  0  0  0  0
  144.5735  136.9853  151.6331 H   0  0  0  0  0  0  0  0  0  0  0  0
  147.1456  137.9643  152.5485 H   0  0  0  0  0  0  0  0  0  0  0  0
  146.2425  138.6944  151.2404 H   0  0  0  0  0  0  0  0  0  0  0  0
  147.8467  140.3602  152.1290 H   0  0  0  0  0  0  0  0  0  0  0  0
  146.2128  140.8764  152.3466 H   0  0  0  0  0  0  0  0  0  0  0  0
  148.0504  139.3688  155.7317 H   0  0  0  0  0  0  0  0  0  0  0  0
  148.3446  138.5548  154.2343 H   0  0  0  0  0  0  0  0  0  0  0  0
  150.4522  139.4891  154.6400 H   0  0  0  0  0  0  0  0  0  0  0  0
  149.6609  140.2667  152.6779 H   0  0  0  0  0  0  0  0  0  0  0  0
  150.1086  142.2632  155.2816 H   0  0  0  0  0  0  0  0  0  0  0  0
  148.9611  141.4438  156.3040 H   0  0  0  0  0  0  0  0  0  0  0  0
  151.6558  139.1355  155.7670 H   0  0  0  0  0  0  0  0  0  0  0  0
  153.8383  140.6872  159.9139 H   0  0  0  0  0  0  0  0  0  0  0  0
  153.7333  143.8828  161.2968 H   0  0  0  0  0  0  0  0  0  0  0  0
  154.1073  142.2056  161.6881 H   0  0  0  0  0  0  0  0  0  0  0  0
  152.5969  142.9184  162.2523 H   0  0  0  0  0  0  0  0  0  0  0  0
  150.2211  144.9321  159.7451 H   0  0  0  0  0  0  0  0  0  0  0  0
  151.8614  145.2180  160.3250 H   0  0  0  0  0  0  0  0  0  0  0  0
  150.7252  144.2737  161.3003 H   0  0  0  0  0  0  0  0  0  0  0  0
  150.0825  143.3514  157.9988 H   0  0  0  0  0  0  0  0  0  0  0  0
  146.0283  140.1614  155.8864 H   0  0  0  0  0  0  0  0  0  0  0  0
  145.1633  140.7969  154.5186 H   0  0  0  0  0  0  0  0  0  0  0  0
  144.3539  138.5392  155.0055 H   0  0  0  0  0  0  0  0  0  0  0  0
  145.9626  137.8599  154.9036 H   0  0  0  0  0  0  0  0  0  0  0  0
  144.4754  139.1635  152.7497 H   0  0  0  0  0  0  0  0  0  0  0  0
  1  2  1  0  0  0  0
  1 26  1  0  0  0  0
  1 27  1  0  0  0  0
  1 28  1  0  0  0  0
  2  3  1  0  0  0  0
  3  4  1  0  0  0  0
  3 29  1  0  0  0  0
  3 30  1  0  0  0  0
  4  5  1  0  0  0  0
  4 31  1  0  0  0  0
  4 32  1  0  0  0  0
  5 25  1  0  0  0  0
  5  6  1  0  0  0  0
  5 56  1  0  0  0  0
  6  7  1  0  0  0  0
  6 33  1  0  0  0  0
  6 34  1  0  0  0  0
  7  8  1  0  0  0  0
  7 35  1  0  0  0  0
  7 36  1  0  0  0  0
  8  9  1  0  0  0  0
  8 24  1  0  0  0  0
  9 10  1  0  0  0  0
  9 37  1  0  0  0  0
  9 38  1  0  0  0  0
 10 11  1  0  0  0  0
 10 12  1  0  0  0  0
 10 39  1  0  0  0  0
 11 40  1  0  0  0  0
 12 13  1  0  0  0  0
 12 41  1  0  0  0  0
 12 42  1  0  0  0  0
 13 23  1  0  0  0  0
 13 14  1  0  0  0  0
 14 15  2  0  0  0  0
 14 43  1  0  0  0  0
 15 16  1  0  0  0  0
 16 23  2  0  0  0  0
 16 17  1  0  0  0  0
 17 18  2  0  0  0  0
 17 44  1  0  0  0  0
 18 19  1  0  0  0  0
 18 20  1  0  0  0  0
 19 45  1  0  0  0  0
 19 46  1  0  0  0  0
 19 47  1  0  0  0  0
 20 21  1  0  0  0  0
 20 22  2  0  0  0  0
 21 48  1  0  0  0  0
 21 49  1  0  0  0  0
 21 50  1  0  0  0  0
 22 23  1  0  0  0  0
 22 51  1  0  0  0  0
 24 25  1  0  0  0  0
 24 52  1  0  0  0  0
 24 53  1  0  0  0  0
 25 54  1  0  0  0  0
 25 55  1  0  0  0  0
M  CHG  1   5   1
M  END
> <s_m_source_file>
AV-unprocessed.smi

> <i_m_source_file_index>
1007

> <i_lp_mmshare_version>
43012

> <i_f3d_flags>
0

> <s_epik_input>
W0NIM11PW0NIMl1bQ0gyXU4xW0NIMl1bQ0gyXU4oW0NIMl1bQ0gyXTEpW0NIMl1bQ0BIXShbT0hdKVtDSDJdbihbY0hdbjIpYyhjMjMpW2NIXWMoW0NIM10pYyhbY0hdMylbQ0gzXQ==

> <s_epik_cmdline>
J2VwaWtfcHl0aG9uJywgJy1waCcsICc3LjAnLCAnLXRuJywgJzgnLCAnLW1hJywgJzIwMCcsICctbWV0YWxfYmluZGluZycsICctaW1hZScsICc8aW5maWxlLm1hZT4nLCAnLW9tYWUnLCAnPG91dGZpbGUubWFlPic=

> <r_epik_Ionization_Penalty>
0.186009

> <r_epik_Ionization_Penalty_Charging>
0.0613973

> <r_epik_Ionization_Penalty_Neutral>
0.124612

> <r_epik_State_Penalty>
1.21927

> <r_epik_Charging_Adjusted_Penalty>
1.28067

> <i_epik_Tot_Q>
1

> <i_epik_Tot_abs_Q>
1

> <r_epik_Metal_State_Penalty>
1.13901

> <b_epik_Metal_Only>
0

> <s_lp_Force_Field>
OPLS_2005

> <r_lp_Energy>
38.7105

> <b_lp_Chiralities_Consistent>
1

> <s_lp_Variant>
AV-unprocessed.smi:1007-4

> <Gold.Version>
5.8.1

> <Gold.Id.Protein>
6NUR|6NUR_protein|mol2

> <Gold.PLP.Fitness>
57.6160

> <Gold.PLP.PLP>
-45.3232

> <Gold.PLP.part.hbond>
-3.9270

> <Gold.PLP.part.metal>
0.0000

> <Gold.PLP.part.buried>
-2.8756

> <Gold.PLP.part.nonpolar>
-38.9106

> <Gold.PLP.part.repulsive>
0.2242

> <Gold.PLP.ligand.clash>
0.0000

> <Gold.PLP.ligand.torsion>
1.6248

> <Gold.PLP.Chemscore.Hbond>
4.9793

> <Gold.PLP.Chemscore.CHOScore>
0.0000

> <Gold.PLP.Chemscore.Metal>
0.0000

> <Gold.Chemscore.Hbonds>
donor molecule, donor type, donor heavy atom, donor atom, acceptor molecule, acceptor atom, score
      L1  H     5    56       P1 10175  2.00
      L1  H    11    40       P1  7957  0.90
      P1  H  7989  7998       L1    11  0.13
      P1  H  7997  8009       L1    15  1.00
      P1  H  8011  8017       L1    11  0.90

> <Gold.PLP.Chemscore.Internal.Correction>
0.6045

> <Gold.Rescore>
     Score         DG    S(hbond)    S(metal)    S(lipo)     H(rot)  DE(clash)    DE(int)     intcor
     20.43     -23.31       2.90        0.00     125.71       2.56       0.27       2.61       ----

> <Gold.Chemscore.Fitness>
20.4338

> <Gold.Chemscore.DG>
-23.3082

> <Gold.Chemscore.ZeroCoef>
-5.4800

> <Gold.Chemscore.Hbond>
2.8959

> <Gold.Chemscore.Metal>
0.0000

> <Gold.Chemscore.Lipo>
125.7106

> <Gold.Chemscore.Internal_Hbond>
0.0000

> <Gold.Chemscore.DEClash>
0.2684

> <Gold.Chemscore.DEInternal>
2.6060

> <Gold.Chemscore.Rot>
2.5594

> <Gold.Chemscore.Internal.Correction>
   9.000000E+99

> <Gold.Chemscore.Hbonds>
donor molecule, donor type, donor heavy atom, donor atom, acceptor molecule, acceptor atom, score
      L1  H     5    56       P1 10175  0.94
      L1  H    11    40       P1  7957  0.82
      P1  H  7997  8009       L1    15  0.24
      P1  H  8011  8017       L1    11  0.18

> <Gold.Chemscore.Hbond.Weighted>
-9.6722

> <Gold.Chemscore.Metal.Weighted>
-0.0000

> <Gold.Chemscore.Lipo.Weighted>
-14.7081

> <Gold.Chemscore.Internal_Hbond.Weighted>
0.0000

> <Gold.Chemscore.DEClash.Weighted>
0.2684

> <Gold.Chemscore.DEInternal.Weighted>
2.6060

> <Gold.Chemscore.Rot.Weighted>
6.5522

> <Gold.Chemscore.Internal.Correction.Weighted>
   9.000000E+99

> <Gold.Protein.RotatedTorsions>
[ 6907 6896 6895 6894 ] final -127.77 input  -60.11 | X-H torsion
[ 7974 7965 7964 7962 ] final  -69.62 input  175.53 | X-H torsion
[ 8008 7997 7996 7995 ] final -179.64 input   59.86 | X-H torsion
[ 10167 10162 10161 10158 ] final  -92.22 input  -65.29 | X-H torsion
[ 10718 10713 10712 10709 ] final  -74.10 input   66.30 | X-H torsion
[ 10763 10752 10751 10750 ] final  122.81 input  -60.55 | X-H torsion
[ 11005 11000 10999 10996 ] final   76.13 input  -57.11 | X-H torsion

> <Gold.Protein.ActiveResidues>
 VAL166  LYS551  ARG553  GLY616  TRP617  ASP618  TYR619  PRO620  LYS621  CYS622 
 ASP623  PHE694  ASN695  SER759  ASP760  ASP761  ALA762  ILE779  LEU786  VAL792 
 PHE793  MET794  SER795  GLU796  ALA797  LYS798  CYS799  TRP800  GLU811  SER814 

> <Gold.Protein.RotatedAtoms>
  150.9108  133.7000  159.2855 H   0  0  0  0  0  0  0  0  0  0  0  0  # atno 6907 bound_to 6896
  151.4487  135.1026  159.9701 H   0  0  0  0  0  0  0  0  0  0  0  0  # atno 6908 bound_to 6896
  152.4929  133.8499  159.7251 H   0  0  0  0  0  0  0  0  0  0  0  0  # atno 6909 bound_to 6896
  145.7014  140.9115  143.0729 H   0  0  0  0  0  0  0  0  0  0  0  0  # atno 7974 bound_to 7965
  156.0329  140.1286  157.0239 H   0  0  0  0  0  0  0  0  0  0  0  0  # atno 8008 bound_to 7997
  154.4357  140.1046  156.6195 H   0  0  0  0  0  0  0  0  0  0  0  0  # atno 8009 bound_to 7997
  155.5781  140.3467  155.4535 H   0  0  0  0  0  0  0  0  0  0  0  0  # atno 8010 bound_to 7997
  140.3370  143.2963  151.9878 H   0  0  0  0  0  0  0  0  0  0  0  0  # atno 10167 bound_to 10162
  156.0255  130.4409  150.2841 H   0  0  0  0  0  0  0  0  0  0  0  0  # atno 10718 bound_to 10713
  153.6356  135.3388  155.3055 H   0  0  0  0  0  0  0  0  0  0  0  0  # atno 10763 bound_to 10752
  154.8571  135.4306  154.2059 H   0  0  0  0  0  0  0  0  0  0  0  0  # atno 10764 bound_to 10752
  153.2966  135.7021  153.7316 H   0  0  0  0  0  0  0  0  0  0  0  0  # atno 10765 bound_to 10752
  139.9312  134.7576  156.1358 H   0  0  0  0  0  0  0  0  0  0  0  0  # atno 11005 bound_to 11000
  144.6967  139.8953  143.7455 LP  0  0  0  0  0  0  0  0  0  0  0  0  # atno 17320 bound_to 7965
  146.0794  139.3782  143.0474 LP  0  0  0  0  0  0  0  0  0  0  0  0  # atno 17321 bound_to 7965
  139.4847  144.6188  151.7294 LP  0  0  0  0  0  0  0  0  0  0  0  0  # atno 17342 bound_to 10162
  140.5345  144.0678  150.6065 LP  0  0  0  0  0  0  0  0  0  0  0  0  # atno 17343 bound_to 10162
  157.0945  131.0179  151.3109 LP  0  0  0  0  0  0  0  0  0  0  0  0  # atno 17370 bound_to 10713
  157.4828  130.7775  149.7431 LP  0  0  0  0  0  0  0  0  0  0  0  0  # atno 17371 bound_to 10713
  141.0901  133.6718  156.2522 LP  0  0  0  0  0  0  0  0  0  0  0  0  # atno 17394 bound_to 11000
  140.6198  134.5373  157.5546 LP  0  0  0  0  0  0  0  0  0  0  0  0  # atno 17395 bound_to 11000

$$$$
