AV-unprocessed.smi:2096|AV-procd|sdf|8562|dock5
  -GOLD-   2272011293D 1   1.00000     0.00000
 Structure written by MMmdl.
 35 36  0  0  0  0  0  0  0  0  1 V2000
  152.6033  143.8551  162.7681 C   0  0  0  0  0  0  0  0  0  0  0  0
  152.7906  143.0812  161.5587 N   0  0  0  0  0  0  0  0  0  0  0  0
  153.7226  142.0148  161.5561 C   0  0  0  0  0  0  0  0  0  0  0  0
  154.3845  141.7071  162.5477 O   0  0  0  0  0  0  0  0  0  0  0  0
  153.8304  141.3125  160.2827 C   0  0  0  0  0  0  0  0  0  0  0  0
  153.0812  141.6806  159.2204 C   0  0  0  0  0  0  0  0  0  0  0  0
  152.1753  142.7250  159.2516 N   0  0  0  0  0  0  0  0  0  0  0  0
  151.4107  143.0633  158.0444 C   0  0  0  0  0  0  0  0  0  0  0  0
  150.4893  141.9262  157.5837 C   0  0  0  0  0  0  0  0  0  0  0  0
  150.7641  140.7522  157.8366 O   0  0  0  0  0  0  0  0  0  0  0  0
  149.3819  142.2937  156.9246 N   0  0  0  0  0  0  0  0  0  0  0  0
  148.3850  141.3660  156.4094 C   0  0  0  0  0  0  0  0  0  0  0  0
  148.3163  141.4471  154.8894 C   0  0  0  0  0  0  0  0  0  0  0  0
  147.1653  142.2152  154.2232 C   0  0  0  0  0  0  0  0  0  0  0  0
  147.1869  141.1802  153.0951 C   0  0  0  0  0  0  0  0  0  0  0  0
  147.8663  140.2225  154.0773 C   0  0  0  0  0  0  0  0  0  0  0  0
  152.0109  143.4610  160.4445 C   0  0  0  0  0  0  0  0  0  0  0  0
  151.2127  144.4002  160.5008 O   0  0  0  0  0  0  0  0  0  0  0  0
  153.2502  143.5030  163.5708 H   0  0  0  0  0  0  0  0  0  0  0  0
  151.5573  143.7476  163.0613 H   0  0  0  0  0  0  0  0  0  0  0  0
  152.8448  144.8923  162.5286 H   0  0  0  0  0  0  0  0  0  0  0  0
  154.5201  140.4867  160.1889 H   0  0  0  0  0  0  0  0  0  0  0  0
  153.2010  141.1306  158.2983 H   0  0  0  0  0  0  0  0  0  0  0  0
  150.7957  143.9450  158.2292 H   0  0  0  0  0  0  0  0  0  0  0  0
  152.0897  143.3430  157.2364 H   0  0  0  0  0  0  0  0  0  0  0  0
  149.2250  143.2773  156.7595 H   0  0  0  0  0  0  0  0  0  0  0  0
  148.6353  140.3518  156.7255 H   0  0  0  0  0  0  0  0  0  0  0  0
  147.4146  141.6043  156.8470 H   0  0  0  0  0  0  0  0  0  0  0  0
  149.2596  141.8132  154.4780 H   0  0  0  0  0  0  0  0  0  0  0  0
  146.2419  142.1841  154.8042 H   0  0  0  0  0  0  0  0  0  0  0  0
  147.4130  143.2319  153.9165 H   0  0  0  0  0  0  0  0  0  0  0  0
  146.2039  140.8594  152.7491 H   0  0  0  0  0  0  0  0  0  0  0  0
  147.8359  141.4694  152.2671 H   0  0  0  0  0  0  0  0  0  0  0  0
  148.6792  139.6329  153.6526 H   0  0  0  0  0  0  0  0  0  0  0  0
  147.1532  139.5954  154.6151 H   0  0  0  0  0  0  0  0  0  0  0  0
  1  2  1  0  0  0  0
  1 19  1  0  0  0  0
  1 20  1  0  0  0  0
  1 21  1  0  0  0  0
  2 17  1  0  0  0  0
  2  3  1  0  0  0  0
  3  4  2  0  0  0  0
  3  5  1  0  0  0  0
  5  6  2  0  0  0  0
  5 22  1  0  0  0  0
  6  7  1  0  0  0  0
  6 23  1  0  0  0  0
  7  8  1  0  0  0  0
  7 17  1  0  0  0  0
  8  9  1  0  0  0  0
  8 24  1  0  0  0  0
  8 25  1  0  0  0  0
  9 10  2  0  0  0  0
  9 11  1  0  0  0  0
 11 12  1  0  0  0  0
 11 26  1  0  0  0  0
 12 13  1  0  0  0  0
 12 27  1  0  0  0  0
 12 28  1  0  0  0  0
 13 16  1  0  0  0  0
 13 14  1  0  0  0  0
 13 29  1  0  0  0  0
 14 15  1  0  0  0  0
 14 30  1  0  0  0  0
 14 31  1  0  0  0  0
 15 16  1  0  0  0  0
 15 32  1  0  0  0  0
 15 33  1  0  0  0  0
 16 34  1  0  0  0  0
 16 35  1  0  0  0  0
 17 18  2  0  0  0  0
M  END
> <s_m_source_file>
AV-unprocessed.smi

> <i_m_source_file_index>
2096

> <i_lp_mmshare_version>
43012

> <i_f3d_flags>
0

> <s_epik_input>
W0NIM11uMWMoPU8pW2NIXVtjSF1uKGMxPU8pW0NIMl1DKD1PKVtOSF1bQ0gyXVtDSF0yW0NIMl1bQ0gyXVtDSDJdMg==

> <s_epik_cmdline>
J2VwaWtfcHl0aG9uJywgJy1waCcsICc3LjAnLCAnLXRuJywgJzgnLCAnLW1hJywgJzIwMCcsICctbWV0YWxfYmluZGluZycsICctaW1hZScsICc8aW5maWxlLm1hZT4nLCAnLW9tYWUnLCAnPG91dGZpbGUubWFlPic=

> <r_lp_tautomer_probability>
1

> <r_epik_Ionization_Penalty>
3.11585e-08

> <r_epik_Ionization_Penalty_Charging>
1.18568e-08

> <r_epik_Ionization_Penalty_Neutral>
1.93017e-08

> <r_epik_State_Penalty>
-0

> <r_epik_Charging_Adjusted_Penalty>
1.18568e-08

> <i_epik_Tot_Q>
0

> <i_epik_Tot_abs_Q>
0

> <r_epik_Metal_State_Penalty>
-0

> <b_epik_Metal_Only>
0

> <s_lp_Force_Field>
OPLS_2005

> <r_lp_Energy>
20.363

> <b_lp_Chiralities_Consistent>
1

> <s_lp_Variant>
AV-unprocessed.smi:2096-1

> <Gold.Version>
5.8.1

> <Gold.Id.Protein>
6NUR|6NUR_protein|mol2

> <Gold.PLP.Fitness>
42.3578

> <Gold.PLP.PLP>
-40.9844

> <Gold.PLP.part.hbond>
-2.0000

> <Gold.PLP.part.metal>
0.0000

> <Gold.PLP.part.buried>
-4.4723

> <Gold.PLP.part.nonpolar>
-34.7856

> <Gold.PLP.part.repulsive>
0.1390

> <Gold.PLP.ligand.clash>
0.0000

> <Gold.PLP.ligand.torsion>
0.8468

> <Gold.PLP.Chemscore.Hbond>
1.0000

> <Gold.PLP.Chemscore.CHOScore>
0.0000

> <Gold.PLP.Chemscore.Metal>
0.0000

> <Gold.Chemscore.Hbonds>
donor molecule, donor type, donor heavy atom, donor atom, acceptor molecule, acceptor atom, score
      L1  H    11    26       P1  8028  1.00

> <Gold.PLP.Chemscore.Internal.Correction>
0.0670

> <Gold.Rescore>
     Score         DG    S(hbond)    S(metal)    S(lipo)     H(rot)  DE(clash)    DE(int)     intcor
     10.37     -12.85       0.99        0.00      73.60       1.78       0.19       2.28       ----

> <Gold.Chemscore.Fitness>
10.3719

> <Gold.Chemscore.DG>
-12.8498

> <Gold.Chemscore.ZeroCoef>
-5.4800

> <Gold.Chemscore.Hbond>
0.9945

> <Gold.Chemscore.Metal>
0.0000

> <Gold.Chemscore.Lipo>
73.6045

> <Gold.Chemscore.Internal_Hbond>
0.0000

> <Gold.Chemscore.DEClash>
0.1939

> <Gold.Chemscore.DEInternal>
2.2840

> <Gold.Chemscore.Rot>
1.7827

> <Gold.Chemscore.Internal.Correction>
   9.000000E+99

> <Gold.Chemscore.Hbonds>
donor molecule, donor type, donor heavy atom, donor atom, acceptor molecule, acceptor atom, score
      L1  H    11    26       P1  8028  0.95

> <Gold.Chemscore.Hbond.Weighted>
-3.3217

> <Gold.Chemscore.Metal.Weighted>
-0.0000

> <Gold.Chemscore.Lipo.Weighted>
-8.6117

> <Gold.Chemscore.Internal_Hbond.Weighted>
0.0000

> <Gold.Chemscore.DEClash.Weighted>
0.1939

> <Gold.Chemscore.DEInternal.Weighted>
2.2840

> <Gold.Chemscore.Rot.Weighted>
4.5636

> <Gold.Chemscore.Internal.Correction.Weighted>
   9.000000E+99

> <Gold.Protein.RotatedTorsions>
[ 6907 6896 6895 6894 ] final   97.77 input  -60.11 | X-H torsion
[ 7974 7965 7964 7962 ] final  -40.90 input  175.53 | X-H torsion
[ 8008 7997 7996 7995 ] final -122.68 input   59.86 | X-H torsion
[ 10167 10162 10161 10158 ] final   98.08 input  -65.29 | X-H torsion
[ 10718 10713 10712 10709 ] final -127.53 input   66.30 | X-H torsion
[ 10763 10752 10751 10750 ] final   17.01 input  -60.55 | X-H torsion
[ 11005 11000 10999 10996 ] final -168.00 input  -57.11 | X-H torsion

> <Gold.Protein.ActiveResidues>
 VAL166  LYS551  ARG553  GLY616  TRP617  ASP618  TYR619  PRO620  LYS621  CYS622 
 ASP623  PHE694  ASN695  SER759  ASP760  ASP761  ALA762  ILE779  LEU786  VAL792 
 PHE793  MET794  SER795  GLU796  ALA797  LYS798  CYS799  TRP800  GLU811  SER814 

> <Gold.Protein.RotatedAtoms>
  152.5419  134.0683  159.8182 H   0  0  0  0  0  0  0  0  0  0  0  0  # atno 6907 bound_to 6896
  151.0801  133.5390  159.2628 H   0  0  0  0  0  0  0  0  0  0  0  0  # atno 6908 bound_to 6896
  151.2220  135.0530  159.9007 H   0  0  0  0  0  0  0  0  0  0  0  0  # atno 6909 bound_to 6896
  146.0261  140.6790  142.9155 H   0  0  0  0  0  0  0  0  0  0  0  0  # atno 7974 bound_to 7965
  155.1682  140.0407  157.2857 H   0  0  0  0  0  0  0  0  0  0  0  0  # atno 8008 bound_to 7997
  154.6288  140.2519  155.7432 H   0  0  0  0  0  0  0  0  0  0  0  0  # atno 8009 bound_to 7997
  156.2473  140.2879  156.0630 H   0  0  0  0  0  0  0  0  0  0  0  0  # atno 8010 bound_to 7997
  139.7741  144.6912  151.0114 H   0  0  0  0  0  0  0  0  0  0  0  0  # atno 10167 bound_to 10162
  156.1866  130.6767  151.0372 H   0  0  0  0  0  0  0  0  0  0  0  0  # atno 10718 bound_to 10713
  153.1378  135.6754  153.9075 H   0  0  0  0  0  0  0  0  0  0  0  0  # atno 10763 bound_to 10752
  153.8541  135.3089  155.3435 H   0  0  0  0  0  0  0  0  0  0  0  0  # atno 10764 bound_to 10752
  154.7762  135.4913  153.9833 H   0  0  0  0  0  0  0  0  0  0  0  0  # atno 10765 bound_to 10752
  140.5469  134.5467  157.5113 H   0  0  0  0  0  0  0  0  0  0  0  0  # atno 11005 bound_to 11000
  144.7010  140.3652  143.7156 LP  0  0  0  0  0  0  0  0  0  0  0  0  # atno 17320 bound_to 7965
  145.7116  139.1686  143.2535 LP  0  0  0  0  0  0  0  0  0  0  0  0  # atno 17321 bound_to 7965
  140.7815  143.4555  151.0351 LP  0  0  0  0  0  0  0  0  0  0  0  0  # atno 17342 bound_to 10162
  139.8238  143.7784  152.3178 LP  0  0  0  0  0  0  0  0  0  0  0  0  # atno 17343 bound_to 10162
  157.6903  131.0812  150.7127 LP  0  0  0  0  0  0  0  0  0  0  0  0  # atno 17370 bound_to 10713
  156.7184  130.4673  149.5529 LP  0  0  0  0  0  0  0  0  0  0  0  0  # atno 17371 bound_to 10713
  139.9475  134.7676  156.0527 LP  0  0  0  0  0  0  0  0  0  0  0  0  # atno 17394 bound_to 11000
  141.1194  133.6617  156.3177 LP  0  0  0  0  0  0  0  0  0  0  0  0  # atno 17395 bound_to 11000

$$$$
