AV-unprocessed.smi:1795|AV-procd|sdf|7248|dock5
  -GOLD-   22720 8503D 1   1.00000     0.00000
 Structure written by MMmdl.
 48 49  0  0  0  0  0  0  0  0  2 V2000
  152.0684  138.7826  155.8765 C   0  0  0  0  0  0  0  0  0  0  0  0
  151.2933  138.7498  154.5469 C   0  0  1  0  0  0  0  0  0  0  0  0
  150.1753  137.6876  154.5120 C   0  0  0  0  0  0  0  0  0  0  0  0
  148.9869  138.0959  155.3121 N   0  3  2  0  0  0  0  0  0  0  0  0
  147.8612  137.1033  155.3434 C   0  0  2  0  0  0  0  0  0  0  0  0
  146.8953  137.4201  156.5093 C   0  0  0  0  0  0  0  0  0  0  0  0
  148.3352  135.6241  155.4335 C   0  0  0  0  0  0  0  0  0  0  0  0
  148.3226  134.9362  154.1451 N   0  0  0  0  0  0  0  0  0  0  0  0
  147.9012  133.6769  153.9529 C   0  0  0  0  0  0  0  0  0  0  0  0
  147.5011  132.9560  154.8680 O   0  0  0  0  0  0  0  0  0  0  0  0
  147.9655  133.1534  152.5113 C   0  0  0  0  0  0  0  0  0  0  0  0
  146.6415  133.0507  151.8750 N   0  0  0  0  0  0  0  0  0  0  0  0
  146.1905  134.1686  151.1451 C   0  0  0  0  0  0  0  0  0  0  0  0
  145.0010  134.1772  150.5226 C   0  0  0  0  0  0  0  0  0  0  0  0
  144.1731  132.9981  150.6154 C   0  0  0  0  0  0  0  0  0  0  0  0
  144.5964  131.9220  151.3081 C   0  0  0  0  0  0  0  0  0  0  0  0
  145.8975  131.9068  151.9870 C   0  0  0  0  0  0  0  0  0  0  0  0
  146.2952  130.9260  152.6169 O   0  0  0  0  0  0  0  0  0  0  0  0
  148.5443  139.4486  154.8780 C   0  0  0  0  0  0  0  0  0  0  0  0
  149.6891  140.4701  154.9848 C   0  0  2  0  0  0  0  0  0  0  0  0
  149.2717  141.8573  154.4835 C   0  0  0  0  0  0  0  0  0  0  0  0
  150.7828  140.0308  154.1891 O   0  0  0  0  0  0  0  0  0  0  0  0
  152.5733  137.8326  156.0527 H   0  0  0  0  0  0  0  0  0  0  0  0
  151.4186  138.9658  156.7317 H   0  0  0  0  0  0  0  0  0  0  0  0
  152.8316  139.5611  155.8618 H   0  0  0  0  0  0  0  0  0  0  0  0
  152.0165  138.4910  153.7726 H   0  0  0  0  0  0  0  0  0  0  0  0
  149.8641  137.5135  153.4805 H   0  0  0  0  0  0  0  0  0  0  0  0
  150.6015  136.7564  154.8829 H   0  0  0  0  0  0  0  0  0  0  0  0
  147.3126  137.2099  154.4061 H   0  0  0  0  0  0  0  0  0  0  0  0
  146.0624  136.7184  156.5488 H   0  0  0  0  0  0  0  0  0  0  0  0
  146.4418  138.4058  156.4274 H   0  0  0  0  0  0  0  0  0  0  0  0
  147.4102  137.3711  157.4694 H   0  0  0  0  0  0  0  0  0  0  0  0
  149.3523  135.5503  155.8198 H   0  0  0  0  0  0  0  0  0  0  0  0
  147.6968  135.0669  156.1197 H   0  0  0  0  0  0  0  0  0  0  0  0
  148.6420  135.4587  153.3419 H   0  0  0  0  0  0  0  0  0  0  0  0
  148.6170  133.7965  151.9161 H   0  0  0  0  0  0  0  0  0  0  0  0
  148.4605  132.1815  152.5257 H   0  0  0  0  0  0  0  0  0  0  0  0
  146.8715  135.0068  151.1184 H   0  0  0  0  0  0  0  0  0  0  0  0
  144.6735  135.0419  149.9640 H   0  0  0  0  0  0  0  0  0  0  0  0
  143.2104  132.9781  150.1263 H   0  0  0  0  0  0  0  0  0  0  0  0
  143.9637  131.0483  151.3658 H   0  0  0  0  0  0  0  0  0  0  0  0
  148.1814  139.3985  153.8497 H   0  0  0  0  0  0  0  0  0  0  0  0
  147.7156  139.8052  155.4860 H   0  0  0  0  0  0  0  0  0  0  0  0
  149.9990  140.5684  156.0253 H   0  0  0  0  0  0  0  0  0  0  0  0
  148.4357  142.2498  155.0630 H   0  0  0  0  0  0  0  0  0  0  0  0
  148.9678  141.8253  153.4367 H   0  0  0  0  0  0  0  0  0  0  0  0
  150.0955  142.5662  154.5691 H   0  0  0  0  0  0  0  0  0  0  0  0
  149.3123  138.1845  156.2642 H   0  0  0  0  0  0  0  0  0  0  0  0
  1  2  1  0  0  0  0
  1 23  1  0  0  0  0
  1 24  1  0  0  0  0
  1 25  1  0  0  0  0
  2 22  1  0  0  0  0
  2  3  1  0  0  0  0
  2 26  1  0  0  0  0
  3  4  1  0  0  0  0
  3 27  1  0  0  0  0
  3 28  1  0  0  0  0
  4  5  1  0  0  0  0
  4 19  1  0  0  0  0
  4 48  1  0  0  0  0
  5  6  1  0  0  0  0
  5  7  1  0  0  0  0
  5 29  1  0  0  0  0
  6 30  1  0  0  0  0
  6 31  1  0  0  0  0
  6 32  1  0  0  0  0
  7  8  1  0  0  0  0
  7 33  1  0  0  0  0
  7 34  1  0  0  0  0
  8  9  1  0  0  0  0
  8 35  1  0  0  0  0
  9 10  2  0  0  0  0
  9 11  1  0  0  0  0
 11 12  1  0  0  0  0
 11 36  1  0  0  0  0
 11 37  1  0  0  0  0
 12 17  1  0  0  0  0
 12 13  1  0  0  0  0
 13 14  2  0  0  0  0
 13 38  1  0  0  0  0
 14 15  1  0  0  0  0
 14 39  1  0  0  0  0
 15 16  2  0  0  0  0
 15 40  1  0  0  0  0
 16 17  1  0  0  0  0
 16 41  1  0  0  0  0
 17 18  2  0  0  0  0
 19 20  1  0  0  0  0
 19 42  1  0  0  0  0
 19 43  1  0  0  0  0
 20 21  1  0  0  0  0
 20 22  1  0  0  0  0
 20 44  1  0  0  0  0
 21 45  1  0  0  0  0
 21 46  1  0  0  0  0
 21 47  1  0  0  0  0
M  CHG  1   4   1
M  END
> <s_m_source_file>
AV-unprocessed.smi

> <i_m_source_file_index>
1795

> <i_lp_mmshare_version>
43012

> <i_f3d_flags>
0

> <s_epik_input>
W0NIM11bQ0BASF0xW0NIMl1OKFtDSDJdW0NASF0oTzEpW0NIM10pW0NASF0oW0NIM10pW0NIMl1bTkhdQyg9TylbQ0gyXW4yW2NIXVtjSF1bY0hdW2NIXWMyPU8=

> <s_epik_cmdline>
J2VwaWtfcHl0aG9uJywgJy1waCcsICc3LjAnLCAnLXRuJywgJzgnLCAnLW1hJywgJzIwMCcsICctbWV0YWxfYmluZGluZycsICctaW1hZScsICc8aW5maWxlLm1hZT4nLCAnLW9tYWUnLCAnPG91dGZpbGUubWFlPic=

> <r_lp_tautomer_probability>
1

> <r_epik_Ionization_Penalty>
0.656654

> <r_epik_Ionization_Penalty_Charging>
0.656654

> <r_epik_Ionization_Penalty_Neutral>
8.90321e-08

> <r_epik_State_Penalty>
0.675641

> <r_epik_Charging_Adjusted_Penalty>
1.33229

> <i_epik_Tot_Q>
1

> <i_epik_Tot_abs_Q>
1

> <r_epik_Metal_State_Penalty>
0.675691

> <b_epik_Metal_Only>
0

> <s_lp_Force_Field>
OPLS_2005

> <r_lp_Energy>
31.4881

> <b_lp_Chiralities_Consistent>
1

> <s_lp_Variant>
AV-unprocessed.smi:1795-12

> <Gold.Version>
5.8.1

> <Gold.Id.Protein>
6NUR|6NUR_protein|mol2

> <Gold.PLP.Fitness>
40.8680

> <Gold.PLP.PLP>
-34.8390

> <Gold.PLP.part.hbond>
-2.0000

> <Gold.PLP.part.metal>
0.0000

> <Gold.PLP.part.buried>
-4.1442

> <Gold.PLP.part.nonpolar>
-29.7806

> <Gold.PLP.part.repulsive>
0.2959

> <Gold.PLP.ligand.clash>
0.0000

> <Gold.PLP.ligand.torsion>
1.5111

> <Gold.PLP.Chemscore.Hbond>
2.0000

> <Gold.PLP.Chemscore.CHOScore>
1.0000

> <Gold.PLP.Chemscore.Metal>
0.0000

> <Gold.Chemscore.Hbonds>
donor molecule, donor type, donor heavy atom, donor atom, acceptor molecule, acceptor atom, score
      L1  H     8    35       P1  7948  1.00
      P1  H  7989  7998       L1    22  0.62
      L1  C    13    38       P1  7948  1.00

> <Gold.PLP.Chemscore.Internal.Correction>
0.0512

> <Gold.Rescore>
     Score         DG    S(hbond)    S(metal)    S(lipo)     H(rot)  DE(clash)    DE(int)     intcor
     14.44     -15.97       1.91        0.00      76.43       1.89       0.03       1.50       ----

> <Gold.Chemscore.Fitness>
14.4373

> <Gold.Chemscore.DG>
-15.9700

> <Gold.Chemscore.ZeroCoef>
-5.4800

> <Gold.Chemscore.Hbond>
1.9097

> <Gold.Chemscore.Metal>
0.0000

> <Gold.Chemscore.Lipo>
76.4313

> <Gold.Chemscore.Internal_Hbond>
0.0000

> <Gold.Chemscore.DEClash>
0.0285

> <Gold.Chemscore.DEInternal>
1.5042

> <Gold.Chemscore.Rot>
1.8870

> <Gold.Chemscore.Internal.Correction>
   9.000000E+99

> <Gold.Chemscore.Hbonds>
donor molecule, donor type, donor heavy atom, donor atom, acceptor molecule, acceptor atom, score
      L1  H     8    35       P1  7948  0.94
      P1  H  7989  7998       L1    22  0.57

> <Gold.Chemscore.Hbond.Weighted>
-6.3783

> <Gold.Chemscore.Metal.Weighted>
-0.0000

> <Gold.Chemscore.Lipo.Weighted>
-8.9425

> <Gold.Chemscore.Internal_Hbond.Weighted>
0.0000

> <Gold.Chemscore.DEClash.Weighted>
0.0285

> <Gold.Chemscore.DEInternal.Weighted>
1.5042

> <Gold.Chemscore.Rot.Weighted>
4.8308

> <Gold.Chemscore.Internal.Correction.Weighted>
   9.000000E+99

> <Gold.Protein.RotatedTorsions>
[ 6907 6896 6895 6894 ] final   64.35 input  -60.11 | X-H torsion
[ 7974 7965 7964 7962 ] final   -0.01 input  175.53 | X-H torsion
[ 8008 7997 7996 7995 ] final   37.33 input   59.86 | X-H torsion
[ 10167 10162 10161 10158 ] final   22.19 input  -65.29 | X-H torsion
[ 10718 10713 10712 10709 ] final  175.53 input   66.30 | X-H torsion
[ 10763 10752 10751 10750 ] final -172.23 input  -60.55 | X-H torsion
[ 11005 11000 10999 10996 ] final  101.68 input  -57.11 | X-H torsion

> <Gold.Protein.ActiveResidues>
 VAL166  LYS551  ARG553  GLY616  TRP617  ASP618  TYR619  PRO620  LYS621  CYS622 
 ASP623  PHE694  ASN695  SER759  ASP760  ASP761  ALA762  ILE779  LEU786  VAL792 
 PHE793  MET794  SER795  GLU796  ALA797  LYS798  CYS799  TRP800  GLU811  SER814 

> <Gold.Protein.RotatedAtoms>
  152.4324  134.5751  159.9931 H   0  0  0  0  0  0  0  0  0  0  0  0  # atno 6907 bound_to 6896
  151.5870  133.3365  159.3028 H   0  0  0  0  0  0  0  0  0  0  0  0  # atno 6908 bound_to 6896
  150.8219  134.7466  159.6844 H   0  0  0  0  0  0  0  0  0  0  0  0  # atno 6909 bound_to 6896
  146.2431  140.1204  142.8341 H   0  0  0  0  0  0  0  0  0  0  0  0  # atno 7974 bound_to 7965
  155.2021  140.3316  155.4341 H   0  0  0  0  0  0  0  0  0  0  0  0  # atno 8008 bound_to 7997
  156.2403  140.1892  156.7057 H   0  0  0  0  0  0  0  0  0  0  0  0  # atno 8009 bound_to 7997
  154.6134  140.0605  156.9509 H   0  0  0  0  0  0  0  0  0  0  0  0  # atno 8010 bound_to 7997
  140.5368  143.9747  150.6496 H   0  0  0  0  0  0  0  0  0  0  0  0  # atno 10167 bound_to 10162
  156.9336  130.9979  151.2982 H   0  0  0  0  0  0  0  0  0  0  0  0  # atno 10718 bound_to 10713
  154.6217  135.2876  155.0319 H   0  0  0  0  0  0  0  0  0  0  0  0  # atno 10763 bound_to 10752
  154.1511  135.6503  153.4967 H   0  0  0  0  0  0  0  0  0  0  0  0  # atno 10764 bound_to 10752
  153.0239  135.5356  154.7009 H   0  0  0  0  0  0  0  0  0  0  0  0  # atno 10765 bound_to 10752
  139.8774  134.9193  156.4943 H   0  0  0  0  0  0  0  0  0  0  0  0  # atno 11005 bound_to 11000
  145.0411  140.8946  143.5052 LP  0  0  0  0  0  0  0  0  0  0  0  0  # atno 17320 bound_to 7965
  145.1285  139.2647  143.5551 LP  0  0  0  0  0  0  0  0  0  0  0  0  # atno 17321 bound_to 7965
  140.3137  143.3182  152.0854 LP  0  0  0  0  0  0  0  0  0  0  0  0  # atno 17342 bound_to 10162
  139.4974  144.6620  151.6444 LP  0  0  0  0  0  0  0  0  0  0  0  0  # atno 17343 bound_to 10162
  157.5831  130.8390  149.8551 LP  0  0  0  0  0  0  0  0  0  0  0  0  # atno 17370 bound_to 10713
  156.0436  130.3733  150.1373 LP  0  0  0  0  0  0  0  0  0  0  0  0  # atno 17371 bound_to 10713
  140.8636  133.8041  155.9290 LP  0  0  0  0  0  0  0  0  0  0  0  0  # atno 17394 bound_to 11000
  140.9024  134.2361  157.5034 LP  0  0  0  0  0  0  0  0  0  0  0  0  # atno 17395 bound_to 11000

$$$$
