AV-unprocessed.smi:264|AV-procd|sdf|2008|dock8
  -GOLD-   2262021203D 1   1.00000     0.00000
 Structure written by MMmdl.
 52 56  0  0  0  0  0  0  0  0  1 V2000
  148.0367  137.8037  155.3342 C   0  0  0  0  0  0  0  0  0  0  0  0
  147.9584  136.3292  155.7622 C   0  0  1  0  0  0  0  0  0  0  0  0
  146.9382  135.6522  155.0425 O   0  0  0  0  0  0  0  0  0  0  0  0
  147.1792  134.2648  155.1894 C   0  0  0  0  0  0  0  0  0  0  0  0
  148.6849  134.1603  154.9796 C   0  0  0  0  0  0  0  0  0  0  0  0
  149.2329  135.4663  155.5638 C   0  0  1  0  0  0  0  0  0  0  0  0
  150.1132  136.0397  154.6110 O   0  0  0  0  0  0  0  0  0  0  0  0
  150.0233  135.2317  156.8750 C   0  0  0  0  0  0  0  0  0  0  0  0
  150.4922  136.4598  157.4999 N   0  0  0  0  0  0  0  0  0  0  0  0
  150.1557  136.9295  158.7496 C   0  0  0  0  0  0  0  0  0  0  0  0
  150.7160  138.0573  159.0906 N   0  0  0  0  0  0  0  0  0  0  0  0
  151.4873  138.4016  157.9869 C   0  0  0  0  0  0  0  0  0  0  0  0
  152.3509  139.4918  157.6823 C   0  0  0  0  0  0  0  0  0  0  0  0
  152.5687  140.5173  158.5443 N   0  0  0  0  0  0  0  0  0  0  0  0
  153.2569  140.1510  159.7758 C   0  0  0  0  0  0  0  0  0  0  0  0
  153.7619  141.4144  160.4861 C   0  0  0  0  0  0  0  0  0  0  0  0
  152.6829  142.3229  160.7029 O   0  0  0  0  0  0  0  0  0  0  0  0
  151.9995  142.7259  159.5119 C   0  0  1  0  0  0  0  0  0  0  0  0
  150.8418  143.6304  159.9228 C   0  0  0  0  0  0  0  0  0  0  0  0
  150.7822  144.6539  158.7992 C   0  0  0  0  0  0  0  0  0  0  0  0
  152.1521  144.9016  158.5453 O   0  0  0  0  0  0  0  0  0  0  0  0
  152.8471  143.6621  158.6179 C   0  0  0  0  0  0  0  0  0  0  0  0
  151.4867  141.4732  158.7630 C   0  0  0  0  0  0  0  0  0  0  0  0
  152.9705  139.4775  156.4716 N   0  0  0  0  0  0  0  0  0  0  0  0
  152.7533  138.4774  155.6127 C   0  0  0  0  0  0  0  0  0  0  0  0
  151.9718  137.4064  155.7601 N   0  0  0  0  0  0  0  0  0  0  0  0
  151.3566  137.4064  156.9771 C   0  0  0  0  0  0  0  0  0  0  0  0
  148.8327  138.3261  155.8652 H   0  0  0  0  0  0  0  0  0  0  0  0
  147.1011  138.3180  155.5537 H   0  0  0  0  0  0  0  0  0  0  0  0
  148.2220  137.9016  154.2643 H   0  0  0  0  0  0  0  0  0  0  0  0
  147.6570  136.2904  156.8093 H   0  0  0  0  0  0  0  0  0  0  0  0
  146.8999  133.9450  156.1947 H   0  0  0  0  0  0  0  0  0  0  0  0
  146.6104  133.6775  154.4683 H   0  0  0  0  0  0  0  0  0  0  0  0
  149.1035  133.2662  155.4430 H   0  0  0  0  0  0  0  0  0  0  0  0
  148.8851  134.0948  153.9085 H   0  0  0  0  0  0  0  0  0  0  0  0
  149.6755  136.0634  153.7741 H   0  0  0  0  0  0  0  0  0  0  0  0
  149.4020  134.6970  157.5948 H   0  0  0  0  0  0  0  0  0  0  0  0
  150.8878  134.5928  156.6889 H   0  0  0  0  0  0  0  0  0  0  0  0
  149.4832  136.4007  159.4094 H   0  0  0  0  0  0  0  0  0  0  0  0
  152.5626  139.6124  160.4222 H   0  0  0  0  0  0  0  0  0  0  0  0
  154.0951  139.4819  159.5858 H   0  0  0  0  0  0  0  0  0  0  0  0
  154.1959  141.1507  161.4505 H   0  0  0  0  0  0  0  0  0  0  0  0
  154.5558  141.8857  159.9067 H   0  0  0  0  0  0  0  0  0  0  0  0
  149.8995  143.1011  160.0674 H   0  0  0  0  0  0  0  0  0  0  0  0
  151.0782  144.1438  160.8562 H   0  0  0  0  0  0  0  0  0  0  0  0
  150.3082  144.2371  157.9090 H   0  0  0  0  0  0  0  0  0  0  0  0
  150.2532  145.5639  159.0827 H   0  0  0  0  0  0  0  0  0  0  0  0
  153.8450  143.8443  159.0159 H   0  0  0  0  0  0  0  0  0  0  0  0
  152.9619  143.2569  157.6119 H   0  0  0  0  0  0  0  0  0  0  0  0
  151.0386  141.7633  157.8114 H   0  0  0  0  0  0  0  0  0  0  0  0
  150.7062  140.9851  159.3491 H   0  0  0  0  0  0  0  0  0  0  0  0
  153.2812  138.5455  154.6730 H   0  0  0  0  0  0  0  0  0  0  0  0
  1  2  1  0  0  0  0
  1 28  1  0  0  0  0
  1 29  1  0  0  0  0
  1 30  1  0  0  0  0
  2  6  1  0  0  0  0
  2  3  1  0  0  0  0
  2 31  1  0  0  0  0
  3  4  1  0  0  0  0
  4  5  1  0  0  0  0
  4 32  1  0  0  0  0
  4 33  1  0  0  0  0
  5  6  1  0  0  0  0
  5 34  1  0  0  0  0
  5 35  1  0  0  0  0
  6  7  1  0  0  0  0
  6  8  1  0  0  0  0
  7 36  1  0  0  0  0
  8  9  1  0  0  0  0
  8 37  1  0  0  0  0
  8 38  1  0  0  0  0
  9 27  1  0  0  0  0
  9 10  1  0  0  0  0
 10 11  2  0  0  0  0
 10 39  1  0  0  0  0
 11 12  1  0  0  0  0
 12 27  2  0  0  0  0
 12 13  1  0  0  0  0
 13 14  1  0  0  0  0
 13 24  2  0  0  0  0
 14 23  1  0  0  0  0
 14 15  1  0  0  0  0
 15 16  1  0  0  0  0
 15 40  1  0  0  0  0
 15 41  1  0  0  0  0
 16 17  1  0  0  0  0
 16 42  1  0  0  0  0
 16 43  1  0  0  0  0
 17 18  1  0  0  0  0
 18 22  1  0  0  0  0
 18 19  1  0  0  0  0
 18 23  1  0  0  0  0
 19 20  1  0  0  0  0
 19 44  1  0  0  0  0
 19 45  1  0  0  0  0
 20 21  1  0  0  0  0
 20 46  1  0  0  0  0
 20 47  1  0  0  0  0
 21 22  1  0  0  0  0
 22 48  1  0  0  0  0
 22 49  1  0  0  0  0
 23 50  1  0  0  0  0
 23 51  1  0  0  0  0
 24 25  1  0  0  0  0
 25 26  2  0  0  0  0
 25 52  1  0  0  0  0
 26 27  1  0  0  0  0
M  END
> <s_m_source_file>
AV-unprocessed.smi

> <i_m_source_file_index>
264

> <i_lp_mmshare_version>
43012

> <i_f3d_flags>
0

> <s_epik_input>
W0NIMl0xW0NIMl1PW0NAQEhdKFtDSDNdKVtDQEBdMShbT0hdKVtDSDJdbihbY0hdbjIpYyhjMjMpbltjSF1uYzNOKFtDSDJdNClbQ0gyXVtDSDJdT1tDQF00NVtDSDJdW0NIMl1PW0NIMl01

> <s_epik_cmdline>
J2VwaWtfcHl0aG9uJywgJy1waCcsICc3LjAnLCAnLXRuJywgJzgnLCAnLW1hJywgJzIwMCcsICctbWV0YWxfYmluZGluZycsICctaW1hZScsICc8aW5maWxlLm1hZT4nLCAnLW9tYWUnLCAnPG91dGZpbGUubWFlPic=

> <r_lp_tautomer_probability>
1

> <r_epik_Ionization_Penalty>
0.00539389

> <r_epik_Ionization_Penalty_Charging>
0

> <r_epik_Ionization_Penalty_Neutral>
0.00539389

> <r_epik_State_Penalty>
0.00375441

> <r_epik_Charging_Adjusted_Penalty>
0.00375441

> <i_epik_Tot_Q>
0

> <i_epik_Tot_abs_Q>
0

> <r_epik_Metal_State_Penalty>
-0

> <b_epik_Metal_Only>
0

> <s_lp_Force_Field>
OPLS_2005

> <r_lp_Energy>
54.8303

> <b_lp_Chiralities_Consistent>
1

> <s_lp_Variant>
AV-unprocessed.smi:264-2

> <Gold.Version>
5.8.1

> <Gold.Id.Protein>
6NUR|6NUR_protein|mol2

> <Gold.PLP.Fitness>
42.2617

> <Gold.PLP.PLP>
-36.0868

> <Gold.PLP.part.hbond>
-2.8228

> <Gold.PLP.part.metal>
0.0000

> <Gold.PLP.part.buried>
-7.9645

> <Gold.PLP.part.nonpolar>
-26.1052

> <Gold.PLP.part.repulsive>
0.1488

> <Gold.PLP.ligand.clash>
0.0000

> <Gold.PLP.ligand.torsion>
0.1630

> <Gold.PLP.Chemscore.Hbond>
2.0695

> <Gold.PLP.Chemscore.CHOScore>
0.0000

> <Gold.PLP.Chemscore.Metal>
0.0000

> <Gold.Chemscore.Hbonds>
donor molecule, donor type, donor heavy atom, donor atom, acceptor molecule, acceptor atom, score
      L1  H     7    36       P1  7948  1.00
      P1  H  7997  8009       L1    24  0.99
      P1  H 10752 10763       L1    26  0.16

> <Gold.PLP.Chemscore.Internal.Correction>
0.2924

> <Gold.Rescore>
     Score         DG    S(hbond)    S(metal)    S(lipo)     H(rot)  DE(clash)    DE(int)     intcor
     13.43     -16.14       1.87        0.00      83.74       2.11       0.00       2.71       ----

> <Gold.Chemscore.Fitness>
13.4341

> <Gold.Chemscore.DG>
-16.1447

> <Gold.Chemscore.ZeroCoef>
-5.4800

> <Gold.Chemscore.Hbond>
1.8740

> <Gold.Chemscore.Metal>
0.0000

> <Gold.Chemscore.Lipo>
83.7419

> <Gold.Chemscore.Internal_Hbond>
0.0000

> <Gold.Chemscore.DEClash>
0.0042

> <Gold.Chemscore.DEInternal>
2.7064

> <Gold.Chemscore.Rot>
2.1063

> <Gold.Chemscore.Internal.Correction>
   9.000000E+99

> <Gold.Chemscore.Hbonds>
donor molecule, donor type, donor heavy atom, donor atom, acceptor molecule, acceptor atom, score
      L1  H     7    36       P1  7948  0.33
      P1  H  7997  8009       L1    24  0.78
      P1  H 10752 10763       L1    26  0.11

> <Gold.Chemscore.Hbond.Weighted>
-6.2591

> <Gold.Chemscore.Metal.Weighted>
-0.0000

> <Gold.Chemscore.Lipo.Weighted>
-9.7978

> <Gold.Chemscore.Internal_Hbond.Weighted>
0.0000

> <Gold.Chemscore.DEClash.Weighted>
0.0042

> <Gold.Chemscore.DEInternal.Weighted>
2.7064

> <Gold.Chemscore.Rot.Weighted>
5.3921

> <Gold.Chemscore.Internal.Correction.Weighted>
   9.000000E+99

> <Gold.Protein.RotatedTorsions>
[ 6907 6896 6895 6894 ] final -169.15 input  -60.11 | X-H torsion
[ 7974 7965 7964 7962 ] final   74.10 input  175.53 | X-H torsion
[ 8008 7997 7996 7995 ] final -158.55 input   59.86 | X-H torsion
[ 10167 10162 10161 10158 ] final  -76.39 input  -65.29 | X-H torsion
[ 10718 10713 10712 10709 ] final -103.73 input   66.30 | X-H torsion
[ 10763 10752 10751 10750 ] final   59.76 input  -60.55 | X-H torsion
[ 11005 11000 10999 10996 ] final    6.70 input  -57.11 | X-H torsion

> <Gold.Protein.ActiveResidues>
 VAL166  LYS551  ARG553  GLY616  TRP617  ASP618  TYR619  PRO620  LYS621  CYS622 
 ASP623  PHE694  ASN695  SER759  ASP760  ASP761  ALA762  ILE779  LEU786  VAL792 
 PHE793  MET794  SER795  GLU796  ALA797  LYS798  CYS799  TRP800  GLU811  SER814 

> <Gold.Protein.RotatedAtoms>
  151.4870  133.3533  159.2847 H   0  0  0  0  0  0  0  0  0  0  0  0  # atno 6907 bound_to 6896
  150.8860  134.8259  159.7270 H   0  0  0  0  0  0  0  0  0  0  0  0  # atno 6908 bound_to 6896
  152.4793  134.4774  159.9706 H   0  0  0  0  0  0  0  0  0  0  0  0  # atno 6909 bound_to 6896
  145.7325  139.2689  143.1533 H   0  0  0  0  0  0  0  0  0  0  0  0  # atno 7974 bound_to 7965
  155.7493  140.0824  157.2209 H   0  0  0  0  0  0  0  0  0  0  0  0  # atno 8008 bound_to 7997
  154.4014  140.1563  156.2761 H   0  0  0  0  0  0  0  0  0  0  0  0  # atno 8009 bound_to 7997
  155.8946  140.3413  155.5984 H   0  0  0  0  0  0  0  0  0  0  0  0  # atno 8010 bound_to 7997
  140.4861  143.2391  151.7982 H   0  0  0  0  0  0  0  0  0  0  0  0  # atno 10167 bound_to 10162
  156.0276  130.5481  150.7295 H   0  0  0  0  0  0  0  0  0  0  0  0  # atno 10718 bound_to 10713
  152.9903  135.5560  154.5765 H   0  0  0  0  0  0  0  0  0  0  0  0  # atno 10763 bound_to 10752
  154.5155  135.2804  155.1309 H   0  0  0  0  0  0  0  0  0  0  0  0  # atno 10764 bound_to 10752
  154.2683  135.6368  153.5353 H   0  0  0  0  0  0  0  0  0  0  0  0  # atno 10765 bound_to 10752
  140.5565  134.0233  155.7956 H   0  0  0  0  0  0  0  0  0  0  0  0  # atno 11005 bound_to 11000
  146.0524  140.8055  142.9775 LP  0  0  0  0  0  0  0  0  0  0  0  0  # atno 17320 bound_to 7965
  144.6889  140.3073  143.7254 LP  0  0  0  0  0  0  0  0  0  0  0  0  # atno 17321 bound_to 7965
  139.4842  144.4710  151.9425 LP  0  0  0  0  0  0  0  0  0  0  0  0  # atno 17342 bound_to 10162
  140.3796  144.2753  150.5910 LP  0  0  0  0  0  0  0  0  0  0  0  0  # atno 17343 bound_to 10162
  157.4891  131.0909  151.0448 LP  0  0  0  0  0  0  0  0  0  0  0  0  # atno 17370 bound_to 10713
  157.0860  130.5922  149.5430 LP  0  0  0  0  0  0  0  0  0  0  0  0  # atno 17371 bound_to 10713
  141.1140  133.9570  157.2857 LP  0  0  0  0  0  0  0  0  0  0  0  0  # atno 17394 bound_to 11000
  139.9429  135.0188  156.8763 LP  0  0  0  0  0  0  0  0  0  0  0  0  # atno 17395 bound_to 11000

$$$$
