#       Name:                AV-unprocessed.smi:2354
#       Creating user name   scv26
#       Creation time:       Fri Mar 27 13:01:38 2020


#       File generated by GOLD software.
#

@<TRIPOS>MOLECULE
AV-unprocessed.smi:2354
    48    49     1
SMALL
NO_CHARGES


@<TRIPOS>ATOM
      1 ****        -3.1398   1.6865  -0.6952 C.3            1 S1                 0.0000
      2 ****        -2.0340   1.5992  -1.6744 N.4            1 S1                 1.0000
      3 ****        -2.4416   2.1105  -3.0028 C.3            1 S1                 0.0000
      4 ****        -1.4182   0.2455  -1.7258 C.3            1 S1                 0.0000
      5 ****         0.1338   0.2765  -1.6719 C.3            1 S1                 0.0000
      6 ****         0.6519   1.0586  -0.4277 C.3            1 S1                 0.0000
      7 ****         0.1195   0.5619   0.8403 N.am           1 S1                 0.0000
      8 ****         0.7793  -0.2161   1.7109 C.2            1 S1                 0.0000
      9 ****         1.9249  -0.6255   1.5237 O.2            1 S1                 0.0000
     10 ****         0.0202  -0.4955   2.7844 N.am           1 S1                 0.0000
     11 ****         0.3328  -1.3321   3.8880 C.ar           1 S1                 0.0000
     12 ****         1.6599  -1.4330   4.3742 C.ar           1 S1                 0.0000
     13 ****         1.8982  -2.2588   5.4859 C.ar           1 S1                 0.0000
     14 ****         0.7930  -2.9214   6.0459 C.ar           1 S1                 0.0000
     15 ****        -0.4584  -2.7810   5.5586 N.ar           1 S1                 0.0000
     16 ****        -0.6793  -1.9921   4.5017 N.ar           1 S1                 0.0000
     17 ****         0.6942  -1.1602  -1.7095 C.3            1 S1                 0.0000
     18 ****         2.1246  -1.0472  -2.2458 C.3            1 S1                 0.0000
     19 ****         2.1563   0.2412  -3.0766 C.3            1 S1                 0.0000
     20 ****         0.7563   0.8570  -2.9561 C.3            1 S1                 0.0000
     21 ****        -3.9628   1.0275  -0.9747 H              1 S1                 0.0000
     22 ****        -3.5223   2.7059  -0.6348 H              1 S1                 0.0000
     23 ****        -2.7963   1.4051   0.3007 H              1 S1                 0.0000
     24 ****        -3.2307   1.4926  -3.4334 H              1 S1                 0.0000
     25 ****        -1.6039   2.1265  -3.6985 H              1 S1                 0.0000
     26 ****        -2.8171   3.1312  -2.9219 H              1 S1                 0.0000
     27 ****        -1.7773  -0.3533  -0.8872 H              1 S1                 0.0000
     28 ****        -1.7655  -0.2855  -2.6139 H              1 S1                 0.0000
     29 ****         1.7425   1.0687  -0.4010 H              1 S1                 0.0000
     30 ****         0.3655   2.1077  -0.5042 H              1 S1                 0.0000
     31 ****        -0.8187   0.8453   1.0819 H              1 S1                 0.0000
     32 ****        -0.9321  -0.1628   2.7554 H              1 S1                 0.0000
     33 ****         2.4809  -0.8908   3.9302 H              1 S1                 0.0000
     34 ****         2.8901  -2.3759   5.8967 H              1 S1                 0.0000
     35 ****         0.9115  -3.5686   6.9021 H              1 S1                 0.0000
     36 ****         0.6492  -1.6770  -0.7517 H              1 S1                 0.0000
     37 ****         0.1133  -1.7619  -2.4104 H              1 S1                 0.0000
     38 ****         2.8310  -0.9721  -1.4178 H              1 S1                 0.0000
     39 ****         2.4030  -1.9228  -2.8333 H              1 S1                 0.0000
     40 ****         2.9081   0.9223  -2.6759 H              1 S1                 0.0000
     41 ****         2.4156   0.0477  -4.1182 H              1 S1                 0.0000
     42 ****         0.1721   0.5459  -3.8233 H              1 S1                 0.0000
     43 ****         0.7846   1.9474  -2.9612 H              1 S1                 0.0000
     44 ****        -1.3156   2.2216  -1.3327 H              1 S1                 0.0000
     45 ****         2.4130  -0.3800   0.6861 LP             1 S1                 0.0000
     46 ****         2.3676  -1.2036   2.2091 LP             1 S1                 0.0000
     47 ****        -1.2197  -3.2668   5.9879 LP             1 S1                 0.0000
     48 ****        -1.6119  -1.8868   4.1565 LP             1 S1                 0.0000
@<TRIPOS>BOND
    1    1    2 1     
    2    1   21 1     
    3    1   22 1     
    4    1   23 1     
    5    2    3 1     
    6    2    4 1     
    7    2   44 1     
    8    3   24 1     
    9    3   25 1     
   10    3   26 1     
   11    4    5 1     
   12    4   27 1     
   13    4   28 1     
   14    5   20 1     
   15    5    6 1     
   16    5   17 1     
   17    6    7 1     
   18    6   29 1     
   19    6   30 1     
   20    7    8 am    
   21    7   31 1     
   22    8    9 2     
   23    8   10 am    
   24   10   11 1     
   25   10   32 1     
   26   11   16 ar    
   27   11   12 ar    
   28   12   13 ar    
   29   12   33 1     
   30   13   14 ar    
   31   13   34 1     
   32   14   15 ar    
   33   14   35 1     
   34   15   16 ar    
   35   17   18 1     
   36   17   36 1     
   37   17   37 1     
   38   18   19 1     
   39   18   38 1     
   40   18   39 1     
   41   19   20 1     
   42   19   40 1     
   43   19   41 1     
   44   20   42 1     
   45   20   43 1     
   46    9   45 1     
   47    9   46 1     
   48   15   47 1     
   49   16   48 1     
@<TRIPOS>SUBSTRUCTURE
      1 S1             1
@<TRIPOS>SET
LONE_PAIRS      STATIC     ATOMS    <user>   **** ""
4 45 46 47 48
DONOR_HYDROGENS      STATIC     ATOMS    <user>   **** ""
3 44 31 32
ATOM$BLUE        STATIC     ATOMS    COLORGROUP SYSTEM
4 45 46 47 48
ATOM$RED        STATIC     ATOMS    COLORGROUP SYSTEM
3 44 31 32
