AV-unprocessed.smi:1158|AV-procd|sdf|4911|dock2
  -GOLD-   22720 3483D 1   1.00000     0.00000
 Structure written by MMmdl.
 42 43  0  0  0  0  0  0  0  0  1 V2000
  147.3015  132.6528  152.7252 C   0  0  0  0  0  0  0  0  0  0  0  0
  148.3572  133.5217  153.1213 O   0  0  0  0  0  0  0  0  0  0  0  0
  149.1660  133.1400  154.1749 C   0  0  0  0  0  0  0  0  0  0  0  0
  149.2000  131.8278  154.5181 N   0  0  0  0  0  0  0  0  0  0  0  0
  149.9920  131.4515  155.5427 C   0  0  0  0  0  0  0  0  0  0  0  0
  150.7915  132.3525  156.2689 C   0  0  0  0  0  0  0  0  0  0  0  0
  150.7594  133.7138  155.9145 C   0  0  0  0  0  0  0  0  0  0  0  0
  149.9203  134.1281  154.8509 C   0  0  0  0  0  0  0  0  0  0  0  0
  149.8168  135.4733  154.3980 N   0  0  0  0  0  0  0  0  0  0  0  0
  150.1007  136.6119  155.0532 C   0  0  0  0  0  0  0  0  0  0  0  0
  150.5174  136.6880  156.2087 O   0  0  0  0  0  0  0  0  0  0  0  0
  149.8566  137.6826  154.2842 N   0  0  0  0  0  0  0  0  0  0  0  0
  150.0535  139.0720  154.6870 C   0  0  0  0  0  0  0  0  0  0  0  0
  151.4337  139.2380  155.3381 C   0  0  0  0  0  0  0  0  0  0  0  0
  151.6142  140.6616  155.8928 C   0  0  0  0  0  0  0  0  0  0  0  0
  150.5752  140.9650  156.8801 N   0  0  0  0  0  0  0  0  0  0  0  0
  150.8350  142.2898  157.4433 C   0  0  0  0  0  0  0  0  0  0  0  0
  152.1191  142.3289  158.2897 C   0  0  0  0  0  0  0  0  0  0  0  0
  152.2796  143.5292  158.8469 F   0  0  0  0  0  0  0  0  0  0  0  0
  152.0424  141.4121  159.2532 F   0  0  0  0  0  0  0  0  0  0  0  0
  149.2590  140.9202  156.2347 C   0  0  0  0  0  0  0  0  0  0  0  0
  148.9725  139.5098  155.6892 C   0  0  0  0  0  0  0  0  0  0  0  0
  146.7670  133.0949  151.8846 H   0  0  0  0  0  0  0  0  0  0  0  0
  146.5826  132.5037  153.5320 H   0  0  0  0  0  0  0  0  0  0  0  0
  147.6835  131.6838  152.4009 H   0  0  0  0  0  0  0  0  0  0  0  0
  149.9926  130.3996  155.7872 H   0  0  0  0  0  0  0  0  0  0  0  0
  151.4188  132.0067  157.0771 H   0  0  0  0  0  0  0  0  0  0  0  0
  151.3871  134.4030  156.4567 H   0  0  0  0  0  0  0  0  0  0  0  0
  149.4186  135.5831  153.4768 H   0  0  0  0  0  0  0  0  0  0  0  0
  149.5118  137.5264  153.3484 H   0  0  0  0  0  0  0  0  0  0  0  0
  150.0093  139.7176  153.8076 H   0  0  0  0  0  0  0  0  0  0  0  0
  151.5562  138.5164  156.1476 H   0  0  0  0  0  0  0  0  0  0  0  0
  152.2178  139.0241  154.6109 H   0  0  0  0  0  0  0  0  0  0  0  0
  152.5971  140.7381  156.3594 H   0  0  0  0  0  0  0  0  0  0  0  0
  151.5877  141.3912  155.0816 H   0  0  0  0  0  0  0  0  0  0  0  0
  150.9510  143.0056  156.6281 H   0  0  0  0  0  0  0  0  0  0  0  0
  149.9784  142.6236  158.0312 H   0  0  0  0  0  0  0  0  0  0  0  0
  153.0183  142.1030  157.7183 H   0  0  0  0  0  0  0  0  0  0  0  0
  148.4777  141.1771  156.9485 H   0  0  0  0  0  0  0  0  0  0  0  0
  149.2089  141.6543  155.4288 H   0  0  0  0  0  0  0  0  0  0  0  0
  147.9908  139.4934  155.2145 H   0  0  0  0  0  0  0  0  0  0  0  0
  148.9259  138.8043  156.5204 H   0  0  0  0  0  0  0  0  0  0  0  0
  1  2  1  0  0  0  0
  1 23  1  0  0  0  0
  1 24  1  0  0  0  0
  1 25  1  0  0  0  0
  2  3  1  0  0  0  0
  3  8  1  0  0  0  0
  3  4  2  0  0  0  0
  4  5  1  0  0  0  0
  5  6  2  0  0  0  0
  5 26  1  0  0  0  0
  6  7  1  0  0  0  0
  6 27  1  0  0  0  0
  7  8  2  0  0  0  0
  7 28  1  0  0  0  0
  8  9  1  0  0  0  0
  9 10  1  0  0  0  0
  9 29  1  0  0  0  0
 10 11  2  0  0  0  0
 10 12  1  0  0  0  0
 12 13  1  0  0  0  0
 12 30  1  0  0  0  0
 13 22  1  0  0  0  0
 13 14  1  0  0  0  0
 13 31  1  0  0  0  0
 14 15  1  0  0  0  0
 14 32  1  0  0  0  0
 14 33  1  0  0  0  0
 15 16  1  0  0  0  0
 15 34  1  0  0  0  0
 15 35  1  0  0  0  0
 16 17  1  0  0  0  0
 16 21  1  0  0  0  0
 17 18  1  0  0  0  0
 17 36  1  0  0  0  0
 17 37  1  0  0  0  0
 18 19  1  0  0  0  0
 18 20  1  0  0  0  0
 18 38  1  0  0  0  0
 21 22  1  0  0  0  0
 21 39  1  0  0  0  0
 21 40  1  0  0  0  0
 22 41  1  0  0  0  0
 22 42  1  0  0  0  0
M  END
> <s_m_source_file>
AV-unprocessed.smi

> <i_m_source_file_index>
1158

> <i_lp_mmshare_version>
43012

> <i_f3d_flags>
0

> <s_epik_input>
W0NIM11PYzFuW2NIXVtjSF1bY0hdYzFbTkhdQyg9TylbTkhdW0NIXTJbQ0gyXVtDSDJdTihbQ0gyXVtDSF0oRilGKVtDSDJdW0NIMl0y

> <s_epik_cmdline>
J2VwaWtfcHl0aG9uJywgJy1waCcsICc3LjAnLCAnLXRuJywgJzgnLCAnLW1hJywgJzIwMCcsICctbWV0YWxfYmluZGluZycsICctaW1hZScsICc8aW5maWxlLm1hZT4nLCAnLW9tYWUnLCAnPG91dGZpbGUubWFlPic=

> <r_lp_tautomer_probability>
1

> <r_epik_Ionization_Penalty>
0.177131

> <r_epik_Ionization_Penalty_Charging>
0

> <r_epik_Ionization_Penalty_Neutral>
0.177131

> <r_epik_State_Penalty>
0.166485

> <r_epik_Charging_Adjusted_Penalty>
0.166485

> <i_epik_Tot_Q>
0

> <i_epik_Tot_abs_Q>
0

> <r_epik_Metal_State_Penalty>
0.166483

> <b_epik_Metal_Only>
0

> <s_lp_Force_Field>
OPLS_2005

> <r_lp_Energy>
18.3974

> <b_lp_Chiralities_Consistent>
1

> <s_lp_Variant>
AV-unprocessed.smi:1158-1

> <Gold.Version>
5.8.1

> <Gold.Id.Protein>
6NUR|6NUR_protein|mol2

> <Gold.PLP.Fitness>
41.2829

> <Gold.PLP.PLP>
-36.3476

> <Gold.PLP.part.hbond>
-2.3394

> <Gold.PLP.part.metal>
0.0000

> <Gold.PLP.part.buried>
-5.2778

> <Gold.PLP.part.nonpolar>
-29.1848

> <Gold.PLP.part.repulsive>
1.2187

> <Gold.PLP.ligand.clash>
0.0000

> <Gold.PLP.ligand.torsion>
0.5554

> <Gold.PLP.Chemscore.Hbond>
2.0000

> <Gold.PLP.Chemscore.CHOScore>
0.0000

> <Gold.PLP.Chemscore.Metal>
0.0000

> <Gold.Chemscore.Hbonds>
donor molecule, donor type, donor heavy atom, donor atom, acceptor molecule, acceptor atom, score
      L1  H     9    29       P1  7948  1.00
      L1  H    12    30       P1  7948  0.99

> <Gold.PLP.Chemscore.Internal.Correction>
0.0460

> <Gold.Rescore>
     Score         DG    S(hbond)    S(metal)    S(lipo)     H(rot)  DE(clash)    DE(int)     intcor
     12.23     -15.21       1.72        0.00      68.09       1.55       0.06       2.92       ----

> <Gold.Chemscore.Fitness>
12.2329

> <Gold.Chemscore.DG>
-15.2064

> <Gold.Chemscore.ZeroCoef>
-5.4800

> <Gold.Chemscore.Hbond>
1.7161

> <Gold.Chemscore.Metal>
0.0000

> <Gold.Chemscore.Lipo>
68.0946

> <Gold.Chemscore.Internal_Hbond>
0.0000

> <Gold.Chemscore.DEClash>
0.0560

> <Gold.Chemscore.DEInternal>
2.9175

> <Gold.Chemscore.Rot>
1.5517

> <Gold.Chemscore.Internal.Correction>
   9.000000E+99

> <Gold.Chemscore.Hbonds>
donor molecule, donor type, donor heavy atom, donor atom, acceptor molecule, acceptor atom, score
      L1  H     9    29       P1  7948  0.26
      L1  H    12    30       P1  7948  0.81

> <Gold.Chemscore.Hbond.Weighted>
-5.7317

> <Gold.Chemscore.Metal.Weighted>
-0.0000

> <Gold.Chemscore.Lipo.Weighted>
-7.9671

> <Gold.Chemscore.Internal_Hbond.Weighted>
0.0000

> <Gold.Chemscore.DEClash.Weighted>
0.0560

> <Gold.Chemscore.DEInternal.Weighted>
2.9175

> <Gold.Chemscore.Rot.Weighted>
3.9723

> <Gold.Chemscore.Internal.Correction.Weighted>
   9.000000E+99

> <Gold.Protein.RotatedTorsions>
[ 6907 6896 6895 6894 ] final  -57.99 input  -60.11 | X-H torsion
[ 7974 7965 7964 7962 ] final  150.05 input  175.53 | X-H torsion
[ 8008 7997 7996 7995 ] final -117.46 input   59.86 | X-H torsion
[ 10167 10162 10161 10158 ] final   71.21 input  -65.29 | X-H torsion
[ 10718 10713 10712 10709 ] final   15.34 input   66.30 | X-H torsion
[ 10763 10752 10751 10750 ] final  -30.21 input  -60.55 | X-H torsion
[ 11005 11000 10999 10996 ] final  -95.96 input  -57.11 | X-H torsion

> <Gold.Protein.ActiveResidues>
 VAL166  LYS551  ARG553  GLY616  TRP617  ASP618  TYR619  PRO620  LYS621  CYS622 
 ASP623  PHE694  ASN695  SER759  ASP760  ASP761  ALA762  ILE779  LEU786  VAL792 
 PHE793  MET794  SER795  GLU796  ALA797  LYS798  CYS799  TRP800  GLU811  SER814 

> <Gold.Protein.RotatedAtoms>
  150.8042  134.7156  159.6628 H   0  0  0  0  0  0  0  0  0  0  0  0  # atno 6907 bound_to 6896
  152.4160  134.6037  160.0017 H   0  0  0  0  0  0  0  0  0  0  0  0  # atno 6908 bound_to 6896
  151.6266  133.3298  159.3135 H   0  0  0  0  0  0  0  0  0  0  0  0  # atno 6909 bound_to 6896
  144.8393  139.6358  143.6024 H   0  0  0  0  0  0  0  0  0  0  0  0  # atno 7974 bound_to 7965
  155.0840  140.0394  157.2648 H   0  0  0  0  0  0  0  0  0  0  0  0  # atno 8008 bound_to 7997
  154.6884  140.2648  155.6812 H   0  0  0  0  0  0  0  0  0  0  0  0  # atno 8009 bound_to 7997
  156.2720  140.2764  156.1453 H   0  0  0  0  0  0  0  0  0  0  0  0  # atno 8010 bound_to 7997
  140.0486  144.5331  150.7380 H   0  0  0  0  0  0  0  0  0  0  0  0  # atno 10167 bound_to 10162
  157.0522  130.6274  149.5770 H   0  0  0  0  0  0  0  0  0  0  0  0  # atno 10718 bound_to 10713
  153.7772  135.6908  153.4895 H   0  0  0  0  0  0  0  0  0  0  0  0  # atno 10763 bound_to 10752
  153.1835  135.4497  155.0058 H   0  0  0  0  0  0  0  0  0  0  0  0  # atno 10764 bound_to 10752
  154.8095  135.3371  154.7277 H   0  0  0  0  0  0  0  0  0  0  0  0  # atno 10765 bound_to 10752
  141.1426  133.8063  157.0506 H   0  0  0  0  0  0  0  0  0  0  0  0  # atno 11005 bound_to 11000
  146.2687  139.6583  142.9311 LP  0  0  0  0  0  0  0  0  0  0  0  0  # atno 17320 bound_to 7965
  145.4728  141.0436  143.2689 LP  0  0  0  0  0  0  0  0  0  0  0  0  # atno 17321 bound_to 7965
  140.7227  143.2605  151.4224 LP  0  0  0  0  0  0  0  0  0  0  0  0  # atno 17342 bound_to 10162
  139.5968  144.1381  152.2152 LP  0  0  0  0  0  0  0  0  0  0  0  0  # atno 17343 bound_to 10162
  156.0004  130.5082  150.7642 LP  0  0  0  0  0  0  0  0  0  0  0  0  # atno 17370 bound_to 10713
  157.5021  131.0919  151.0301 LP  0  0  0  0  0  0  0  0  0  0  0  0  # atno 17371 bound_to 10713
  140.0634  134.9742  157.1344 LP  0  0  0  0  0  0  0  0  0  0  0  0  # atno 17394 bound_to 11000
  140.3815  134.2282  155.7171 LP  0  0  0  0  0  0  0  0  0  0  0  0  # atno 17395 bound_to 11000

$$$$
