AV-unprocessed.smi:3336|AV-procd|sdf|12857|dock9
  -GOLD-   2272019253D 1   1.00000     0.00000
 Structure written by MMmdl.
 41 42  0  0  0  0  0  0  0  0  1 V2000
  144.4290  136.2398  154.2563 C   0  0  0  0  0  0  0  0  0  0  0  0
  144.6568  137.2727  153.1408 C   0  0  2  0  0  0  0  0  0  0  0  0
  145.5002  136.7071  151.9692 C   0  0  0  0  0  0  0  0  0  0  0  0
  144.9687  135.4832  151.3901 N   0  0  0  0  0  0  0  0  0  0  0  0
  144.4850  135.2768  150.1148 C   0  0  0  0  0  0  0  0  0  0  0  0
  144.1039  133.9684  150.0301 C   0  0  0  0  0  0  0  0  0  0  0  0
  144.4019  133.4458  151.3196 C   0  0  0  0  0  0  0  0  0  0  0  0
  144.9241  134.3526  152.1289 N   0  0  0  0  0  0  0  0  0  0  0  0
  145.2588  138.4544  153.7658 N   0  0  0  0  0  0  0  0  0  0  0  0
  146.7351  138.4994  153.8314 C   0  0  2  0  0  0  0  0  0  0  0  0
  147.2284  137.4311  154.8201 C   0  0  0  0  0  0  0  0  0  0  0  0
  147.3044  139.8838  154.2217 C   0  0  0  0  0  0  0  0  0  0  0  0
  146.5114  140.7484  154.6005 O   0  0  0  0  0  0  0  0  0  0  0  0
  148.6386  140.1230  154.1511 N   0  0  0  0  0  0  0  0  0  0  0  0
  149.2255  141.4307  154.4653 C   0  0  0  0  0  0  0  0  0  0  0  0
  150.1234  141.2844  155.7057 C   0  0  0  0  0  0  0  0  0  0  0  0
  151.1329  140.3130  155.4484 O   0  0  0  0  0  0  0  0  0  0  0  0
  150.5996  139.0341  155.1176 C   0  0  0  0  0  0  0  0  0  0  0  0
  149.6993  139.1462  153.8735 C   0  0  0  0  0  0  0  0  0  0  0  0
  143.9887  135.3254  153.8576 H   0  0  0  0  0  0  0  0  0  0  0  0
  143.7468  136.6256  155.0147 H   0  0  0  0  0  0  0  0  0  0  0  0
  145.3589  135.9702  154.7577 H   0  0  0  0  0  0  0  0  0  0  0  0
  143.6732  137.5302  152.7496 H   0  0  0  0  0  0  0  0  0  0  0  0
  145.5485  137.4525  151.1748 H   0  0  0  0  0  0  0  0  0  0  0  0
  146.5361  136.5401  152.2653 H   0  0  0  0  0  0  0  0  0  0  0  0
  144.4505  136.0709  149.3834 H   0  0  0  0  0  0  0  0  0  0  0  0
  143.6780  133.4614  149.1770 H   0  0  0  0  0  0  0  0  0  0  0  0
  144.2577  132.4408  151.6884 H   0  0  0  0  0  0  0  0  0  0  0  0
  144.8917  139.2862  153.3259 H   0  0  0  0  0  0  0  0  0  0  0  0
  147.0928  138.2223  152.8441 H   0  0  0  0  0  0  0  0  0  0  0  0
  148.3172  137.3954  154.8641 H   0  0  0  0  0  0  0  0  0  0  0  0
  146.8847  136.4393  154.5242 H   0  0  0  0  0  0  0  0  0  0  0  0
  146.8618  137.6208  155.8298 H   0  0  0  0  0  0  0  0  0  0  0  0
  149.8153  141.7740  153.6140 H   0  0  0  0  0  0  0  0  0  0  0  0
  148.4790  142.2057  154.6430 H   0  0  0  0  0  0  0  0  0  0  0  0
  150.6009  142.2355  155.9409 H   0  0  0  0  0  0  0  0  0  0  0  0
  149.5373  140.9948  156.5794 H   0  0  0  0  0  0  0  0  0  0  0  0
  151.4242  138.3476  154.9256 H   0  0  0  0  0  0  0  0  0  0  0  0
  150.0414  138.6334  155.9653 H   0  0  0  0  0  0  0  0  0  0  0  0
  149.3444  138.1509  153.6206 H   0  0  0  0  0  0  0  0  0  0  0  0
  150.2828  139.4837  153.0158 H   0  0  0  0  0  0  0  0  0  0  0  0
  1  2  1  0  0  0  0
  1 20  1  0  0  0  0
  1 21  1  0  0  0  0
  1 22  1  0  0  0  0
  2  3  1  0  0  0  0
  2  9  1  0  0  0  0
  2 23  1  0  0  0  0
  3  4  1  0  0  0  0
  3 24  1  0  0  0  0
  3 25  1  0  0  0  0
  4  8  1  0  0  0  0
  4  5  1  0  0  0  0
  5  6  2  0  0  0  0
  5 26  1  0  0  0  0
  6  7  1  0  0  0  0
  6 27  1  0  0  0  0
  7  8  2  0  0  0  0
  7 28  1  0  0  0  0
  9 10  1  0  0  0  0
  9 29  1  0  0  0  0
 10 11  1  0  0  0  0
 10 12  1  0  0  0  0
 10 30  1  0  0  0  0
 11 31  1  0  0  0  0
 11 32  1  0  0  0  0
 11 33  1  0  0  0  0
 12 13  2  0  0  0  0
 12 14  1  0  0  0  0
 14 19  1  0  0  0  0
 14 15  1  0  0  0  0
 15 16  1  0  0  0  0
 15 34  1  0  0  0  0
 15 35  1  0  0  0  0
 16 17  1  0  0  0  0
 16 36  1  0  0  0  0
 16 37  1  0  0  0  0
 17 18  1  0  0  0  0
 18 19  1  0  0  0  0
 18 38  1  0  0  0  0
 18 39  1  0  0  0  0
 19 40  1  0  0  0  0
 19 41  1  0  0  0  0
M  END
> <s_m_source_file>
AV-unprocessed.smi

> <i_m_source_file_index>
3336

> <i_lp_mmshare_version>
43012

> <i_f3d_flags>
0

> <s_epik_input>
bjFbY0hdW2NIXVtjSF1uMVtDSDJdW0NAQEhdKFtDSDNdKVtOSF1bQ0BIXShbQ0gzXSlDKD1PKU4yW0NIMl1bQ0gyXU9bQ0gyXVtDSDJdMg==

> <s_epik_cmdline>
J2VwaWtfcHl0aG9uJywgJy1waCcsICc3LjAnLCAnLXRuJywgJzgnLCAnLW1hJywgJzIwMCcsICctbWV0YWxfYmluZGluZycsICctaW1hZScsICc8aW5maWxlLm1hZT4nLCAnLW9tYWUnLCAnPG91dGZpbGUubWFlPic=

> <r_lp_tautomer_probability>
1

> <r_epik_Ionization_Penalty>
0.739958

> <r_epik_Ionization_Penalty_Charging>
0

> <r_epik_Ionization_Penalty_Neutral>
0.739958

> <r_epik_State_Penalty>
0.765967

> <r_epik_Charging_Adjusted_Penalty>
0.765967

> <i_epik_Tot_Q>
0

> <i_epik_Tot_abs_Q>
0

> <r_epik_Metal_State_Penalty>
0.765947

> <b_epik_Metal_Only>
0

> <s_lp_Force_Field>
OPLS_2005

> <r_lp_Energy>
28.3859

> <b_lp_Chiralities_Consistent>
1

> <s_lp_Variant>
AV-unprocessed.smi:3336-5

> <Gold.Version>
5.8.1

> <Gold.Id.Protein>
6NUR|6NUR_protein|mol2

> <Gold.PLP.Fitness>
35.4222

> <Gold.PLP.PLP>
-27.6964

> <Gold.PLP.part.hbond>
-2.0000

> <Gold.PLP.part.metal>
0.0000

> <Gold.PLP.part.buried>
2.8894

> <Gold.PLP.part.nonpolar>
-27.7499

> <Gold.PLP.part.repulsive>
0.2182

> <Gold.PLP.ligand.clash>
0.0000

> <Gold.PLP.ligand.torsion>
0.5526

> <Gold.PLP.Chemscore.Hbond>
1.8500

> <Gold.PLP.Chemscore.CHOScore>
1.0554

> <Gold.PLP.Chemscore.Metal>
0.0000

> <Gold.Chemscore.Hbonds>
donor molecule, donor type, donor heavy atom, donor atom, acceptor molecule, acceptor atom, score
      L1  H     9    29       P1 10175  1.00
      P1  H  7989  7998       L1    17  0.70
      L1  C     5    26       P1  7921  0.16
      L1  C     5    26       P1 10171  0.84

> <Gold.PLP.Chemscore.Internal.Correction>
0.1149

> <Gold.Rescore>
     Score         DG    S(hbond)    S(metal)    S(lipo)     H(rot)  DE(clash)    DE(int)     intcor
      9.70     -11.59       0.99        0.00      63.24       1.79       0.14       1.75       ----

> <Gold.Chemscore.Fitness>
9.6976

> <Gold.Chemscore.DG>
-11.5939

> <Gold.Chemscore.ZeroCoef>
-5.4800

> <Gold.Chemscore.Hbond>
0.9899

> <Gold.Chemscore.Metal>
0.0000

> <Gold.Chemscore.Lipo>
63.2388

> <Gold.Chemscore.Internal_Hbond>
0.0000

> <Gold.Chemscore.DEClash>
0.1438

> <Gold.Chemscore.DEInternal>
1.7525

> <Gold.Chemscore.Rot>
1.7935

> <Gold.Chemscore.Internal.Correction>
   9.000000E+99

> <Gold.Chemscore.Hbonds>
donor molecule, donor type, donor heavy atom, donor atom, acceptor molecule, acceptor atom, score
      L1  H     9    29       P1 10175  0.99
      P1  H  7989  7998       L1    17  0.03

> <Gold.Chemscore.Hbond.Weighted>
-3.3062

> <Gold.Chemscore.Metal.Weighted>
-0.0000

> <Gold.Chemscore.Lipo.Weighted>
-7.3989

> <Gold.Chemscore.Internal_Hbond.Weighted>
0.0000

> <Gold.Chemscore.DEClash.Weighted>
0.1438

> <Gold.Chemscore.DEInternal.Weighted>
1.7525

> <Gold.Chemscore.Rot.Weighted>
4.5912

> <Gold.Chemscore.Internal.Correction.Weighted>
   9.000000E+99

> <Gold.Protein.RotatedTorsions>
[ 6907 6896 6895 6894 ] final   25.20 input  -60.11 | X-H torsion
[ 7974 7965 7964 7962 ] final -124.01 input  175.53 | X-H torsion
[ 8008 7997 7996 7995 ] final   99.22 input   59.86 | X-H torsion
[ 10167 10162 10161 10158 ] final -110.80 input  -65.29 | X-H torsion
[ 10718 10713 10712 10709 ] final   15.47 input   66.30 | X-H torsion
[ 10763 10752 10751 10750 ] final  165.42 input  -60.55 | X-H torsion
[ 11005 11000 10999 10996 ] final -141.62 input  -57.11 | X-H torsion

> <Gold.Protein.ActiveResidues>
 VAL166  LYS551  ARG553  GLY616  TRP617  ASP618  TYR619  PRO620  LYS621  CYS622 
 ASP623  PHE694  ASN695  SER759  ASP760  ASP761  ALA762  ILE779  LEU786  VAL792 
 PHE793  MET794  SER795  GLU796  ALA797  LYS798  CYS799  TRP800  GLU811  SER814 

> <Gold.Protein.RotatedAtoms>
  151.9689  135.0086  160.0551 H   0  0  0  0  0  0  0  0  0  0  0  0  # atno 6907 bound_to 6896
  152.1801  133.4697  159.4962 H   0  0  0  0  0  0  0  0  0  0  0  0  # atno 6908 bound_to 6896
  150.6916  134.1762  159.4274 H   0  0  0  0  0  0  0  0  0  0  0  0  # atno 6909 bound_to 6896
  145.0126  140.7919  143.4429 H   0  0  0  0  0  0  0  0  0  0  0  0  # atno 7974 bound_to 7965
  156.1083  140.3232  155.8037 H   0  0  0  0  0  0  0  0  0  0  0  0  # atno 8008 bound_to 7997
  155.4718  140.0547  157.2996 H   0  0  0  0  0  0  0  0  0  0  0  0  # atno 8009 bound_to 7997
  154.4742  140.2025  155.9933 H   0  0  0  0  0  0  0  0  0  0  0  0  # atno 8010 bound_to 7997
  140.1405  143.4283  152.1565 H   0  0  0  0  0  0  0  0  0  0  0  0  # atno 10167 bound_to 10162
  157.0540  130.6281  149.5773 H   0  0  0  0  0  0  0  0  0  0  0  0  # atno 10718 bound_to 10713
  154.3237  135.2755  155.2506 H   0  0  0  0  0  0  0  0  0  0  0  0  # atno 10763 bound_to 10752
  154.4848  135.5849  153.6419 H   0  0  0  0  0  0  0  0  0  0  0  0  # atno 10764 bound_to 10752
  152.9874  135.6120  154.3424 H   0  0  0  0  0  0  0  0  0  0  0  0  # atno 10765 bound_to 10752
  140.8306  134.2521  157.4858 H   0  0  0  0  0  0  0  0  0  0  0  0  # atno 11005 bound_to 11000
  145.2002  139.2256  143.5197 LP  0  0  0  0  0  0  0  0  0  0  0  0  # atno 17320 bound_to 7965
  146.3472  140.1818  142.8589 LP  0  0  0  0  0  0  0  0  0  0  0  0  # atno 17321 bound_to 7965
  139.5474  144.7310  151.4539 LP  0  0  0  0  0  0  0  0  0  0  0  0  # atno 17342 bound_to 10162
  140.6763  143.8182  150.7063 LP  0  0  0  0  0  0  0  0  0  0  0  0  # atno 17343 bound_to 10162
  155.9999  130.5075  150.7622 LP  0  0  0  0  0  0  0  0  0  0  0  0  # atno 17370 bound_to 10713
  157.5007  131.0918  151.0317 LP  0  0  0  0  0  0  0  0  0  0  0  0  # atno 17371 bound_to 10713
  139.8705  134.9584  156.4299 LP  0  0  0  0  0  0  0  0  0  0  0  0  # atno 17394 bound_to 11000
  140.9002  133.7785  155.9671 LP  0  0  0  0  0  0  0  0  0  0  0  0  # atno 17395 bound_to 11000

$$$$
