AV-unprocessed.smi:2798|AV-procd|sdf|10786|dock2
  -GOLD-   2272015223D 1   1.00000     0.00000
 Structure written by MMmdl.
 29 31  0  0  0  0  0  0  0  0  1 V2000
  151.5300  137.2370  154.5794 N   0  0  0  0  0  0  0  0  0  0  0  0
  151.2902  138.1527  155.2452 C   0  0  0  0  0  0  0  0  0  0  0  0
  150.9884  139.3027  156.0803 C   0  0  0  0  0  0  0  0  0  0  0  0
  151.2408  139.2410  157.4668 C   0  0  0  0  0  0  0  0  0  0  0  0
  150.9428  140.3659  158.2594 C   0  0  0  0  0  0  0  0  0  0  0  0
  150.4033  141.5181  157.6413 C   0  0  0  0  0  0  0  0  0  0  0  0
  150.0755  142.6902  158.3391 N   0  0  0  0  0  0  0  0  0  0  0  0
  150.9066  143.8862  158.2589 C   0  0  1  0  0  0  0  0  0  0  0  0
  150.4167  145.0519  159.1257 C   0  0  0  0  0  0  0  0  0  0  0  0
  151.6759  145.3929  159.9349 C   0  0  1  0  0  0  0  0  0  0  0  0
  151.9254  144.3625  161.0430 C   0  0  0  0  0  0  0  0  0  0  0  0
  152.3917  143.1509  160.2388 C   0  0  0  0  0  0  0  0  0  0  0  0
  152.3351  143.6826  158.7954 C   0  0  2  0  0  0  0  0  0  0  0  0
  152.6965  145.0357  159.0171 O   0  0  0  0  0  0  0  0  0  0  0  0
  150.1872  141.4714  156.2478 C   0  0  0  0  0  0  0  0  0  0  0  0
  150.4709  140.3969  155.4811 N   0  0  0  0  0  0  0  0  0  0  0  0
  151.6545  138.3513  157.9198 H   0  0  0  0  0  0  0  0  0  0  0  0
  151.1313  140.3257  159.3215 H   0  0  0  0  0  0  0  0  0  0  0  0
  149.1671  142.7678  158.7740 H   0  0  0  0  0  0  0  0  0  0  0  0
  150.9777  144.2063  157.2187 H   0  0  0  0  0  0  0  0  0  0  0  0
  150.1172  145.8909  158.4967 H   0  0  0  0  0  0  0  0  0  0  0  0
  149.5758  144.7970  159.7726 H   0  0  0  0  0  0  0  0  0  0  0  0
  151.7173  146.4275  160.2762 H   0  0  0  0  0  0  0  0  0  0  0  0
  152.7130  144.7002  161.7175 H   0  0  0  0  0  0  0  0  0  0  0  0
  151.0314  144.1613  161.6340 H   0  0  0  0  0  0  0  0  0  0  0  0
  153.4152  142.8897  160.5101 H   0  0  0  0  0  0  0  0  0  0  0  0
  151.7683  142.2706  160.3972 H   0  0  0  0  0  0  0  0  0  0  0  0
  152.9932  143.1540  158.1051 H   0  0  0  0  0  0  0  0  0  0  0  0
  149.7760  142.3246  155.7280 H   0  0  0  0  0  0  0  0  0  0  0  0
  1  2  3  0  0  0  0
  2  3  1  0  0  0  0
  3 16  1  0  0  0  0
  3  4  2  0  0  0  0
  4  5  1  0  0  0  0
  4 17  1  0  0  0  0
  5  6  2  0  0  0  0
  5 18  1  0  0  0  0
  6  7  1  0  0  0  0
  6 15  1  0  0  0  0
  7  8  1  0  0  0  0
  7 19  1  0  0  0  0
  8 13  1  0  0  0  0
  8  9  1  0  0  0  0
  8 20  1  0  0  0  0
  9 10  1  0  0  0  0
  9 21  1  0  0  0  0
  9 22  1  0  0  0  0
 10 14  1  0  0  0  0
 10 11  1  0  0  0  0
 10 23  1  0  0  0  0
 11 12  1  0  0  0  0
 11 24  1  0  0  0  0
 11 25  1  0  0  0  0
 12 13  1  0  0  0  0
 12 26  1  0  0  0  0
 12 27  1  0  0  0  0
 13 14  1  0  0  0  0
 13 28  1  0  0  0  0
 15 16  2  0  0  0  0
 15 29  1  0  0  0  0
M  END
> <s_m_source_file>
AV-unprocessed.smi

> <i_m_source_file_index>
2798

> <i_lp_mmshare_version>
43012

> <i_f3d_flags>
0

> <s_epik_input>
TiNDYzFbY0hdW2NIXWMoW2NIXW4xKVtOSF1bQ0BIXShbQ0gyXVtDQEBIXTIzKVtDQEBIXShPMylbQ0gyXVtDSDJdMg==

> <s_epik_cmdline>
J2VwaWtfcHl0aG9uJywgJy1waCcsICc3LjAnLCAnLXRuJywgJzgnLCAnLW1hJywgJzIwMCcsICctbWV0YWxfYmluZGluZycsICctaW1hZScsICc8aW5maWxlLm1hZT4nLCAnLW9tYWUnLCAnPG91dGZpbGUubWFlPic=

> <r_lp_tautomer_probability>
1

> <r_epik_Ionization_Penalty>
2.201e-07

> <r_epik_Ionization_Penalty_Charging>
0

> <r_epik_Ionization_Penalty_Neutral>
2.201e-07

> <r_epik_State_Penalty>
-0

> <r_epik_Charging_Adjusted_Penalty>
0

> <i_epik_Tot_Q>
0

> <i_epik_Tot_abs_Q>
0

> <r_epik_Metal_State_Penalty>
-0

> <b_epik_Metal_Only>
0

> <s_lp_Force_Field>
OPLS_2005

> <r_lp_Energy>
43.8811

> <b_lp_Chiralities_Consistent>
1

> <s_lp_Variant>
AV-unprocessed.smi:2798-2

> <Gold.Version>
5.8.1

> <Gold.Id.Protein>
6NUR|6NUR_protein|mol2

> <Gold.PLP.Fitness>
42.8775

> <Gold.PLP.PLP>
-36.0568

> <Gold.PLP.part.hbond>
-2.0000

> <Gold.PLP.part.metal>
0.0000

> <Gold.PLP.part.buried>
-3.6615

> <Gold.PLP.part.nonpolar>
-31.9414

> <Gold.PLP.part.repulsive>
0.3203

> <Gold.PLP.ligand.clash>
0.0000

> <Gold.PLP.ligand.torsion>
0.7036

> <Gold.PLP.Chemscore.Hbond>
1.8720

> <Gold.PLP.Chemscore.CHOScore>
0.8677

> <Gold.PLP.Chemscore.Metal>
0.0000

> <Gold.Chemscore.Hbonds>
donor molecule, donor type, donor heavy atom, donor atom, acceptor molecule, acceptor atom, score
      P1  H  7989  7998       L1    16  0.23
      P1  H 10752 10764       L1     1  0.61
      L1  C    15    29       P1  8028  0.94

> <Gold.PLP.Chemscore.Internal.Correction>
0.0090

> <Gold.Rescore>
     Score         DG    S(hbond)    S(metal)    S(lipo)     H(rot)  DE(clash)    DE(int)     intcor
     18.06     -18.73       1.52        0.00      91.79       1.00       0.02       0.66       ----

> <Gold.Chemscore.Fitness>
18.0558

> <Gold.Chemscore.DG>
-18.7322

> <Gold.Chemscore.ZeroCoef>
-5.4800

> <Gold.Chemscore.Hbond>
1.5188

> <Gold.Chemscore.Metal>
0.0000

> <Gold.Chemscore.Lipo>
91.7889

> <Gold.Chemscore.Internal_Hbond>
0.0000

> <Gold.Chemscore.DEClash>
0.0162

> <Gold.Chemscore.DEInternal>
0.6602

> <Gold.Chemscore.Rot>
1.0000

> <Gold.Chemscore.Internal.Correction>
   9.000000E+99

> <Gold.Chemscore.Hbonds>
donor molecule, donor type, donor heavy atom, donor atom, acceptor molecule, acceptor atom, score
      P1  H  7989  7998       L1    16  0.16
      P1  H 10752 10764       L1     1  0.58

> <Gold.Chemscore.Hbond.Weighted>
-5.0729

> <Gold.Chemscore.Metal.Weighted>
-0.0000

> <Gold.Chemscore.Lipo.Weighted>
-10.7393

> <Gold.Chemscore.Internal_Hbond.Weighted>
0.0000

> <Gold.Chemscore.DEClash.Weighted>
0.0162

> <Gold.Chemscore.DEInternal.Weighted>
0.6602

> <Gold.Chemscore.Rot.Weighted>
2.5600

> <Gold.Chemscore.Internal.Correction.Weighted>
   9.000000E+99

> <Gold.Protein.RotatedTorsions>
[ 6907 6896 6895 6894 ] final   53.13 input  -60.11 | X-H torsion
[ 7974 7965 7964 7962 ] final  -11.09 input  175.53 | X-H torsion
[ 8008 7997 7996 7995 ] final  100.77 input   59.86 | X-H torsion
[ 10167 10162 10161 10158 ] final  168.62 input  -65.29 | X-H torsion
[ 10718 10713 10712 10709 ] final -100.18 input   66.30 | X-H torsion
[ 10763 10752 10751 10750 ] final  -89.82 input  -60.55 | X-H torsion
[ 11005 11000 10999 10996 ] final    9.02 input  -57.11 | X-H torsion

> <Gold.Protein.ActiveResidues>
 VAL166  LYS551  ARG553  GLY616  TRP617  ASP618  TYR619  PRO620  LYS621  CYS622 
 ASP623  PHE694  ASN695  SER759  ASP760  ASP761  ALA762  ILE779  LEU786  VAL792 
 PHE793  MET794  SER795  GLU796  ALA797  LYS798  CYS799  TRP800  GLU811  SER814 

> <Gold.Protein.RotatedAtoms>
  152.3305  134.7265  160.0290 H   0  0  0  0  0  0  0  0  0  0  0  0  # atno 6907 bound_to 6896
  151.7683  133.3334  159.3445 H   0  0  0  0  0  0  0  0  0  0  0  0  # atno 6908 bound_to 6896
  150.7420  134.5973  159.6063 H   0  0  0  0  0  0  0  0  0  0  0  0  # atno 6909 bound_to 6896
  146.2199  140.2859  142.8365 H   0  0  0  0  0  0  0  0  0  0  0  0  # atno 7974 bound_to 7965
  156.1235  140.3208  155.8243 H   0  0  0  0  0  0  0  0  0  0  0  0  # atno 8008 bound_to 7997
  155.4461  140.0529  157.3023 H   0  0  0  0  0  0  0  0  0  0  0  0  # atno 8009 bound_to 7997
  154.4845  140.2067  155.9700 H   0  0  0  0  0  0  0  0  0  0  0  0  # atno 8010 bound_to 7997
  139.4972  144.3794  151.9638 H   0  0  0  0  0  0  0  0  0  0  0  0  # atno 10167 bound_to 10162
  156.0155  130.5316  150.6780 H   0  0  0  0  0  0  0  0  0  0  0  0  # atno 10718 bound_to 10713
  154.6592  135.5327  153.7997 H   0  0  0  0  0  0  0  0  0  0  0  0  # atno 10763 bound_to 10752
  153.0432  135.6501  154.0897 H   0  0  0  0  0  0  0  0  0  0  0  0  # atno 10764 bound_to 10752
  154.0807  135.2947  155.3270 H   0  0  0  0  0  0  0  0  0  0  0  0  # atno 10765 bound_to 10752
  140.5304  134.0471  155.7872 H   0  0  0  0  0  0  0  0  0  0  0  0  # atno 11005 bound_to 11000
  144.9162  140.7815  143.5776 LP  0  0  0  0  0  0  0  0  0  0  0  0  # atno 17320 bound_to 7965
  145.2793  139.1924  143.4799 LP  0  0  0  0  0  0  0  0  0  0  0  0  # atno 17321 bound_to 7965
  140.3231  144.3405  150.6005 LP  0  0  0  0  0  0  0  0  0  0  0  0  # atno 17342 bound_to 10162
  140.5707  143.2181  151.7604 LP  0  0  0  0  0  0  0  0  0  0  0  0  # atno 17343 bound_to 10162
  157.4488  131.0870  151.0867 LP  0  0  0  0  0  0  0  0  0  0  0  0  # atno 17370 bound_to 10713
  157.1389  130.6134  149.5550 LP  0  0  0  0  0  0  0  0  0  0  0  0  # atno 17371 bound_to 10713
  141.1284  133.9343  157.2587 LP  0  0  0  0  0  0  0  0  0  0  0  0  # atno 17394 bound_to 11000
  139.9557  135.0166  156.9121 LP  0  0  0  0  0  0  0  0  0  0  0  0  # atno 17395 bound_to 11000

$$$$
