AV-unprocessed.smi:914|AV-procd|sdf|4152|dock4
  -GOLD-   22720 2 53D 1   1.00000     0.00000
 Structure written by MMmdl.
 32 33  0  0  0  0  0  0  0  0  2 V2000
  149.9759  134.5140  155.0518 O   0  0  0  0  0  0  0  0  0  0  0  0
  150.1648  135.7296  155.0493 C   0  0  0  0  0  0  0  0  0  0  0  0
  151.3922  136.2838  154.8256 N   0  5  0  0  0  0  0  0  0  0  0  0
  151.6219  137.6333  154.8162 C   0  0  0  0  0  0  0  0  0  0  0  0
  152.7412  138.1062  154.6182 O   0  0  0  0  0  0  0  0  0  0  0  0
  150.5723  138.4806  155.0360 N   0  0  0  0  0  0  0  0  0  0  0  0
  150.7224  139.9430  155.0620 C   0  0  0  0  0  0  0  0  0  0  0  0
  151.6122  140.3953  156.2303 C   0  0  0  0  0  0  0  0  0  0  0  0
  150.9847  141.4758  156.8971 O   0  0  0  0  0  0  0  0  0  0  0  0
  151.4517  141.6698  158.2193 C   0  0  0  0  0  0  0  0  0  0  0  0
  151.1963  143.1305  158.6075 C   0  0  2  0  0  0  0  0  0  0  0  0
  152.1801  144.1191  157.9815 C   0  0  0  0  0  0  0  0  0  0  0  0
  152.1305  145.2622  158.9679 C   0  0  0  0  0  0  0  0  0  0  0  0
  152.0306  144.5177  160.2958 C   0  0  0  0  0  0  0  0  0  0  0  0
  151.3318  143.3071  160.0159 O   0  0  0  0  0  0  0  0  0  0  0  0
  149.2896  137.9610  155.2779 C   0  0  0  0  0  0  0  0  0  0  0  0
  149.0452  136.6363  155.2938 C   0  0  0  0  0  0  0  0  0  0  0  0
  147.4575  136.0270  155.5990 Cl  0  0  0  0  0  0  0  0  0  0  0  0
  151.1169  140.3243  154.1188 H   0  0  0  0  0  0  0  0  0  0  0  0
  149.7377  140.4016  155.1618 H   0  0  0  0  0  0  0  0  0  0  0  0
  151.7568  139.5727  156.9315 H   0  0  0  0  0  0  0  0  0  0  0  0
  152.5971  140.6871  155.8618 H   0  0  0  0  0  0  0  0  0  0  0  0
  150.9254  140.9996  158.9003 H   0  0  0  0  0  0  0  0  0  0  0  0
  152.5166  141.4418  158.2878 H   0  0  0  0  0  0  0  0  0  0  0  0
  150.1783  143.4154  158.3378 H   0  0  0  0  0  0  0  0  0  0  0  0
  153.1860  143.6977  157.9497 H   0  0  0  0  0  0  0  0  0  0  0  0
  151.9019  144.4120  156.9682 H   0  0  0  0  0  0  0  0  0  0  0  0
  152.9989  145.9188  158.9098 H   0  0  0  0  0  0  0  0  0  0  0  0
  151.2342  145.8613  158.8015 H   0  0  0  0  0  0  0  0  0  0  0  0
  153.0251  144.2637  160.6643 H   0  0  0  0  0  0  0  0  0  0  0  0
  151.5243  145.1032  161.0635 H   0  0  0  0  0  0  0  0  0  0  0  0
  148.5239  138.7022  155.4549 H   0  0  0  0  0  0  0  0  0  0  0  0
  1  2  2  0  0  0  0
  2 17  1  0  0  0  0
  2  3  1  0  0  0  0
  3  4  1  0  0  0  0
  4  5  2  0  0  0  0
  4  6  1  0  0  0  0
  6  7  1  0  0  0  0
  6 16  1  0  0  0  0
  7  8  1  0  0  0  0
  7 19  1  0  0  0  0
  7 20  1  0  0  0  0
  8  9  1  0  0  0  0
  8 21  1  0  0  0  0
  8 22  1  0  0  0  0
  9 10  1  0  0  0  0
 10 11  1  0  0  0  0
 10 23  1  0  0  0  0
 10 24  1  0  0  0  0
 11 15  1  0  0  0  0
 11 12  1  0  0  0  0
 11 25  1  0  0  0  0
 12 13  1  0  0  0  0
 12 26  1  0  0  0  0
 12 27  1  0  0  0  0
 13 14  1  0  0  0  0
 13 28  1  0  0  0  0
 13 29  1  0  0  0  0
 14 15  1  0  0  0  0
 14 30  1  0  0  0  0
 14 31  1  0  0  0  0
 16 17  2  0  0  0  0
 16 32  1  0  0  0  0
 17 18  1  0  0  0  0
M  CHG  1   3  -1
M  END
> <s_m_source_file>
AV-unprocessed.smi

> <i_m_source_file_index>
914

> <i_lp_mmshare_version>
43012

> <i_f3d_flags>
0

> <s_epik_input>
Tz1jMVtuSF1jKD1PKW4oW2NIXWMxQ2wpW0NIMl1bQ0gyXU9bQ0gyXVtDQEBIXTJbQ0gyXVtDSDJdW0NIMl1PMg==

> <s_epik_cmdline>
J2VwaWtfcHl0aG9uJywgJy1waCcsICc3LjAnLCAnLXRuJywgJzgnLCAnLW1hJywgJzIwMCcsICctbWV0YWxfYmluZGluZycsICctaW1hZScsICc8aW5maWxlLm1hZT4nLCAnLW9tYWUnLCAnPG91dGZpbGUubWFlPic=

> <r_epik_Ionization_Penalty>
1.76812

> <r_epik_Ionization_Penalty_Charging>
1.60097e-08

> <r_epik_Ionization_Penalty_Neutral>
1.76812

> <r_epik_State_Penalty>
1.87929

> <r_epik_Charging_Adjusted_Penalty>
1.87929

> <i_epik_Tot_Q>
-1

> <i_epik_Tot_abs_Q>
1

> <r_epik_Metal_State_Penalty>
0.0133872

> <b_epik_Metal_Only>
0

> <s_lp_Force_Field>
OPLS_2005

> <r_lp_Energy>
30.4793

> <b_lp_Chiralities_Consistent>
1

> <s_lp_Variant>
AV-unprocessed.smi:914-3

> <Gold.Version>
5.8.1

> <Gold.Id.Protein>
6NUR|6NUR_protein|mol2

> <Gold.PLP.Fitness>
39.2084

> <Gold.PLP.PLP>
-34.5789

> <Gold.PLP.part.hbond>
-1.9350

> <Gold.PLP.part.metal>
0.0000

> <Gold.PLP.part.buried>
-5.4399

> <Gold.PLP.part.nonpolar>
-28.1382

> <Gold.PLP.part.repulsive>
0.4147

> <Gold.PLP.ligand.clash>
0.0000

> <Gold.PLP.ligand.torsion>
0.7031

> <Gold.PLP.Chemscore.Hbond>
2.0000

> <Gold.PLP.Chemscore.CHOScore>
0.0000

> <Gold.PLP.Chemscore.Metal>
0.0000

> <Gold.Chemscore.Hbonds>
donor molecule, donor type, donor heavy atom, donor atom, acceptor molecule, acceptor atom, score
      P1  H 10752 10763       L1     3  2.00

> <Gold.PLP.Chemscore.Internal.Correction>
0.0357

> <Gold.Rescore>
     Score         DG    S(hbond)    S(metal)    S(lipo)     H(rot)  DE(clash)    DE(int)     intcor
     11.20     -12.09       0.91        0.00      75.91       2.07       0.11       0.78       ----

> <Gold.Chemscore.Fitness>
11.2032

> <Gold.Chemscore.DG>
-12.0938

> <Gold.Chemscore.ZeroCoef>
-5.4800

> <Gold.Chemscore.Hbond>
0.9059

> <Gold.Chemscore.Metal>
0.0000

> <Gold.Chemscore.Lipo>
75.9127

> <Gold.Chemscore.Internal_Hbond>
0.0000

> <Gold.Chemscore.DEClash>
0.1121

> <Gold.Chemscore.DEInternal>
0.7785

> <Gold.Chemscore.Rot>
2.0678

> <Gold.Chemscore.Internal.Correction>
   9.000000E+99

> <Gold.Chemscore.Hbonds>
donor molecule, donor type, donor heavy atom, donor atom, acceptor molecule, acceptor atom, score
      P1  H 10752 10763       L1     3  0.40

> <Gold.Chemscore.Hbond.Weighted>
-3.0256

> <Gold.Chemscore.Metal.Weighted>
-0.0000

> <Gold.Chemscore.Lipo.Weighted>
-8.8818

> <Gold.Chemscore.Internal_Hbond.Weighted>
0.0000

> <Gold.Chemscore.DEClash.Weighted>
0.1121

> <Gold.Chemscore.DEInternal.Weighted>
0.7785

> <Gold.Chemscore.Rot.Weighted>
5.2935

> <Gold.Chemscore.Internal.Correction.Weighted>
   9.000000E+99

> <Gold.Protein.RotatedTorsions>
[ 6907 6896 6895 6894 ] final  -13.40 input  -60.11 | X-H torsion
[ 7974 7965 7964 7962 ] final   52.31 input  175.53 | X-H torsion
[ 8008 7997 7996 7995 ] final   41.88 input   59.86 | X-H torsion
[ 10167 10162 10161 10158 ] final -104.65 input  -65.29 | X-H torsion
[ 10718 10713 10712 10709 ] final   38.16 input   66.30 | X-H torsion
[ 10763 10752 10751 10750 ] final   46.13 input  -60.55 | X-H torsion
[ 11005 11000 10999 10996 ] final  158.43 input  -57.11 | X-H torsion

> <Gold.Protein.ActiveResidues>
 VAL166  LYS551  ARG553  GLY616  TRP617  ASP618  TYR619  PRO620  LYS621  CYS622 
 ASP623  PHE694  ASN695  SER759  ASP760  ASP761  ALA762  ILE779  LEU786  VAL792 
 PHE793  MET794  SER795  GLU796  ALA797  LYS798  CYS799  TRP800  GLU811  SER814 

> <Gold.Protein.RotatedAtoms>
  151.3556  135.0893  159.9417 H   0  0  0  0  0  0  0  0  0  0  0  0  # atno 6907 bound_to 6896
  152.5176  133.9309  159.7590 H   0  0  0  0  0  0  0  0  0  0  0  0  # atno 6908 bound_to 6896
  150.9693  133.6307  159.2770 H   0  0  0  0  0  0  0  0  0  0  0  0  # atno 6909 bound_to 6896
  145.9826  139.4258  143.0122 H   0  0  0  0  0  0  0  0  0  0  0  0  # atno 7974 bound_to 7965
  155.2769  140.3370  155.4261 H   0  0  0  0  0  0  0  0  0  0  0  0  # atno 8008 bound_to 7997
  156.2107  140.1769  156.7741 H   0  0  0  0  0  0  0  0  0  0  0  0  # atno 8009 bound_to 7997
  154.5683  140.0674  156.8910 H   0  0  0  0  0  0  0  0  0  0  0  0  # atno 8010 bound_to 7997
  140.2070  143.3775  152.1082 H   0  0  0  0  0  0  0  0  0  0  0  0  # atno 10167 bound_to 10162
  157.3555  130.7621  149.7010 H   0  0  0  0  0  0  0  0  0  0  0  0  # atno 10718 bound_to 10713
  152.9815  135.6018  154.3549 H   0  0  0  0  0  0  0  0  0  0  0  0  # atno 10763 bound_to 10752
  154.3236  135.2769  155.2509 H   0  0  0  0  0  0  0  0  0  0  0  0  # atno 10764 bound_to 10752
  154.4665  135.5952  153.6347 H   0  0  0  0  0  0  0  0  0  0  0  0  # atno 10765 bound_to 10752
  140.1864  134.8438  157.2862 H   0  0  0  0  0  0  0  0  0  0  0  0  # atno 11005 bound_to 11000
  145.7747  140.9882  143.1131 LP  0  0  0  0  0  0  0  0  0  0  0  0  # atno 17320 bound_to 7965
  144.6866  139.9490  143.7477 LP  0  0  0  0  0  0  0  0  0  0  0  0  # atno 17321 bound_to 7965
  139.5195  144.7020  151.5466 LP  0  0  0  0  0  0  0  0  0  0  0  0  # atno 17342 bound_to 10162
  140.6350  143.9001  150.6639 LP  0  0  0  0  0  0  0  0  0  0  0  0  # atno 17343 bound_to 10162
  155.9728  130.4128  150.4052 LP  0  0  0  0  0  0  0  0  0  0  0  0  # atno 17370 bound_to 10713
  157.2121  131.0463  151.2593 LP  0  0  0  0  0  0  0  0  0  0  0  0  # atno 17371 bound_to 10713
  140.2209  134.4025  155.7566 LP  0  0  0  0  0  0  0  0  0  0  0  0  # atno 17394 bound_to 11000
  141.2225  133.7165  156.8488 LP  0  0  0  0  0  0  0  0  0  0  0  0  # atno 17395 bound_to 11000

$$$$
