AV-unprocessed.smi:600|AV-procd|sdf|3030|dock9
  -GOLD-   2262023543D 1   1.00000     0.00000
 Structure written by MMmdl.
 33 34  0  0  0  0  0  0  0  0  1 V2000
  150.2866  139.6827  155.0900 C   0  0  0  0  0  0  0  0  0  0  0  0
  151.6058  140.1820  155.2163 O   0  0  0  0  0  0  0  0  0  0  0  0
  152.1070  140.0622  156.5374 C   0  0  0  0  0  0  0  0  0  0  0  0
  151.3180  140.9828  157.4824 C   0  0  0  0  0  0  0  0  0  0  0  0
  152.1386  141.4339  158.6121 N   0  0  0  0  0  0  0  0  0  0  0  0
  153.2410  140.6329  158.8581 N   0  0  0  0  0  0  0  0  0  0  0  0
  154.0410  140.9000  159.8386 C   0  0  0  0  0  0  0  0  0  0  0  0
  155.2193  140.0147  160.0926 C   0  0  0  0  0  0  0  0  0  0  0  0
  155.7017  139.3960  159.1373 O   0  0  0  0  0  0  0  0  0  0  0  0
  155.6487  139.9859  161.4199 N   0  0  0  0  0  0  0  0  0  0  0  0
  155.3144  139.0280  162.2321 C   0  0  0  0  0  0  0  0  0  0  0  0
  154.5258  137.9089  161.9841 N   0  0  0  0  0  0  0  0  0  0  0  0
  154.0191  137.1790  163.1317 C   0  0  0  0  0  0  0  0  0  0  0  0
  155.0438  137.3256  164.2530 C   0  0  0  0  0  0  0  0  0  0  0  0
  155.8264  138.9231  163.9680 S   0  0  0  0  0  0  0  0  0  0  0  0
  153.7989  142.0561  160.6951 C   0  0  0  0  0  0  0  0  0  0  0  0
  152.7182  142.8265  160.4428 C   0  0  0  0  0  0  0  0  0  0  0  0
  151.7957  142.5352  159.3454 C   0  0  0  0  0  0  0  0  0  0  0  0
  150.8000  143.2179  159.1067 O   0  0  0  0  0  0  0  0  0  0  0  0
  149.9504  139.7924  154.0591 H   0  0  0  0  0  0  0  0  0  0  0  0
  149.5947  140.2321  155.7296 H   0  0  0  0  0  0  0  0  0  0  0  0
  150.2387  138.6245  155.3497 H   0  0  0  0  0  0  0  0  0  0  0  0
  152.0468  139.0266  156.8763 H   0  0  0  0  0  0  0  0  0  0  0  0
  153.1602  140.3459  156.5505 H   0  0  0  0  0  0  0  0  0  0  0  0
  150.9783  141.8565  156.9238 H   0  0  0  0  0  0  0  0  0  0  0  0
  150.4054  140.4869  157.8170 H   0  0  0  0  0  0  0  0  0  0  0  0
  153.0641  137.6153  163.4262 H   0  0  0  0  0  0  0  0  0  0  0  0
  153.8455  136.1320  162.8826 H   0  0  0  0  0  0  0  0  0  0  0  0
  154.5936  137.2649  165.2439 H   0  0  0  0  0  0  0  0  0  0  0  0
  155.8068  136.5506  164.1750 H   0  0  0  0  0  0  0  0  0  0  0  0
  154.4519  142.3127  161.5159 H   0  0  0  0  0  0  0  0  0  0  0  0
  152.5276  143.6851  161.0695 H   0  0  0  0  0  0  0  0  0  0  0  0
  154.0872  137.7255  161.0927 H   0  0  0  0  0  0  0  0  0  0  0  0
  1  2  1  0  0  0  0
  1 20  1  0  0  0  0
  1 21  1  0  0  0  0
  1 22  1  0  0  0  0
  2  3  1  0  0  0  0
  3  4  1  0  0  0  0
  3 23  1  0  0  0  0
  3 24  1  0  0  0  0
  4  5  1  0  0  0  0
  4 25  1  0  0  0  0
  4 26  1  0  0  0  0
  5 18  1  0  0  0  0
  5  6  1  0  0  0  0
  6  7  2  0  0  0  0
  7  8  1  0  0  0  0
  7 16  1  0  0  0  0
  8  9  2  0  0  0  0
  8 10  1  0  0  0  0
 10 11  2  0  0  0  0
 11 15  1  0  0  0  0
 11 12  1  0  0  0  0
 12 13  1  0  0  0  0
 12 33  1  0  0  0  0
 13 14  1  0  0  0  0
 13 27  1  0  0  0  0
 13 28  1  0  0  0  0
 14 15  1  0  0  0  0
 14 29  1  0  0  0  0
 14 30  1  0  0  0  0
 16 17  2  0  0  0  0
 16 31  1  0  0  0  0
 17 18  1  0  0  0  0
 17 32  1  0  0  0  0
 18 19  2  0  0  0  0
M  END
> <s_m_source_file>
AV-unprocessed.smi

> <i_m_source_file_index>
600

> <i_lp_mmshare_version>
43012

> <i_f3d_flags>
0

> <s_epik_input>
W0NIM11PW0NIMl1bQ0gyXW4xbmMoW2NIXVtjSF1jMT1PKUMoPU8pW05IXUMyPU5bQ0gyXVtDSDJdUzI=

> <s_epik_cmdline>
J2VwaWtfcHl0aG9uJywgJy1waCcsICc3LjAnLCAnLXRuJywgJzgnLCAnLW1hJywgJzIwMCcsICctbWV0YWxfYmluZGluZycsICctaW1hZScsICc8aW5maWxlLm1hZT4nLCAnLW9tYWUnLCAnPG91dGZpbGUubWFlPic=

> <r_epik_Ionization_Penalty>
0.0115713

> <r_epik_Ionization_Penalty_Charging>
8.15052e-11

> <r_epik_Ionization_Penalty_Neutral>
0.0115713

> <r_epik_State_Penalty>
0.0066973

> <r_epik_Charging_Adjusted_Penalty>
0.0066973

> <i_epik_Tot_Q>
0

> <i_epik_Tot_abs_Q>
0

> <r_epik_Metal_State_Penalty>
-0

> <b_epik_Metal_Only>
0

> <s_epik_Chemistry_Notes>
This compound has an imine and may undergo hydrolysis.

> <s_lp_Force_Field>
OPLS_2005

> <r_lp_Energy>
40.8102

> <b_lp_Chiralities_Consistent>
1

> <s_lp_Variant>
AV-unprocessed.smi:600-1

> <Gold.Version>
5.8.1

> <Gold.Id.Protein>
6NUR|6NUR_protein|mol2

> <Gold.PLP.Fitness>
39.9519

> <Gold.PLP.PLP>
-36.9662

> <Gold.PLP.part.hbond>
-2.3256

> <Gold.PLP.part.metal>
0.0000

> <Gold.PLP.part.buried>
-5.7954

> <Gold.PLP.part.nonpolar>
-29.1691

> <Gold.PLP.part.repulsive>
0.1163

> <Gold.PLP.ligand.clash>
0.0000

> <Gold.PLP.ligand.torsion>
1.5173

> <Gold.PLP.Chemscore.Hbond>
2.0000

> <Gold.PLP.Chemscore.CHOScore>
0.0000

> <Gold.PLP.Chemscore.Metal>
0.0000

> <Gold.Chemscore.Hbonds>
donor molecule, donor type, donor heavy atom, donor atom, acceptor molecule, acceptor atom, score
      P1  H  7989  7998       L1     2  0.72
      P1  H  7997  8008       L1     9  1.00

> <Gold.PLP.Chemscore.Internal.Correction>
0.0202

> <Gold.Rescore>
     Score         DG    S(hbond)    S(metal)    S(lipo)     H(rot)  DE(clash)    DE(int)     intcor
     14.69     -16.32       1.95        0.00      70.82       1.54       0.03       1.59       ----

> <Gold.Chemscore.Fitness>
14.6929

> <Gold.Chemscore.DG>
-16.3191

> <Gold.Chemscore.ZeroCoef>
-5.4800

> <Gold.Chemscore.Hbond>
1.9467

> <Gold.Chemscore.Metal>
0.0000

> <Gold.Chemscore.Lipo>
70.8196

> <Gold.Chemscore.Internal_Hbond>
0.0000

> <Gold.Chemscore.DEClash>
0.0314

> <Gold.Chemscore.DEInternal>
1.5949

> <Gold.Chemscore.Rot>
1.5425

> <Gold.Chemscore.Internal.Correction>
   9.000000E+99

> <Gold.Chemscore.Hbonds>
donor molecule, donor type, donor heavy atom, donor atom, acceptor molecule, acceptor atom, score
      P1  H  7989  7998       L1     2  0.09
      P1  H  7997  8008       L1     9  0.86

> <Gold.Chemscore.Hbond.Weighted>
-6.5021

> <Gold.Chemscore.Metal.Weighted>
-0.0000

> <Gold.Chemscore.Lipo.Weighted>
-8.2859

> <Gold.Chemscore.Internal_Hbond.Weighted>
0.0000

> <Gold.Chemscore.DEClash.Weighted>
0.0314

> <Gold.Chemscore.DEInternal.Weighted>
1.5949

> <Gold.Chemscore.Rot.Weighted>
3.9489

> <Gold.Chemscore.Internal.Correction.Weighted>
   9.000000E+99

> <Gold.Protein.RotatedTorsions>
[ 6907 6896 6895 6894 ] final   26.78 input  -60.11 | X-H torsion
[ 7974 7965 7964 7962 ] final -115.58 input  175.53 | X-H torsion
[ 8008 7997 7996 7995 ] final -121.10 input   59.86 | X-H torsion
[ 10167 10162 10161 10158 ] final  -56.37 input  -65.29 | X-H torsion
[ 10718 10713 10712 10709 ] final  -73.51 input   66.30 | X-H torsion
[ 10763 10752 10751 10750 ] final   12.92 input  -60.55 | X-H torsion
[ 11005 11000 10999 10996 ] final  129.55 input  -57.11 | X-H torsion

> <Gold.Protein.ActiveResidues>
 VAL166  LYS551  ARG553  GLY616  TRP617  ASP618  TYR619  PRO620  LYS621  CYS622 
 ASP623  PHE694  ASN695  SER759  ASP760  ASP761  ALA762  ILE779  LEU786  VAL792 
 PHE793  MET794  SER795  GLU796  ALA797  LYS798  CYS799  TRP800  GLU811  SER814 

> <Gold.Protein.RotatedAtoms>
  151.9926  134.9971  160.0561 H   0  0  0  0  0  0  0  0  0  0  0  0  # atno 6907 bound_to 6896
  152.1594  133.4567  159.4862 H   0  0  0  0  0  0  0  0  0  0  0  0  # atno 6908 bound_to 6896
  150.6886  134.2008  159.4364 H   0  0  0  0  0  0  0  0  0  0  0  0  # atno 6909 bound_to 6896
  145.1067  140.8586  143.3894 H   0  0  0  0  0  0  0  0  0  0  0  0  # atno 7974 bound_to 7965
  155.1426  140.0402  157.2802 H   0  0  0  0  0  0  0  0  0  0  0  0  # atno 8008 bound_to 7997
  154.6462  140.2558  155.7239 H   0  0  0  0  0  0  0  0  0  0  0  0  # atno 8009 bound_to 7997
  156.2556  140.2845  156.0876 H   0  0  0  0  0  0  0  0  0  0  0  0  # atno 8010 bound_to 7997
  140.6321  143.2464  151.5214 H   0  0  0  0  0  0  0  0  0  0  0  0  # atno 10167 bound_to 10162
  156.0277  130.4396  150.2754 H   0  0  0  0  0  0  0  0  0  0  0  0  # atno 10718 bound_to 10713
  153.1774  135.6822  153.8525 H   0  0  0  0  0  0  0  0  0  0  0  0  # atno 10763 bound_to 10752
  153.7868  135.3174  155.3374 H   0  0  0  0  0  0  0  0  0  0  0  0  # atno 10764 bound_to 10752
  154.8038  135.4761  154.0434 H   0  0  0  0  0  0  0  0  0  0  0  0  # atno 10765 bound_to 10752
  139.9622  134.9599  156.9164 H   0  0  0  0  0  0  0  0  0  0  0  0  # atno 11005 bound_to 11000
  145.0893  139.2902  143.5743 LP  0  0  0  0  0  0  0  0  0  0  0  0  # atno 17320 bound_to 7965
  146.3528  140.0425  142.8642 LP  0  0  0  0  0  0  0  0  0  0  0  0  # atno 17321 bound_to 7965
  139.5534  144.2337  152.1570 LP  0  0  0  0  0  0  0  0  0  0  0  0  # atno 17342 bound_to 10162
  140.1584  144.5049  150.6647 LP  0  0  0  0  0  0  0  0  0  0  0  0  # atno 17343 bound_to 10162
  157.0857  131.0156  151.3140 LP  0  0  0  0  0  0  0  0  0  0  0  0  # atno 17370 bound_to 10713
  157.4893  130.7812  149.7491 LP  0  0  0  0  0  0  0  0  0  0  0  0  # atno 17371 bound_to 10713
  140.5476  134.0659  155.7359 LP  0  0  0  0  0  0  0  0  0  0  0  0  # atno 17394 bound_to 11000
  141.1299  133.9319  157.2557 LP  0  0  0  0  0  0  0  0  0  0  0  0  # atno 17395 bound_to 11000

$$$$
