AV-unprocessed.smi:249|AV-procd|sdf|1908|dock1
  -GOLD-   2262020593D 1   1.00000     0.00000
 Structure written by MMmdl.
 64 67  0  0  0  0  0  0  0  0  2 V2000
  146.4771  128.5098  151.8866 C   0  0  0  0  0  0  0  0  0  0  0  0
  145.8908  129.9204  152.0606 C   0  0  0  0  0  0  0  0  0  0  0  0
  146.9254  130.9920  152.1450 N   0  3  2  0  0  0  0  0  0  0  0  0
  147.6771  130.9347  153.4318 C   0  0  0  0  0  0  0  0  0  0  0  0
  148.7959  131.9858  153.5001 C   0  0  0  0  0  0  0  0  0  0  0  0
  148.2444  133.4145  153.3136 C   0  0  2  0  0  0  0  0  0  0  0  0
  147.3749  133.8673  154.4126 N   0  0  0  0  0  0  0  0  0  0  0  0
  146.6658  135.1300  154.2337 C   0  0  0  0  0  0  0  0  0  0  0  0
  147.8996  133.7921  155.6559 C   0  0  0  0  0  0  0  0  0  0  0  0
  149.0567  134.4613  155.8817 N   0  0  0  0  0  0  0  0  0  0  0  0
  149.6106  134.4422  157.0978 C   0  0  0  0  0  0  0  0  0  0  0  0
  149.1762  133.8337  158.2035 N   0  0  0  0  0  0  0  0  0  0  0  0
  148.0168  133.1528  157.9741 C   0  0  0  0  0  0  0  0  0  0  0  0
  147.3211  133.0691  156.7363 C   0  0  0  0  0  0  0  0  0  0  0  0
  146.1891  132.2761  156.8788 N   0  0  0  0  0  0  0  0  0  0  0  0
  146.2064  131.9220  158.1349 C   0  0  0  0  0  0  0  0  0  0  0  0
  147.2532  132.4289  158.8724 N   0  0  0  0  0  0  0  0  0  0  0  0
  147.5055  132.2100  160.2849 C   0  0  0  0  0  0  0  0  0  0  0  0
  147.0937  133.3890  161.2116 C   0  0  2  0  0  0  0  0  0  0  0  0
  145.5514  133.5255  161.2001 C   0  0  0  0  0  0  0  0  0  0  0  0
  144.9472  132.6320  162.1128 O   0  0  0  0  0  0  0  0  0  0  0  0
  147.7931  134.7343  160.8453 C   0  0  1  0  0  0  0  0  0  0  0  0
  147.1811  135.4832  159.6702 C   0  0  0  0  0  0  0  0  0  0  0  0
  147.7363  136.8881  159.8520 C   0  0  0  0  0  0  0  0  0  0  0  0
  147.7252  137.0918  161.2555 O   0  0  0  0  0  0  0  0  0  0  0  0
  147.7392  135.8331  161.9227 C   0  0  0  0  0  0  0  0  0  0  0  0
  147.5188  133.4243  151.9558 C   0  0  0  0  0  0  0  0  0  0  0  0
  146.3924  132.3673  151.8707 C   0  0  1  0  0  0  0  0  0  0  0  0
  145.7106  132.4873  150.4918 C   0  0  0  0  0  0  0  0  0  0  0  0
  145.6849  127.7946  151.6643 H   0  0  0  0  0  0  0  0  0  0  0  0
  146.9761  128.1538  152.7873 H   0  0  0  0  0  0  0  0  0  0  0  0
  147.1903  128.4754  151.0625 H   0  0  0  0  0  0  0  0  0  0  0  0
  145.2492  130.0821  151.1975 H   0  0  0  0  0  0  0  0  0  0  0  0
  145.2452  129.9571  152.9391 H   0  0  0  0  0  0  0  0  0  0  0  0
  146.9840  131.0628  154.2643 H   0  0  0  0  0  0  0  0  0  0  0  0
  148.1407  129.9581  153.5590 H   0  0  0  0  0  0  0  0  0  0  0  0
  149.3486  131.8853  154.4345 H   0  0  0  0  0  0  0  0  0  0  0  0
  149.5243  131.7786  152.7149 H   0  0  0  0  0  0  0  0  0  0  0  0
  149.0846  134.1065  153.2511 H   0  0  0  0  0  0  0  0  0  0  0  0
  146.2690  135.5150  155.1748 H   0  0  0  0  0  0  0  0  0  0  0  0
  145.8213  134.9957  153.5580 H   0  0  0  0  0  0  0  0  0  0  0  0
  147.3275  135.8865  153.8105 H   0  0  0  0  0  0  0  0  0  0  0  0
  150.5304  134.9989  157.2019 H   0  0  0  0  0  0  0  0  0  0  0  0
  145.4400  131.2933  158.5647 H   0  0  0  0  0  0  0  0  0  0  0  0
  146.9849  131.3017  160.5908 H   0  0  0  0  0  0  0  0  0  0  0  0
  148.5701  131.9976  160.3850 H   0  0  0  0  0  0  0  0  0  0  0  0
  147.3797  133.1404  162.2346 H   0  0  0  0  0  0  0  0  0  0  0  0
  145.2356  134.5245  161.4967 H   0  0  0  0  0  0  0  0  0  0  0  0
  145.1531  133.3459  160.2010 H   0  0  0  0  0  0  0  0  0  0  0  0
  144.0566  132.4761  161.8372 H   0  0  0  0  0  0  0  0  0  0  0  0
  148.8385  134.5371  160.6022 H   0  0  0  0  0  0  0  0  0  0  0  0
  147.4502  135.0602  158.7019 H   0  0  0  0  0  0  0  0  0  0  0  0
  146.0930  135.4996  159.7501 H   0  0  0  0  0  0  0  0  0  0  0  0
  148.7648  136.9431  159.4928 H   0  0  0  0  0  0  0  0  0  0  0  0
  147.1497  137.6450  159.3311 H   0  0  0  0  0  0  0  0  0  0  0  0
  146.8280  135.7615  162.5173 H   0  0  0  0  0  0  0  0  0  0  0  0
  148.5898  135.7890  162.6012 H   0  0  0  0  0  0  0  0  0  0  0  0
  147.1253  134.4186  151.7434 H   0  0  0  0  0  0  0  0  0  0  0  0
  148.2469  133.2316  151.1662 H   0  0  0  0  0  0  0  0  0  0  0  0
  145.6464  132.5967  152.6334 H   0  0  0  0  0  0  0  0  0  0  0  0
  145.4800  133.5278  150.2609 H   0  0  0  0  0  0  0  0  0  0  0  0
  144.7610  131.9551  150.4490 H   0  0  0  0  0  0  0  0  0  0  0  0
  146.3526  132.1101  149.6952 H   0  0  0  0  0  0  0  0  0  0  0  0
  147.5949  130.8005  151.4134 H   0  0  0  0  0  0  0  0  0  0  0  0
  1  2  1  0  0  0  0
  1 30  1  0  0  0  0
  1 31  1  0  0  0  0
  1 32  1  0  0  0  0
  2  3  1  0  0  0  0
  2 33  1  0  0  0  0
  2 34  1  0  0  0  0
  3 28  1  0  0  0  0
  3  4  1  0  0  0  0
  3 64  1  0  0  0  0
  4  5  1  0  0  0  0
  4 35  1  0  0  0  0
  4 36  1  0  0  0  0
  5  6  1  0  0  0  0
  5 37  1  0  0  0  0
  5 38  1  0  0  0  0
  6  7  1  0  0  0  0
  6 27  1  0  0  0  0
  6 39  1  0  0  0  0
  7  8  1  0  0  0  0
  7  9  1  0  0  0  0
  8 40  1  0  0  0  0
  8 41  1  0  0  0  0
  8 42  1  0  0  0  0
  9 14  1  0  0  0  0
  9 10  2  0  0  0  0
 10 11  1  0  0  0  0
 11 12  2  0  0  0  0
 11 43  1  0  0  0  0
 12 13  1  0  0  0  0
 13 17  1  0  0  0  0
 13 14  2  0  0  0  0
 14 15  1  0  0  0  0
 15 16  2  0  0  0  0
 16 17  1  0  0  0  0
 16 44  1  0  0  0  0
 17 18  1  0  0  0  0
 18 19  1  0  0  0  0
 18 45  1  0  0  0  0
 18 46  1  0  0  0  0
 19 20  1  0  0  0  0
 19 22  1  0  0  0  0
 19 47  1  0  0  0  0
 20 21  1  0  0  0  0
 20 48  1  0  0  0  0
 20 49  1  0  0  0  0
 21 50  1  0  0  0  0
 22 26  1  0  0  0  0
 22 23  1  0  0  0  0
 22 51  1  0  0  0  0
 23 24  1  0  0  0  0
 23 52  1  0  0  0  0
 23 53  1  0  0  0  0
 24 25  1  0  0  0  0
 24 54  1  0  0  0  0
 24 55  1  0  0  0  0
 25 26  1  0  0  0  0
 26 56  1  0  0  0  0
 26 57  1  0  0  0  0
 27 28  1  0  0  0  0
 27 58  1  0  0  0  0
 27 59  1  0  0  0  0
 28 29  1  0  0  0  0
 28 60  1  0  0  0  0
 29 61  1  0  0  0  0
 29 62  1  0  0  0  0
 29 63  1  0  0  0  0
M  CHG  1   3   1
M  END
> <s_m_source_file>
AV-unprocessed.smi

> <i_m_source_file_index>
249

> <i_lp_mmshare_version>
43012

> <i_f3d_flags>
0

> <s_epik_input>
W0NIM11bQ0gyXU4xW0NIMl1bQ0gyXVtDQEhdKFtDSDJdW0NASF0xW0NIM10pTihbQ0gzXSljKG5bY0hdbjIpYyhjMjMpbltjSF1uM1tDSDJdW0NASF0oW0NIMl1bT0hdKVtDQEBIXTRbQ0gyXVtDSDJdT1tDSDJdNA==

> <s_epik_cmdline>
J2VwaWtfcHl0aG9uJywgJy1waCcsICc3LjAnLCAnLXRuJywgJzgnLCAnLW1hJywgJzIwMCcsICctbWV0YWxfYmluZGluZycsICctaW1hZScsICc8aW5maWxlLm1hZT4nLCAnLW9tYWUnLCAnPG91dGZpbGUubWFlPic=

> <r_lp_tautomer_probability>
1

> <r_epik_Ionization_Penalty>
0.00294688

> <r_epik_Ionization_Penalty_Charging>
0.00169971

> <r_epik_Ionization_Penalty_Neutral>
0.00124717

> <r_epik_State_Penalty>
-0

> <r_epik_Charging_Adjusted_Penalty>
0.00169971

> <i_epik_Tot_Q>
1

> <i_epik_Tot_abs_Q>
1

> <r_epik_Metal_State_Penalty>
-0

> <b_epik_Metal_Only>
0

> <s_lp_Force_Field>
OPLS_2005

> <r_lp_Energy>
57.0978

> <b_lp_Chiralities_Consistent>
1

> <s_lp_Variant>
AV-unprocessed.smi:249-11

> <Gold.Version>
5.8.1

> <Gold.Id.Protein>
6NUR|6NUR_protein|mol2

> <Gold.PLP.Fitness>
48.4001

> <Gold.PLP.PLP>
-40.0338

> <Gold.PLP.part.hbond>
-4.4510

> <Gold.PLP.part.metal>
0.0000

> <Gold.PLP.part.buried>
-4.8715

> <Gold.PLP.part.nonpolar>
-30.2702

> <Gold.PLP.part.repulsive>
0.1567

> <Gold.PLP.ligand.clash>
0.0000

> <Gold.PLP.ligand.torsion>
1.2830

> <Gold.PLP.Chemscore.Hbond>
3.4288

> <Gold.PLP.Chemscore.CHOScore>
0.0000

> <Gold.PLP.Chemscore.Metal>
0.0000

> <Gold.Chemscore.Hbonds>
donor molecule, donor type, donor heavy atom, donor atom, acceptor molecule, acceptor atom, score
      L1  H     3    64       P1 10747  1.00
      P1  H  6896  6908       L1    12  0.98
      P1  H  6931  6943       L1    25  1.00
      P1  H  6934  6947       L1    25  0.38

> <Gold.PLP.Chemscore.Internal.Correction>
0.6459

> <Gold.Rescore>
     Score         DG    S(hbond)    S(metal)    S(lipo)     H(rot)  DE(clash)    DE(int)     intcor
     17.28     -19.00       2.67        0.00     102.92       2.90       0.16       1.56       ----

> <Gold.Chemscore.Fitness>
17.2831

> <Gold.Chemscore.DG>
-19.0000

> <Gold.Chemscore.ZeroCoef>
-5.4800

> <Gold.Chemscore.Hbond>
2.6659

> <Gold.Chemscore.Metal>
0.0000

> <Gold.Chemscore.Lipo>
102.9192

> <Gold.Chemscore.Internal_Hbond>
0.0000

> <Gold.Chemscore.DEClash>
0.1555

> <Gold.Chemscore.DEInternal>
1.5614

> <Gold.Chemscore.Rot>
2.9006

> <Gold.Chemscore.Internal.Correction>
   9.000000E+99

> <Gold.Chemscore.Hbonds>
donor molecule, donor type, donor heavy atom, donor atom, acceptor molecule, acceptor atom, score
      L1  H     3    64       P1 10747  1.00
      P1  H  6896  6908       L1    12  0.27
      P1  H  6931  6943       L1    25  0.71
      P1  H  6934  6947       L1    25  0.01

> <Gold.Chemscore.Hbond.Weighted>
-8.9041

> <Gold.Chemscore.Metal.Weighted>
-0.0000

> <Gold.Chemscore.Lipo.Weighted>
-12.0416

> <Gold.Chemscore.Internal_Hbond.Weighted>
0.0000

> <Gold.Chemscore.DEClash.Weighted>
0.1555

> <Gold.Chemscore.DEInternal.Weighted>
1.5614

> <Gold.Chemscore.Rot.Weighted>
7.4256

> <Gold.Chemscore.Internal.Correction.Weighted>
   9.000000E+99

> <Gold.Protein.RotatedTorsions>
[ 6907 6896 6895 6894 ] final  111.54 input  -60.11 | X-H torsion
[ 7974 7965 7964 7962 ] final  -64.53 input  175.53 | X-H torsion
[ 8008 7997 7996 7995 ] final  -53.53 input   59.86 | X-H torsion
[ 10167 10162 10161 10158 ] final   57.31 input  -65.29 | X-H torsion
[ 10718 10713 10712 10709 ] final  114.74 input   66.30 | X-H torsion
[ 10763 10752 10751 10750 ] final   85.35 input  -60.55 | X-H torsion
[ 11005 11000 10999 10996 ] final  -82.51 input  -57.11 | X-H torsion

> <Gold.Protein.ActiveResidues>
 VAL166  LYS551  ARG553  GLY616  TRP617  ASP618  TYR619  PRO620  LYS621  CYS622 
 ASP623  PHE694  ASN695  SER759  ASP760  ASP761  ALA762  ILE779  LEU786  VAL792 
 PHE793  MET794  SER795  GLU796  ALA797  LYS798  CYS799  TRP800  GLU811  SER814 

> <Gold.Protein.RotatedAtoms>
  152.4964  133.8643  159.7265 H   0  0  0  0  0  0  0  0  0  0  0  0  # atno 6907 bound_to 6896
  150.9146  133.6946  159.2853 H   0  0  0  0  0  0  0  0  0  0  0  0  # atno 6908 bound_to 6896
  151.4344  135.1017  159.9704 H   0  0  0  0  0  0  0  0  0  0  0  0  # atno 6909 bound_to 6896
  145.7655  140.8839  143.0407 H   0  0  0  0  0  0  0  0  0  0  0  0  # atno 7974 bound_to 7965
  154.4136  140.1198  156.5168 H   0  0  0  0  0  0  0  0  0  0  0  0  # atno 8008 bound_to 7997
  155.6743  140.3496  155.4811 H   0  0  0  0  0  0  0  0  0  0  0  0  # atno 8009 bound_to 7997
  155.9606  140.1122  157.0889 H   0  0  0  0  0  0  0  0  0  0  0  0  # atno 8010 bound_to 7997
  140.1994  144.4004  150.6535 H   0  0  0  0  0  0  0  0  0  0  0  0  # atno 10167 bound_to 10162
  157.6263  131.1003  150.7230 H   0  0  0  0  0  0  0  0  0  0  0  0  # atno 10718 bound_to 10713
  153.1467  135.4620  154.9577 H   0  0  0  0  0  0  0  0  0  0  0  0  # atno 10763 bound_to 10752
  154.7792  135.3183  154.8029 H   0  0  0  0  0  0  0  0  0  0  0  0  # atno 10764 bound_to 10752
  153.8542  135.6918  153.4843 H   0  0  0  0  0  0  0  0  0  0  0  0  # atno 10765 bound_to 10752
  141.1663  133.7248  156.8583 H   0  0  0  0  0  0  0  0  0  0  0  0  # atno 11005 bound_to 11000
  144.6822  139.9783  143.7483 LP  0  0  0  0  0  0  0  0  0  0  0  0  # atno 17320 bound_to 7965
  146.0221  139.3260  143.0806 LP  0  0  0  0  0  0  0  0  0  0  0  0  # atno 17321 bound_to 7965
  140.6401  143.2202  151.6309 LP  0  0  0  0  0  0  0  0  0  0  0  0  # atno 17342 bound_to 10162
  139.5223  144.3166  152.0947 LP  0  0  0  0  0  0  0  0  0  0  0  0  # atno 17343 bound_to 10162
  156.7577  130.4789  149.5443 LP  0  0  0  0  0  0  0  0  0  0  0  0  # atno 17370 bound_to 10713
  156.1438  130.6262  151.0503 LP  0  0  0  0  0  0  0  0  0  0  0  0  # atno 17371 bound_to 10713
  140.1867  134.8995  157.3012 LP  0  0  0  0  0  0  0  0  0  0  0  0  # atno 17394 bound_to 11000
  140.2335  134.3880  155.7511 LP  0  0  0  0  0  0  0  0  0  0  0  0  # atno 17395 bound_to 11000

$$$$
