AV-unprocessed.smi:598|AV-procd|sdf|3027|dock2
  -GOLD-   2262023533D 1   1.00000     0.00000
 Structure written by MMmdl.
 43 44  0  0  0  0  0  0  0  0  3 V2000
  153.5678  141.1171  160.0187 C   0  0  0  0  0  0  0  0  0  0  0  0
  153.1062  142.2781  159.1226 C   0  0  2  0  0  0  0  0  0  0  0  0
  152.8003  143.5478  159.9426 C   0  0  0  0  0  0  0  0  0  0  0  0
  152.4421  144.7325  159.0315 C   0  0  0  0  0  0  0  0  0  0  0  0
  151.2878  144.3859  158.0794 C   0  0  0  0  0  0  0  0  0  0  0  0
  151.5983  143.1132  157.2637 C   0  0  2  0  0  0  0  0  0  0  0  0
  150.4940  142.7916  156.3658 N   0  0  0  0  0  0  0  0  0  0  0  0
  150.3961  141.7075  155.5784 C   0  0  0  0  0  0  0  0  0  0  0  0
  151.2675  140.8410  155.5232 O   0  0  0  0  0  0  0  0  0  0  0  0
  149.1339  141.5584  154.7103 C   0  0  0  0  0  0  0  0  0  0  0  0
  147.9227  141.1553  155.4495 N   0  0  0  0  0  0  0  0  0  0  0  0
  147.6005  141.9021  156.6000 C   0  0  0  0  0  0  0  0  0  0  0  0
  146.5332  141.6092  157.3684 C   0  0  0  0  0  0  0  0  0  0  0  0
  146.2256  142.3787  158.5538 N   0  3  0  0  0  0  0  0  0  0  0  0
  145.5753  141.8469  159.4479 O   0  0  0  0  0  0  0  0  0  0  0  0
  146.6228  143.5375  158.6312 O   0  5  0  0  0  0  0  0  0  0  0  0
  145.7055  140.4864  156.9721 C   0  0  0  0  0  0  0  0  0  0  0  0
  146.0098  139.7662  155.8747 C   0  0  0  0  0  0  0  0  0  0  0  0
  147.1762  140.0823  155.0442 C   0  0  0  0  0  0  0  0  0  0  0  0
  147.4702  139.4168  154.0515 O   0  0  0  0  0  0  0  0  0  0  0  0
  151.9270  141.9079  158.1835 C   0  0  2  0  0  0  0  0  0  0  0  0
  150.6900  141.3542  158.9315 C   0  0  0  0  0  0  0  0  0  0  0  0
  152.8256  140.8696  160.7777 H   0  0  0  0  0  0  0  0  0  0  0  0
  154.4903  141.3733  160.5404 H   0  0  0  0  0  0  0  0  0  0  0  0
  153.7625  140.2194  159.4314 H   0  0  0  0  0  0  0  0  0  0  0  0
  153.9554  142.5153  158.4793 H   0  0  0  0  0  0  0  0  0  0  0  0
  151.9834  143.3590  160.6398 H   0  0  0  0  0  0  0  0  0  0  0  0
  153.6644  143.8127  160.5528 H   0  0  0  0  0  0  0  0  0  0  0  0
  152.1778  145.6004  159.6361 H   0  0  0  0  0  0  0  0  0  0  0  0
  153.3181  145.0189  158.4484 H   0  0  0  0  0  0  0  0  0  0  0  0
  150.3686  144.2533  158.6507 H   0  0  0  0  0  0  0  0  0  0  0  0
  151.1103  145.2277  157.4091 H   0  0  0  0  0  0  0  0  0  0  0  0
  152.4825  143.3101  156.6541 H   0  0  0  0  0  0  0  0  0  0  0  0
  149.7310  143.4524  156.3450 H   0  0  0  0  0  0  0  0  0  0  0  0
  148.9607  142.5082  154.2023 H   0  0  0  0  0  0  0  0  0  0  0  0
  149.3472  140.8489  153.9089 H   0  0  0  0  0  0  0  0  0  0  0  0
  148.2844  142.7112  156.8136 H   0  0  0  0  0  0  0  0  0  0  0  0
  144.8356  140.2153  157.5520 H   0  0  0  0  0  0  0  0  0  0  0  0
  145.3797  138.9335  155.5980 H   0  0  0  0  0  0  0  0  0  0  0  0
  152.2756  141.1015  157.5360 H   0  0  0  0  0  0  0  0  0  0  0  0
  150.2664  142.0843  159.6202 H   0  0  0  0  0  0  0  0  0  0  0  0
  150.9373  140.4633  159.5076 H   0  0  0  0  0  0  0  0  0  0  0  0
  149.8994  141.0586  158.2416 H   0  0  0  0  0  0  0  0  0  0  0  0
  1  2  1  0  0  0  0
  1 23  1  0  0  0  0
  1 24  1  0  0  0  0
  1 25  1  0  0  0  0
  2 21  1  0  0  0  0
  2  3  1  0  0  0  0
  2 26  1  0  0  0  0
  3  4  1  0  0  0  0
  3 27  1  0  0  0  0
  3 28  1  0  0  0  0
  4  5  1  0  0  0  0
  4 29  1  0  0  0  0
  4 30  1  0  0  0  0
  5  6  1  0  0  0  0
  5 31  1  0  0  0  0
  5 32  1  0  0  0  0
  6  7  1  0  0  0  0
  6 21  1  0  0  0  0
  6 33  1  0  0  0  0
  7  8  1  0  0  0  0
  7 34  1  0  0  0  0
  8  9  2  0  0  0  0
  8 10  1  0  0  0  0
 10 11  1  0  0  0  0
 10 35  1  0  0  0  0
 10 36  1  0  0  0  0
 11 19  1  0  0  0  0
 11 12  1  0  0  0  0
 12 13  2  0  0  0  0
 12 37  1  0  0  0  0
 13 14  1  0  0  0  0
 13 17  1  0  0  0  0
 14 15  2  0  0  0  0
 14 16  1  0  0  0  0
 17 18  2  0  0  0  0
 17 38  1  0  0  0  0
 18 19  1  0  0  0  0
 18 39  1  0  0  0  0
 19 20  2  0  0  0  0
 21 22  1  0  0  0  0
 21 40  1  0  0  0  0
 22 41  1  0  0  0  0
 22 42  1  0  0  0  0
 22 43  1  0  0  0  0
M  CHG  1  14   1
M  CHG  1  16  -1
M  END
> <s_m_source_file>
AV-unprocessed.smi

> <i_m_source_file_index>
598

> <i_lp_mmshare_version>
43012

> <i_f3d_flags>
0

> <s_epik_input>
W0NIM11bQ0BASF0xW0NIMl1bQ0gyXVtDSDJdW0NASF0oW0NASF0xW0NIM10pW05IXUMoPU8pW0NIMl1uMltjSF1jKFtOK10oPU8pW08tXSlbY0hdW2NIXWMyPU8=

> <s_epik_cmdline>
J2VwaWtfcHl0aG9uJywgJy1waCcsICc3LjAnLCAnLXRuJywgJzgnLCAnLW1hJywgJzIwMCcsICctbWV0YWxfYmluZGluZycsICctaW1hZScsICc8aW5maWxlLm1hZT4nLCAnLW9tYWUnLCAnPG91dGZpbGUubWFlPic=

> <r_lp_tautomer_probability>
1

> <r_epik_Ionization_Penalty>
1.91291e-08

> <r_epik_Ionization_Penalty_Charging>
8.21931e-11

> <r_epik_Ionization_Penalty_Neutral>
1.90469e-08

> <r_epik_State_Penalty>
-0

> <r_epik_Charging_Adjusted_Penalty>
8.21931e-11

> <i_epik_Tot_Q>
0

> <i_epik_Tot_abs_Q>
2

> <r_epik_Metal_State_Penalty>
-0

> <b_epik_Metal_Only>
0

> <s_lp_Force_Field>
OPLS_2005

> <r_lp_Energy>
25.0261

> <b_lp_Chiralities_Consistent>
1

> <s_lp_Variant>
AV-unprocessed.smi:598-7

> <Gold.Version>
5.8.1

> <Gold.Id.Protein>
6NUR|6NUR_protein|mol2

> <Gold.PLP.Fitness>
44.9738

> <Gold.PLP.PLP>
-34.9412

> <Gold.PLP.part.hbond>
-3.0000

> <Gold.PLP.part.metal>
0.0000

> <Gold.PLP.part.buried>
-3.5018

> <Gold.PLP.part.nonpolar>
-27.9014

> <Gold.PLP.part.repulsive>
0.7520

> <Gold.PLP.ligand.clash>
0.0000

> <Gold.PLP.ligand.torsion>
0.5634

> <Gold.PLP.Chemscore.Hbond>
2.7137

> <Gold.PLP.Chemscore.CHOScore>
1.0000

> <Gold.PLP.Chemscore.Metal>
0.0000

> <Gold.Chemscore.Hbonds>
donor molecule, donor type, donor heavy atom, donor atom, acceptor molecule, acceptor atom, score
      L1  H     7    34       P1  8028  1.00
      P1  H  6934  6946       L1    15  0.88
      P1  H  7989  7998       L1     9  0.66
      L1  C    12    37       P1  8028  1.00

> <Gold.PLP.Chemscore.Internal.Correction>
0.0183

> <Gold.Rescore>
     Score         DG    S(hbond)    S(metal)    S(lipo)     H(rot)  DE(clash)    DE(int)     intcor
     16.97     -19.99       2.06        0.00      98.83       1.54       0.32       2.70       ----

> <Gold.Chemscore.Fitness>
16.9700

> <Gold.Chemscore.DG>
-19.9938

> <Gold.Chemscore.ZeroCoef>
-5.4800

> <Gold.Chemscore.Hbond>
2.0632

> <Gold.Chemscore.Metal>
0.0000

> <Gold.Chemscore.Lipo>
98.8323

> <Gold.Chemscore.Internal_Hbond>
0.0000

> <Gold.Chemscore.DEClash>
0.3217

> <Gold.Chemscore.DEInternal>
2.7022

> <Gold.Chemscore.Rot>
1.5393

> <Gold.Chemscore.Internal.Correction>
   9.000000E+99

> <Gold.Chemscore.Hbonds>
donor molecule, donor type, donor heavy atom, donor atom, acceptor molecule, acceptor atom, score
      L1  H     7    34       P1  8028  0.97
      P1  H  6934  6946       L1    15  0.55
      P1  H  7989  7998       L1     9  0.14

> <Gold.Chemscore.Hbond.Weighted>
-6.8911

> <Gold.Chemscore.Metal.Weighted>
-0.0000

> <Gold.Chemscore.Lipo.Weighted>
-11.5634

> <Gold.Chemscore.Internal_Hbond.Weighted>
0.0000

> <Gold.Chemscore.DEClash.Weighted>
0.3217

> <Gold.Chemscore.DEInternal.Weighted>
2.7022

> <Gold.Chemscore.Rot.Weighted>
3.9407

> <Gold.Chemscore.Internal.Correction.Weighted>
   9.000000E+99

> <Gold.Protein.RotatedTorsions>
[ 6907 6896 6895 6894 ] final  158.23 input  -60.11 | X-H torsion
[ 7974 7965 7964 7962 ] final   57.23 input  175.53 | X-H torsion
[ 8008 7997 7996 7995 ] final   80.00 input   59.86 | X-H torsion
[ 10167 10162 10161 10158 ] final   45.76 input  -65.29 | X-H torsion
[ 10718 10713 10712 10709 ] final   18.05 input   66.30 | X-H torsion
[ 10763 10752 10751 10750 ] final   44.83 input  -60.55 | X-H torsion
[ 11005 11000 10999 10996 ] final  145.07 input  -57.11 | X-H torsion

> <Gold.Protein.ActiveResidues>
 VAL166  LYS551  ARG553  GLY616  TRP617  ASP618  TYR619  PRO620  LYS621  CYS622 
 ASP623  PHE694  ASN695  SER759  ASP760  ASP761  ALA762  ILE779  LEU786  VAL792 
 PHE793  MET794  SER795  GLU796  ALA797  LYS798  CYS799  TRP800  GLU811  SER814 

> <Gold.Protein.RotatedAtoms>
  152.0034  133.3834  159.4190 H   0  0  0  0  0  0  0  0  0  0  0  0  # atno 6907 bound_to 6896
  150.6907  134.3809  159.5043 H   0  0  0  0  0  0  0  0  0  0  0  0  # atno 6908 bound_to 6896
  152.1559  134.8951  160.0595 H   0  0  0  0  0  0  0  0  0  0  0  0  # atno 6909 bound_to 6896
  145.9312  139.3809  143.0420 H   0  0  0  0  0  0  0  0  0  0  0  0  # atno 7974 bound_to 7965
  155.8775  140.3446  155.5864 H   0  0  0  0  0  0  0  0  0  0  0  0  # atno 8008 bound_to 7997
  155.7758  140.0851  157.2104 H   0  0  0  0  0  0  0  0  0  0  0  0  # atno 8009 bound_to 7997
  154.4022  140.1510  156.2981 H   0  0  0  0  0  0  0  0  0  0  0  0  # atno 8010 bound_to 7997
  140.3209  144.2707  150.6183 H   0  0  0  0  0  0  0  0  0  0  0  0  # atno 10167 bound_to 10162
  157.0909  130.6427  149.5848 H   0  0  0  0  0  0  0  0  0  0  0  0  # atno 10718 bound_to 10713
  152.9834  135.6058  154.3338 H   0  0  0  0  0  0  0  0  0  0  0  0  # atno 10763 bound_to 10752
  154.3040  135.2772  155.2599 H   0  0  0  0  0  0  0  0  0  0  0  0  # atno 10764 bound_to 10752
  154.4839  135.5910  153.6465 H   0  0  0  0  0  0  0  0  0  0  0  0  # atno 10765 bound_to 10752
  140.0683  134.9166  157.1302 H   0  0  0  0  0  0  0  0  0  0  0  0  # atno 11005 bound_to 11000
  145.8423  140.9574  143.0793 LP  0  0  0  0  0  0  0  0  0  0  0  0  # atno 17320 bound_to 7965
  144.6765  140.0300  143.7482 LP  0  0  0  0  0  0  0  0  0  0  0  0  # atno 17321 bound_to 7965
  140.5484  143.2210  151.7968 LP  0  0  0  0  0  0  0  0  0  0  0  0  # atno 17342 bound_to 10162
  139.4874  144.4508  151.9656 LP  0  0  0  0  0  0  0  0  0  0  0  0  # atno 17343 bound_to 10162
  155.9898  130.4947  150.7231 LP  0  0  0  0  0  0  0  0  0  0  0  0  # atno 17370 bound_to 10713
  157.4722  131.0894  151.0630 LP  0  0  0  0  0  0  0  0  0  0  0  0  # atno 17371 bound_to 10713
  140.3666  134.2436  155.7182 LP  0  0  0  0  0  0  0  0  0  0  0  0  # atno 17394 bound_to 11000
  141.2001  133.7994  157.0502 LP  0  0  0  0  0  0  0  0  0  0  0  0  # atno 17395 bound_to 11000

$$$$
