AV-unprocessed.smi:1394|AV-procd|sdf|5667|dock3
  -GOLD-   22720 5293D 1   1.00000     0.00000
 Structure written by MMmdl.
 41 42  0  0  0  0  0  0  0  0  1 V2000
  147.6841  140.8813  153.5573 C   0  0  0  0  0  0  0  0  0  0  0  0
  146.7740  141.4248  154.6721 C   0  0  2  0  0  0  0  0  0  0  0  0
  146.3581  142.8856  154.4010 C   0  0  0  0  0  0  0  0  0  0  0  0
  145.3905  143.4066  155.4759 C   0  0  0  0  0  0  0  0  0  0  0  0
  145.9857  143.2601  156.8842 C   0  0  0  0  0  0  0  0  0  0  0  0
  146.4078  141.8067  157.1633 C   0  0  0  0  0  0  0  0  0  0  0  0
  147.3765  141.2647  156.0928 C   0  0  2  0  0  0  0  0  0  0  0  0
  148.6729  141.9336  156.2206 N   0  0  0  0  0  0  0  0  0  0  0  0
  149.7928  141.4046  156.7369 C   0  0  0  0  0  0  0  0  0  0  0  0
  149.8607  140.2536  157.1700 O   0  0  0  0  0  0  0  0  0  0  0  0
  151.0156  142.3330  156.7513 C   0  0  0  0  0  0  0  0  0  0  0  0
  151.6115  142.5040  158.0873 N   0  0  0  0  0  0  0  0  0  0  0  0
  151.2758  143.6803  158.7808 C   0  0  0  0  0  0  0  0  0  0  0  0
  151.7605  143.9423  160.0019 C   0  0  0  0  0  0  0  0  0  0  0  0
  152.6481  142.9780  160.6043 C   0  0  0  0  0  0  0  0  0  0  0  0
  152.9945  141.8401  159.9591 C   0  0  0  0  0  0  0  0  0  0  0  0
  153.9263  140.8057  160.5862 C   0  0  0  0  0  0  0  0  0  0  0  0
  153.4038  139.5825  160.4912 F   0  0  0  0  0  0  0  0  0  0  0  0
  155.1069  140.8040  159.9665 F   0  0  0  0  0  0  0  0  0  0  0  0
  154.1441  141.0548  161.8786 F   0  0  0  0  0  0  0  0  0  0  0  0
  152.4585  141.5641  158.6103 C   0  0  0  0  0  0  0  0  0  0  0  0
  152.7520  140.5472  157.9795 O   0  0  0  0  0  0  0  0  0  0  0  0
  148.5943  141.4723  153.4540 H   0  0  0  0  0  0  0  0  0  0  0  0
  147.1730  140.8968  152.5945 H   0  0  0  0  0  0  0  0  0  0  0  0
  147.9758  139.8499  153.7574 H   0  0  0  0  0  0  0  0  0  0  0  0
  145.8640  140.8230  154.6462 H   0  0  0  0  0  0  0  0  0  0  0  0
  147.2415  143.5241  154.3638 H   0  0  0  0  0  0  0  0  0  0  0  0
  145.8851  142.9621  153.4214 H   0  0  0  0  0  0  0  0  0  0  0  0
  145.1479  144.4520  155.2826 H   0  0  0  0  0  0  0  0  0  0  0  0
  144.4508  142.8558  155.4183 H   0  0  0  0  0  0  0  0  0  0  0  0
  146.8457  143.9227  156.9887 H   0  0  0  0  0  0  0  0  0  0  0  0
  145.2579  143.5838  157.6288 H   0  0  0  0  0  0  0  0  0  0  0  0
  146.8589  141.7326  158.1535 H   0  0  0  0  0  0  0  0  0  0  0  0
  145.5174  141.1772  157.1901 H   0  0  0  0  0  0  0  0  0  0  0  0
  147.5060  140.1988  156.2892 H   0  0  0  0  0  0  0  0  0  0  0  0
  148.7177  142.8865  155.8897 H   0  0  0  0  0  0  0  0  0  0  0  0
  151.7613  141.9348  156.0612 H   0  0  0  0  0  0  0  0  0  0  0  0
  150.7276  143.2971  156.3287 H   0  0  0  0  0  0  0  0  0  0  0  0
  150.6109  144.3516  158.2566 H   0  0  0  0  0  0  0  0  0  0  0  0
  151.4952  144.8520  160.5201 H   0  0  0  0  0  0  0  0  0  0  0  0
  153.0346  143.1843  161.5911 H   0  0  0  0  0  0  0  0  0  0  0  0
  1  2  1  0  0  0  0
  1 23  1  0  0  0  0
  1 24  1  0  0  0  0
  1 25  1  0  0  0  0
  2  7  1  0  0  0  0
  2  3  1  0  0  0  0
  2 26  1  0  0  0  0
  3  4  1  0  0  0  0
  3 27  1  0  0  0  0
  3 28  1  0  0  0  0
  4  5  1  0  0  0  0
  4 29  1  0  0  0  0
  4 30  1  0  0  0  0
  5  6  1  0  0  0  0
  5 31  1  0  0  0  0
  5 32  1  0  0  0  0
  6  7  1  0  0  0  0
  6 33  1  0  0  0  0
  6 34  1  0  0  0  0
  7  8  1  0  0  0  0
  7 35  1  0  0  0  0
  8  9  1  0  0  0  0
  8 36  1  0  0  0  0
  9 10  2  0  0  0  0
  9 11  1  0  0  0  0
 11 12  1  0  0  0  0
 11 37  1  0  0  0  0
 11 38  1  0  0  0  0
 12 21  1  0  0  0  0
 12 13  1  0  0  0  0
 13 14  2  0  0  0  0
 13 39  1  0  0  0  0
 14 15  1  0  0  0  0
 14 40  1  0  0  0  0
 15 16  2  0  0  0  0
 15 41  1  0  0  0  0
 16 17  1  0  0  0  0
 16 21  1  0  0  0  0
 17 18  1  0  0  0  0
 17 19  1  0  0  0  0
 17 20  1  0  0  0  0
 21 22  2  0  0  0  0
M  END
> <s_m_source_file>
AV-unprocessed.smi

> <i_m_source_file_index>
1394

> <i_lp_mmshare_version>
43012

> <i_f3d_flags>
0

> <s_epik_input>
W0NIM11bQ0BASF0xW0NIMl1bQ0gyXVtDSDJdW0NIMl1bQ0BIXTFbTkhdQyg9TylbQ0gyXW4yW2NIXVtjSF1bY0hdYyhDKEYpKEYpRiljMj1P

> <s_epik_cmdline>
J2VwaWtfcHl0aG9uJywgJy1waCcsICc3LjAnLCAnLXRuJywgJzgnLCAnLW1hJywgJzIwMCcsICctbWV0YWxfYmluZGluZycsICctaW1hZScsICc8aW5maWxlLm1hZT4nLCAnLW9tYWUnLCAnPG91dGZpbGUubWFlPic=

> <r_lp_tautomer_probability>
1

> <r_epik_Ionization_Penalty>
2.11487e-08

> <r_epik_Ionization_Penalty_Charging>
2.10183e-09

> <r_epik_Ionization_Penalty_Neutral>
1.90469e-08

> <r_epik_State_Penalty>
-0

> <r_epik_Charging_Adjusted_Penalty>
2.10183e-09

> <i_epik_Tot_Q>
0

> <i_epik_Tot_abs_Q>
0

> <r_epik_Metal_State_Penalty>
-0

> <b_epik_Metal_Only>
0

> <s_lp_Force_Field>
OPLS_2005

> <r_lp_Energy>
20.183

> <b_lp_Chiralities_Consistent>
1

> <s_lp_Variant>
AV-unprocessed.smi:1394-3

> <Gold.Version>
5.8.1

> <Gold.Id.Protein>
6NUR|6NUR_protein|mol2

> <Gold.PLP.Fitness>
48.4541

> <Gold.PLP.PLP>
-44.2638

> <Gold.PLP.part.hbond>
-2.0000

> <Gold.PLP.part.metal>
0.0000

> <Gold.PLP.part.buried>
-3.3722

> <Gold.PLP.part.nonpolar>
-38.4392

> <Gold.PLP.part.repulsive>
0.0452

> <Gold.PLP.ligand.clash>
0.0134

> <Gold.PLP.ligand.torsion>
0.7835

> <Gold.PLP.Chemscore.Hbond>
1.8000

> <Gold.PLP.Chemscore.CHOScore>
0.0000

> <Gold.PLP.Chemscore.Metal>
0.0000

> <Gold.Chemscore.Hbonds>
donor molecule, donor type, donor heavy atom, donor atom, acceptor molecule, acceptor atom, score
      L1  H     8    36       P1  8028  1.00
      P1  H  7997  8008       L1    22  0.68

> <Gold.PLP.Chemscore.Internal.Correction>
0.3707

> <Gold.Rescore>
     Score         DG    S(hbond)    S(metal)    S(lipo)     H(rot)  DE(clash)    DE(int)     intcor
     14.72     -18.26       1.86        0.00      89.44       1.52       0.13       3.41       ----

> <Gold.Chemscore.Fitness>
14.7235

> <Gold.Chemscore.DG>
-18.2647

> <Gold.Chemscore.ZeroCoef>
-5.4800

> <Gold.Chemscore.Hbond>
1.8629

> <Gold.Chemscore.Metal>
0.0000

> <Gold.Chemscore.Lipo>
89.4394

> <Gold.Chemscore.Internal_Hbond>
0.0000

> <Gold.Chemscore.DEClash>
0.1262

> <Gold.Chemscore.DEInternal>
3.4150

> <Gold.Chemscore.Rot>
1.5242

> <Gold.Chemscore.Internal.Correction>
   9.000000E+99

> <Gold.Chemscore.Hbonds>
donor molecule, donor type, donor heavy atom, donor atom, acceptor molecule, acceptor atom, score
      L1  H     8    36       P1  8028  1.00
      P1  H  7997  8008       L1    22  0.67

> <Gold.Chemscore.Hbond.Weighted>
-6.2221

> <Gold.Chemscore.Metal.Weighted>
-0.0000

> <Gold.Chemscore.Lipo.Weighted>
-10.4644

> <Gold.Chemscore.Internal_Hbond.Weighted>
0.0000

> <Gold.Chemscore.DEClash.Weighted>
0.1262

> <Gold.Chemscore.DEInternal.Weighted>
3.4150

> <Gold.Chemscore.Rot.Weighted>
3.9019

> <Gold.Chemscore.Internal.Correction.Weighted>
   9.000000E+99

> <Gold.Protein.RotatedTorsions>
[ 6907 6896 6895 6894 ] final  -41.30 input  -60.11 | X-H torsion
[ 7974 7965 7964 7962 ] final   65.36 input  175.53 | X-H torsion
[ 8008 7997 7996 7995 ] final  -73.13 input   59.86 | X-H torsion
[ 10167 10162 10161 10158 ] final   79.17 input  -65.29 | X-H torsion
[ 10718 10713 10712 10709 ] final  -59.95 input   66.30 | X-H torsion
[ 10763 10752 10751 10750 ] final  -51.77 input  -60.55 | X-H torsion
[ 11005 11000 10999 10996 ] final -113.08 input  -57.11 | X-H torsion

> <Gold.Protein.ActiveResidues>
 VAL166  LYS551  ARG553  GLY616  TRP617  ASP618  TYR619  PRO620  LYS621  CYS622 
 ASP623  PHE694  ASN695  SER759  ASP760  ASP761  ALA762  ILE779  LEU786  VAL792 
 PHE793  MET794  SER795  GLU796  ALA797  LYS798  CYS799  TRP800  GLU811  SER814 

> <Gold.Protein.RotatedAtoms>
  150.9683  134.9060  159.7772 H   0  0  0  0  0  0  0  0  0  0  0  0  # atno 6907 bound_to 6896
  152.5181  134.3576  159.9283 H   0  0  0  0  0  0  0  0  0  0  0  0  # atno 6908 bound_to 6896
  151.3586  133.3857  159.2722 H   0  0  0  0  0  0  0  0  0  0  0  0  # atno 6909 bound_to 6896
  145.8394  139.3186  143.0940 H   0  0  0  0  0  0  0  0  0  0  0  0  # atno 7974 bound_to 7965
  154.5222  140.0784  156.8193 H   0  0  0  0  0  0  0  0  0  0  0  0  # atno 8008 bound_to 7997
  155.3552  140.3415  155.4221 H   0  0  0  0  0  0  0  0  0  0  0  0  # atno 8009 bound_to 7997
  156.1693  140.1614  156.8462 H   0  0  0  0  0  0  0  0  0  0  0  0  # atno 8010 bound_to 7997
  139.9631  144.5947  150.8053 H   0  0  0  0  0  0  0  0  0  0  0  0  # atno 10167 bound_to 10162
  156.1025  130.4184  150.0786 H   0  0  0  0  0  0  0  0  0  0  0  0  # atno 10718 bound_to 10713
  154.1319  135.6518  153.4924 H   0  0  0  0  0  0  0  0  0  0  0  0  # atno 10763 bound_to 10752
  153.0192  135.5295  154.6992 H   0  0  0  0  0  0  0  0  0  0  0  0  # atno 10764 bound_to 10752
  154.6229  135.2967  155.0276 H   0  0  0  0  0  0  0  0  0  0  0  0  # atno 10765 bound_to 10752
  141.0636  133.9495  157.2621 H   0  0  0  0  0  0  0  0  0  0  0  0  # atno 11005 bound_to 11000
  145.9482  140.8929  143.0273 LP  0  0  0  0  0  0  0  0  0  0  0  0  # atno 17320 bound_to 7965
  144.6734  140.1643  143.7420 LP  0  0  0  0  0  0  0  0  0  0  0  0  # atno 17321 bound_to 7965
  140.7546  143.3031  151.3030 LP  0  0  0  0  0  0  0  0  0  0  0  0  # atno 17342 bound_to 10162
  139.6538  144.0313  152.2645 LP  0  0  0  0  0  0  0  0  0  0  0  0  # atno 17343 bound_to 10162
  156.8770  130.9543  151.3603 LP  0  0  0  0  0  0  0  0  0  0  0  0  # atno 17370 bound_to 10713
  157.6197  130.8646  149.9088 LP  0  0  0  0  0  0  0  0  0  0  0  0  # atno 17371 bound_to 10713
  139.9455  135.0184  156.8839 LP  0  0  0  0  0  0  0  0  0  0  0  0  # atno 17394 bound_to 11000
  140.5819  134.0344  155.7467 LP  0  0  0  0  0  0  0  0  0  0  0  0  # atno 17395 bound_to 11000

$$$$
