#       Name:                AV-unprocessed.smi:2243
#       Creating user name   scv26
#       Creation time:       Fri Mar 27 12:27:34 2020


#       File generated by GOLD software.
#

@<TRIPOS>MOLECULE
AV-unprocessed.smi:2243
    41    42     1
SMALL
NO_CHARGES


@<TRIPOS>ATOM
      1 ****        -1.3652  -1.2529   2.2305 C.3            1 S1                 0.0000
      2 ****        -0.9726  -0.4772   0.9614 C.3            1 S1                 0.0000
      3 ****         0.4829  -0.3214   0.9611 N.am           1 S1                 0.0000
      4 ****         1.1643   0.8352   0.9523 C.2            1 S1                 0.0000
      5 ****         0.5898   1.9285   0.9402 O.2            1 S1                 0.0000
      6 ****         2.5280   0.5778   0.9510 N.2            1 S1                 0.0000
      7 ****         3.3776   1.5590   0.9269 C.2            1 S1                 0.0000
      8 ****         3.2305   2.9434   0.9023 N.pl3          1 S1                 0.0000
      9 ****         4.4766   3.5046   0.8830 C.2            1 S1                 0.0000
     10 ****         5.3712   2.5212   0.8944 C.2            1 S1                 0.0000
     11 ****         4.7288   1.3198   0.9218 O.3            1 S1                 0.0000
     12 ****        -1.4447  -1.1622  -0.3488 C.3            1 S1                 0.0000
     13 ****        -0.9818  -0.4071  -1.6135 C.3            1 S1                 0.0000
     14 ****        -1.5255  -1.0678  -2.8901 C.3            1 S1                 0.0000
     15 ****        -2.9452  -1.1309  -2.8384 O.3            1 S1                 0.0000
     16 ****        -3.4183  -1.9271  -1.7595 C.3            1 S1                 0.0000
     17 ****        -2.9777  -1.3160  -0.4193 C.3            1 S1                 0.0000
     18 ****        -2.4456  -1.2870   2.3662 H              1 S1                 0.0000
     19 ****        -0.9508  -0.7794   3.1213 H              1 S1                 0.0000
     20 ****        -0.9973  -2.2790   2.1992 H              1 S1                 0.0000
     21 ****        -1.4509   0.5018   1.0199 H              1 S1                 0.0000
     22 ****         1.0229  -1.1746   0.9669 H              1 S1                 0.0000
     23 ****         2.3753   3.4809   0.8998 H              1 S1                 0.0000
     24 ****         4.5933   4.5781   0.8627 H              1 S1                 0.0000
     25 ****         6.4511   2.5119   0.8866 H              1 S1                 0.0000
     26 ****        -1.0075  -2.1616  -0.3823 H              1 S1                 0.0000
     27 ****        -1.3213   0.6286  -1.5690 H              1 S1                 0.0000
     28 ****         0.1063  -0.3747  -1.6706 H              1 S1                 0.0000
     29 ****        -1.2315  -0.4880  -3.7652 H              1 S1                 0.0000
     30 ****        -1.1095  -2.0685  -3.0177 H              1 S1                 0.0000
     31 ****        -4.5063  -1.9729  -1.8089 H              1 S1                 0.0000
     32 ****        -3.0527  -2.9503  -1.8598 H              1 S1                 0.0000
     33 ****        -3.3409  -1.9500   0.3889 H              1 S1                 0.0000
     34 ****        -3.4534  -0.3428  -0.2921 H              1 S1                 0.0000
     35 ****        -0.4094   1.9683   0.9367 LP             1 S1                 0.0000
     36 ****         1.1239   2.7739   0.9338 LP             1 S1                 0.0000
     37 ****         2.8571  -0.3663   0.9686 LP             1 S1                 0.0000
     38 ****         4.9753   0.7851   0.1135 LP             1 S1                 0.0000
     39 ****         4.9870   0.8161   1.7461 LP             1 S1                 0.0000
     40 ****        -3.2798  -1.5219  -3.6958 LP             1 S1                 0.0000
     41 ****        -3.3034  -0.2032  -2.7330 LP             1 S1                 0.0000
@<TRIPOS>BOND
    1    1    2 1     
    2    1   18 1     
    3    1   19 1     
    4    1   20 1     
    5    2    3 1     
    6    2   12 1     
    7    2   21 1     
    8    3   22 1     
    9    3    4 am    
   10    4    6 1     
   11    4    5 2     
   12    6    7 2     
   13    7   11 1     
   14    7    8 1     
   15    8   23 1     
   16    8    9 1     
   17    9   24 1     
   18    9   10 2     
   19   10   25 1     
   20   10   11 1     
   21   12   17 1     
   22   12   13 1     
   23   12   26 1     
   24   13   14 1     
   25   13   27 1     
   26   13   28 1     
   27   14   15 1     
   28   14   29 1     
   29   14   30 1     
   30   15   16 1     
   31   16   17 1     
   32   16   31 1     
   33   16   32 1     
   34   17   33 1     
   35   17   34 1     
   36    5   35 1     
   37    5   36 1     
   38    6   37 1     
   39   11   38 1     
   40   11   39 1     
   41   15   40 1     
   42   15   41 1     
@<TRIPOS>SUBSTRUCTURE
      1 S1             1
@<TRIPOS>SET
LONE_PAIRS      STATIC     ATOMS    <user>   **** ""
7 35 36 37 38 39 40 41
DONOR_HYDROGENS      STATIC     ATOMS    <user>   **** ""
2 22 23
ATOM$BLUE        STATIC     ATOMS    COLORGROUP SYSTEM
7 35 36 37 38 39 40 41
ATOM$RED        STATIC     ATOMS    COLORGROUP SYSTEM
2 22 23
