AV-unprocessed.smi:2482|AV-procd|sdf|9778|dock10
  -GOLD-   2272013423D 1   1.00000     0.00000
 Structure written by MMmdl.
 35 36  0  0  0  0  0  0  0  0  2 V2000
  152.3002  144.1428  161.2955 C   0  0  0  0  0  0  0  0  0  0  0  0
  152.4437  142.8990  160.4383 C   0  0  0  0  0  0  0  0  0  0  0  0
  153.3307  141.9819  160.8819 N   0  0  0  0  0  0  0  0  0  0  0  0
  153.5010  140.8592  160.1543 C   0  0  0  0  0  0  0  0  0  0  0  0
  152.7988  140.5940  158.9630 C   0  0  0  0  0  0  0  0  0  0  0  0
  151.8569  141.5457  158.5036 C   0  0  0  0  0  0  0  0  0  0  0  0
  151.1079  141.3924  157.3043 N   0  0  0  0  0  0  0  0  0  0  0  0
  151.3408  140.5809  156.2555 C   0  0  0  0  0  0  0  0  0  0  0  0
  152.3016  139.8164  156.1685 O   0  0  0  0  0  0  0  0  0  0  0  0
  150.3126  140.6517  155.1155 C   0  0  1  0  0  0  0  0  0  0  0  0
  149.5662  139.3144  154.8985 C   0  0  0  0  0  0  0  0  0  0  0  0
  148.5372  139.4558  153.8427 N   0  3  1  0  0  0  0  0  0  0  0  0
  147.8212  138.1910  153.5717 C   0  0  0  0  0  0  0  0  0  0  0  0
  147.6202  140.5777  154.1437 C   0  0  0  0  0  0  0  0  0  0  0  0
  148.4195  141.8699  154.3721 C   0  0  0  0  0  0  0  0  0  0  0  0
  149.3587  141.6686  155.4208 O   0  0  0  0  0  0  0  0  0  0  0  0
  151.6868  142.7322  159.2548 C   0  0  0  0  0  0  0  0  0  0  0  0
  150.5699  143.9526  158.7403 Cl  0  0  0  0  0  0  0  0  0  0  0  0
  151.2731  144.2439  161.6466 H   0  0  0  0  0  0  0  0  0  0  0  0
  152.5586  145.0325  160.7207 H   0  0  0  0  0  0  0  0  0  0  0  0
  152.9521  144.1052  162.1695 H   0  0  0  0  0  0  0  0  0  0  0  0
  154.2257  140.1519  160.5293 H   0  0  0  0  0  0  0  0  0  0  0  0
  153.0065  139.6816  158.4263 H   0  0  0  0  0  0  0  0  0  0  0  0
  150.2384  141.9056  157.2754 H   0  0  0  0  0  0  0  0  0  0  0  0
  150.8515  140.9262  154.2070 H   0  0  0  0  0  0  0  0  0  0  0  0
  150.2688  138.5325  154.6060 H   0  0  0  0  0  0  0  0  0  0  0  0
  149.0909  138.9892  155.8261 H   0  0  0  0  0  0  0  0  0  0  0  0
  147.2686  137.8568  154.4508 H   0  0  0  0  0  0  0  0  0  0  0  0
  148.5230  137.4054  153.2898 H   0  0  0  0  0  0  0  0  0  0  0  0
  147.1149  138.3170  152.7505 H   0  0  0  0  0  0  0  0  0  0  0  0
  146.9212  140.7145  153.3178 H   0  0  0  0  0  0  0  0  0  0  0  0
  147.0289  140.3421  155.0301 H   0  0  0  0  0  0  0  0  0  0  0  0
  148.9337  142.1782  153.4605 H   0  0  0  0  0  0  0  0  0  0  0  0
  147.7487  142.6829  154.6500 H   0  0  0  0  0  0  0  0  0  0  0  0
  149.0247  139.7001  152.9922 H   0  0  0  0  0  0  0  0  0  0  0  0
  1  2  1  0  0  0  0
  1 19  1  0  0  0  0
  1 20  1  0  0  0  0
  1 21  1  0  0  0  0
  2 17  1  0  0  0  0
  2  3  2  0  0  0  0
  3  4  1  0  0  0  0
  4  5  2  0  0  0  0
  4 22  1  0  0  0  0
  5  6  1  0  0  0  0
  5 23  1  0  0  0  0
  6  7  1  0  0  0  0
  6 17  2  0  0  0  0
  7  8  1  0  0  0  0
  7 24  1  0  0  0  0
  8  9  2  0  0  0  0
  8 10  1  0  0  0  0
 10 16  1  0  0  0  0
 10 11  1  0  0  0  0
 10 25  1  0  0  0  0
 11 12  1  0  0  0  0
 11 26  1  0  0  0  0
 11 27  1  0  0  0  0
 12 13  1  0  0  0  0
 12 14  1  0  0  0  0
 12 35  1  0  0  0  0
 13 28  1  0  0  0  0
 13 29  1  0  0  0  0
 13 30  1  0  0  0  0
 14 15  1  0  0  0  0
 14 31  1  0  0  0  0
 14 32  1  0  0  0  0
 15 16  1  0  0  0  0
 15 33  1  0  0  0  0
 15 34  1  0  0  0  0
 17 18  1  0  0  0  0
M  CHG  1  12   1
M  END
> <s_m_source_file>
AV-unprocessed.smi

> <i_m_source_file_index>
2482

> <i_lp_mmshare_version>
43012

> <i_f3d_flags>
0

> <s_epik_input>
W0NIM11jMW5bY0hdW2NIXWMoYzFDbClbTkhdQyg9TylbQ0BASF0yW0NIMl1OKFtDSDNdKVtDSDJdW0NIMl1PMg==

> <s_epik_cmdline>
J2VwaWtfcHl0aG9uJywgJy1waCcsICc3LjAnLCAnLXRuJywgJzgnLCAnLW1hJywgJzIwMCcsICctbWV0YWxfYmluZGluZycsICctaW1hZScsICc8aW5maWxlLm1hZT4nLCAnLW9tYWUnLCAnPG91dGZpbGUubWFlPic=

> <r_epik_Ionization_Penalty>
0.314226

> <r_epik_Ionization_Penalty_Charging>
0.314023

> <r_epik_Ionization_Penalty_Neutral>
0.00020299

> <r_epik_State_Penalty>
0.308208

> <r_epik_Charging_Adjusted_Penalty>
0.62223

> <i_epik_Tot_Q>
1

> <i_epik_Tot_abs_Q>
1

> <r_epik_Metal_State_Penalty>
0.314444

> <b_epik_Metal_Only>
0

> <s_lp_Force_Field>
OPLS_2005

> <r_lp_Energy>
22.3096

> <b_lp_Chiralities_Consistent>
1

> <s_lp_Variant>
AV-unprocessed.smi:2482-4

> <Gold.Version>
5.8.1

> <Gold.Id.Protein>
6NUR|6NUR_protein|mol2

> <Gold.PLP.Fitness>
37.5364

> <Gold.PLP.PLP>
-31.7424

> <Gold.PLP.part.hbond>
-2.0000

> <Gold.PLP.part.metal>
0.0000

> <Gold.PLP.part.buried>
-0.0241

> <Gold.PLP.part.nonpolar>
-29.5316

> <Gold.PLP.part.repulsive>
0.3227

> <Gold.PLP.ligand.clash>
0.0000

> <Gold.PLP.ligand.torsion>
0.1037

> <Gold.PLP.Chemscore.Hbond>
2.0000

> <Gold.PLP.Chemscore.CHOScore>
0.0000

> <Gold.PLP.Chemscore.Metal>
0.0000

> <Gold.Chemscore.Hbonds>
donor molecule, donor type, donor heavy atom, donor atom, acceptor molecule, acceptor atom, score
      L1  H    12    35       P1  7957  1.00
      P1  H  7997  8009       L1     9  0.93

> <Gold.PLP.Chemscore.Internal.Correction>
0.0014

> <Gold.Rescore>
     Score         DG    S(hbond)    S(metal)    S(lipo)     H(rot)  DE(clash)    DE(int)     intcor
     18.05     -19.99       1.75        0.00      95.96       1.00       0.39       1.54       ----

> <Gold.Chemscore.Fitness>
18.0512

> <Gold.Chemscore.DG>
-19.9904

> <Gold.Chemscore.ZeroCoef>
-5.4800

> <Gold.Chemscore.Hbond>
1.7496

> <Gold.Chemscore.Metal>
0.0000

> <Gold.Chemscore.Lipo>
95.9554

> <Gold.Chemscore.Internal_Hbond>
0.0000

> <Gold.Chemscore.DEClash>
0.3944

> <Gold.Chemscore.DEInternal>
1.5448

> <Gold.Chemscore.Rot>
1.0000

> <Gold.Chemscore.Internal.Correction>
   9.000000E+99

> <Gold.Chemscore.Hbonds>
donor molecule, donor type, donor heavy atom, donor atom, acceptor molecule, acceptor atom, score
      L1  H    12    35       P1  7957  0.99
      P1  H  7997  8009       L1     9  0.89

> <Gold.Chemscore.Hbond.Weighted>
-5.8436

> <Gold.Chemscore.Metal.Weighted>
-0.0000

> <Gold.Chemscore.Lipo.Weighted>
-11.2268

> <Gold.Chemscore.Internal_Hbond.Weighted>
0.0000

> <Gold.Chemscore.DEClash.Weighted>
0.3944

> <Gold.Chemscore.DEInternal.Weighted>
1.5448

> <Gold.Chemscore.Rot.Weighted>
2.5600

> <Gold.Chemscore.Internal.Correction.Weighted>
   9.000000E+99

> <Gold.Protein.RotatedTorsions>
[ 6907 6896 6895 6894 ] final -156.20 input  -60.11 | X-H torsion
[ 7974 7965 7964 7962 ] final  130.84 input  175.53 | X-H torsion
[ 8008 7997 7996 7995 ] final -156.51 input   59.86 | X-H torsion
[ 10167 10162 10161 10158 ] final -178.16 input  -65.29 | X-H torsion
[ 10718 10713 10712 10709 ] final  -96.78 input   66.30 | X-H torsion
[ 10763 10752 10751 10750 ] final   64.44 input  -60.55 | X-H torsion
[ 11005 11000 10999 10996 ] final  -57.30 input  -57.11 | X-H torsion

> <Gold.Protein.ActiveResidues>
 VAL166  LYS551  ARG553  GLY616  TRP617  ASP618  TYR619  PRO620  LYS621  CYS622 
 ASP623  PHE694  ASN695  SER759  ASP760  ASP761  ALA762  ILE779  LEU786  VAL792 
 PHE793  MET794  SER795  GLU796  ALA797  LYS798  CYS799  TRP800  GLU811  SER814 

> <Gold.Protein.RotatedAtoms>
  151.2841  133.4196  159.2628 H   0  0  0  0  0  0  0  0  0  0  0  0  # atno 6907 bound_to 6896
  151.0335  134.9557  159.8134 H   0  0  0  0  0  0  0  0  0  0  0  0  # atno 6908 bound_to 6896
  152.5350  134.2801  159.9056 H   0  0  0  0  0  0  0  0  0  0  0  0  # atno 6909 bound_to 6896
  145.0136  139.4197  143.5232 H   0  0  0  0  0  0  0  0  0  0  0  0  # atno 7974 bound_to 7965
  155.7183  140.0787  157.2342 H   0  0  0  0  0  0  0  0  0  0  0  0  # atno 8008 bound_to 7997
  154.4049  140.1617  156.2427 H   0  0  0  0  0  0  0  0  0  0  0  0  # atno 8009 bound_to 7997
  155.9220  140.3397  155.6183 H   0  0  0  0  0  0  0  0  0  0  0  0  # atno 8010 bound_to 7997
  139.5446  144.2271  152.0962 H   0  0  0  0  0  0  0  0  0  0  0  0  # atno 10167 bound_to 10162
  156.0069  130.5166  150.6277 H   0  0  0  0  0  0  0  0  0  0  0  0  # atno 10718 bound_to 10713
  153.0056  135.5393  154.6510 H   0  0  0  0  0  0  0  0  0  0  0  0  # atno 10763 bound_to 10752
  154.5742  135.2844  155.0799 H   0  0  0  0  0  0  0  0  0  0  0  0  # atno 10764 bound_to 10752
  154.1953  135.6493  153.5124 H   0  0  0  0  0  0  0  0  0  0  0  0  # atno 10765 bound_to 10752
  141.1159  133.6610  156.4749 H   0  0  0  0  0  0  0  0  0  0  0  0  # atno 11005 bound_to 11000
  146.3474  139.9595  142.8719 LP  0  0  0  0  0  0  0  0  0  0  0  0  # atno 17320 bound_to 7965
  145.1989  140.9845  143.4167 LP  0  0  0  0  0  0  0  0  0  0  0  0  # atno 17321 bound_to 7965
  140.1756  144.4894  150.6556 LP  0  0  0  0  0  0  0  0  0  0  0  0  # atno 17342 bound_to 10162
  140.6689  143.2278  151.5675 LP  0  0  0  0  0  0  0  0  0  0  0  0  # atno 17343 bound_to 10162
  157.4081  131.0819  151.1247 LP  0  0  0  0  0  0  0  0  0  0  0  0  # atno 17370 bound_to 10713
  157.1887  130.6342  149.5697 LP  0  0  0  0  0  0  0  0  0  0  0  0  # atno 17371 bound_to 10713
  140.4648  134.6808  157.5102 LP  0  0  0  0  0  0  0  0  0  0  0  0  # atno 17394 bound_to 11000
  140.0080  134.6733  155.9424 LP  0  0  0  0  0  0  0  0  0  0  0  0  # atno 17395 bound_to 11000

$$$$
