AV-unprocessed.smi:702|AV-procd|sdf|3425|dock8
  -GOLD-   22720 0413D 1   1.00000     0.00000
 Structure written by MMmdl.
 50 52  0  0  0  0  0  0  0  0  4 V2000
  157.1544  140.5426  159.5484 C   0  0  0  0  0  0  0  0  0  0  0  0
  156.5307  139.9455  160.8270 C   0  0  1  0  0  0  0  0  0  0  0  0
  155.2149  140.5681  161.0144 N   0  5  0  0  0  0  0  0  0  0  0  0
  154.3021  140.7860  160.0291 C   0  0  0  0  0  0  0  0  0  0  0  0
  154.0332  140.0481  159.0751 O   0  0  0  0  0  0  0  0  0  0  0  0
  153.6511  141.9513  160.1923 N   0  0  0  0  0  0  0  0  0  0  0  0
  152.6751  142.5577  159.3560 C   0  0  0  0  0  0  0  0  0  0  0  0
  152.4605  143.9462  159.4995 C   0  0  0  0  0  0  0  0  0  0  0  0
  151.5183  144.5927  158.6741 C   0  0  0  0  0  0  0  0  0  0  0  0
  150.8388  143.8844  157.7467 N   0  3  0  0  0  0  0  0  0  0  0  0
  151.0228  142.5596  157.5603 C   0  0  0  0  0  0  0  0  0  0  0  0
  151.9522  141.8594  158.3558 C   0  0  0  0  0  0  0  0  0  0  0  0
  156.4071  138.3595  160.8754 C   0  0  0  0  0  0  0  0  0  0  0  0
  155.9108  137.8178  162.2132 N   0  3  0  0  0  0  0  0  0  0  0  0
  156.5837  138.2976  163.4599 C   0  0  0  0  0  0  0  0  0  0  0  0
  156.2371  137.3777  164.6394 C   0  0  0  0  0  0  0  0  0  0  0  0
  154.8276  137.3494  164.8173 O   0  0  0  0  0  0  0  0  0  0  0  0
  154.1620  136.8263  163.6758 C   0  0  0  0  0  0  0  0  0  0  0  0
  154.4397  137.7106  162.4488 C   0  0  0  0  0  0  0  0  0  0  0  0
  155.5815  137.7742  159.6900 C   0  0  0  0  0  0  0  0  0  0  0  0
  155.9414  136.2851  159.6193 C   0  0  0  0  0  0  0  0  0  0  0  0
  157.3651  136.1920  160.1796 C   0  0  0  0  0  0  0  0  0  0  0  0
  157.7471  137.6276  160.5705 C   0  0  0  0  0  0  0  0  0  0  0  0
  158.1740  140.1970  159.3867 H   0  0  0  0  0  0  0  0  0  0  0  0
  157.2112  141.6294  159.6229 H   0  0  0  0  0  0  0  0  0  0  0  0
  156.5723  140.3177  158.6554 H   0  0  0  0  0  0  0  0  0  0  0  0
  157.2149  140.2197  161.6309 H   0  0  0  0  0  0  0  0  0  0  0  0
  153.8470  142.4362  161.0557 H   0  0  0  0  0  0  0  0  0  0  0  0
  153.0076  144.5119  160.2397 H   0  0  0  0  0  0  0  0  0  0  0  0
  151.2918  145.6474  158.7260 H   0  0  0  0  0  0  0  0  0  0  0  0
  150.4302  142.1031  156.7811 H   0  0  0  0  0  0  0  0  0  0  0  0
  152.1035  140.8056  158.1775 H   0  0  0  0  0  0  0  0  0  0  0  0
  157.6655  138.3331  163.3474 H   0  0  0  0  0  0  0  0  0  0  0  0
  156.2590  139.3108  163.7007 H   0  0  0  0  0  0  0  0  0  0  0  0
  156.6201  136.3691  164.4748 H   0  0  0  0  0  0  0  0  0  0  0  0
  156.6993  137.7496  165.5539 H   0  0  0  0  0  0  0  0  0  0  0  0
  154.4812  135.7988  163.4936 H   0  0  0  0  0  0  0  0  0  0  0  0
  153.0912  136.7940  163.8787 H   0  0  0  0  0  0  0  0  0  0  0  0
  154.0010  138.6936  162.6124 H   0  0  0  0  0  0  0  0  0  0  0  0
  153.9167  137.2606  161.6095 H   0  0  0  0  0  0  0  0  0  0  0  0
  154.5084  137.9550  159.7319 H   0  0  0  0  0  0  0  0  0  0  0  0
  155.8972  138.2035  158.7379 H   0  0  0  0  0  0  0  0  0  0  0  0
  155.2584  135.6984  160.2347 H   0  0  0  0  0  0  0  0  0  0  0  0
  155.8747  135.9042  158.5998 H   0  0  0  0  0  0  0  0  0  0  0  0
  157.3793  135.5415  161.0550 H   0  0  0  0  0  0  0  0  0  0  0  0
  158.0647  135.7779  159.4527 H   0  0  0  0  0  0  0  0  0  0  0  0
  158.2574  138.0492  159.7037 H   0  0  0  0  0  0  0  0  0  0  0  0
  158.4754  137.6462  161.3798 H   0  0  0  0  0  0  0  0  0  0  0  0
  156.1924  136.8504  162.1521 H   0  0  0  0  0  0  0  0  0  0  0  0
  150.1622  144.3712  157.1584 H   0  0  0  0  0  0  0  0  0  0  0  0
  1  2  1  0  0  0  0
  1 24  1  0  0  0  0
  1 25  1  0  0  0  0
  1 26  1  0  0  0  0
  2  3  1  0  0  0  0
  2 13  1  0  0  0  0
  2 27  1  0  0  0  0
  3  4  1  0  0  0  0
  4  5  2  0  0  0  0
  4  6  1  0  0  0  0
  6  7  1  0  0  0  0
  6 28  1  0  0  0  0
  7 12  1  0  0  0  0
  7  8  2  0  0  0  0
  8  9  1  0  0  0  0
  8 29  1  0  0  0  0
  9 10  2  0  0  0  0
  9 30  1  0  0  0  0
 10 11  1  0  0  0  0
 10 50  1  0  0  0  0
 11 12  2  0  0  0  0
 11 31  1  0  0  0  0
 12 32  1  0  0  0  0
 13 23  1  0  0  0  0
 13 14  1  0  0  0  0
 13 20  1  0  0  0  0
 14 19  1  0  0  0  0
 14 15  1  0  0  0  0
 14 49  1  0  0  0  0
 15 16  1  0  0  0  0
 15 33  1  0  0  0  0
 15 34  1  0  0  0  0
 16 17  1  0  0  0  0
 16 35  1  0  0  0  0
 16 36  1  0  0  0  0
 17 18  1  0  0  0  0
 18 19  1  0  0  0  0
 18 37  1  0  0  0  0
 18 38  1  0  0  0  0
 19 39  1  0  0  0  0
 19 40  1  0  0  0  0
 20 21  1  0  0  0  0
 20 41  1  0  0  0  0
 20 42  1  0  0  0  0
 21 22  1  0  0  0  0
 21 43  1  0  0  0  0
 21 44  1  0  0  0  0
 22 23  1  0  0  0  0
 22 45  1  0  0  0  0
 22 46  1  0  0  0  0
 23 47  1  0  0  0  0
 23 48  1  0  0  0  0
M  CHG  1   3  -1
M  CHG  1  10   1
M  CHG  1  14   1
M  END
> <s_m_source_file>
AV-unprocessed.smi

> <i_m_source_file_index>
702

> <i_lp_mmshare_version>
43012

> <i_f3d_flags>
0

> <s_epik_input>
W0NIMl0xW0NIMl1PW0NIMl1bQ0gyXU4xQzIoW0NIMl1bQ0gyXVtDSDJdW0NIMl0yKVtDQEhdKFtDSDNdKVtOSF1DKD1PKVtOSF1jM1tjSF1bY0hdbltjSF1bY0hdMw==

> <s_epik_cmdline>
J2VwaWtfcHl0aG9uJywgJy1waCcsICc3LjAnLCAnLXRuJywgJzgnLCAnLW1hJywgJzIwMCcsICctbWV0YWxfYmluZGluZycsICctaW1hZScsICc8aW5maWxlLm1hZT4nLCAnLW9tYWUnLCAnPG91dGZpbGUubWFlPic=

> <r_epik_Ionization_Penalty>
8.33674

> <r_epik_Ionization_Penalty_Charging>
8.33674

> <r_epik_Ionization_Penalty_Neutral>
3.60854e-06

> <r_epik_State_Penalty>
8.24268

> <r_epik_Charging_Adjusted_Penalty>
16.5794

> <i_epik_Tot_Q>
1

> <i_epik_Tot_abs_Q>
3

> <r_epik_Metal_State_Penalty>
4.24853

> <b_epik_Metal_Only>
1

> <s_lp_Force_Field>
OPLS_2005

> <r_lp_Energy>
61.2868

> <b_lp_Chiralities_Consistent>
1

> <s_lp_Variant>
AV-unprocessed.smi:702-10

> <Gold.Version>
5.8.1

> <Gold.Id.Protein>
6NUR|6NUR_protein|mol2

> <Gold.PLP.Fitness>
43.5097

> <Gold.PLP.PLP>
-36.5935

> <Gold.PLP.part.hbond>
-2.6543

> <Gold.PLP.part.metal>
0.0000

> <Gold.PLP.part.buried>
-6.4010

> <Gold.PLP.part.nonpolar>
-27.9828

> <Gold.PLP.part.repulsive>
0.1525

> <Gold.PLP.ligand.clash>
0.0000

> <Gold.PLP.ligand.torsion>
1.2109

> <Gold.PLP.Chemscore.Hbond>
2.9600

> <Gold.PLP.Chemscore.CHOScore>
0.0000

> <Gold.PLP.Chemscore.Metal>
0.0000

> <Gold.Chemscore.Hbonds>
donor molecule, donor type, donor heavy atom, donor atom, acceptor molecule, acceptor atom, score
      L1  H    10    50       P1  8028  2.00
      P1  H  7997  8008       L1     5  0.96

> <Gold.PLP.Chemscore.Internal.Correction>
0.4580

> <Gold.Rescore>
     Score         DG    S(hbond)    S(metal)    S(lipo)     H(rot)  DE(clash)    DE(int)     intcor
     16.41     -20.17       1.95        0.00     101.56       1.45       0.05       3.71       ----

> <Gold.Chemscore.Fitness>
16.4146

> <Gold.Chemscore.DG>
-20.1748

> <Gold.Chemscore.ZeroCoef>
-5.4800

> <Gold.Chemscore.Hbond>
1.9538

> <Gold.Chemscore.Metal>
0.0000

> <Gold.Chemscore.Lipo>
101.5555

> <Gold.Chemscore.Internal_Hbond>
0.0000

> <Gold.Chemscore.DEClash>
0.0538

> <Gold.Chemscore.DEInternal>
3.7064

> <Gold.Chemscore.Rot>
1.4504

> <Gold.Chemscore.Internal.Correction>
   9.000000E+99

> <Gold.Chemscore.Hbonds>
donor molecule, donor type, donor heavy atom, donor atom, acceptor molecule, acceptor atom, score
      L1  H    10    50       P1  8028  0.69
      P1  H  7997  8008       L1     5  0.86

> <Gold.Chemscore.Hbond.Weighted>
-6.5257

> <Gold.Chemscore.Metal.Weighted>
-0.0000

> <Gold.Chemscore.Lipo.Weighted>
-11.8820

> <Gold.Chemscore.Internal_Hbond.Weighted>
0.0000

> <Gold.Chemscore.DEClash.Weighted>
0.0538

> <Gold.Chemscore.DEInternal.Weighted>
3.7064

> <Gold.Chemscore.Rot.Weighted>
3.7129

> <Gold.Chemscore.Internal.Correction.Weighted>
   9.000000E+99

> <Gold.Protein.RotatedTorsions>
[ 6907 6896 6895 6894 ] final -124.13 input  -60.11 | X-H torsion
[ 7974 7965 7964 7962 ] final   27.05 input  175.53 | X-H torsion
[ 8008 7997 7996 7995 ] final -117.29 input   59.86 | X-H torsion
[ 10167 10162 10161 10158 ] final -147.46 input  -65.29 | X-H torsion
[ 10718 10713 10712 10709 ] final  -39.02 input   66.30 | X-H torsion
[ 10763 10752 10751 10750 ] final   50.81 input  -60.55 | X-H torsion
[ 11005 11000 10999 10996 ] final  -83.13 input  -57.11 | X-H torsion

> <Gold.Protein.ActiveResidues>
 VAL166  LYS551  ARG553  GLY616  TRP617  ASP618  TYR619  PRO620  LYS621  CYS622 
 ASP623  PHE694  ASN695  SER759  ASP760  ASP761  ALA762  ILE779  LEU786  VAL792 
 PHE793  MET794  SER795  GLU796  ALA797  LYS798  CYS799  TRP800  GLU811  SER814 

> <Gold.Protein.RotatedAtoms>
  150.8738  133.7468  159.2952 H   0  0  0  0  0  0  0  0  0  0  0  0  # atno 6907 bound_to 6896
  151.5071  135.1062  159.9854 H   0  0  0  0  0  0  0  0  0  0  0  0  # atno 6908 bound_to 6896
  152.4713  133.7992  159.6999 H   0  0  0  0  0  0  0  0  0  0  0  0  # atno 6909 bound_to 6896
  146.1805  139.7244  142.8904 H   0  0  0  0  0  0  0  0  0  0  0  0  # atno 7974 bound_to 7965
  155.0813  140.0394  157.2640 H   0  0  0  0  0  0  0  0  0  0  0  0  # atno 8008 bound_to 7997
  154.6905  140.2652  155.6793 H   0  0  0  0  0  0  0  0  0  0  0  0  # atno 8009 bound_to 7997
  156.2727  140.2760  156.1481 H   0  0  0  0  0  0  0  0  0  0  0  0  # atno 8010 bound_to 7997
  139.7620  143.8364  152.2609 H   0  0  0  0  0  0  0  0  0  0  0  0  # atno 10167 bound_to 10162
  156.2972  130.4235  149.8179 H   0  0  0  0  0  0  0  0  0  0  0  0  # atno 10718 bound_to 10713
  152.9784  135.5866  154.4313 H   0  0  0  0  0  0  0  0  0  0  0  0  # atno 10763 bound_to 10752
  154.3926  135.2768  155.2147 H   0  0  0  0  0  0  0  0  0  0  0  0  # atno 10764 bound_to 10752
  154.4013  135.6103  153.5953 H   0  0  0  0  0  0  0  0  0  0  0  0  # atno 10765 bound_to 10752
  141.1659  133.7279  156.8674 H   0  0  0  0  0  0  0  0  0  0  0  0  # atno 11005 bound_to 11000
  145.4090  141.0394  143.3028 LP  0  0  0  0  0  0  0  0  0  0  0  0  # atno 17320 bound_to 7965
  144.8307  139.5634  143.6945 LP  0  0  0  0  0  0  0  0  0  0  0  0  # atno 17321 bound_to 7965
  139.8372  144.7226  150.9376 LP  0  0  0  0  0  0  0  0  0  0  0  0  # atno 17342 bound_to 10162
  140.7808  143.4016  151.1140 LP  0  0  0  0  0  0  0  0  0  0  0  0  # atno 17343 bound_to 10162
  156.5570  130.8367  151.3317 LP  0  0  0  0  0  0  0  0  0  0  0  0  # atno 17370 bound_to 10713
  157.7358  130.9769  150.2104 LP  0  0  0  0  0  0  0  0  0  0  0  0  # atno 17371 bound_to 10713
  140.1805  134.9036  157.2943 LP  0  0  0  0  0  0  0  0  0  0  0  0  # atno 17394 bound_to 11000
  140.2400  134.3807  155.7485 LP  0  0  0  0  0  0  0  0  0  0  0  0  # atno 17395 bound_to 11000

$$$$
