AV-unprocessed.smi:72|AV-procd|sdf|703|dock10
  -GOLD-   2262017 23D 1   1.00000     0.00000
 Structure written by MMmdl.
 30 31  0  0  0  0  0  0  0  0  2 V2000
  146.2670  138.8202  151.3369 N   0  0  0  0  0  0  0  0  0  0  0  0
  147.0767  139.4054  152.2883 C   0  0  0  0  0  0  0  0  0  0  0  0
  148.0803  138.6323  152.8423 N   0  3  0  0  0  0  0  0  0  0  0  0
  148.9327  139.0445  153.7899 C   0  0  0  0  0  0  0  0  0  0  0  0
  148.8065  140.2582  154.2856 N   0  0  0  0  0  0  0  0  0  0  0  0
  149.7834  140.7433  155.3285 C   0  0  2  0  0  0  0  0  0  0  0  0
  151.0317  140.2421  154.9742 O   0  0  0  0  0  0  0  0  0  0  0  0
  151.7320  139.8616  156.1504 C   0  0  2  0  0  0  0  0  0  0  0  0
  152.8097  138.8212  155.8073 C   0  0  0  0  0  0  0  0  0  0  0  0
  153.6483  139.3155  154.7854 O   0  0  0  0  0  0  0  0  0  0  0  0
  150.6187  139.3186  157.0536 C   0  0  1  0  0  0  0  0  0  0  0  0
  150.9976  139.4111  158.4121 O   0  0  0  0  0  0  0  0  0  0  0  0
  149.4513  140.2516  156.7535 C   0  0  2  0  0  0  0  0  0  0  0  0
  148.2054  139.5885  156.8759 O   0  0  0  0  0  0  0  0  0  0  0  0
  147.8651  141.1545  153.7149 C   0  0  0  0  0  0  0  0  0  0  0  0
  147.7986  142.3247  154.0876 O   0  0  0  0  0  0  0  0  0  0  0  0
  147.0150  140.6313  152.7292 N   0  0  0  0  0  0  0  0  0  0  0  0
  149.8015  141.8322  155.2924 H   0  0  0  0  0  0  0  0  0  0  0  0
  152.1725  140.7529  156.6033 H   0  0  0  0  0  0  0  0  0  0  0  0
  150.3796  138.2872  156.7890 H   0  0  0  0  0  0  0  0  0  0  0  0
  149.4684  141.1195  157.4150 H   0  0  0  0  0  0  0  0  0  0  0  0
  145.5160  139.3114  150.8722 H   0  0  0  0  0  0  0  0  0  0  0  0
  146.3560  137.8617  151.0316 H   0  0  0  0  0  0  0  0  0  0  0  0
  149.7240  138.3844  154.1221 H   0  0  0  0  0  0  0  0  0  0  0  0
  153.4366  138.6285  156.6783 H   0  0  0  0  0  0  0  0  0  0  0  0
  152.3655  137.8708  155.5103 H   0  0  0  0  0  0  0  0  0  0  0  0
  153.3553  138.9644  153.9581 H   0  0  0  0  0  0  0  0  0  0  0  0
  151.9231  139.5973  158.4559 H   0  0  0  0  0  0  0  0  0  0  0  0
  148.3613  138.6565  156.9068 H   0  0  0  0  0  0  0  0  0  0  0  0
  148.1794  137.6875  152.4993 H   0  0  0  0  0  0  0  0  0  0  0  0
  1  2  1  0  0  0  0
  1 22  1  0  0  0  0
  1 23  1  0  0  0  0
  2 17  2  0  0  0  0
  2  3  1  0  0  0  0
  3  4  2  0  0  0  0
  3 30  1  0  0  0  0
  4  5  1  0  0  0  0
  4 24  1  0  0  0  0
  5  6  1  0  0  0  0
  5 15  1  0  0  0  0
  6 18  1  0  0  0  0
  6 13  1  0  0  0  0
  6  7  1  0  0  0  0
  7  8  1  0  0  0  0
  8 19  1  0  0  0  0
  8  9  1  0  0  0  0
  8 11  1  0  0  0  0
  9 10  1  0  0  0  0
  9 25  1  0  0  0  0
  9 26  1  0  0  0  0
 10 27  1  0  0  0  0
 11 20  1  0  0  0  0
 11 12  1  0  0  0  0
 11 13  1  0  0  0  0
 12 28  1  0  0  0  0
 13 21  1  0  0  0  0
 13 14  1  0  0  0  0
 14 29  1  0  0  0  0
 15 16  2  0  0  0  0
 15 17  1  0  0  0  0
M  CHG  1   3   1
M  END
> <s_m_source_file>
AV-unprocessed.smi

> <i_m_source_file_index>
72

> <i_lp_mmshare_version>
43012

> <i_f3d_flags>
0

> <s_epik_input>
W05IMl1jMW5bY0hdbihjKD1PKW4xKVtDQEBIXTJPW0NASF0oW0NIMl1bT0hdKVtDQEBIXShbT0hdKVtDQEhdMltPSF0=

> <s_epik_cmdline>
J2VwaWtfcHl0aG9uJywgJy1waCcsICc3LjAnLCAnLXRuJywgJzgnLCAnLW1hJywgJzIwMCcsICctbWV0YWxfYmluZGluZycsICctaW1hZScsICc8aW5maWxlLm1hZT4nLCAnLW9tYWUnLCAnPG91dGZpbGUubWFlPic=

> <r_lp_tautomer_probability>
4.77166e-05

> <r_epik_Ionization_Penalty>
0.104979

> <r_epik_Ionization_Penalty_Charging>
0.0999619

> <r_epik_Ionization_Penalty_Neutral>
0.00501745

> <r_epik_State_Penalty>
2.51541

> <r_epik_Charging_Adjusted_Penalty>
2.61537

> <i_epik_Tot_Q>
1

> <i_epik_Tot_abs_Q>
1

> <r_epik_Metal_State_Penalty>
3.53763

> <b_epik_Metal_Only>
0

> <s_epik_Chemistry_Notes>
This compound contains an acetal/aminal-like group ( X-CH(R)-Y where X, Y are N, S, or O) that may be acid/base labile, releasing an aldehyde.

> <s_lp_Force_Field>
OPLS_2005

> <r_lp_Energy>
34.5598

> <b_lp_Chiralities_Consistent>
1

> <s_lp_Variant>
AV-unprocessed.smi:72-41

> <Gold.Version>
5.8.1

> <Gold.Id.Protein>
6NUR|6NUR_protein|mol2

> <Gold.PLP.Fitness>
39.4662

> <Gold.PLP.PLP>
-26.2873

> <Gold.PLP.part.hbond>
-6.3469

> <Gold.PLP.part.metal>
0.0000

> <Gold.PLP.part.buried>
-2.3361

> <Gold.PLP.part.nonpolar>
-19.0664

> <Gold.PLP.part.repulsive>
1.0551

> <Gold.PLP.ligand.clash>
0.0000

> <Gold.PLP.ligand.torsion>
0.5061

> <Gold.PLP.Chemscore.Hbond>
4.6880

> <Gold.PLP.Chemscore.CHOScore>
0.0000

> <Gold.PLP.Chemscore.Metal>
0.0000

> <Gold.Chemscore.Hbonds>
donor molecule, donor type, donor heavy atom, donor atom, acceptor molecule, acceptor atom, score
      L1  H     1    22       P1 10171  0.59
      L1  H     3    30       P1  7948  2.00
      P1  H  7989  7998       L1     7  1.00
      P1  H  7997  8008       L1    10  1.00

> <Gold.PLP.Chemscore.Internal.Correction>
0.1271

> <Gold.Rescore>
     Score         DG    S(hbond)    S(metal)    S(lipo)     H(rot)  DE(clash)    DE(int)     intcor
      8.68      -9.38       3.61        0.00      19.54       4.08       0.08       0.63       ----

> <Gold.Chemscore.Fitness>
8.6802

> <Gold.Chemscore.DG>
-9.3838

> <Gold.Chemscore.ZeroCoef>
-5.4800

> <Gold.Chemscore.Hbond>
3.6103

> <Gold.Chemscore.Metal>
0.0000

> <Gold.Chemscore.Lipo>
19.5384

> <Gold.Chemscore.Internal_Hbond>
0.0000

> <Gold.Chemscore.DEClash>
0.0757

> <Gold.Chemscore.DEInternal>
0.6279

> <Gold.Chemscore.Rot>
4.0783

> <Gold.Chemscore.Internal.Correction>
   9.000000E+99

> <Gold.Chemscore.Hbonds>
donor molecule, donor type, donor heavy atom, donor atom, acceptor molecule, acceptor atom, score
      L1  H     1    22       P1 10171  0.57
      L1  H     3    30       P1  7948  0.99
      P1  H  7989  7998       L1     7  0.88
      P1  H  7997  8008       L1    10  0.43

> <Gold.Chemscore.Hbond.Weighted>
-12.0583

> <Gold.Chemscore.Metal.Weighted>
-0.0000

> <Gold.Chemscore.Lipo.Weighted>
-2.2860

> <Gold.Chemscore.Internal_Hbond.Weighted>
0.0000

> <Gold.Chemscore.DEClash.Weighted>
0.0757

> <Gold.Chemscore.DEInternal.Weighted>
0.6279

> <Gold.Chemscore.Rot.Weighted>
10.4404

> <Gold.Chemscore.Internal.Correction.Weighted>
   9.000000E+99

> <Gold.Protein.RotatedTorsions>
[ 6907 6896 6895 6894 ] final  130.92 input  -60.11 | X-H torsion
[ 7974 7965 7964 7962 ] final   86.85 input  175.53 | X-H torsion
[ 8008 7997 7996 7995 ] final    9.43 input   59.86 | X-H torsion
[ 10167 10162 10161 10158 ] final  134.11 input  -65.29 | X-H torsion
[ 10718 10713 10712 10709 ] final -114.87 input   66.30 | X-H torsion
[ 10763 10752 10751 10750 ] final  -66.58 input  -60.55 | X-H torsion
[ 11005 11000 10999 10996 ] final -147.46 input  -57.11 | X-H torsion

> <Gold.Protein.ActiveResidues>
 VAL166  LYS551  ARG553  GLY616  TRP617  ASP618  TYR619  PRO620  LYS621  CYS622 
 ASP623  PHE694  ASN695  SER759  ASP760  ASP761  ALA762  ILE779  LEU786  VAL792 
 PHE793  MET794  SER795  GLU796  ALA797  LYS798  CYS799  TRP800  GLU811  SER814 

> <Gold.Protein.RotatedAtoms>
  152.3478  133.6143  159.5922 H   0  0  0  0  0  0  0  0  0  0  0  0  # atno 6907 bound_to 6896
  150.7518  133.9622  159.3528 H   0  0  0  0  0  0  0  0  0  0  0  0  # atno 6908 bound_to 6896
  151.7478  135.0840  160.0377 H   0  0  0  0  0  0  0  0  0  0  0  0  # atno 6909 bound_to 6896
  145.5668  139.2309  143.2429 H   0  0  0  0  0  0  0  0  0  0  0  0  # atno 7974 bound_to 7965
  154.7800  140.2817  155.6071 H   0  0  0  0  0  0  0  0  0  0  0  0  # atno 8008 bound_to 7997
  156.2948  140.2625  156.2551 H   0  0  0  0  0  0  0  0  0  0  0  0  # atno 8009 bound_to 7997
  154.9796  140.0375  157.2261 H   0  0  0  0  0  0  0  0  0  0  0  0  # atno 8010 bound_to 7997
  139.5270  144.6583  151.5092 H   0  0  0  0  0  0  0  0  0  0  0  0  # atno 10167 bound_to 10162
  156.0858  130.6050  150.8832 H   0  0  0  0  0  0  0  0  0  0  0  0  # atno 10718 bound_to 10713
  154.3618  135.6114  153.5695 H   0  0  0  0  0  0  0  0  0  0  0  0  # atno 10763 bound_to 10752
  152.9793  135.5817  154.4624 H   0  0  0  0  0  0  0  0  0  0  0  0  # atno 10764 bound_to 10752
  154.4363  135.2849  155.1856 H   0  0  0  0  0  0  0  0  0  0  0  0  # atno 10765 bound_to 10752
  140.7714  134.3185  157.5074 H   0  0  0  0  0  0  0  0  0  0  0  0  # atno 11005 bound_to 11000
  146.1813  140.6493  142.9188 LP  0  0  0  0  0  0  0  0  0  0  0  0  # atno 17320 bound_to 7965
  144.7457  140.5060  143.6838 LP  0  0  0  0  0  0  0  0  0  0  0  0  # atno 17321 bound_to 7965
  140.6420  143.8871  150.6700 LP  0  0  0  0  0  0  0  0  0  0  0  0  # atno 17342 bound_to 10162
  140.2208  143.3810  152.1644 LP  0  0  0  0  0  0  0  0  0  0  0  0  # atno 17343 bound_to 10162
  157.5992  131.0942  150.8989 LP  0  0  0  0  0  0  0  0  0  0  0  0  # atno 17370 bound_to 10713
  156.9149  130.5294  149.5280 LP  0  0  0  0  0  0  0  0  0  0  0  0  # atno 17371 bound_to 10713
  139.8755  134.9263  156.3396 LP  0  0  0  0  0  0  0  0  0  0  0  0  # atno 17394 bound_to 11000
  140.9570  133.7413  156.0349 LP  0  0  0  0  0  0  0  0  0  0  0  0  # atno 17395 bound_to 11000

$$$$
