AV-unprocessed.smi:906|AV-procd|sdf|4101|dock6
  -GOLD-   22720 1593D 1   1.00000     0.00000
 Structure written by MMmdl.
 47 48  0  0  0  0  0  0  0  0  1 V2000
  149.6817  132.1324  158.1353 C   0  0  0  0  0  0  0  0  0  0  0  0
  150.0424  133.2685  157.2012 C   0  0  0  0  0  0  0  0  0  0  0  0
  150.2347  133.0357  155.8230 C   0  0  0  0  0  0  0  0  0  0  0  0
  150.5626  134.1288  154.9978 C   0  0  0  0  0  0  0  0  0  0  0  0
  150.6844  135.4073  155.5794 C   0  0  0  0  0  0  0  0  0  0  0  0
  151.0285  136.6178  154.7344 C   0  0  0  0  0  0  0  0  0  0  0  0
  152.1179  137.4854  155.3852 C   0  0  0  0  0  0  0  0  0  0  0  0
  151.5411  138.5085  156.2491 N   0  0  0  0  0  0  0  0  0  0  0  0
  151.0088  139.6691  155.8294 C   0  0  0  0  0  0  0  0  0  0  0  0
  150.9551  139.9707  154.6361 O   0  0  0  0  0  0  0  0  0  0  0  0
  150.5038  140.4506  156.8162 N   0  0  0  0  0  0  0  0  0  0  0  0
  150.4614  140.1395  158.2525 C   0  0  0  0  0  0  0  0  0  0  0  0
  151.4687  141.0463  158.9856 C   0  0  0  0  0  0  0  0  0  0  0  0
  151.1424  142.4591  158.7548 N   0  0  0  0  0  0  0  0  0  0  0  0
  151.9796  143.3539  159.5726 C   0  0  1  0  0  0  0  0  0  0  0  0
  153.4915  143.2377  159.2781 C   0  0  0  0  0  0  0  0  0  0  0  0
  151.4820  144.8184  159.5219 C   0  0  0  0  0  0  0  0  0  0  0  0
  150.1503  144.8568  159.5798 F   0  0  0  0  0  0  0  0  0  0  0  0
  151.9590  145.4763  160.5785 F   0  0  0  0  0  0  0  0  0  0  0  0
  151.8873  145.4519  158.4213 F   0  0  0  0  0  0  0  0  0  0  0  0
  151.1229  142.7650  157.3175 C   0  0  0  0  0  0  0  0  0  0  0  0
  150.1170  141.8471  156.5965 C   0  0  0  0  0  0  0  0  0  0  0  0
  150.4706  135.5326  156.9683 C   0  0  0  0  0  0  0  0  0  0  0  0
  150.1558  134.4904  157.7672 N   0  0  0  0  0  0  0  0  0  0  0  0
  149.9681  131.1702  157.7095 H   0  0  0  0  0  0  0  0  0  0  0  0
  148.6064  132.1213  158.3153 H   0  0  0  0  0  0  0  0  0  0  0  0
  150.1901  132.2419  159.0938 H   0  0  0  0  0  0  0  0  0  0  0  0
  150.1320  132.0447  155.4059 H   0  0  0  0  0  0  0  0  0  0  0  0
  150.7145  133.9868  153.9378 H   0  0  0  0  0  0  0  0  0  0  0  0
  151.3522  136.2784  153.7495 H   0  0  0  0  0  0  0  0  0  0  0  0
  150.1251  137.2080  154.5742 H   0  0  0  0  0  0  0  0  0  0  0  0
  152.7756  136.8630  155.9926 H   0  0  0  0  0  0  0  0  0  0  0  0
  152.7461  137.9488  154.6225 H   0  0  0  0  0  0  0  0  0  0  0  0
  151.5389  138.3198  157.2408 H   0  0  0  0  0  0  0  0  0  0  0  0
  149.4528  140.3168  158.6294 H   0  0  0  0  0  0  0  0  0  0  0  0
  150.6791  139.0975  158.4855 H   0  0  0  0  0  0  0  0  0  0  0  0
  151.4345  140.8300  160.0538 H   0  0  0  0  0  0  0  0  0  0  0  0
  152.4801  140.8254  158.6437 H   0  0  0  0  0  0  0  0  0  0  0  0
  151.8313  143.0367  160.6059 H   0  0  0  0  0  0  0  0  0  0  0  0
  154.0649  143.8368  159.9853 H   0  0  0  0  0  0  0  0  0  0  0  0
  153.7421  143.5965  158.2800 H   0  0  0  0  0  0  0  0  0  0  0  0
  153.8511  142.2134  159.3671 H   0  0  0  0  0  0  0  0  0  0  0  0
  150.8305  143.7996  157.1503 H   0  0  0  0  0  0  0  0  0  0  0  0
  152.1148  142.6333  156.8838 H   0  0  0  0  0  0  0  0  0  0  0  0
  150.0737  142.1089  155.5386 H   0  0  0  0  0  0  0  0  0  0  0  0
  149.1099  142.0111  156.9832 H   0  0  0  0  0  0  0  0  0  0  0  0
  150.5505  136.4952  157.4519 H   0  0  0  0  0  0  0  0  0  0  0  0
  1  2  1  0  0  0  0
  1 25  1  0  0  0  0
  1 26  1  0  0  0  0
  1 27  1  0  0  0  0
  2 24  1  0  0  0  0
  2  3  2  0  0  0  0
  3  4  1  0  0  0  0
  3 28  1  0  0  0  0
  4  5  2  0  0  0  0
  4 29  1  0  0  0  0
  5  6  1  0  0  0  0
  5 23  1  0  0  0  0
  6  7  1  0  0  0  0
  6 30  1  0  0  0  0
  6 31  1  0  0  0  0
  7  8  1  0  0  0  0
  7 32  1  0  0  0  0
  7 33  1  0  0  0  0
  8  9  1  0  0  0  0
  8 34  1  0  0  0  0
  9 10  2  0  0  0  0
  9 11  1  0  0  0  0
 11 22  1  0  0  0  0
 11 12  1  0  0  0  0
 12 13  1  0  0  0  0
 12 35  1  0  0  0  0
 12 36  1  0  0  0  0
 13 14  1  0  0  0  0
 13 37  1  0  0  0  0
 13 38  1  0  0  0  0
 14 15  1  0  0  0  0
 14 21  1  0  0  0  0
 15 16  1  0  0  0  0
 15 17  1  0  0  0  0
 15 39  1  0  0  0  0
 16 40  1  0  0  0  0
 16 41  1  0  0  0  0
 16 42  1  0  0  0  0
 17 18  1  0  0  0  0
 17 19  1  0  0  0  0
 17 20  1  0  0  0  0
 21 22  1  0  0  0  0
 21 43  1  0  0  0  0
 21 44  1  0  0  0  0
 22 45  1  0  0  0  0
 22 46  1  0  0  0  0
 23 24  2  0  0  0  0
 23 47  1  0  0  0  0
M  END
> <s_m_source_file>
AV-unprocessed.smi

> <i_m_source_file_index>
906

> <i_lp_mmshare_version>
43012

> <i_f3d_flags>
0

> <s_epik_input>
W0NIM11jMVtjSF1bY0hdYyhbY0hdbjEpW0NIMl1bQ0gyXVtOSF1DKD1PKU4yW0NIMl1bQ0gyXU4oW0NASF0oW0NIM10pQyhGKShGKUYpW0NIMl1bQ0gyXTI=

> <s_epik_cmdline>
J2VwaWtfcHl0aG9uJywgJy1waCcsICc3LjAnLCAnLXRuJywgJzgnLCAnLW1hJywgJzIwMCcsICctbWV0YWxfYmluZGluZycsICctaW1hZScsICc8aW5maWxlLm1hZT4nLCAnLW9tYWUnLCAnPG91dGZpbGUubWFlPic=

> <r_epik_Ionization_Penalty>
0.0782886

> <r_epik_Ionization_Penalty_Charging>
0

> <r_epik_Ionization_Penalty_Neutral>
0.0782886

> <r_epik_State_Penalty>
0.0661423

> <r_epik_Charging_Adjusted_Penalty>
0.0661423

> <i_epik_Tot_Q>
0

> <i_epik_Tot_abs_Q>
0

> <r_epik_Metal_State_Penalty>
0.060629

> <b_epik_Metal_Only>
0

> <s_lp_Force_Field>
OPLS_2005

> <r_lp_Energy>
47.1211

> <b_lp_Chiralities_Consistent>
1

> <s_lp_Variant>
AV-unprocessed.smi:906-2

> <Gold.Version>
5.8.1

> <Gold.Id.Protein>
6NUR|6NUR_protein|mol2

> <Gold.PLP.Fitness>
48.1370

> <Gold.PLP.PLP>
-43.3708

> <Gold.PLP.part.hbond>
-2.0000

> <Gold.PLP.part.metal>
0.0000

> <Gold.PLP.part.buried>
-5.7844

> <Gold.PLP.part.nonpolar>
-36.4815

> <Gold.PLP.part.repulsive>
0.1659

> <Gold.PLP.ligand.clash>
0.0000

> <Gold.PLP.ligand.torsion>
0.9363

> <Gold.PLP.Chemscore.Hbond>
2.0000

> <Gold.PLP.Chemscore.CHOScore>
0.0000

> <Gold.PLP.Chemscore.Metal>
0.0000

> <Gold.Chemscore.Hbonds>
donor molecule, donor type, donor heavy atom, donor atom, acceptor molecule, acceptor atom, score
      P1  H  6896  6907       L1    24  0.83
      P1  H  7989  7998       L1    10  1.00

> <Gold.PLP.Chemscore.Internal.Correction>
0.6387

> <Gold.Rescore>
     Score         DG    S(hbond)    S(metal)    S(lipo)     H(rot)  DE(clash)    DE(int)     intcor
     16.76     -19.09       1.79        0.00      99.73       1.58       0.40       1.93       ----

> <Gold.Chemscore.Fitness>
16.7644

> <Gold.Chemscore.DG>
-19.0872

> <Gold.Chemscore.ZeroCoef>
-5.4800

> <Gold.Chemscore.Hbond>
1.7947

> <Gold.Chemscore.Metal>
0.0000

> <Gold.Chemscore.Lipo>
99.7282

> <Gold.Chemscore.Internal_Hbond>
0.0000

> <Gold.Chemscore.DEClash>
0.3968

> <Gold.Chemscore.DEInternal>
1.9260

> <Gold.Chemscore.Rot>
1.5841

> <Gold.Chemscore.Internal.Correction>
   9.000000E+99

> <Gold.Chemscore.Hbonds>
donor molecule, donor type, donor heavy atom, donor atom, acceptor molecule, acceptor atom, score
      P1  H  6896  6907       L1    24  0.21
      P1  H  7989  7998       L1    10  0.99

> <Gold.Chemscore.Hbond.Weighted>
-5.9944

> <Gold.Chemscore.Metal.Weighted>
-0.0000

> <Gold.Chemscore.Lipo.Weighted>
-11.6682

> <Gold.Chemscore.Internal_Hbond.Weighted>
0.0000

> <Gold.Chemscore.DEClash.Weighted>
0.3968

> <Gold.Chemscore.DEInternal.Weighted>
1.9260

> <Gold.Chemscore.Rot.Weighted>
4.0554

> <Gold.Chemscore.Internal.Correction.Weighted>
   9.000000E+99

> <Gold.Protein.RotatedTorsions>
[ 6907 6896 6895 6894 ] final -103.18 input  -60.11 | X-H torsion
[ 7974 7965 7964 7962 ] final   48.06 input  175.53 | X-H torsion
[ 8008 7997 7996 7995 ] final   74.32 input   59.86 | X-H torsion
[ 10167 10162 10161 10158 ] final -137.52 input  -65.29 | X-H torsion
[ 10718 10713 10712 10709 ] final -122.56 input   66.30 | X-H torsion
[ 10763 10752 10751 10750 ] final -100.56 input  -60.55 | X-H torsion
[ 11005 11000 10999 10996 ] final   18.86 input  -57.11 | X-H torsion

> <Gold.Protein.ActiveResidues>
 VAL166  LYS551  ARG553  GLY616  TRP617  ASP618  TYR619  PRO620  LYS621  CYS622 
 ASP623  PHE694  ASN695  SER759  ASP760  ASP761  ALA762  ILE779  LEU786  VAL792 
 PHE793  MET794  SER795  GLU796  ALA797  LYS798  CYS799  TRP800  GLU811  SER814 

> <Gold.Protein.RotatedAtoms>
  150.7229  134.0468  159.3784 H   0  0  0  0  0  0  0  0  0  0  0  0  # atno 6907 bound_to 6896
  151.8444  135.0577  160.0461 H   0  0  0  0  0  0  0  0  0  0  0  0  # atno 6908 bound_to 6896
  152.2838  133.5460  159.5551 H   0  0  0  0  0  0  0  0  0  0  0  0  # atno 6909 bound_to 6896
  146.0239  139.4684  142.9880 H   0  0  0  0  0  0  0  0  0  0  0  0  # atno 7974 bound_to 7965
  155.7966  140.3477  155.5379 H   0  0  0  0  0  0  0  0  0  0  0  0  # atno 8008 bound_to 7997
  155.8580  140.0967  157.1652 H   0  0  0  0  0  0  0  0  0  0  0  0  # atno 8009 bound_to 7997
  154.4010  140.1364  156.3913 H   0  0  0  0  0  0  0  0  0  0  0  0  # atno 8010 bound_to 7997
  139.8570  143.7126  152.2653 H   0  0  0  0  0  0  0  0  0  0  0  0  # atno 10167 bound_to 10162
  156.1429  130.6479  150.9798 H   0  0  0  0  0  0  0  0  0  0  0  0  # atno 10718 bound_to 10713
  154.7589  135.4930  153.9426 H   0  0  0  0  0  0  0  0  0  0  0  0  # atno 10763 bound_to 10752
  153.1228  135.6735  153.9315 H   0  0  0  0  0  0  0  0  0  0  0  0  # atno 10764 bound_to 10752
  153.9042  135.3106  155.3427 H   0  0  0  0  0  0  0  0  0  0  0  0  # atno 10765 bound_to 10752
  140.4201  134.1527  155.7672 H   0  0  0  0  0  0  0  0  0  0  0  0  # atno 11005 bound_to 11000
  145.7149  141.0094  143.1433 LP  0  0  0  0  0  0  0  0  0  0  0  0  # atno 17320 bound_to 7965
  144.7001  139.8801  143.7446 LP  0  0  0  0  0  0  0  0  0  0  0  0  # atno 17321 bound_to 7965
  139.7410  144.7559  151.0652 LP  0  0  0  0  0  0  0  0  0  0  0  0  # atno 17342 bound_to 10162
  140.7780  143.4972  150.9817 LP  0  0  0  0  0  0  0  0  0  0  0  0  # atno 17343 bound_to 10162
  157.6591  131.0884  150.7879 LP  0  0  0  0  0  0  0  0  0  0  0  0  # atno 17370 bound_to 10713
  156.7953  130.4903  149.5378 LP  0  0  0  0  0  0  0  0  0  0  0  0  # atno 17371 bound_to 10713
  141.1787  133.8459  157.1332 LP  0  0  0  0  0  0  0  0  0  0  0  0  # atno 17394 bound_to 11000
  140.0206  134.9947  157.0584 LP  0  0  0  0  0  0  0  0  0  0  0  0  # atno 17395 bound_to 11000

$$$$
