AV-unprocessed.smi:1774|AV-procd|sdf|7167|dock8
  -GOLD-   22720 8403D 1   1.00000     0.00000
 Structure written by MMmdl.
 46 47  0  0  0  0  0  0  0  0  2 V2000
  151.0809  137.7805  154.3894 C   0  0  0  0  0  0  0  0  0  0  0  0
  150.3614  139.0401  154.8437 C   0  0  0  0  0  0  0  0  0  0  0  0
  151.0874  140.0441  155.5194 C   0  0  0  0  0  0  0  0  0  0  0  0
  150.4214  141.2093  155.9359 C   0  0  0  0  0  0  0  0  0  0  0  0
  149.0490  141.3224  155.6562 C   0  0  0  0  0  0  0  0  0  0  0  0
  148.3474  140.3683  155.0112 N   0  0  0  0  0  0  0  0  0  0  0  0
  148.9753  139.2374  154.6019 C   0  0  0  0  0  0  0  0  0  0  0  0
  148.2969  138.1874  153.9206 N   0  0  0  0  0  0  0  0  0  0  0  0
  146.9734  137.9636  153.8369 C   0  0  0  0  0  0  0  0  0  0  0  0
  146.0956  138.6687  154.3355 O   0  0  0  0  0  0  0  0  0  0  0  0
  146.7107  136.8589  153.1233 N   0  0  0  0  0  0  0  0  0  0  0  0
  145.3738  136.3616  152.8187 C   0  0  0  0  0  0  0  0  0  0  0  0
  145.2379  135.9544  151.3381 C   0  0  0  0  0  0  0  0  0  0  0  0
  144.7597  134.5589  151.1750 N   0  3  1  0  0  0  0  0  0  0  0  0
  144.3249  134.2706  149.7877 C   0  0  0  0  0  0  0  0  0  0  0  0
  143.7754  132.8356  149.6798 C   0  0  1  0  0  0  0  0  0  0  0  0
  143.3854  132.4706  148.2435 C   0  0  0  0  0  0  0  0  0  0  0  0
  144.7763  131.9213  150.1133 O   0  0  0  0  0  0  0  0  0  0  0  0
  145.1493  132.1223  151.4720 C   0  0  1  0  0  0  0  0  0  0  0  0
  146.1547  131.0321  151.8590 C   0  0  0  0  0  0  0  0  0  0  0  0
  145.7359  133.5379  151.6299 C   0  0  0  0  0  0  0  0  0  0  0  0
  152.1356  137.8037  154.6656 H   0  0  0  0  0  0  0  0  0  0  0  0
  151.0206  137.6778  153.3055 H   0  0  0  0  0  0  0  0  0  0  0  0
  150.6338  136.8979  154.8479 H   0  0  0  0  0  0  0  0  0  0  0  0
  152.1425  139.9259  155.7179 H   0  0  0  0  0  0  0  0  0  0  0  0
  150.9487  141.9952  156.4559 H   0  0  0  0  0  0  0  0  0  0  0  0
  148.4990  142.2013  155.9581 H   0  0  0  0  0  0  0  0  0  0  0  0
  148.8936  137.5330  153.4367 H   0  0  0  0  0  0  0  0  0  0  0  0
  147.4895  136.3373  152.7478 H   0  0  0  0  0  0  0  0  0  0  0  0
  145.1487  135.5287  153.4850 H   0  0  0  0  0  0  0  0  0  0  0  0
  144.6585  137.1501  153.0540 H   0  0  0  0  0  0  0  0  0  0  0  0
  144.5257  136.6322  150.8649 H   0  0  0  0  0  0  0  0  0  0  0  0
  146.1819  136.0780  150.8051 H   0  0  0  0  0  0  0  0  0  0  0  0
  143.5536  134.9815  149.4886 H   0  0  0  0  0  0  0  0  0  0  0  0
  145.1672  134.4063  149.1068 H   0  0  0  0  0  0  0  0  0  0  0  0
  142.8941  132.7314  150.3151 H   0  0  0  0  0  0  0  0  0  0  0  0
  142.6158  133.1419  147.8619 H   0  0  0  0  0  0  0  0  0  0  0  0
  142.9937  131.4542  148.1937 H   0  0  0  0  0  0  0  0  0  0  0  0
  144.2436  132.5291  147.5737 H   0  0  0  0  0  0  0  0  0  0  0  0
  144.2659  132.0179  152.1051 H   0  0  0  0  0  0  0  0  0  0  0  0
  146.4667  131.1364  152.8984 H   0  0  0  0  0  0  0  0  0  0  0  0
  147.0475  131.0779  151.2348 H   0  0  0  0  0  0  0  0  0  0  0  0
  145.7175  130.0401  151.7423 H   0  0  0  0  0  0  0  0  0  0  0  0
  146.6568  133.6309  151.0515 H   0  0  0  0  0  0  0  0  0  0  0  0
  145.9981  133.7010  152.6745 H   0  0  0  0  0  0  0  0  0  0  0  0
  143.9383  134.4649  151.7550 H   0  0  0  0  0  0  0  0  0  0  0  0
  1  2  1  0  0  0  0
  1 22  1  0  0  0  0
  1 23  1  0  0  0  0
  1 24  1  0  0  0  0
  2  7  1  0  0  0  0
  2  3  2  0  0  0  0
  3  4  1  0  0  0  0
  3 25  1  0  0  0  0
  4  5  2  0  0  0  0
  4 26  1  0  0  0  0
  5  6  1  0  0  0  0
  5 27  1  0  0  0  0
  6  7  2  0  0  0  0
  7  8  1  0  0  0  0
  8  9  1  0  0  0  0
  8 28  1  0  0  0  0
  9 10  2  0  0  0  0
  9 11  1  0  0  0  0
 11 12  1  0  0  0  0
 11 29  1  0  0  0  0
 12 13  1  0  0  0  0
 12 30  1  0  0  0  0
 12 31  1  0  0  0  0
 13 14  1  0  0  0  0
 13 32  1  0  0  0  0
 13 33  1  0  0  0  0
 14 21  1  0  0  0  0
 14 15  1  0  0  0  0
 14 46  1  0  0  0  0
 15 16  1  0  0  0  0
 15 34  1  0  0  0  0
 15 35  1  0  0  0  0
 16 17  1  0  0  0  0
 16 18  1  0  0  0  0
 16 36  1  0  0  0  0
 17 37  1  0  0  0  0
 17 38  1  0  0  0  0
 17 39  1  0  0  0  0
 18 19  1  0  0  0  0
 19 20  1  0  0  0  0
 19 21  1  0  0  0  0
 19 40  1  0  0  0  0
 20 41  1  0  0  0  0
 20 42  1  0  0  0  0
 20 43  1  0  0  0  0
 21 44  1  0  0  0  0
 21 45  1  0  0  0  0
M  CHG  1  14   1
M  END
> <s_m_source_file>
AV-unprocessed.smi

> <i_m_source_file_index>
1774

> <i_lp_mmshare_version>
43012

> <i_f3d_flags>
0

> <s_epik_input>
W0NIM11jMVtjSF1bY0hdW2NIXW5jMVtOSF1DKD1PKVtOSF1bQ0gyXVtDSDJdTjJbQ0gyXVtDQEBIXShbQ0gzXSlPW0NAQEhdKFtDSDNdKVtDSDJdMg==

> <s_epik_cmdline>
J2VwaWtfcHl0aG9uJywgJy1waCcsICc3LjAnLCAnLXRuJywgJzgnLCAnLW1hJywgJzIwMCcsICctbWV0YWxfYmluZGluZycsICctaW1hZScsICc8aW5maWxlLm1hZT4nLCAnLW9tYWUnLCAnPG91dGZpbGUubWFlPic=

> <r_epik_Ionization_Penalty>
0.602573

> <r_epik_Ionization_Penalty_Charging>
0.602531

> <r_epik_Ionization_Penalty_Neutral>
4.21996e-05

> <r_epik_State_Penalty>
0.617039

> <r_epik_Charging_Adjusted_Penalty>
1.21957

> <i_epik_Tot_Q>
1

> <i_epik_Tot_abs_Q>
1

> <r_epik_Metal_State_Penalty>
0.617042

> <b_epik_Metal_Only>
0

> <s_lp_Force_Field>
OPLS_2005

> <r_lp_Energy>
15.6229

> <b_lp_Chiralities_Consistent>
1

> <s_lp_Variant>
AV-unprocessed.smi:1774-4

> <Gold.Version>
5.8.1

> <Gold.Id.Protein>
6NUR|6NUR_protein|mol2

> <Gold.PLP.Fitness>
43.3243

> <Gold.PLP.PLP>
-35.8717

> <Gold.PLP.part.hbond>
-2.0000

> <Gold.PLP.part.metal>
0.0000

> <Gold.PLP.part.buried>
0.2697

> <Gold.PLP.part.nonpolar>
-34.9512

> <Gold.PLP.part.repulsive>
0.4113

> <Gold.PLP.ligand.clash>
0.0000

> <Gold.PLP.ligand.torsion>
0.5780

> <Gold.PLP.Chemscore.Hbond>
1.8640

> <Gold.PLP.Chemscore.CHOScore>
1.0000

> <Gold.PLP.Chemscore.Metal>
0.0000

> <Gold.Chemscore.Hbonds>
donor molecule, donor type, donor heavy atom, donor atom, acceptor molecule, acceptor atom, score
      L1  H     8    28       P1  7948  0.88
      L1  H    11    29       P1  7948  1.00
      L1  C     5    27       P1  8028  0.93

> <Gold.PLP.Chemscore.Internal.Correction>
0.0166

> <Gold.Rescore>
     Score         DG    S(hbond)    S(metal)    S(lipo)     H(rot)  DE(clash)    DE(int)     intcor
     16.53     -19.66       1.84        0.00     101.33       1.49       1.22       1.90       ----

> <Gold.Chemscore.Fitness>
16.5340

> <Gold.Chemscore.DG>
-19.6613

> <Gold.Chemscore.ZeroCoef>
-5.4800

> <Gold.Chemscore.Hbond>
1.8417

> <Gold.Chemscore.Metal>
0.0000

> <Gold.Chemscore.Lipo>
101.3330

> <Gold.Chemscore.Internal_Hbond>
0.0000

> <Gold.Chemscore.DEClash>
1.2233

> <Gold.Chemscore.DEInternal>
1.9040

> <Gold.Chemscore.Rot>
1.4946

> <Gold.Chemscore.Internal.Correction>
   9.000000E+99

> <Gold.Chemscore.Hbonds>
donor molecule, donor type, donor heavy atom, donor atom, acceptor molecule, acceptor atom, score
      L1  H     8    28       P1  7948  0.81
      L1  H    11    29       P1  7948  0.96

> <Gold.Chemscore.Hbond.Weighted>
-6.1514

> <Gold.Chemscore.Metal.Weighted>
-0.0000

> <Gold.Chemscore.Lipo.Weighted>
-11.8560

> <Gold.Chemscore.Internal_Hbond.Weighted>
0.0000

> <Gold.Chemscore.DEClash.Weighted>
1.2233

> <Gold.Chemscore.DEInternal.Weighted>
1.9040

> <Gold.Chemscore.Rot.Weighted>
3.8261

> <Gold.Chemscore.Internal.Correction.Weighted>
   9.000000E+99

> <Gold.Protein.RotatedTorsions>
[ 6907 6896 6895 6894 ] final  147.06 input  -60.11 | X-H torsion
[ 7974 7965 7964 7962 ] final -142.68 input  175.53 | X-H torsion
[ 8008 7997 7996 7995 ] final   40.17 input   59.86 | X-H torsion
[ 10167 10162 10161 10158 ] final   81.21 input  -65.29 | X-H torsion
[ 10718 10713 10712 10709 ] final  -25.80 input   66.30 | X-H torsion
[ 10763 10752 10751 10750 ] final    5.31 input  -60.55 | X-H torsion
[ 11005 11000 10999 10996 ] final  -69.66 input  -57.11 | X-H torsion

> <Gold.Protein.ActiveResidues>
 VAL166  LYS551  ARG553  GLY616  TRP617  ASP618  TYR619  PRO620  LYS621  CYS622 
 ASP623  PHE694  ASN695  SER759  ASP760  ASP761  ALA762  ILE779  LEU786  VAL792 
 PHE793  MET794  SER795  GLU796  ALA797  LYS798  CYS799  TRP800  GLU811  SER814 

> <Gold.Protein.RotatedAtoms>
  152.1598  133.4574  159.4854 H   0  0  0  0  0  0  0  0  0  0  0  0  # atno 6907 bound_to 6896
  150.6905  134.2086  159.4359 H   0  0  0  0  0  0  0  0  0  0  0  0  # atno 6908 bound_to 6896
  151.9987  134.9939  160.0615 H   0  0  0  0  0  0  0  0  0  0  0  0  # atno 6909 bound_to 6896
  144.8425  140.5928  143.5443 H   0  0  0  0  0  0  0  0  0  0  0  0  # atno 7974 bound_to 7965
  155.2488  140.3351  155.4284 H   0  0  0  0  0  0  0  0  0  0  0  0  # atno 8008 bound_to 7997
  156.2225  140.1815  156.7488 H   0  0  0  0  0  0  0  0  0  0  0  0  # atno 8009 bound_to 7997
  154.5846  140.0648  156.9138 H   0  0  0  0  0  0  0  0  0  0  0  0  # atno 8010 bound_to 7997
  139.9416  144.6086  150.8246 H   0  0  0  0  0  0  0  0  0  0  0  0  # atno 10167 bound_to 10162
  156.4595  130.4501  149.6938 H   0  0  0  0  0  0  0  0  0  0  0  0  # atno 10718 bound_to 10713
  153.2609  135.6923  153.7580 H   0  0  0  0  0  0  0  0  0  0  0  0  # atno 10763 bound_to 10752
  153.6639  135.3356  155.3135 H   0  0  0  0  0  0  0  0  0  0  0  0  # atno 10764 bound_to 10752
  154.8430  135.4483  154.1599 H   0  0  0  0  0  0  0  0  0  0  0  0  # atno 10765 bound_to 10752
  141.1558  133.6770  156.6633 H   0  0  0  0  0  0  0  0  0  0  0  0  # atno 11005 bound_to 11000
  145.4664  139.1507  143.3838 LP  0  0  0  0  0  0  0  0  0  0  0  0  # atno 17320 bound_to 7965
  146.2715  140.4796  142.8812 LP  0  0  0  0  0  0  0  0  0  0  0  0  # atno 17321 bound_to 7965
  140.7609  143.3162  151.2727 LP  0  0  0  0  0  0  0  0  0  0  0  0  # atno 17342 bound_to 10162
  139.6700  144.0037  152.2747 LP  0  0  0  0  0  0  0  0  0  0  0  0  # atno 17343 bound_to 10162
  156.3731  130.7541  151.2526 LP  0  0  0  0  0  0  0  0  0  0  0  0  # atno 17370 bound_to 10713
  157.7498  131.0317  150.4194 LP  0  0  0  0  0  0  0  0  0  0  0  0  # atno 17371 bound_to 10713
  140.3230  134.7992  157.4267 LP  0  0  0  0  0  0  0  0  0  0  0  0  # atno 17394 bound_to 11000
  140.1080  134.5383  155.8291 LP  0  0  0  0  0  0  0  0  0  0  0  0  # atno 17395 bound_to 11000

$$$$
