AV-unprocessed.smi:2925|AV-procd|sdf|11224|dock7
  -GOLD-   2272016113D 1   1.00000     0.00000
 Structure written by MMmdl.
 44 45  0  0  0  0  0  0  0  0  1 V2000
  151.0059  140.4533  155.6440 C   0  0  0  0  0  0  0  0  0  0  0  0
  149.9633  141.5091  156.0405 C   0  0  0  0  0  0  0  0  0  0  0  0
  149.9499  141.8431  157.5469 C   0  0  2  0  0  0  0  0  0  0  0  0
  148.9462  142.8715  157.8226 N   0  0  0  0  0  0  0  0  0  0  0  0
  147.8471  142.7162  158.5742 C   0  0  0  0  0  0  0  0  0  0  0  0
  147.5407  141.6646  159.1372 O   0  0  0  0  0  0  0  0  0  0  0  0
  147.1127  143.8423  158.6006 N   0  0  0  0  0  0  0  0  0  0  0  0
  145.8643  143.9983  159.2222 C   0  0  0  0  0  0  0  0  0  0  0  0
  144.8043  144.4055  158.4755 C   0  0  0  0  0  0  0  0  0  0  0  0
  144.9281  144.6612  156.9816 C   0  0  0  0  0  0  0  0  0  0  0  0
  143.5162  144.5739  159.1153 C   0  0  0  0  0  0  0  0  0  0  0  0
  143.3955  144.3314  160.4274 C   0  0  0  0  0  0  0  0  0  0  0  0
  144.4914  143.9344  161.2073 N   0  0  0  0  0  0  0  0  0  0  0  0
  144.2604  143.7129  162.6373 C   0  0  0  0  0  0  0  0  0  0  0  0
  145.7435  143.7901  160.6856 C   0  0  0  0  0  0  0  0  0  0  0  0
  146.7034  143.5200  161.4112 O   0  0  0  0  0  0  0  0  0  0  0  0
  151.3281  142.3257  158.0416 C   0  0  1  0  0  0  0  0  0  0  0  0
  151.6541  143.7825  157.7040 C   0  0  0  0  0  0  0  0  0  0  0  0
  152.6945  144.1109  158.7495 C   0  0  0  0  0  0  0  0  0  0  0  0
  152.1580  143.3676  159.9694 C   0  0  0  0  0  0  0  0  0  0  0  0
  151.4044  142.2679  159.4642 O   0  0  0  0  0  0  0  0  0  0  0  0
  151.0120  140.3035  154.5643 H   0  0  0  0  0  0  0  0  0  0  0  0
  150.7987  139.4885  156.1070 H   0  0  0  0  0  0  0  0  0  0  0  0
  152.0089  140.7601  155.9424 H   0  0  0  0  0  0  0  0  0  0  0  0
  150.1664  142.4178  155.4728 H   0  0  0  0  0  0  0  0  0  0  0  0
  148.9738  141.1732  155.7275 H   0  0  0  0  0  0  0  0  0  0  0  0
  149.7086  140.9287  158.0919 H   0  0  0  0  0  0  0  0  0  0  0  0
  149.1013  143.7736  157.3971 H   0  0  0  0  0  0  0  0  0  0  0  0
  147.4070  144.6024  158.0054 H   0  0  0  0  0  0  0  0  0  0  0  0
  143.9734  144.9658  156.5522 H   0  0  0  0  0  0  0  0  0  0  0  0
  145.2554  143.7582  156.4649 H   0  0  0  0  0  0  0  0  0  0  0  0
  145.6513  145.4538  156.7869 H   0  0  0  0  0  0  0  0  0  0  0  0
  142.6540  144.8834  158.5425 H   0  0  0  0  0  0  0  0  0  0  0  0
  142.4606  144.4357  160.9583 H   0  0  0  0  0  0  0  0  0  0  0  0
  144.6548  142.7447  162.9501 H   0  0  0  0  0  0  0  0  0  0  0  0
  143.2015  143.7251  162.8978 H   0  0  0  0  0  0  0  0  0  0  0  0
  144.7541  144.4878  163.2253 H   0  0  0  0  0  0  0  0  0  0  0  0
  152.1167  141.6860  157.6412 H   0  0  0  0  0  0  0  0  0  0  0  0
  152.0172  143.9147  156.6844 H   0  0  0  0  0  0  0  0  0  0  0  0
  150.7757  144.4156  157.8397 H   0  0  0  0  0  0  0  0  0  0  0  0
  153.6617  143.7012  158.4545 H   0  0  0  0  0  0  0  0  0  0  0  0
  152.8130  145.1815  158.9191 H   0  0  0  0  0  0  0  0  0  0  0  0
  152.9563  143.0312  160.6312 H   0  0  0  0  0  0  0  0  0  0  0  0
  151.4888  144.0084  160.5447 H   0  0  0  0  0  0  0  0  0  0  0  0
  1  2  1  0  0  0  0
  1 22  1  0  0  0  0
  1 23  1  0  0  0  0
  1 24  1  0  0  0  0
  2  3  1  0  0  0  0
  2 25  1  0  0  0  0
  2 26  1  0  0  0  0
  3  4  1  0  0  0  0
  3 17  1  0  0  0  0
  3 27  1  0  0  0  0
  4  5  1  0  0  0  0
  4 28  1  0  0  0  0
  5  6  2  0  0  0  0
  5  7  1  0  0  0  0
  7  8  1  0  0  0  0
  7 29  1  0  0  0  0
  8 15  1  0  0  0  0
  8  9  2  0  0  0  0
  9 10  1  0  0  0  0
  9 11  1  0  0  0  0
 10 30  1  0  0  0  0
 10 31  1  0  0  0  0
 10 32  1  0  0  0  0
 11 12  2  0  0  0  0
 11 33  1  0  0  0  0
 12 13  1  0  0  0  0
 12 34  1  0  0  0  0
 13 14  1  0  0  0  0
 13 15  1  0  0  0  0
 14 35  1  0  0  0  0
 14 36  1  0  0  0  0
 14 37  1  0  0  0  0
 15 16  2  0  0  0  0
 17 21  1  0  0  0  0
 17 18  1  0  0  0  0
 17 38  1  0  0  0  0
 18 19  1  0  0  0  0
 18 39  1  0  0  0  0
 18 40  1  0  0  0  0
 19 20  1  0  0  0  0
 19 41  1  0  0  0  0
 19 42  1  0  0  0  0
 20 21  1  0  0  0  0
 20 43  1  0  0  0  0
 20 44  1  0  0  0  0
M  END
> <s_m_source_file>
AV-unprocessed.smi

> <i_m_source_file_index>
2925

> <i_lp_mmshare_version>
43012

> <i_f3d_flags>
0

> <s_epik_input>
TzFbQ0gyXVtDSDJdW0NIMl1bQ0BIXTFbQ0BIXShbQ0gyXVtDSDNdKVtOSF1DKD1PKVtOSF1jMmMoW0NIM10pW2NIXVtjSF1uKFtDSDNdKWMyPU8=

> <s_epik_cmdline>
J2VwaWtfcHl0aG9uJywgJy1waCcsICc3LjAnLCAnLXRuJywgJzgnLCAnLW1hJywgJzIwMCcsICctbWV0YWxfYmluZGluZycsICctaW1hZScsICc8aW5maWxlLm1hZT4nLCAnLW9tYWUnLCAnPG91dGZpbGUubWFlPic=

> <r_lp_tautomer_probability>
1

> <r_epik_Ionization_Penalty>
2.58789e-05

> <r_epik_Ionization_Penalty_Charging>
6.72534e-06

> <r_epik_Ionization_Penalty_Neutral>
1.91535e-05

> <r_epik_State_Penalty>
-0

> <r_epik_Charging_Adjusted_Penalty>
6.72534e-06

> <i_epik_Tot_Q>
0

> <i_epik_Tot_abs_Q>
0

> <r_epik_Metal_State_Penalty>
-0

> <b_epik_Metal_Only>
0

> <s_lp_Force_Field>
OPLS_2005

> <r_lp_Energy>
34.9681

> <b_lp_Chiralities_Consistent>
1

> <s_lp_Variant>
AV-unprocessed.smi:2925-3

> <Gold.Version>
5.8.1

> <Gold.Id.Protein>
6NUR|6NUR_protein|mol2

> <Gold.PLP.Fitness>
45.0168

> <Gold.PLP.PLP>
-37.1255

> <Gold.PLP.part.hbond>
-5.1105

> <Gold.PLP.part.metal>
0.0000

> <Gold.PLP.part.buried>
-1.1308

> <Gold.PLP.part.nonpolar>
-30.9945

> <Gold.PLP.part.repulsive>
0.2007

> <Gold.PLP.ligand.clash>
0.0000

> <Gold.PLP.ligand.torsion>
0.8213

> <Gold.PLP.Chemscore.Hbond>
2.9696

> <Gold.PLP.Chemscore.CHOScore>
0.0000

> <Gold.PLP.Chemscore.Metal>
0.0000

> <Gold.Chemscore.Hbonds>
donor molecule, donor type, donor heavy atom, donor atom, acceptor molecule, acceptor atom, score
      L1  H     4    28       P1  8028  0.79
      L1  H     7    29       P1  8029  1.00
      P1  H  6933  6944       L1    16  0.76
      P1  H  6934  6946       L1     6  0.32

> <Gold.PLP.Chemscore.Internal.Correction>
0.6254

> <Gold.Rescore>
     Score         DG    S(hbond)    S(metal)    S(lipo)     H(rot)  DE(clash)    DE(int)     intcor
     18.09     -20.03       2.16        0.00      92.32       1.36       1.05       0.89       ----

> <Gold.Chemscore.Fitness>
18.0877

> <Gold.Chemscore.DG>
-20.0255

> <Gold.Chemscore.ZeroCoef>
-5.4800

> <Gold.Chemscore.Hbond>
2.1616

> <Gold.Chemscore.Metal>
0.0000

> <Gold.Chemscore.Lipo>
92.3243

> <Gold.Chemscore.Internal_Hbond>
0.0000

> <Gold.Chemscore.DEClash>
1.0496

> <Gold.Chemscore.DEInternal>
0.8882

> <Gold.Chemscore.Rot>
1.3579

> <Gold.Chemscore.Internal.Correction>
   9.000000E+99

> <Gold.Chemscore.Hbonds>
donor molecule, donor type, donor heavy atom, donor atom, acceptor molecule, acceptor atom, score
      L1  H     4    28       P1  8028  0.18
      L1  H     7    29       P1  8029  0.54
      P1  H  6933  6944       L1    16  0.73
      P1  H  6934  6946       L1     6  0.32

> <Gold.Chemscore.Hbond.Weighted>
-7.2198

> <Gold.Chemscore.Metal.Weighted>
-0.0000

> <Gold.Chemscore.Lipo.Weighted>
-10.8019

> <Gold.Chemscore.Internal_Hbond.Weighted>
0.0000

> <Gold.Chemscore.DEClash.Weighted>
1.0496

> <Gold.Chemscore.DEInternal.Weighted>
0.8882

> <Gold.Chemscore.Rot.Weighted>
3.4763

> <Gold.Chemscore.Internal.Correction.Weighted>
   9.000000E+99

> <Gold.Protein.RotatedTorsions>
[ 6907 6896 6895 6894 ] final  168.13 input  -60.11 | X-H torsion
[ 7974 7965 7964 7962 ] final  -76.07 input  175.53 | X-H torsion
[ 8008 7997 7996 7995 ] final  -42.41 input   59.86 | X-H torsion
[ 10167 10162 10161 10158 ] final   21.92 input  -65.29 | X-H torsion
[ 10718 10713 10712 10709 ] final  -71.79 input   66.30 | X-H torsion
[ 10763 10752 10751 10750 ] final  -45.55 input  -60.55 | X-H torsion
[ 11005 11000 10999 10996 ] final  112.43 input  -57.11 | X-H torsion

> <Gold.Protein.ActiveResidues>
 VAL166  LYS551  ARG553  GLY616  TRP617  ASP618  TYR619  PRO620  LYS621  CYS622 
 ASP623  PHE694  ASN695  SER759  ASP760  ASP761  ALA762  ILE779  LEU786  VAL792 
 PHE793  MET794  SER795  GLU796  ALA797  LYS798  CYS799  TRP800  GLU811  SER814 

> <Gold.Protein.RotatedAtoms>
  151.8525  133.3442  159.3677 H   0  0  0  0  0  0  0  0  0  0  0  0  # atno 6907 bound_to 6896
  150.7202  134.5285  159.5698 H   0  0  0  0  0  0  0  0  0  0  0  0  # atno 6908 bound_to 6896
  152.2781  134.7859  160.0453 H   0  0  0  0  0  0  0  0  0  0  0  0  # atno 6909 bound_to 6896
  145.6178  140.9371  143.1155 H   0  0  0  0  0  0  0  0  0  0  0  0  # atno 7974 bound_to 7965
  154.3999  140.1474  156.3350 H   0  0  0  0  0  0  0  0  0  0  0  0  # atno 8008 bound_to 7997
  155.8408  140.3462  155.5609 H   0  0  0  0  0  0  0  0  0  0  0  0  # atno 8009 bound_to 7997
  155.8089  140.0881  157.1906 H   0  0  0  0  0  0  0  0  0  0  0  0  # atno 8010 bound_to 7997
  140.5389  143.9712  150.6508 H   0  0  0  0  0  0  0  0  0  0  0  0  # atno 10167 bound_to 10162
  156.0347  130.4358  150.2496 H   0  0  0  0  0  0  0  0  0  0  0  0  # atno 10718 bound_to 10713
  154.0304  135.6657  153.4780 H   0  0  0  0  0  0  0  0  0  0  0  0  # atno 10763 bound_to 10752
  153.0543  135.5066  154.7938 H   0  0  0  0  0  0  0  0  0  0  0  0  # atno 10764 bound_to 10752
  154.6882  135.3056  154.9483 H   0  0  0  0  0  0  0  0  0  0  0  0  # atno 10765 bound_to 10752
  139.8927  134.9530  156.6585 H   0  0  0  0  0  0  0  0  0  0  0  0  # atno 11005 bound_to 11000
  144.7243  139.7925  143.7370 LP  0  0  0  0  0  0  0  0  0  0  0  0  # atno 17320 bound_to 7965
  146.1455  139.4523  143.0082 LP  0  0  0  0  0  0  0  0  0  0  0  0  # atno 17321 bound_to 7965
  140.3107  143.3200  152.0882 LP  0  0  0  0  0  0  0  0  0  0  0  0  # atno 17342 bound_to 10162
  139.4981  144.6638  151.6403 LP  0  0  0  0  0  0  0  0  0  0  0  0  # atno 17343 bound_to 10162
  157.0597  131.0086  151.3227 LP  0  0  0  0  0  0  0  0  0  0  0  0  # atno 17370 bound_to 10713
  157.5080  130.7921  149.7674 LP  0  0  0  0  0  0  0  0  0  0  0  0  # atno 17371 bound_to 10713
  140.7465  133.8933  155.8316 LP  0  0  0  0  0  0  0  0  0  0  0  0  # atno 17394 bound_to 11000
  141.0035  134.1118  157.4293 LP  0  0  0  0  0  0  0  0  0  0  0  0  # atno 17395 bound_to 11000

$$$$
