AV-unprocessed.smi:229|AV-procd|sdf|1751|dock7
  -GOLD-   2262020273D 1   1.00000     0.00000
 Structure written by MMmdl.
 58 62  0  0  0  0  0  0  0  0  1 V2000
  145.2238  135.2113  162.4567 C   0  0  0  0  0  0  0  0  0  0  0  0
  146.7336  135.2248  162.7309 C   0  0  0  0  0  0  0  0  0  0  0  0
  147.5920  134.9345  161.4883 C   0  0  2  0  0  0  0  0  0  0  0  0
  148.2306  136.2019  160.8896 C   0  0  0  0  0  0  0  0  0  0  0  0
  148.9221  135.8739  159.6495 N   0  0  0  0  0  0  0  0  0  0  0  0
  149.7889  136.8191  159.2055 C   0  0  0  0  0  0  0  0  0  0  0  0
  151.1288  136.6351  159.3512 N   0  0  0  0  0  0  0  0  0  0  0  0
  151.9897  137.5565  158.9097 C   0  0  0  0  0  0  0  0  0  0  0  0
  151.7321  138.7179  158.3058 N   0  0  0  0  0  0  0  0  0  0  0  0
  150.3900  138.9138  158.1654 C   0  0  0  0  0  0  0  0  0  0  0  0
  149.3588  138.0251  158.5827 C   0  0  0  0  0  0  0  0  0  0  0  0
  148.1155  138.5712  158.2830 N   0  0  0  0  0  0  0  0  0  0  0  0
  148.3962  139.7102  157.7107 C   0  0  0  0  0  0  0  0  0  0  0  0
  149.7379  139.9942  157.5984 N   0  0  0  0  0  0  0  0  0  0  0  0
  150.3266  141.1819  157.0053 C   0  0  0  0  0  0  0  0  0  0  0  0
  150.3361  142.3792  157.9797 C   0  0  2  0  0  0  0  0  0  0  0  0
  150.7635  143.5564  157.3232 O   0  0  0  0  0  0  0  0  0  0  0  0
  151.2061  142.1722  159.2366 C   0  0  1  0  0  0  0  0  0  0  0  0
  152.7119  142.2121  158.9739 C   0  0  0  0  0  0  0  0  0  0  0  0
  153.2491  142.5265  160.3513 C   0  0  0  0  0  0  0  0  0  0  0  0
  152.2053  143.5057  160.8820 C   0  0  0  0  0  0  0  0  0  0  0  0
  150.9889  143.1951  160.2061 O   0  0  0  0  0  0  0  0  0  0  0  0
  148.0555  135.2215  158.6732 C   0  0  0  0  0  0  0  0  0  0  0  0
  147.3823  133.9730  159.2869 C   0  0  1  0  0  0  0  0  0  0  0  0
  146.3194  133.4097  158.3500 C   0  0  0  0  0  0  0  0  0  0  0  0
  147.0733  132.3402  157.5745 C   0  0  0  0  0  0  0  0  0  0  0  0
  147.8748  131.7465  158.5787 O   0  0  0  0  0  0  0  0  0  0  0  0
  148.3490  132.7752  159.4411 C   0  0  0  0  0  0  0  0  0  0  0  0
  146.7382  134.3332  160.5127 O   0  0  0  0  0  0  0  0  0  0  0  0
  144.6674  135.4867  163.3528 H   0  0  0  0  0  0  0  0  0  0  0  0
  144.8803  134.2237  162.1496 H   0  0  0  0  0  0  0  0  0  0  0  0
  144.9591  135.9195  161.6711 H   0  0  0  0  0  0  0  0  0  0  0  0
  147.0028  136.2065  163.1222 H   0  0  0  0  0  0  0  0  0  0  0  0
  146.9696  134.5097  163.5197 H   0  0  0  0  0  0  0  0  0  0  0  0
  148.3779  134.2323  161.7683 H   0  0  0  0  0  0  0  0  0  0  0  0
  147.4618  136.9465  160.6783 H   0  0  0  0  0  0  0  0  0  0  0  0
  148.9120  136.6492  161.6115 H   0  0  0  0  0  0  0  0  0  0  0  0
  153.0348  137.3304  159.0617 H   0  0  0  0  0  0  0  0  0  0  0  0
  147.6276  140.3793  157.3515 H   0  0  0  0  0  0  0  0  0  0  0  0
  151.3404  140.9343  156.6909 H   0  0  0  0  0  0  0  0  0  0  0  0
  149.7722  141.4270  156.0987 H   0  0  0  0  0  0  0  0  0  0  0  0
  149.3133  142.5755  158.3046 H   0  0  0  0  0  0  0  0  0  0  0  0
  150.0263  143.9236  156.8590 H   0  0  0  0  0  0  0  0  0  0  0  0
  150.9740  141.2120  159.7010 H   0  0  0  0  0  0  0  0  0  0  0  0
  153.0974  141.2758  158.5694 H   0  0  0  0  0  0  0  0  0  0  0  0
  152.9717  143.0149  158.2834 H   0  0  0  0  0  0  0  0  0  0  0  0
  153.2607  141.6227  160.9620 H   0  0  0  0  0  0  0  0  0  0  0  0
  154.2568  142.9427  160.3366 H   0  0  0  0  0  0  0  0  0  0  0  0
  152.0876  143.4350  161.9635 H   0  0  0  0  0  0  0  0  0  0  0  0
  152.4831  144.5316  160.6379 H   0  0  0  0  0  0  0  0  0  0  0  0
  147.2937  135.9349  158.3545 H   0  0  0  0  0  0  0  0  0  0  0  0
  148.6253  134.9420  157.7858 H   0  0  0  0  0  0  0  0  0  0  0  0
  145.5237  132.9347  158.9261 H   0  0  0  0  0  0  0  0  0  0  0  0
  145.8585  134.1594  157.7061 H   0  0  0  0  0  0  0  0  0  0  0  0
  146.4123  131.6127  157.1032 H   0  0  0  0  0  0  0  0  0  0  0  0
  147.7085  132.7835  156.8059 H   0  0  0  0  0  0  0  0  0  0  0  0
  149.3681  133.0438  159.1598 H   0  0  0  0  0  0  0  0  0  0  0  0
  148.3791  132.3850  160.4581 H   0  0  0  0  0  0  0  0  0  0  0  0
  1  2  1  0  0  0  0
  1 30  1  0  0  0  0
  1 31  1  0  0  0  0
  1 32  1  0  0  0  0
  2  3  1  0  0  0  0
  2 33  1  0  0  0  0
  2 34  1  0  0  0  0
  3 29  1  0  0  0  0
  3  4  1  0  0  0  0
  3 35  1  0  0  0  0
  4  5  1  0  0  0  0
  4 36  1  0  0  0  0
  4 37  1  0  0  0  0
  5  6  1  0  0  0  0
  5 23  1  0  0  0  0
  6 11  1  0  0  0  0
  6  7  2  0  0  0  0
  7  8  1  0  0  0  0
  8  9  2  0  0  0  0
  8 38  1  0  0  0  0
  9 10  1  0  0  0  0
 10 14  1  0  0  0  0
 10 11  2  0  0  0  0
 11 12  1  0  0  0  0
 12 13  2  0  0  0  0
 13 14  1  0  0  0  0
 13 39  1  0  0  0  0
 14 15  1  0  0  0  0
 15 16  1  0  0  0  0
 15 40  1  0  0  0  0
 15 41  1  0  0  0  0
 16 17  1  0  0  0  0
 16 18  1  0  0  0  0
 16 42  1  0  0  0  0
 17 43  1  0  0  0  0
 18 22  1  0  0  0  0
 18 19  1  0  0  0  0
 18 44  1  0  0  0  0
 19 20  1  0  0  0  0
 19 45  1  0  0  0  0
 19 46  1  0  0  0  0
 20 21  1  0  0  0  0
 20 47  1  0  0  0  0
 20 48  1  0  0  0  0
 21 22  1  0  0  0  0
 21 49  1  0  0  0  0
 21 50  1  0  0  0  0
 23 24  1  0  0  0  0
 23 51  1  0  0  0  0
 23 52  1  0  0  0  0
 24 28  1  0  0  0  0
 24 25  1  0  0  0  0
 24 29  1  0  0  0  0
 25 26  1  0  0  0  0
 25 53  1  0  0  0  0
 25 54  1  0  0  0  0
 26 27  1  0  0  0  0
 26 55  1  0  0  0  0
 26 56  1  0  0  0  0
 27 28  1  0  0  0  0
 28 57  1  0  0  0  0
 28 58  1  0  0  0  0
M  END
> <s_m_source_file>
AV-unprocessed.smi

> <i_m_source_file_index>
229

> <i_lp_mmshare_version>
43012

> <i_f3d_flags>
0

> <s_epik_input>
W0NIMl0xT1tDSDJdW0NIMl1bQ0BdMTJbQ0gyXU4oW0NIMl1bQ0BIXShPMilbQ0gyXVtDSDNdKWMobltjSF1uMyljKGMzNCluW2NIXW40W0NIMl1bQ0BIXShbT0hdKVtDQEBIXTVbQ0gyXVtDSDJdW0NIMl1PNQ==

> <s_epik_cmdline>
J2VwaWtfcHl0aG9uJywgJy1waCcsICc3LjAnLCAnLXRuJywgJzgnLCAnLW1hJywgJzIwMCcsICctbWV0YWxfYmluZGluZycsICctaW1hZScsICc8aW5maWxlLm1hZT4nLCAnLW9tYWUnLCAnPG91dGZpbGUubWFlPic=

> <r_lp_tautomer_probability>
1

> <r_epik_Ionization_Penalty>
0.00318402

> <r_epik_Ionization_Penalty_Charging>
0

> <r_epik_Ionization_Penalty_Neutral>
0.00318402

> <r_epik_State_Penalty>
0.00215642

> <r_epik_Charging_Adjusted_Penalty>
0.00215642

> <i_epik_Tot_Q>
0

> <i_epik_Tot_abs_Q>
0

> <r_epik_Metal_State_Penalty>
-0

> <b_epik_Metal_Only>
0

> <s_lp_Force_Field>
OPLS_2005

> <r_lp_Energy>
54.9877

> <b_lp_Chiralities_Consistent>
1

> <s_lp_Variant>
AV-unprocessed.smi:229-5

> <Gold.Version>
5.8.1

> <Gold.Id.Protein>
6NUR|6NUR_protein|mol2

> <Gold.PLP.Fitness>
45.7493

> <Gold.PLP.PLP>
-41.8289

> <Gold.PLP.part.hbond>
-4.2647

> <Gold.PLP.part.metal>
0.0000

> <Gold.PLP.part.buried>
-7.5954

> <Gold.PLP.part.nonpolar>
-31.0976

> <Gold.PLP.part.repulsive>
0.0528

> <Gold.PLP.ligand.clash>
0.0000

> <Gold.PLP.ligand.torsion>
1.2181

> <Gold.PLP.Chemscore.Hbond>
2.0000

> <Gold.PLP.Chemscore.CHOScore>
0.0000

> <Gold.PLP.Chemscore.Metal>
0.0000

> <Gold.Chemscore.Hbonds>
donor molecule, donor type, donor heavy atom, donor atom, acceptor molecule, acceptor atom, score
      L1  H    17    43       P1  8028  1.00
      P1  H  6896  6907       L1     7  0.90

> <Gold.PLP.Chemscore.Internal.Correction>
0.3566

> <Gold.Rescore>
     Score         DG    S(hbond)    S(metal)    S(lipo)     H(rot)  DE(clash)    DE(int)     intcor
     16.18     -17.40       1.88        0.00     102.02       2.46       0.03       1.18       ----

> <Gold.Chemscore.Fitness>
16.1822

> <Gold.Chemscore.DG>
-17.3961

> <Gold.Chemscore.ZeroCoef>
-5.4800

> <Gold.Chemscore.Hbond>
1.8789

> <Gold.Chemscore.Metal>
0.0000

> <Gold.Chemscore.Lipo>
102.0165

> <Gold.Chemscore.Internal_Hbond>
0.0000

> <Gold.Chemscore.DEClash>
0.0310

> <Gold.Chemscore.DEInternal>
1.1830

> <Gold.Chemscore.Rot>
2.4591

> <Gold.Chemscore.Internal.Correction>
   9.000000E+99

> <Gold.Chemscore.Hbonds>
donor molecule, donor type, donor heavy atom, donor atom, acceptor molecule, acceptor atom, score
      L1  H    17    43       P1  8028  0.98
      P1  H  6896  6907       L1     7  0.17

> <Gold.Chemscore.Hbond.Weighted>
-6.2755

> <Gold.Chemscore.Metal.Weighted>
-0.0000

> <Gold.Chemscore.Lipo.Weighted>
-11.9359

> <Gold.Chemscore.Internal_Hbond.Weighted>
0.0000

> <Gold.Chemscore.DEClash.Weighted>
0.0310

> <Gold.Chemscore.DEInternal.Weighted>
1.1830

> <Gold.Chemscore.Rot.Weighted>
6.2953

> <Gold.Chemscore.Internal.Correction.Weighted>
   9.000000E+99

> <Gold.Protein.RotatedTorsions>
[ 6907 6896 6895 6894 ] final  -30.51 input  -60.11 | X-H torsion
[ 7974 7965 7964 7962 ] final   91.34 input  175.53 | X-H torsion
[ 8008 7997 7996 7995 ] final   16.48 input   59.86 | X-H torsion
[ 10167 10162 10161 10158 ] final  -14.27 input  -65.29 | X-H torsion
[ 10718 10713 10712 10709 ] final   -6.73 input   66.30 | X-H torsion
[ 10763 10752 10751 10750 ] final  112.93 input  -60.55 | X-H torsion
[ 11005 11000 10999 10996 ] final  -57.78 input  -57.11 | X-H torsion

> <Gold.Protein.ActiveResidues>
 VAL166  LYS551  ARG553  GLY616  TRP617  ASP618  TYR619  PRO620  LYS621  CYS622 
 ASP623  PHE694  ASN695  SER759  ASP760  ASP761  ALA762  ILE779  LEU786  VAL792 
 PHE793  MET794  SER795  GLU796  ALA797  LYS798  CYS799  TRP800  GLU811  SER814 

> <Gold.Protein.RotatedAtoms>
  151.1046  134.9992  159.8464 H   0  0  0  0  0  0  0  0  0  0  0  0  # atno 6907 bound_to 6896
  152.5439  134.1908  159.8683 H   0  0  0  0  0  0  0  0  0  0  0  0  # atno 6908 bound_to 6896
  151.1954  133.4598  159.2628 H   0  0  0  0  0  0  0  0  0  0  0  0  # atno 6909 bound_to 6896
  145.5069  139.2276  143.2746 H   0  0  0  0  0  0  0  0  0  0  0  0  # atno 7974 bound_to 7965
  154.8775  140.2968  155.5444 H   0  0  0  0  0  0  0  0  0  0  0  0  # atno 8008 bound_to 7997
  156.3022  140.2448  156.3707 H   0  0  0  0  0  0  0  0  0  0  0  0  # atno 8009 bound_to 7997
  154.8752  140.0400  157.1738 H   0  0  0  0  0  0  0  0  0  0  0  0  # atno 8010 bound_to 7997
  140.7198  143.5339  150.9488 H   0  0  0  0  0  0  0  0  0  0  0  0  # atno 10167 bound_to 10162
  156.7275  130.5170  149.5853 H   0  0  0  0  0  0  0  0  0  0  0  0  # atno 10718 bound_to 10713
  153.4850  135.3671  155.2462 H   0  0  0  0  0  0  0  0  0  0  0  0  # atno 10763 bound_to 10752
  154.8754  135.3963  154.3655 H   0  0  0  0  0  0  0  0  0  0  0  0  # atno 10764 bound_to 10752
  153.4265  135.7081  153.6324 H   0  0  0  0  0  0  0  0  0  0  0  0  # atno 10765 bound_to 10752
  141.1179  133.6611  156.4821 H   0  0  0  0  0  0  0  0  0  0  0  0  # atno 11005 bound_to 11000
  146.2191  140.5874  142.9025 LP  0  0  0  0  0  0  0  0  0  0  0  0  # atno 17320 bound_to 7965
  144.7749  140.5717  143.6645 LP  0  0  0  0  0  0  0  0  0  0  0  0  # atno 17321 bound_to 7965
  139.9060  143.6778  152.3123 LP  0  0  0  0  0  0  0  0  0  0  0  0  # atno 17342 bound_to 10162
  139.7144  144.7614  151.1058 LP  0  0  0  0  0  0  0  0  0  0  0  0  # atno 17343 bound_to 10162
  156.1551  130.6336  151.0647 LP  0  0  0  0  0  0  0  0  0  0  0  0  # atno 17370 bound_to 10713
  157.6872  131.0821  150.7209 LP  0  0  0  0  0  0  0  0  0  0  0  0  # atno 17371 bound_to 10713
  140.4592  134.6857  157.5077 LP  0  0  0  0  0  0  0  0  0  0  0  0  # atno 17394 bound_to 11000
  140.0115  134.6684  155.9374 LP  0  0  0  0  0  0  0  0  0  0  0  0  # atno 17395 bound_to 11000

$$$$
