#       Name:                AV-unprocessed.smi:241
#       Creating user name   scv26
#       Creation time:       Thu Mar 26 20:45:50 2020


#       File generated by GOLD software.
#

@<TRIPOS>MOLECULE
AV-unprocessed.smi:241
    66    69     1
SMALL
NO_CHARGES


@<TRIPOS>ATOM
      1 ****        -4.9386  -3.1403   2.6369 C.3            1 S1                 0.0000
      2 ****        -3.5758  -2.7664   2.7573 O.3            1 S1                 0.0000
      3 ****        -3.1086  -1.9419   1.6991 C.3            1 S1                 0.0000
      4 ****        -3.0108  -0.4715   2.1498 C.3            1 S1                 0.0000
      5 ****        -4.3511   0.2199   2.3961 C.3            1 S1                 0.0000
      6 ****        -3.9573   1.6934   2.3601 C.3            1 S1                 0.0000
      7 ****        -5.0760   2.5098   2.0463 O.3            1 S1                 0.0000
      8 ****        -4.8155   3.8975   2.1802 C.3            1 S1                 0.0000
      9 ****        -2.8539   1.7347   1.2919 C.3            1 S1                 0.0000
     10 ****        -2.3531   0.3702   1.1544 N.3            1 S1                 0.0000
     11 ****        -1.0077   0.2678   1.0841 C.ar           1 S1                 0.0000
     12 ****        -0.2404   0.5775   2.1625 N.ar           1 S1                 0.0000
     13 ****         1.0899   0.4723   2.0851 C.ar           1 S1                 0.0000
     14 ****         1.8387   0.0911   1.0474 N.ar           1 S1                 0.0000
     15 ****         1.0677  -0.2141  -0.0361 C.ar           1 S1                 0.0000
     16 ****        -0.3522  -0.1580  -0.0997 C.ar           1 S1                 0.0000
     17 ****        -0.7916  -0.5566  -1.3551 N.2            1 S1                 0.0000
     18 ****         0.3089  -0.8388  -1.9981 C.2            1 S1                 0.0000
     19 ****         1.4732  -0.6338  -1.2907 N.pl3          1 S1                 0.0000
     20 ****         2.8104  -0.8944  -1.7364 C.3            1 S1                 0.0000
     21 ****         3.9275   0.1266  -1.5146 C.3            1 S1                 0.0000
     22 ****         4.6015  -0.3392  -2.8262 C.3            1 S1                 0.0000
     23 ****         5.1684   0.7671  -3.7329 C.3            1 S1                 0.0000
     24 ****         6.2191   1.4785  -3.1114 O.3            1 S1                 0.0000
     25 ****         5.6383  -1.4757  -2.7033 C.3            1 S1                 0.0000
     26 ****         6.7007  -1.1325  -1.8379 O.3            1 S1                 0.0000
     27 ****         3.1868  -0.8218  -3.2186 C.3            1 S1                 0.0000
     28 ****        -2.4366  -0.4345   3.0770 H              1 S1                 0.0000
     29 ****        -3.5416   1.9646   3.3326 H              1 S1                 0.0000
     30 ****        -5.2249  -3.7547   3.4904 H              1 S1                 0.0000
     31 ****        -5.1033  -3.7279   1.7329 H              1 S1                 0.0000
     32 ****        -5.5972  -2.2728   2.6126 H              1 S1                 0.0000
     33 ****        -2.1129  -2.3040   1.4416 H              1 S1                 0.0000
     34 ****        -3.7108  -2.0432   0.7942 H              1 S1                 0.0000
     35 ****        -5.0480  -0.0035   1.5866 H              1 S1                 0.0000
     36 ****        -4.8148  -0.0693   3.3395 H              1 S1                 0.0000
     37 ****        -5.7157   4.4623   1.9389 H              1 S1                 0.0000
     38 ****        -4.0256   4.2249   1.5034 H              1 S1                 0.0000
     39 ****        -4.5267   4.1476   3.2016 H              1 S1                 0.0000
     40 ****        -3.2705   2.0298   0.3284 H              1 S1                 0.0000
     41 ****        -2.0784   2.4579   1.5490 H              1 S1                 0.0000
     42 ****         1.6323   0.7327   2.9821 H              1 S1                 0.0000
     43 ****         0.2994  -1.2010  -3.0159 H              1 S1                 0.0000
     44 ****         3.0850  -1.8620  -1.3131 H              1 S1                 0.0000
     45 ****         3.5673   1.1560  -1.5648 H              1 S1                 0.0000
     46 ****         4.5105  -0.0355  -0.6077 H              1 S1                 0.0000
     47 ****         5.5292   0.3572  -4.6769 H              1 S1                 0.0000
     48 ****         4.3937   1.4901  -3.9901 H              1 S1                 0.0000
     49 ****         6.5128   2.1567  -3.7005 H              1 S1                 0.0000
     50 ****         5.1827  -2.3874  -2.3163 H              1 S1                 0.0000
     51 ****         6.0525  -1.7362  -3.6777 H              1 S1                 0.0000
     52 ****         7.0792  -0.3202  -2.1399 H              1 S1                 0.0000
     53 ****         3.1543  -1.7795  -3.7393 H              1 S1                 0.0000
     54 ****         2.6112  -0.0671  -3.7578 H              1 S1                 0.0000
     55 ****        -3.0217  -3.5986   2.7760 LP             1 S1                 0.0000
     56 ****        -3.4606  -2.2698   3.6176 LP             1 S1                 0.0000
     57 ****        -5.8274   2.2676   2.6601 LP             1 S1                 0.0000
     58 ****        -5.3461   2.3277   1.1008 LP             1 S1                 0.0000
     59 ****        -2.6051   0.0185   0.2528 LP             1 S1                 0.0000
     60 ****        -0.6703   0.8834   3.0120 LP             1 S1                 0.0000
     61 ****         2.8371   0.0363   1.0624 LP             1 S1                 0.0000
     62 ****        -1.7325  -0.6142  -1.6891 LP             1 S1                 0.0000
     63 ****         6.9752   0.8557  -2.9106 LP             1 S1                 0.0000
     64 ****         5.8910   1.8895  -2.2609 LP             1 S1                 0.0000
     65 ****         7.3934  -1.8536  -1.8505 LP             1 S1                 0.0000
     66 ****         6.3548  -1.0188  -0.9066 LP             1 S1                 0.0000
@<TRIPOS>BOND
    1    1    2 1     
    2    1   30 1     
    3    1   31 1     
    4    1   32 1     
    5    2    3 1     
    6    3    4 1     
    7    3   33 1     
    8    3   34 1     
    9    4   28 1     
   10    4   10 1     
   11    4    5 1     
   12    5    6 1     
   13    5   35 1     
   14    5   36 1     
   15    6   29 1     
   16    6    7 1     
   17    6    9 1     
   18    7    8 1     
   19    8   37 1     
   20    8   38 1     
   21    8   39 1     
   22    9   10 1     
   23    9   40 1     
   24    9   41 1     
   25   10   11 1     
   26   11   16 ar    
   27   11   12 ar    
   28   12   13 ar    
   29   13   14 ar    
   30   13   42 1     
   31   14   15 ar    
   32   15   19 1     
   33   15   16 ar    
   34   16   17 1     
   35   17   18 2     
   36   18   19 1     
   37   18   43 1     
   38   19   20 1     
   39   20   27 1     
   40   20   21 1     
   41   20   44 1     
   42   21   22 1     
   43   21   45 1     
   44   21   46 1     
   45   22   23 1     
   46   22   25 1     
   47   22   27 1     
   48   23   24 1     
   49   23   47 1     
   50   23   48 1     
   51   24   49 1     
   52   25   26 1     
   53   25   50 1     
   54   25   51 1     
   55   26   52 1     
   56   27   53 1     
   57   27   54 1     
   58    2   55 1     
   59    2   56 1     
   60    7   57 1     
   61    7   58 1     
   62   10   59 1     
   63   12   60 1     
   64   14   61 1     
   65   17   62 1     
   66   24   63 1     
   67   24   64 1     
   68   26   65 1     
   69   26   66 1     
@<TRIPOS>SUBSTRUCTURE
      1 S1             1
@<TRIPOS>SET
LONE_PAIRS      STATIC     ATOMS    <user>   **** ""
12 55 56 57 58 59 60 61 62 63 64 65 66
DONOR_HYDROGENS      STATIC     ATOMS    <user>   **** ""
2 49 52
ATOM$BLUE        STATIC     ATOMS    COLORGROUP SYSTEM
12 55 56 57 58 59 60 61 62 63 64 65 66
ATOM$RED        STATIC     ATOMS    COLORGROUP SYSTEM
2 49 52
