AV-unprocessed.smi:1728|AV-procd|sdf|6967|dock6
  -GOLD-   22720 8183D 1   1.00000     0.00000
 Structure written by MMmdl.
 46 47  0  0  0  0  0  0  0  0  1 V2000
  146.0483  133.5631  150.4812 C   0  0  0  0  0  0  0  0  0  0  0  0
  146.7806  133.8028  151.6780 O   0  0  0  0  0  0  0  0  0  0  0  0
  147.0911  132.7281  152.4897 C   0  0  0  0  0  0  0  0  0  0  0  0
  146.6459  131.4983  152.1283 N   0  0  0  0  0  0  0  0  0  0  0  0
  146.9512  130.4472  152.9162 C   0  0  0  0  0  0  0  0  0  0  0  0
  147.7149  130.5625  154.0917 C   0  0  0  0  0  0  0  0  0  0  0  0
  148.1787  131.8365  154.4684 C   0  0  0  0  0  0  0  0  0  0  0  0
  147.8557  132.9535  153.6588 C   0  0  0  0  0  0  0  0  0  0  0  0
  148.2774  134.2860  153.9293 N   0  0  0  0  0  0  0  0  0  0  0  0
  148.4379  134.9065  155.1106 C   0  0  0  0  0  0  0  0  0  0  0  0
  148.2322  134.4094  156.2174 O   0  0  0  0  0  0  0  0  0  0  0  0
  148.8491  136.1683  154.9374 N   0  0  0  0  0  0  0  0  0  0  0  0
  149.1318  137.1058  156.0200 C   0  0  0  0  0  0  0  0  0  0  0  0
  149.8664  138.3807  155.5157 C   0  0  0  0  0  0  0  0  0  0  0  0
  151.3160  137.9420  155.1854 C   0  0  0  0  0  0  0  0  0  0  0  0
  149.1990  138.7995  154.1836 C   0  0  0  0  0  0  0  0  0  0  0  0
  149.8545  139.4628  156.5399 N   0  0  0  0  0  0  0  0  0  0  0  0
  150.4881  139.1143  157.8167 C   0  0  0  0  0  0  0  0  0  0  0  0
  150.3302  140.2299  158.8643 C   0  0  0  0  0  0  0  0  0  0  0  0
  150.8646  141.4459  158.3556 O   0  0  0  0  0  0  0  0  0  0  0  0
  150.2359  141.8505  157.1456 C   0  0  0  0  0  0  0  0  0  0  0  0
  150.3962  140.7488  156.0848 C   0  0  0  0  0  0  0  0  0  0  0  0
  145.8895  134.5076  149.9615 H   0  0  0  0  0  0  0  0  0  0  0  0
  145.0681  133.1324  150.6905 H   0  0  0  0  0  0  0  0  0  0  0  0
  146.5939  132.9022  149.8062 H   0  0  0  0  0  0  0  0  0  0  0  0
  146.5800  129.4845  152.5975 H   0  0  0  0  0  0  0  0  0  0  0  0
  147.9433  129.6925  154.6893 H   0  0  0  0  0  0  0  0  0  0  0  0
  148.7788  131.9217  155.3601 H   0  0  0  0  0  0  0  0  0  0  0  0
  148.4355  134.8553  153.1104 H   0  0  0  0  0  0  0  0  0  0  0  0
  148.9943  136.5041  153.9963 H   0  0  0  0  0  0  0  0  0  0  0  0
  148.1920  137.3811  156.5027 H   0  0  0  0  0  0  0  0  0  0  0  0
  149.7096  136.5943  156.7906 H   0  0  0  0  0  0  0  0  0  0  0  0
  151.3320  137.0407  154.5715 H   0  0  0  0  0  0  0  0  0  0  0  0
  151.8886  137.7285  156.0888 H   0  0  0  0  0  0  0  0  0  0  0  0
  151.8593  138.7002  154.6216 H   0  0  0  0  0  0  0  0  0  0  0  0
  149.2298  137.9859  153.4580 H   0  0  0  0  0  0  0  0  0  0  0  0
  149.6990  139.6502  153.7212 H   0  0  0  0  0  0  0  0  0  0  0  0
  148.1497  139.0632  154.3144 H   0  0  0  0  0  0  0  0  0  0  0  0
  150.0542  138.2066  158.2318 H   0  0  0  0  0  0  0  0  0  0  0  0
  151.5504  138.9198  157.6693 H   0  0  0  0  0  0  0  0  0  0  0  0
  149.2801  140.3670  159.1276 H   0  0  0  0  0  0  0  0  0  0  0  0
  150.8581  139.9654  159.7806 H   0  0  0  0  0  0  0  0  0  0  0  0
  149.1807  142.0608  157.3265 H   0  0  0  0  0  0  0  0  0  0  0  0
  150.6922  142.7781  156.7998 H   0  0  0  0  0  0  0  0  0  0  0  0
  151.4536  140.6477  155.8403 H   0  0  0  0  0  0  0  0  0  0  0  0
  149.8929  141.0862  155.1806 H   0  0  0  0  0  0  0  0  0  0  0  0
  1  2  1  0  0  0  0
  1 23  1  0  0  0  0
  1 24  1  0  0  0  0
  1 25  1  0  0  0  0
  2  3  1  0  0  0  0
  3  8  1  0  0  0  0
  3  4  2  0  0  0  0
  4  5  1  0  0  0  0
  5  6  2  0  0  0  0
  5 26  1  0  0  0  0
  6  7  1  0  0  0  0
  6 27  1  0  0  0  0
  7  8  2  0  0  0  0
  7 28  1  0  0  0  0
  8  9  1  0  0  0  0
  9 10  1  0  0  0  0
  9 29  1  0  0  0  0
 10 11  2  0  0  0  0
 10 12  1  0  0  0  0
 12 13  1  0  0  0  0
 12 30  1  0  0  0  0
 13 14  1  0  0  0  0
 13 31  1  0  0  0  0
 13 32  1  0  0  0  0
 14 15  1  0  0  0  0
 14 16  1  0  0  0  0
 14 17  1  0  0  0  0
 15 33  1  0  0  0  0
 15 34  1  0  0  0  0
 15 35  1  0  0  0  0
 16 36  1  0  0  0  0
 16 37  1  0  0  0  0
 16 38  1  0  0  0  0
 17 22  1  0  0  0  0
 17 18  1  0  0  0  0
 18 19  1  0  0  0  0
 18 39  1  0  0  0  0
 18 40  1  0  0  0  0
 19 20  1  0  0  0  0
 19 41  1  0  0  0  0
 19 42  1  0  0  0  0
 20 21  1  0  0  0  0
 21 22  1  0  0  0  0
 21 43  1  0  0  0  0
 21 44  1  0  0  0  0
 22 45  1  0  0  0  0
 22 46  1  0  0  0  0
M  END
> <s_m_source_file>
AV-unprocessed.smi

> <i_m_source_file_index>
1728

> <i_lp_mmshare_version>
43012

> <i_f3d_flags>
0

> <s_epik_input>
W0NIM11PYzFuW2NIXVtjSF1bY0hdYzFbTkhdQyg9TylbTkhdW0NIMl1DKFtDSDNdKShbQ0gzXSlOMltDSDJdW0NIMl1PW0NIMl1bQ0gyXTI=

> <s_epik_cmdline>
J2VwaWtfcHl0aG9uJywgJy1waCcsICc3LjAnLCAnLXRuJywgJzgnLCAnLW1hJywgJzIwMCcsICctbWV0YWxfYmluZGluZycsICctaW1hZScsICc8aW5maWxlLm1hZT4nLCAnLW9tYWUnLCAnPG91dGZpbGUubWFlPic=

> <r_lp_tautomer_probability>
1

> <r_epik_Ionization_Penalty>
0.266086

> <r_epik_Ionization_Penalty_Charging>
0

> <r_epik_Ionization_Penalty_Neutral>
0.266086

> <r_epik_State_Penalty>
0.257924

> <r_epik_Charging_Adjusted_Penalty>
0.257924

> <i_epik_Tot_Q>
0

> <i_epik_Tot_abs_Q>
0

> <r_epik_Metal_State_Penalty>
0.257921

> <b_epik_Metal_Only>
0

> <s_lp_Force_Field>
OPLS_2005

> <r_lp_Energy>
44.4816

> <b_lp_Chiralities_Consistent>
1

> <s_lp_Variant>
AV-unprocessed.smi:1728-1

> <Gold.Version>
5.8.1

> <Gold.Id.Protein>
6NUR|6NUR_protein|mol2

> <Gold.PLP.Fitness>
37.8291

> <Gold.PLP.PLP>
-32.8089

> <Gold.PLP.part.hbond>
-2.0000

> <Gold.PLP.part.metal>
0.0000

> <Gold.PLP.part.buried>
-3.3897

> <Gold.PLP.part.nonpolar>
-27.7061

> <Gold.PLP.part.repulsive>
0.8800

> <Gold.PLP.ligand.clash>
0.0000

> <Gold.PLP.ligand.torsion>
0.5166

> <Gold.PLP.Chemscore.Hbond>
2.0000

> <Gold.PLP.Chemscore.CHOScore>
0.0000

> <Gold.PLP.Chemscore.Metal>
0.0000

> <Gold.Chemscore.Hbonds>
donor molecule, donor type, donor heavy atom, donor atom, acceptor molecule, acceptor atom, score
      L1  H     9    29       P1  7948  1.00
      L1  H    12    30       P1  7948  0.73

> <Gold.PLP.Chemscore.Internal.Correction>
0.0534

> <Gold.Rescore>
     Score         DG    S(hbond)    S(metal)    S(lipo)     H(rot)  DE(clash)    DE(int)     intcor
     14.85     -15.16       1.75        0.00      70.02       1.70       0.00       0.31       ----

> <Gold.Chemscore.Fitness>
14.8502

> <Gold.Chemscore.DG>
-15.1628

> <Gold.Chemscore.ZeroCoef>
-5.4800

> <Gold.Chemscore.Hbond>
1.7513

> <Gold.Chemscore.Metal>
0.0000

> <Gold.Chemscore.Lipo>
70.0152

> <Gold.Chemscore.Internal_Hbond>
0.0000

> <Gold.Chemscore.DEClash>
0.0036

> <Gold.Chemscore.DEInternal>
0.3090

> <Gold.Chemscore.Rot>
1.7024

> <Gold.Chemscore.Internal.Correction>
   9.000000E+99

> <Gold.Chemscore.Hbonds>
donor molecule, donor type, donor heavy atom, donor atom, acceptor molecule, acceptor atom, score
      L1  H     9    29       P1  7948  0.65
      L1  H    12    30       P1  7948  0.70

> <Gold.Chemscore.Hbond.Weighted>
-5.8493

> <Gold.Chemscore.Metal.Weighted>
-0.0000

> <Gold.Chemscore.Lipo.Weighted>
-8.1918

> <Gold.Chemscore.Internal_Hbond.Weighted>
0.0000

> <Gold.Chemscore.DEClash.Weighted>
0.0036

> <Gold.Chemscore.DEInternal.Weighted>
0.3090

> <Gold.Chemscore.Rot.Weighted>
4.3583

> <Gold.Chemscore.Internal.Correction.Weighted>
   9.000000E+99

> <Gold.Protein.RotatedTorsions>
[ 6907 6896 6895 6894 ] final   25.85 input  -60.11 | X-H torsion
[ 7974 7965 7964 7962 ] final -171.81 input  175.53 | X-H torsion
[ 8008 7997 7996 7995 ] final  136.03 input   59.86 | X-H torsion
[ 10167 10162 10161 10158 ] final  -41.42 input  -65.29 | X-H torsion
[ 10718 10713 10712 10709 ] final  153.83 input   66.30 | X-H torsion
[ 10763 10752 10751 10750 ] final  -99.99 input  -60.55 | X-H torsion
[ 11005 11000 10999 10996 ] final   23.77 input  -57.11 | X-H torsion

> <Gold.Protein.ActiveResidues>
 VAL166  LYS551  ARG553  GLY616  TRP617  ASP618  TYR619  PRO620  LYS621  CYS622 
 ASP623  PHE694  ASN695  SER759  ASP760  ASP761  ALA762  ILE779  LEU786  VAL792 
 PHE793  MET794  SER795  GLU796  ALA797  LYS798  CYS799  TRP800  GLU811  SER814 

> <Gold.Protein.RotatedAtoms>
  151.9787  135.0040  160.0556 H   0  0  0  0  0  0  0  0  0  0  0  0  # atno 6907 bound_to 6896
  152.1717  133.4643  159.4920 H   0  0  0  0  0  0  0  0  0  0  0  0  # atno 6908 bound_to 6896
  150.6903  134.1863  159.4311 H   0  0  0  0  0  0  0  0  0  0  0  0  # atno 6909 bound_to 6896
  144.7153  140.1866  143.6353 H   0  0  0  0  0  0  0  0  0  0  0  0  # atno 7974 bound_to 7965
  156.3004  140.2455  156.3679 H   0  0  0  0  0  0  0  0  0  0  0  0  # atno 8008 bound_to 7997
  154.8816  140.0412  157.1805 H   0  0  0  0  0  0  0  0  0  0  0  0  # atno 8009 bound_to 7997
  154.8690  140.2932  155.5497 H   0  0  0  0  0  0  0  0  0  0  0  0  # atno 8010 bound_to 7997
  140.7003  143.3095  151.3064 H   0  0  0  0  0  0  0  0  0  0  0  0  # atno 10167 bound_to 10162
  157.2397  131.0756  151.1800 H   0  0  0  0  0  0  0  0  0  0  0  0  # atno 10718 bound_to 10713
  154.7543  135.4952  153.9345 H   0  0  0  0  0  0  0  0  0  0  0  0  # atno 10763 bound_to 10752
  153.1178  135.6724  153.9396 H   0  0  0  0  0  0  0  0  0  0  0  0  # atno 10764 bound_to 10752
  153.9137  135.3096  155.3427 H   0  0  0  0  0  0  0  0  0  0  0  0  # atno 10765 bound_to 10752
  140.3660  134.2074  155.7669 H   0  0  0  0  0  0  0  0  0  0  0  0  # atno 11005 bound_to 11000
  145.8807  139.2321  143.1607 LP  0  0  0  0  0  0  0  0  0  0  0  0  # atno 17320 bound_to 7965
  145.9997  140.8531  143.0024 LP  0  0  0  0  0  0  0  0  0  0  0  0  # atno 17321 bound_to 7965
  139.6513  144.0357  152.2628 LP  0  0  0  0  0  0  0  0  0  0  0  0  # atno 17342 bound_to 10162
  139.9894  144.6372  150.7828 LP  0  0  0  0  0  0  0  0  0  0  0  0  # atno 17343 bound_to 10162
  157.3392  130.7024  149.6371 LP  0  0  0  0  0  0  0  0  0  0  0  0  # atno 17370 bound_to 10713
  155.9671  130.4285  150.4790 LP  0  0  0  0  0  0  0  0  0  0  0  0  # atno 17371 bound_to 10713
  141.1969  133.8070  157.0649 LP  0  0  0  0  0  0  0  0  0  0  0  0  # atno 17394 bound_to 11000
  140.0589  134.9765  157.1270 LP  0  0  0  0  0  0  0  0  0  0  0  0  # atno 17395 bound_to 11000

$$$$
