AV-unprocessed.smi:1852|AV-procd|sdf|7526|dock5
  -GOLD-   22720 9233D 1   1.00000     0.00000
 Structure written by MMmdl.
 46 48  0  0  0  0  0  0  0  0  2 V2000
  154.2473  140.7047  161.7425 C   0  0  0  0  0  0  0  0  0  0  0  0
  153.3159  141.7965  161.2571 C   0  0  0  0  0  0  0  0  0  0  0  0
  153.0515  142.9186  162.0661 C   0  0  0  0  0  0  0  0  0  0  0  0
  152.1869  143.9284  161.6067 C   0  0  0  0  0  0  0  0  0  0  0  0
  151.5820  143.8238  160.3371 C   0  0  0  0  0  0  0  0  0  0  0  0
  150.6569  144.9246  159.8522 C   0  0  0  0  0  0  0  0  0  0  0  0
  151.8388  142.7021  159.5156 C   0  0  0  0  0  0  0  0  0  0  0  0
  151.2116  142.6596  158.2887 O   0  0  0  0  0  0  0  0  0  0  0  0
  151.3983  141.5153  157.4670 C   0  0  0  0  0  0  0  0  0  0  0  0
  150.9893  141.8570  156.0275 C   0  0  0  0  0  0  0  0  0  0  0  0
  150.4102  140.6980  155.3296 N   0  0  0  0  0  0  0  0  0  0  0  0
  150.9445  139.4708  155.0640 C   0  0  0  0  0  0  0  0  0  0  0  0
  152.3068  138.9758  155.4398 C   0  0  0  0  0  0  0  0  0  0  0  0
  152.4566  138.7520  156.8726 N   0  0  0  0  0  0  0  0  0  0  0  0
  152.7939  137.5833  157.4364 C   0  0  0  0  0  0  0  0  0  0  0  0
  153.0355  136.5529  156.8098 O   0  0  0  0  0  0  0  0  0  0  0  0
  150.0031  138.7612  154.3793 N   0  3  0  0  0  0  0  0  0  0  0  0
  148.8614  139.5418  154.1969 C   0  0  0  0  0  0  0  0  0  0  0  0
  147.6567  139.2586  153.5606 C   0  0  0  0  0  0  0  0  0  0  0  0
  146.6926  140.2877  153.5437 C   0  0  0  0  0  0  0  0  0  0  0  0
  146.9441  141.5386  154.1429 C   0  0  0  0  0  0  0  0  0  0  0  0
  148.1678  141.8127  154.7876 C   0  0  0  0  0  0  0  0  0  0  0  0
  149.1159  140.7892  154.8025 C   0  0  0  0  0  0  0  0  0  0  0  0
  152.7118  141.6896  159.9882 C   0  0  0  0  0  0  0  0  0  0  0  0
  154.5281  140.8556  162.7853 H   0  0  0  0  0  0  0  0  0  0  0  0
  155.1572  140.6917  161.1421 H   0  0  0  0  0  0  0  0  0  0  0  0
  153.7662  139.7299  161.6588 H   0  0  0  0  0  0  0  0  0  0  0  0
  153.5091  143.0098  163.0403 H   0  0  0  0  0  0  0  0  0  0  0  0
  151.9916  144.7853  162.2347 H   0  0  0  0  0  0  0  0  0  0  0  0
  149.6506  144.5335  159.7020 H   0  0  0  0  0  0  0  0  0  0  0  0
  151.0132  145.3298  158.9047 H   0  0  0  0  0  0  0  0  0  0  0  0
  150.5999  145.7438  160.5695 H   0  0  0  0  0  0  0  0  0  0  0  0
  152.4456  141.2094  157.4817 H   0  0  0  0  0  0  0  0  0  0  0  0
  150.7964  140.6820  157.8316 H   0  0  0  0  0  0  0  0  0  0  0  0
  150.2498  142.6573  156.0258 H   0  0  0  0  0  0  0  0  0  0  0  0
  151.8397  142.2329  155.4590 H   0  0  0  0  0  0  0  0  0  0  0  0
  152.4892  138.0333  154.9232 H   0  0  0  0  0  0  0  0  0  0  0  0
  153.0719  139.6697  155.0901 H   0  0  0  0  0  0  0  0  0  0  0  0
  152.2753  139.5375  157.4807 H   0  0  0  0  0  0  0  0  0  0  0  0
  152.8252  137.6712  158.5334 H   0  0  0  0  0  0  0  0  0  0  0  0
  147.4629  138.3021  153.0979 H   0  0  0  0  0  0  0  0  0  0  0  0
  145.7421  140.1146  153.0599 H   0  0  0  0  0  0  0  0  0  0  0  0
  146.1836  142.3053  154.1068 H   0  0  0  0  0  0  0  0  0  0  0  0
  148.3502  142.7775  155.2370 H   0  0  0  0  0  0  0  0  0  0  0  0
  152.9305  140.8156  159.3936 H   0  0  0  0  0  0  0  0  0  0  0  0
  150.1365  137.8110  154.0586 H   0  0  0  0  0  0  0  0  0  0  0  0
  1  2  1  0  0  0  0
  1 25  1  0  0  0  0
  1 26  1  0  0  0  0
  1 27  1  0  0  0  0
  2 24  1  0  0  0  0
  2  3  2  0  0  0  0
  3  4  1  0  0  0  0
  3 28  1  0  0  0  0
  4  5  2  0  0  0  0
  4 29  1  0  0  0  0
  5  6  1  0  0  0  0
  5  7  1  0  0  0  0
  6 30  1  0  0  0  0
  6 31  1  0  0  0  0
  6 32  1  0  0  0  0
  7  8  1  0  0  0  0
  7 24  2  0  0  0  0
  8  9  1  0  0  0  0
  9 10  1  0  0  0  0
  9 33  1  0  0  0  0
  9 34  1  0  0  0  0
 10 11  1  0  0  0  0
 10 35  1  0  0  0  0
 10 36  1  0  0  0  0
 11 23  1  0  0  0  0
 11 12  1  0  0  0  0
 12 13  1  0  0  0  0
 12 17  2  0  0  0  0
 13 14  1  0  0  0  0
 13 37  1  0  0  0  0
 13 38  1  0  0  0  0
 14 15  1  0  0  0  0
 14 39  1  0  0  0  0
 15 16  2  0  0  0  0
 15 40  1  0  0  0  0
 17 18  1  0  0  0  0
 17 46  1  0  0  0  0
 18 23  2  0  0  0  0
 18 19  1  0  0  0  0
 19 20  2  0  0  0  0
 19 41  1  0  0  0  0
 20 21  1  0  0  0  0
 20 42  1  0  0  0  0
 21 22  2  0  0  0  0
 21 43  1  0  0  0  0
 22 23  1  0  0  0  0
 22 44  1  0  0  0  0
 24 45  1  0  0  0  0
M  CHG  1  17   1
M  END
> <s_m_source_file>
AV-unprocessed.smi

> <i_m_source_file_index>
1852

> <i_lp_mmshare_version>
43012

> <i_f3d_flags>
0

> <s_epik_input>
W0NIM11jMVtjSF1bY0hdYyhbQ0gzXSljKFtjSF0xKU9bQ0gyXVtDSDJdbihjKG4yKVtDSDJdW05IXVtDSF09TyljKGMyMylbY0hdW2NIXVtjSF1bY0hdMw==

> <s_epik_cmdline>
J2VwaWtfcHl0aG9uJywgJy1waCcsICc3LjAnLCAnLXRuJywgJzgnLCAnLW1hJywgJzIwMCcsICctbWV0YWxfYmluZGluZycsICctaW1hZScsICc8aW5maWxlLm1hZT4nLCAnLW9tYWUnLCAnPG91dGZpbGUubWFlPic=

> <r_lp_tautomer_probability>
1

> <r_epik_Ionization_Penalty>
1.39865

> <r_epik_Ionization_Penalty_Charging>
1.39865

> <r_epik_Ionization_Penalty_Neutral>
7.38905e-08

> <r_epik_State_Penalty>
1.48061

> <r_epik_Charging_Adjusted_Penalty>
2.87925

> <i_epik_Tot_Q>
1

> <i_epik_Tot_abs_Q>
1

> <r_epik_Metal_State_Penalty>
1.53473

> <b_epik_Metal_Only>
0

> <s_lp_Force_Field>
OPLS_2005

> <r_lp_Energy>
13.537

> <b_lp_Chiralities_Consistent>
1

> <s_lp_Variant>
AV-unprocessed.smi:1852-2

> <Gold.Version>
5.8.1

> <Gold.Id.Protein>
6NUR|6NUR_protein|mol2

> <Gold.PLP.Fitness>
55.8601

> <Gold.PLP.PLP>
-53.5375

> <Gold.PLP.part.hbond>
-1.0000

> <Gold.PLP.part.metal>
0.0000

> <Gold.PLP.part.buried>
-2.3229

> <Gold.PLP.part.nonpolar>
-48.6091

> <Gold.PLP.part.repulsive>
0.2443

> <Gold.PLP.ligand.clash>
0.0000

> <Gold.PLP.ligand.torsion>
0.3960

> <Gold.PLP.Chemscore.Hbond>
1.0000

> <Gold.PLP.Chemscore.CHOScore>
0.0000

> <Gold.PLP.Chemscore.Metal>
0.0000

> <Gold.Chemscore.Hbonds>
donor molecule, donor type, donor heavy atom, donor atom, acceptor molecule, acceptor atom, score
      P1  H 10752 10764       L1    16  1.00

> <Gold.PLP.Chemscore.Internal.Correction>
0.1145

> <Gold.Rescore>
     Score         DG    S(hbond)    S(metal)    S(lipo)     H(rot)  DE(clash)    DE(int)     intcor
     18.70     -19.48       0.98        0.00     145.07       2.44       0.31       0.47       ----

> <Gold.Chemscore.Fitness>
18.7037

> <Gold.Chemscore.DG>
-19.4797

> <Gold.Chemscore.ZeroCoef>
-5.4800

> <Gold.Chemscore.Hbond>
0.9807

> <Gold.Chemscore.Metal>
0.0000

> <Gold.Chemscore.Lipo>
145.0726

> <Gold.Chemscore.Internal_Hbond>
0.0000

> <Gold.Chemscore.DEClash>
0.3054

> <Gold.Chemscore.DEInternal>
0.4706

> <Gold.Chemscore.Rot>
2.4411

> <Gold.Chemscore.Internal.Correction>
   9.000000E+99

> <Gold.Chemscore.Hbonds>
donor molecule, donor type, donor heavy atom, donor atom, acceptor molecule, acceptor atom, score
      P1  H 10752 10764       L1    16  0.97

> <Gold.Chemscore.Hbond.Weighted>
-3.2755

> <Gold.Chemscore.Metal.Weighted>
-0.0000

> <Gold.Chemscore.Lipo.Weighted>
-16.9735

> <Gold.Chemscore.Internal_Hbond.Weighted>
0.0000

> <Gold.Chemscore.DEClash.Weighted>
0.3054

> <Gold.Chemscore.DEInternal.Weighted>
0.4706

> <Gold.Chemscore.Rot.Weighted>
6.2493

> <Gold.Chemscore.Internal.Correction.Weighted>
   9.000000E+99

> <Gold.Protein.RotatedTorsions>
[ 6907 6896 6895 6894 ] final  179.46 input  -60.11 | X-H torsion
[ 7974 7965 7964 7962 ] final   94.05 input  175.53 | X-H torsion
[ 8008 7997 7996 7995 ] final -130.66 input   59.86 | X-H torsion
[ 10167 10162 10161 10158 ] final   76.93 input  -65.29 | X-H torsion
[ 10718 10713 10712 10709 ] final   64.16 input   66.30 | X-H torsion
[ 10763 10752 10751 10750 ] final   -2.31 input  -60.55 | X-H torsion
[ 11005 11000 10999 10996 ] final  -75.87 input  -57.11 | X-H torsion

> <Gold.Protein.ActiveResidues>
 VAL166  LYS551  ARG553  GLY616  TRP617  ASP618  TYR619  PRO620  LYS621  CYS622 
 ASP623  PHE694  ASN695  SER759  ASP760  ASP761  ALA762  ILE779  LEU786  VAL792 
 PHE793  MET794  SER795  GLU796  ALA797  LYS798  CYS799  TRP800  GLU811  SER814 

> <Gold.Protein.RotatedAtoms>
  151.6713  133.3314  159.3197 H   0  0  0  0  0  0  0  0  0  0  0  0  # atno 6907 bound_to 6896
  150.7866  134.6860  159.6479 H   0  0  0  0  0  0  0  0  0  0  0  0  # atno 6908 bound_to 6896
  152.3937  134.6403  160.0149 H   0  0  0  0  0  0  0  0  0  0  0  0  # atno 6909 bound_to 6896
  145.4707  139.2282  143.2936 H   0  0  0  0  0  0  0  0  0  0  0  0  # atno 7974 bound_to 7965
  155.2994  140.0452  157.3028 H   0  0  0  0  0  0  0  0  0  0  0  0  # atno 8008 bound_to 7997
  154.5495  140.2313  155.8475 H   0  0  0  0  0  0  0  0  0  0  0  0  # atno 8009 bound_to 7997
  156.1954  140.3039  155.9424 H   0  0  0  0  0  0  0  0  0  0  0  0  # atno 8010 bound_to 7997
  139.9870  144.5785  150.7851 H   0  0  0  0  0  0  0  0  0  0  0  0  # atno 10167 bound_to 10162
  157.6020  130.9144  149.9809 H   0  0  0  0  0  0  0  0  0  0  0  0  # atno 10718 bound_to 10713
  153.3563  135.6988  153.6748 H   0  0  0  0  0  0  0  0  0  0  0  0  # atno 10763 bound_to 10752
  153.5454  135.3564  155.2737 H   0  0  0  0  0  0  0  0  0  0  0  0  # atno 10764 bound_to 10752
  154.8661  135.4213  154.2810 H   0  0  0  0  0  0  0  0  0  0  0  0  # atno 10765 bound_to 10752
  141.1649  133.6962  156.7583 H   0  0  0  0  0  0  0  0  0  0  0  0  # atno 11005 bound_to 11000
  146.2398  140.5485  142.8939 LP  0  0  0  0  0  0  0  0  0  0  0  0  # atno 17320 bound_to 7965
  144.7947  140.6099  143.6518 LP  0  0  0  0  0  0  0  0  0  0  0  0  # atno 17321 bound_to 7965
  140.7469  143.2897  151.3364 LP  0  0  0  0  0  0  0  0  0  0  0  0  # atno 17342 bound_to 10162
  139.6368  144.0615  152.2522 LP  0  0  0  0  0  0  0  0  0  0  0  0  # atno 17343 bound_to 10162
  156.1096  130.3650  150.0072 LP  0  0  0  0  0  0  0  0  0  0  0  0  # atno 17370 bound_to 10713
  156.8173  130.9346  151.3642 LP  0  0  0  0  0  0  0  0  0  0  0  0  # atno 17371 bound_to 10713
  140.2553  134.8509  157.3707 LP  0  0  0  0  0  0  0  0  0  0  0  0  # atno 17394 bound_to 11000
  140.1663  134.4665  155.7861 LP  0  0  0  0  0  0  0  0  0  0  0  0  # atno 17395 bound_to 11000

$$$$
