#       Name:                AV-unprocessed.smi:2141
#       Creating user name   scv26
#       Creation time:       Fri Mar 27 11:48:37 2020


#       File generated by GOLD software.
#

@<TRIPOS>MOLECULE
AV-unprocessed.smi:2141
    48    49     1
SMALL
NO_CHARGES


@<TRIPOS>ATOM
      1 ****        -4.4941   5.2716   0.3680 C.3            1 S1                 0.0000
      2 ****        -3.9916   5.5675   2.1173 S.o2           1 S1                 0.0000
      3 ****        -4.1254   7.0194   2.3090 O.2            1 S1                 0.0000
      4 ****        -4.8537   4.7065   2.9445 O.2            1 S1                 0.0000
      5 ****        -2.4273   5.1208   2.1058 N.pl3          1 S1                -1.0000
      6 ****        -2.0432   3.7164   2.1340 C.3            1 S1                 0.0000
      7 ****        -0.5314   3.5830   1.8474 C.3            1 S1                 0.0000
      8 ****        -0.0375   2.1282   1.8120 C.2            1 S1                 0.0000
      9 ****         0.1482   1.5155   2.8654 O.2            1 S1                 0.0000
     10 ****         0.2293   1.6312   0.5880 N.am           1 S1                 0.0000
     11 ****         0.6656   0.3270   0.2298 C.ar           1 S1                 0.0000
     12 ****         0.5272  -0.8168   1.0497 C.ar           1 S1                 0.0000
     13 ****         0.9818  -2.0598   0.5693 C.ar           1 S1                 0.0000
     14 ****         1.5546  -2.1372  -0.7223 C.ar           1 S1                 0.0000
     15 ****         2.0155  -3.3742  -1.2246 N.3            1 S1                 0.0000
     16 ****         1.0659  -4.4827  -1.1575 C.3            1 S1                 0.0000
     17 ****         1.7793  -5.8176  -1.4343 C.3            1 S1                 0.0000
     18 ****         2.4631  -5.7505  -2.6811 O.3            1 S1                 0.0000
     19 ****         3.4621  -4.7364  -2.6822 C.3            1 S1                 0.0000
     20 ****         2.8072  -3.3639  -2.4537 C.3            1 S1                 0.0000
     21 ****         1.6797  -1.0390  -1.5071 N.ar           1 S1                 0.0000
     22 ****         1.2420   0.1500  -1.0433 C.ar           1 S1                 0.0000
     23 ****        -5.5139   5.6271   0.2253 H              1 S1                 0.0000
     24 ****        -4.4533   4.2070   0.1410 H              1 S1                 0.0000
     25 ****        -3.8261   5.8154  -0.2993 H              1 S1                 0.0000
     26 ****        -2.2717   3.2595   3.0975 H              1 S1                 0.0000
     27 ****        -2.5931   3.1366   1.3917 H              1 S1                 0.0000
     28 ****        -0.2897   4.0677   0.8997 H              1 S1                 0.0000
     29 ****         0.0370   4.1138   2.6126 H              1 S1                 0.0000
     30 ****         0.1332   2.2804  -0.1795 H              1 S1                 0.0000
     31 ****         0.0748  -0.7718   2.0279 H              1 S1                 0.0000
     32 ****         0.8944  -2.9313   1.2004 H              1 S1                 0.0000
     33 ****         0.5766  -4.5396  -0.1865 H              1 S1                 0.0000
     34 ****         0.2822  -4.3187  -1.8983 H              1 S1                 0.0000
     35 ****         2.4818  -6.0560  -0.6339 H              1 S1                 0.0000
     36 ****         1.0533  -6.6298  -1.4714 H              1 S1                 0.0000
     37 ****         4.2082  -4.9441  -1.9134 H              1 S1                 0.0000
     38 ****         3.9811  -4.7496  -3.6407 H              1 S1                 0.0000
     39 ****         2.1619  -3.1136  -3.2970 H              1 S1                 0.0000
     40 ****         3.5836  -2.5998  -2.3977 H              1 S1                 0.0000
     41 ****         1.3610   0.9893  -1.7129 H              1 S1                 0.0000
     42 ****        -1.7164   5.8235   2.0789 LP             1 S1                 0.0000
     43 ****        -0.0225   1.9651   3.7421 LP             1 S1                 0.0000
     44 ****         0.4696   0.5688   2.8432 LP             1 S1                 0.0000
     45 ****         2.7053  -3.5713  -0.5279 LP             1 S1                 0.0000
     46 ****         1.8005  -5.5529  -3.4035 LP             1 S1                 0.0000
     47 ****         2.8977  -6.6332  -2.8598 LP             1 S1                 0.0000
     48 ****         2.0903  -1.1091  -2.4162 LP             1 S1                 0.0000
@<TRIPOS>BOND
    1    1    2 1     
    2    1   23 1     
    3    1   24 1     
    4    1   25 1     
    5    2    3 2     
    6    2    4 2     
    7    2    5 1     
    8    5    6 1     
    9    6    7 1     
   10    6   26 1     
   11    6   27 1     
   12    7    8 1     
   13    7   28 1     
   14    7   29 1     
   15    8    9 2     
   16    8   10 am    
   17   10   11 1     
   18   10   30 1     
   19   11   22 ar    
   20   11   12 ar    
   21   12   13 ar    
   22   12   31 1     
   23   13   14 ar    
   24   13   32 1     
   25   14   15 1     
   26   14   21 ar    
   27   15   20 1     
   28   15   16 1     
   29   16   17 1     
   30   16   33 1     
   31   16   34 1     
   32   17   18 1     
   33   17   35 1     
   34   17   36 1     
   35   18   19 1     
   36   19   20 1     
   37   19   37 1     
   38   19   38 1     
   39   20   39 1     
   40   20   40 1     
   41   21   22 ar    
   42   22   41 1     
   43    5   42 1     
   44    9   43 1     
   45    9   44 1     
   46   15   45 1     
   47   18   46 1     
   48   18   47 1     
   49   21   48 1     
@<TRIPOS>SUBSTRUCTURE
      1 S1             1
@<TRIPOS>SET
LONE_PAIRS      STATIC     ATOMS    <user>   **** ""
9 3 4 42 43 44 45 46 47 48
DONOR_HYDROGENS      STATIC     ATOMS    <user>   **** ""
1 30
ATOM$BLUE        STATIC     ATOMS    COLORGROUP SYSTEM
9 3 4 42 43 44 45 46 47 48
ATOM$RED        STATIC     ATOMS    COLORGROUP SYSTEM
1 30
