AV-unprocessed.smi:1308|AV-procd|sdf|5438|dock8
  -GOLD-   22720 5 03D 1   1.00000     0.00000
 Structure written by MMmdl.
 45 45  0  0  0  0  0  0  0  0  1 V2000
  145.7551  143.2090  153.7189 C   0  0  0  0  0  0  0  0  0  0  0  0
  146.4723  141.8790  153.8071 C   0  0  0  0  0  0  0  0  0  0  0  0
  145.9482  140.7527  153.4525 N   0  0  0  0  0  0  0  0  0  0  0  0
  146.7153  139.5857  153.5697 C   0  0  0  0  0  0  0  0  0  0  0  0
  146.0387  138.3112  153.0962 C   0  0  0  0  0  0  0  0  0  0  0  0
  147.9924  139.6129  154.0534 C   0  0  0  0  0  0  0  0  0  0  0  0
  148.8741  138.3659  154.1428 C   0  0  0  0  0  0  0  0  0  0  0  0
  148.3272  137.2731  155.0615 C   0  0  0  0  0  0  0  0  0  0  0  0
  148.1613  137.4968  156.2600 O   0  0  0  0  0  0  0  0  0  0  0  0
  148.0019  136.1166  154.4631 N   0  0  0  0  0  0  0  0  0  0  0  0
  147.1888  135.0504  155.0404 C   0  0  2  0  0  0  0  0  0  0  0  0
  148.0244  133.7676  155.1458 C   0  0  0  0  0  0  0  0  0  0  0  0
  145.9256  134.8467  154.1790 C   0  0  0  0  0  0  0  0  0  0  0  0
  146.1564  133.9447  152.9480 C   0  0  0  0  0  0  0  0  0  0  0  0
  144.9993  133.9393  151.9303 C   0  0  0  0  0  0  0  0  0  0  0  0
  145.1290  132.8011  150.9033 C   0  0  0  0  0  0  0  0  0  0  0  0
  144.9133  135.2938  151.2102 C   0  0  0  0  0  0  0  0  0  0  0  0
  148.5769  140.9046  154.4640 C   0  0  0  0  0  0  0  0  0  0  0  0
  149.7165  141.0451  154.9042 O   0  0  0  0  0  0  0  0  0  0  0  0
  147.7680  141.9766  154.3106 N   0  0  0  0  0  0  0  0  0  0  0  0
  148.1240  142.8844  154.5724 H   0  0  0  0  0  0  0  0  0  0  0  0
  145.5051  143.4311  152.6813 H   0  0  0  0  0  0  0  0  0  0  0  0
  146.3689  144.0240  154.1051 H   0  0  0  0  0  0  0  0  0  0  0  0
  144.8305  143.1756  154.2954 H   0  0  0  0  0  0  0  0  0  0  0  0
  146.0205  137.5644  153.8898 H   0  0  0  0  0  0  0  0  0  0  0  0
  146.5651  137.8957  152.2369 H   0  0  0  0  0  0  0  0  0  0  0  0
  145.0076  138.4998  152.7946 H   0  0  0  0  0  0  0  0  0  0  0  0
  149.0454  137.9369  153.1549 H   0  0  0  0  0  0  0  0  0  0  0  0
  149.8637  138.6566  154.4957 H   0  0  0  0  0  0  0  0  0  0  0  0
  148.2132  136.0308  153.4792 H   0  0  0  0  0  0  0  0  0  0  0  0
  146.8700  135.3216  156.0482 H   0  0  0  0  0  0  0  0  0  0  0  0
  147.4449  132.9580  155.5902 H   0  0  0  0  0  0  0  0  0  0  0  0
  148.9049  133.9227  155.7702 H   0  0  0  0  0  0  0  0  0  0  0  0
  148.3658  133.4332  154.1654 H   0  0  0  0  0  0  0  0  0  0  0  0
  145.1383  134.4259  154.8048 H   0  0  0  0  0  0  0  0  0  0  0  0
  145.5608  135.8182  153.8438 H   0  0  0  0  0  0  0  0  0  0  0  0
  147.0687  134.2769  152.4509 H   0  0  0  0  0  0  0  0  0  0  0  0
  146.3447  132.9180  153.2600 H   0  0  0  0  0  0  0  0  0  0  0  0
  144.0653  133.7991  152.4759 H   0  0  0  0  0  0  0  0  0  0  0  0
  146.0706  132.8656  150.3574 H   0  0  0  0  0  0  0  0  0  0  0  0
  144.3201  132.8398  150.1732 H   0  0  0  0  0  0  0  0  0  0  0  0
  145.0839  131.8212  151.3771 H   0  0  0  0  0  0  0  0  0  0  0  0
  145.8241  135.5005  150.6466 H   0  0  0  0  0  0  0  0  0  0  0  0
  144.7690  136.1092  151.9195 H   0  0  0  0  0  0  0  0  0  0  0  0
  144.0768  135.3164  150.5112 H   0  0  0  0  0  0  0  0  0  0  0  0
  1  2  1  0  0  0  0
  1 22  1  0  0  0  0
  1 23  1  0  0  0  0
  1 24  1  0  0  0  0
  2 20  1  0  0  0  0
  2  3  2  0  0  0  0
  3  4  1  0  0  0  0
  4  5  1  0  0  0  0
  4  6  2  0  0  0  0
  5 25  1  0  0  0  0
  5 26  1  0  0  0  0
  5 27  1  0  0  0  0
  6  7  1  0  0  0  0
  6 18  1  0  0  0  0
  7  8  1  0  0  0  0
  7 28  1  0  0  0  0
  7 29  1  0  0  0  0
  8  9  2  0  0  0  0
  8 10  1  0  0  0  0
 10 11  1  0  0  0  0
 10 30  1  0  0  0  0
 11 12  1  0  0  0  0
 11 13  1  0  0  0  0
 11 31  1  0  0  0  0
 12 32  1  0  0  0  0
 12 33  1  0  0  0  0
 12 34  1  0  0  0  0
 13 14  1  0  0  0  0
 13 35  1  0  0  0  0
 13 36  1  0  0  0  0
 14 15  1  0  0  0  0
 14 37  1  0  0  0  0
 14 38  1  0  0  0  0
 15 16  1  0  0  0  0
 15 17  1  0  0  0  0
 15 39  1  0  0  0  0
 16 40  1  0  0  0  0
 16 41  1  0  0  0  0
 16 42  1  0  0  0  0
 17 43  1  0  0  0  0
 17 44  1  0  0  0  0
 17 45  1  0  0  0  0
 18 19  2  0  0  0  0
 18 20  1  0  0  0  0
 20 21  1  0  0  0  0
M  END
> <s_m_source_file>
AV-unprocessed.smi

> <i_m_source_file_index>
1308

> <i_lp_mmshare_version>
43012

> <i_f3d_flags>
0

> <s_epik_input>
W0NIM11jMW5jKFtDSDNdKWMoYyg9TylbbkhdMSlbQ0gyXUMoPU8pW05IXVtDQEhdKFtDSDNdKVtDSDJdW0NIMl1bQ0hdKFtDSDNdKVtDSDNd

> <s_epik_cmdline>
J2VwaWtfcHl0aG9uJywgJy1waCcsICc3LjAnLCAnLXRuJywgJzgnLCAnLW1hJywgJzIwMCcsICctbWV0YWxfYmluZGluZycsICctaW1hZScsICc8aW5maWxlLm1hZT4nLCAnLW9tYWUnLCAnPG91dGZpbGUubWFlPic=

> <r_lp_tautomer_probability>
0.839158

> <r_epik_Ionization_Penalty>
0.000390633

> <r_epik_Ionization_Penalty_Charging>
0.00035831

> <r_epik_Ionization_Penalty_Neutral>
3.23235e-05

> <r_epik_State_Penalty>
0.0470222

> <r_epik_Charging_Adjusted_Penalty>
0.0473805

> <i_epik_Tot_Q>
0

> <i_epik_Tot_abs_Q>
0

> <r_epik_Metal_State_Penalty>
0.223807

> <b_epik_Metal_Only>
0

> <s_lp_Force_Field>
OPLS_2005

> <r_lp_Energy>
5.21456

> <b_lp_Chiralities_Consistent>
1

> <s_lp_Variant>
AV-unprocessed.smi:1308-1

> <Gold.Version>
5.8.1

> <Gold.Id.Protein>
6NUR|6NUR_protein|mol2

> <Gold.PLP.Fitness>
38.0850

> <Gold.PLP.PLP>
-30.7808

> <Gold.PLP.part.hbond>
-2.9951

> <Gold.PLP.part.metal>
0.0000

> <Gold.PLP.part.buried>
-2.9864

> <Gold.PLP.part.nonpolar>
-26.5931

> <Gold.PLP.part.repulsive>
0.6161

> <Gold.PLP.ligand.clash>
0.0000

> <Gold.PLP.ligand.torsion>
0.3357

> <Gold.PLP.Chemscore.Hbond>
2.6396

> <Gold.PLP.Chemscore.CHOScore>
0.0000

> <Gold.PLP.Chemscore.Metal>
0.0000

> <Gold.Chemscore.Hbonds>
donor molecule, donor type, donor heavy atom, donor atom, acceptor molecule, acceptor atom, score
      L1  H    10    30       P1  7948  1.00
      L1  H    20    21       P1  8028  0.49
      P1  H  7989  7998       L1    19  0.10

> <Gold.PLP.Chemscore.Internal.Correction>
0.0568

> <Gold.Rescore>
     Score         DG    S(hbond)    S(metal)    S(lipo)     H(rot)  DE(clash)    DE(int)     intcor
     15.00     -15.87       2.43        0.00      62.88       1.98       0.29       0.58       ----

> <Gold.Chemscore.Fitness>
14.9999

> <Gold.Chemscore.DG>
-15.8682

> <Gold.Chemscore.ZeroCoef>
-5.4800

> <Gold.Chemscore.Hbond>
2.4279

> <Gold.Chemscore.Metal>
0.0000

> <Gold.Chemscore.Lipo>
62.8776

> <Gold.Chemscore.Internal_Hbond>
0.0000

> <Gold.Chemscore.DEClash>
0.2904

> <Gold.Chemscore.DEInternal>
0.5778

> <Gold.Chemscore.Rot>
1.9835

> <Gold.Chemscore.Internal.Correction>
   9.000000E+99

> <Gold.Chemscore.Hbonds>
donor molecule, donor type, donor heavy atom, donor atom, acceptor molecule, acceptor atom, score
      L1  H    10    30       P1  7948  1.00
      L1  H    20    21       P1  8028  0.49
      P1  H  7989  7998       L1    19  0.11

> <Gold.Chemscore.Hbond.Weighted>
-8.1093

> <Gold.Chemscore.Metal.Weighted>
-0.0000

> <Gold.Chemscore.Lipo.Weighted>
-7.3567

> <Gold.Chemscore.Internal_Hbond.Weighted>
0.0000

> <Gold.Chemscore.DEClash.Weighted>
0.2904

> <Gold.Chemscore.DEInternal.Weighted>
0.5778

> <Gold.Chemscore.Rot.Weighted>
5.0778

> <Gold.Chemscore.Internal.Correction.Weighted>
   9.000000E+99

> <Gold.Protein.RotatedTorsions>
[ 6907 6896 6895 6894 ] final  -52.59 input  -60.11 | X-H torsion
[ 7974 7965 7964 7962 ] final  -30.18 input  175.53 | X-H torsion
[ 8008 7997 7996 7995 ] final  167.93 input   59.86 | X-H torsion
[ 10167 10162 10161 10158 ] final  148.76 input  -65.29 | X-H torsion
[ 10718 10713 10712 10709 ] final  -86.80 input   66.30 | X-H torsion
[ 10763 10752 10751 10750 ] final  -56.20 input  -60.55 | X-H torsion
[ 11005 11000 10999 10996 ] final   70.35 input  -57.11 | X-H torsion

> <Gold.Protein.ActiveResidues>
 VAL166  LYS551  ARG553  GLY616  TRP617  ASP618  TYR619  PRO620  LYS621  CYS622 
 ASP623  PHE694  ASN695  SER759  ASP760  ASP761  ALA762  ILE779  LEU786  VAL792 
 PHE793  MET794  SER795  GLU796  ALA797  LYS798  CYS799  TRP800  GLU811  SER814 

> <Gold.Protein.RotatedAtoms>
  150.8504  134.7827  159.7003 H   0  0  0  0  0  0  0  0  0  0  0  0  # atno 6907 bound_to 6896
  152.4570  134.5266  159.9808 H   0  0  0  0  0  0  0  0  0  0  0  0  # atno 6908 bound_to 6896
  151.5388  133.3398  159.2967 H   0  0  0  0  0  0  0  0  0  0  0  0  # atno 6909 bound_to 6896
  146.1161  140.5508  142.8756 H   0  0  0  0  0  0  0  0  0  0  0  0  # atno 7974 bound_to 7965
  156.1591  140.1604  156.8642 H   0  0  0  0  0  0  0  0  0  0  0  0  # atno 8008 bound_to 7997
  154.5144  140.0793  156.8088 H   0  0  0  0  0  0  0  0  0  0  0  0  # atno 8009 bound_to 7997
  155.3743  140.3402  155.4246 H   0  0  0  0  0  0  0  0  0  0  0  0  # atno 8010 bound_to 7997
  139.4870  144.5654  151.7154 H   0  0  0  0  0  0  0  0  0  0  0  0  # atno 10167 bound_to 10162
  155.9988  130.4777  150.4770 H   0  0  0  0  0  0  0  0  0  0  0  0  # atno 10718 bound_to 10713
  154.2029  135.6408  153.5092 H   0  0  0  0  0  0  0  0  0  0  0  0  # atno 10763 bound_to 10752
  153.0007  135.5455  154.6296 H   0  0  0  0  0  0  0  0  0  0  0  0  # atno 10764 bound_to 10752
  154.5714  135.2917  155.0797 H   0  0  0  0  0  0  0  0  0  0  0  0  # atno 10765 bound_to 10752
  139.9603  134.7073  156.0661 H   0  0  0  0  0  0  0  0  0  0  0  0  # atno 11005 bound_to 11000
  144.7555  140.5296  143.6772 LP  0  0  0  0  0  0  0  0  0  0  0  0  # atno 17320 bound_to 7965
  145.5563  139.1478  143.3366 LP  0  0  0  0  0  0  0  0  0  0  0  0  # atno 17321 bound_to 7965
  140.5232  144.0847  150.6029 LP  0  0  0  0  0  0  0  0  0  0  0  0  # atno 17342 bound_to 10162
  140.3812  143.2802  152.0168 LP  0  0  0  0  0  0  0  0  0  0  0  0  # atno 17343 bound_to 10162
  157.2779  131.0601  151.2217 LP  0  0  0  0  0  0  0  0  0  0  0  0  # atno 17370 bound_to 10713
  157.3274  130.6967  149.6304 LP  0  0  0  0  0  0  0  0  0  0  0  0  # atno 17371 bound_to 10713
  141.1279  133.6594  156.3386 LP  0  0  0  0  0  0  0  0  0  0  0  0  # atno 17394 bound_to 11000
  140.5516  134.6022  157.5409 LP  0  0  0  0  0  0  0  0  0  0  0  0  # atno 17395 bound_to 11000

$$$$
