AV-unprocessed.smi:3116|AV-procd|sdf|11875|dock6
  -GOLD-   2272017263D 1   1.00000     0.00000
 Structure written by MMmdl.
 33 33  0  0  0  0  0  0  0  0  1 V2000
  146.8145  138.8943  151.9326 C   0  0  0  0  0  0  0  0  0  0  0  0
  145.8984  137.8814  152.6363 C   0  0  1  0  0  0  0  0  0  0  0  0
  146.4242  136.5183  152.4416 N   0  0  0  0  0  0  0  0  0  0  0  0
  145.4829  135.5659  151.8485 C   0  0  2  0  0  0  0  0  0  0  0  0
  144.3503  135.3823  152.8731 C   0  0  0  0  0  0  0  0  0  0  0  0
  146.2228  134.2408  151.5141 C   0  0  1  0  0  0  0  0  0  0  0  0
  146.9909  133.6583  152.7168 C   0  0  0  0  0  0  0  0  0  0  0  0
  145.3120  133.2382  150.9711 N   0  0  0  0  0  0  0  0  0  0  0  0
  145.6157  131.9714  150.5159 C   0  0  0  0  0  0  0  0  0  0  0  0
  144.4552  131.4071  150.0702 C   0  0  0  0  0  0  0  0  0  0  0  0
  143.4801  132.4182  150.2945 C   0  0  0  0  0  0  0  0  0  0  0  0
  143.9945  133.5129  150.8303 N   0  0  0  0  0  0  0  0  0  0  0  0
  145.7265  138.2470  154.1197 C   0  0  0  0  0  0  0  0  0  0  0  0
  145.1494  139.4191  154.3956 N   0  0  0  0  0  0  0  0  0  0  0  0
  146.0930  137.4750  155.0038 O   0  0  0  0  0  0  0  0  0  0  0  0
  146.4472  139.9138  152.0561 H   0  0  0  0  0  0  0  0  0  0  0  0
  146.8640  138.6950  150.8616 H   0  0  0  0  0  0  0  0  0  0  0  0
  147.8326  138.8570  152.3230 H   0  0  0  0  0  0  0  0  0  0  0  0
  144.9244  137.9460  152.1501 H   0  0  0  0  0  0  0  0  0  0  0  0
  147.2842  136.5181  151.9127 H   0  0  0  0  0  0  0  0  0  0  0  0
  145.0413  135.9625  150.9337 H   0  0  0  0  0  0  0  0  0  0  0  0
  143.5492  134.7579  152.4786 H   0  0  0  0  0  0  0  0  0  0  0  0
  143.9013  136.3407  153.1370 H   0  0  0  0  0  0  0  0  0  0  0  0
  144.7129  134.9210  153.7922 H   0  0  0  0  0  0  0  0  0  0  0  0
  146.9592  134.4503  150.7363 H   0  0  0  0  0  0  0  0  0  0  0  0
  147.8055  134.3114  153.0283 H   0  0  0  0  0  0  0  0  0  0  0  0
  147.4352  132.6944  152.4662 H   0  0  0  0  0  0  0  0  0  0  0  0
  146.3368  133.5087  153.5763 H   0  0  0  0  0  0  0  0  0  0  0  0
  146.6231  131.5825  150.5417 H   0  0  0  0  0  0  0  0  0  0  0  0
  144.3238  130.4226  149.6463 H   0  0  0  0  0  0  0  0  0  0  0  0
  142.4215  132.3904  150.0826 H   0  0  0  0  0  0  0  0  0  0  0  0
  145.0203  139.7037  155.3557 H   0  0  0  0  0  0  0  0  0  0  0  0
  144.8491  140.0186  153.6409 H   0  0  0  0  0  0  0  0  0  0  0  0
  1  2  1  0  0  0  0
  1 16  1  0  0  0  0
  1 17  1  0  0  0  0
  1 18  1  0  0  0  0
  2  3  1  0  0  0  0
  2 13  1  0  0  0  0
  2 19  1  0  0  0  0
  3  4  1  0  0  0  0
  3 20  1  0  0  0  0
  4  5  1  0  0  0  0
  4  6  1  0  0  0  0
  4 21  1  0  0  0  0
  5 22  1  0  0  0  0
  5 23  1  0  0  0  0
  5 24  1  0  0  0  0
  6  7  1  0  0  0  0
  6  8  1  0  0  0  0
  6 25  1  0  0  0  0
  7 26  1  0  0  0  0
  7 27  1  0  0  0  0
  7 28  1  0  0  0  0
  8 12  1  0  0  0  0
  8  9  1  0  0  0  0
  9 10  2  0  0  0  0
  9 29  1  0  0  0  0
 10 11  1  0  0  0  0
 10 30  1  0  0  0  0
 11 12  2  0  0  0  0
 11 31  1  0  0  0  0
 13 14  1  0  0  0  0
 13 15  2  0  0  0  0
 14 32  1  0  0  0  0
 14 33  1  0  0  0  0
M  END
> <s_m_source_file>
AV-unprocessed.smi

> <i_m_source_file_index>
3116

> <i_lp_mmshare_version>
43012

> <i_f3d_flags>
0

> <s_epik_input>
W05IMl1DKD1PKVtDQEhdKFtDSDNdKVtOSF1bQ0BIXShbQ0gzXSlbQ0BIXShbQ0gzXSluMVtjSF1bY0hdW2NIXW4x

> <s_epik_cmdline>
J2VwaWtfcHl0aG9uJywgJy1waCcsICc3LjAnLCAnLXRuJywgJzgnLCAnLW1hJywgJzIwMCcsICctbWV0YWxfYmluZGluZycsICctaW1hZScsICc8aW5maWxlLm1hZT4nLCAnLW9tYWUnLCAnPG91dGZpbGUubWFlPic=

> <r_lp_tautomer_probability>
1

> <r_epik_Ionization_Penalty>
0.865977

> <r_epik_Ionization_Penalty_Charging>
0

> <r_epik_Ionization_Penalty_Neutral>
0.865977

> <r_epik_State_Penalty>
0.901888

> <r_epik_Charging_Adjusted_Penalty>
0.901888

> <i_epik_Tot_Q>
0

> <i_epik_Tot_abs_Q>
0

> <r_epik_Metal_State_Penalty>
0.901181

> <b_epik_Metal_Only>
0

> <s_lp_Force_Field>
OPLS_2005

> <r_lp_Energy>
8.89759

> <b_lp_Chiralities_Consistent>
1

> <s_lp_Variant>
AV-unprocessed.smi:3116-14

> <Gold.Version>
5.8.1

> <Gold.Id.Protein>
6NUR|6NUR_protein|mol2

> <Gold.PLP.Fitness>
35.9056

> <Gold.PLP.PLP>
-23.4650

> <Gold.PLP.part.hbond>
-2.0000

> <Gold.PLP.part.metal>
0.0000

> <Gold.PLP.part.buried>
-1.1417

> <Gold.PLP.part.nonpolar>
-21.8034

> <Gold.PLP.part.repulsive>
0.2233

> <Gold.PLP.ligand.clash>
0.0000

> <Gold.PLP.ligand.torsion>
0.8282

> <Gold.PLP.Chemscore.Hbond>
2.0000

> <Gold.PLP.Chemscore.CHOScore>
2.6566

> <Gold.PLP.Chemscore.Metal>
0.0000

> <Gold.Chemscore.Hbonds>
donor molecule, donor type, donor heavy atom, donor atom, acceptor molecule, acceptor atom, score
      L1  H     3    20       P1  7948  1.00
      L1  H    14    33       P1 10175  1.00
      L1  C     9    29       P1 10747  1.00
      L1  C    11    31       P1 10186  0.91
      L1  C    11    31       P1 10952  0.74

> <Gold.PLP.Chemscore.Internal.Correction>
0.1273

> <Gold.Rescore>
     Score         DG    S(hbond)    S(metal)    S(lipo)     H(rot)  DE(clash)    DE(int)     intcor
     11.11     -13.40       1.99        0.00      63.22       2.38       0.13       2.17       ----

> <Gold.Chemscore.Fitness>
11.1054

> <Gold.Chemscore.DG>
-13.4043

> <Gold.Chemscore.ZeroCoef>
-5.4800

> <Gold.Chemscore.Hbond>
1.9850

> <Gold.Chemscore.Metal>
0.0000

> <Gold.Chemscore.Lipo>
63.2162

> <Gold.Chemscore.Internal_Hbond>
0.0000

> <Gold.Chemscore.DEClash>
0.1326

> <Gold.Chemscore.DEInternal>
2.1663

> <Gold.Chemscore.Rot>
2.3836

> <Gold.Chemscore.Internal.Correction>
   9.000000E+99

> <Gold.Chemscore.Hbonds>
donor molecule, donor type, donor heavy atom, donor atom, acceptor molecule, acceptor atom, score
      L1  H     3    20       P1  7948  0.94
      L1  H    14    33       P1 10175  0.94

> <Gold.Chemscore.Hbond.Weighted>
-6.6300

> <Gold.Chemscore.Metal.Weighted>
-0.0000

> <Gold.Chemscore.Lipo.Weighted>
-7.3963

> <Gold.Chemscore.Internal_Hbond.Weighted>
0.0000

> <Gold.Chemscore.DEClash.Weighted>
0.1326

> <Gold.Chemscore.DEInternal.Weighted>
2.1663

> <Gold.Chemscore.Rot.Weighted>
6.1020

> <Gold.Chemscore.Internal.Correction.Weighted>
   9.000000E+99

> <Gold.Protein.RotatedTorsions>
[ 6907 6896 6895 6894 ] final   72.10 input  -60.11 | X-H torsion
[ 7974 7965 7964 7962 ] final  -41.10 input  175.53 | X-H torsion
[ 8008 7997 7996 7995 ] final   39.56 input   59.86 | X-H torsion
[ 10167 10162 10161 10158 ] final -168.71 input  -65.29 | X-H torsion
[ 10718 10713 10712 10709 ] final -143.14 input   66.30 | X-H torsion
[ 10763 10752 10751 10750 ] final   12.56 input  -60.55 | X-H torsion
[ 11005 11000 10999 10996 ] final  -88.17 input  -57.11 | X-H torsion

> <Gold.Protein.ActiveResidues>
 VAL166  LYS551  ARG553  GLY616  TRP617  ASP618  TYR619  PRO620  LYS621  CYS622 
 ASP623  PHE694  ASN695  SER759  ASP760  ASP761  ALA762  ILE779  LEU786  VAL792 
 PHE793  MET794  SER795  GLU796  ALA797  LYS798  CYS799  TRP800  GLU811  SER814 

> <Gold.Protein.RotatedAtoms>
  152.4848  134.4622  159.9608 H   0  0  0  0  0  0  0  0  0  0  0  0  # atno 6907 bound_to 6896
  151.4620  133.3584  159.2818 H   0  0  0  0  0  0  0  0  0  0  0  0  # atno 6908 bound_to 6896
  150.8950  134.8382  159.7380 H   0  0  0  0  0  0  0  0  0  0  0  0  # atno 6909 bound_to 6896
  146.0243  140.6811  142.9163 H   0  0  0  0  0  0  0  0  0  0  0  0  # atno 7974 bound_to 7965
  155.2386  140.3344  155.4295 H   0  0  0  0  0  0  0  0  0  0  0  0  # atno 8008 bound_to 7997
  156.2265  140.1831  156.7395 H   0  0  0  0  0  0  0  0  0  0  0  0  # atno 8009 bound_to 7997
  154.5907  140.0638  156.9220 H   0  0  0  0  0  0  0  0  0  0  0  0  # atno 8010 bound_to 7997
  139.5968  144.1095  152.1698 H   0  0  0  0  0  0  0  0  0  0  0  0  # atno 10167 bound_to 10162
  156.3543  130.7705  151.1862 H   0  0  0  0  0  0  0  0  0  0  0  0  # atno 10718 bound_to 10713
  153.1810  135.6827  153.8479 H   0  0  0  0  0  0  0  0  0  0  0  0  # atno 10763 bound_to 10752
  153.7810  135.3182  155.3367 H   0  0  0  0  0  0  0  0  0  0  0  0  # atno 10764 bound_to 10752
  154.8059  135.4748  154.0487 H   0  0  0  0  0  0  0  0  0  0  0  0  # atno 10765 bound_to 10752
  141.1606  133.7554  156.9412 H   0  0  0  0  0  0  0  0  0  0  0  0  # atno 11005 bound_to 11000
  144.7003  140.3621  143.7162 LP  0  0  0  0  0  0  0  0  0  0  0  0  # atno 17320 bound_to 7965
  145.7144  139.1693  143.2520 LP  0  0  0  0  0  0  0  0  0  0  0  0  # atno 17321 bound_to 7965
  140.0682  144.5801  150.7211 LP  0  0  0  0  0  0  0  0  0  0  0  0  # atno 17342 bound_to 10162
  140.7218  143.2596  151.4253 LP  0  0  0  0  0  0  0  0  0  0  0  0  # atno 17343 bound_to 10162
  157.7465  131.0418  150.4665 LP  0  0  0  0  0  0  0  0  0  0  0  0  # atno 17370 bound_to 10713
  156.4866  130.4085  149.6431 LP  0  0  0  0  0  0  0  0  0  0  0  0  # atno 17371 bound_to 10713
  140.1320  134.9350  157.2350 LP  0  0  0  0  0  0  0  0  0  0  0  0  # atno 17394 bound_to 11000
  140.2941  134.3206  155.7307 LP  0  0  0  0  0  0  0  0  0  0  0  0  # atno 17395 bound_to 11000

$$$$
