AV-unprocessed.smi:2845|AV-procd|sdf|10947|dock6
  -GOLD-   2272015393D 1   1.00000     0.00000
 Structure written by MMmdl.
 43 45  0  0  0  0  0  0  0  0  2 V2000
  153.1963  142.8779  161.2434 C   0  0  0  0  0  0  0  0  0  0  0  0
  152.5731  142.4702  159.9191 C   0  0  0  0  0  0  0  0  0  0  0  0
  152.7690  141.1478  159.4605 C   0  0  0  0  0  0  0  0  0  0  0  0
  152.1855  140.8044  158.2468 C   0  0  0  0  0  0  0  0  0  0  0  0
  152.1905  139.6023  157.5354 N   0  3  0  0  0  0  0  0  0  0  0  0
  151.4730  139.7509  156.3873 C   0  0  0  0  0  0  0  0  0  0  0  0
  151.0110  141.0302  156.3559 N   0  0  0  0  0  0  0  0  0  0  0  0
  150.1841  141.7087  155.3501 C   0  0  0  0  0  0  0  0  0  0  0  0
  149.1959  140.7523  154.6490 C   0  0  2  0  0  0  0  0  0  0  0  0
  149.8784  140.0296  153.6418 O   0  0  0  0  0  0  0  0  0  0  0  0
  147.9678  141.4673  154.0449 C   0  0  0  0  0  0  0  0  0  0  0  0
  147.0195  141.9462  155.0367 N   0  0  0  0  0  0  0  0  0  0  0  0
  145.6897  142.0683  154.9772 C   0  0  0  0  0  0  0  0  0  0  0  0
  145.1416  142.5478  156.0855 N   0  0  0  0  0  0  0  0  0  0  0  0
  146.2744  142.7116  156.8291 C   0  0  0  0  0  0  0  0  0  0  0  0
  146.2192  143.3684  158.5257 S   0  0  1  0  0  0  0  0  0  0  0  0
  144.5519  144.1635  158.3603 C   0  0  0  0  0  0  0  0  0  0  0  0
  146.0484  142.1554  159.4427 O   0  0  0  0  0  0  0  0  0  0  0  0
  147.4273  142.3746  156.2554 N   0  0  0  0  0  0  0  0  0  0  0  0
  151.4298  141.7247  157.4949 C   0  0  0  0  0  0  0  0  0  0  0  0
  151.2266  143.0314  157.9313 C   0  0  0  0  0  0  0  0  0  0  0  0
  151.8118  143.4000  159.1640 C   0  0  0  0  0  0  0  0  0  0  0  0
  151.6082  144.8193  159.6668 C   0  0  0  0  0  0  0  0  0  0  0  0
  153.7520  142.0546  161.6933 H   0  0  0  0  0  0  0  0  0  0  0  0
  152.4260  143.1855  161.9509 H   0  0  0  0  0  0  0  0  0  0  0  0
  153.8886  143.7082  161.1018 H   0  0  0  0  0  0  0  0  0  0  0  0
  153.3476  140.4350  160.0298 H   0  0  0  0  0  0  0  0  0  0  0  0
  151.2972  138.9911  155.6393 H   0  0  0  0  0  0  0  0  0  0  0  0
  149.6571  142.5327  155.8323 H   0  0  0  0  0  0  0  0  0  0  0  0
  150.8654  142.1580  154.6264 H   0  0  0  0  0  0  0  0  0  0  0  0
  148.8347  140.0218  155.3735 H   0  0  0  0  0  0  0  0  0  0  0  0
  149.5035  140.2536  152.8036 H   0  0  0  0  0  0  0  0  0  0  0  0
  148.2835  142.3097  153.4274 H   0  0  0  0  0  0  0  0  0  0  0  0
  147.4393  140.7832  153.3799 H   0  0  0  0  0  0  0  0  0  0  0  0
  145.1110  141.7963  154.1066 H   0  0  0  0  0  0  0  0  0  0  0  0
  144.3602  144.4629  157.3296 H   0  0  0  0  0  0  0  0  0  0  0  0
  144.4978  145.0510  158.9904 H   0  0  0  0  0  0  0  0  0  0  0  0
  143.7707  143.4700  158.6713 H   0  0  0  0  0  0  0  0  0  0  0  0
  150.6464  143.7377  157.3562 H   0  0  0  0  0  0  0  0  0  0  0  0
  151.0047  145.4061  158.9736 H   0  0  0  0  0  0  0  0  0  0  0  0
  152.5668  145.3253  159.7839 H   0  0  0  0  0  0  0  0  0  0  0  0
  151.0983  144.8151  160.6304 H   0  0  0  0  0  0  0  0  0  0  0  0
  152.6469  138.7419  157.8108 H   0  0  0  0  0  0  0  0  0  0  0  0
  1  2  1  0  0  0  0
  1 24  1  0  0  0  0
  1 25  1  0  0  0  0
  1 26  1  0  0  0  0
  2 22  1  0  0  0  0
  2  3  2  0  0  0  0
  3  4  1  0  0  0  0
  3 27  1  0  0  0  0
  4 20  2  0  0  0  0
  4  5  1  0  0  0  0
  5  6  2  0  0  0  0
  5 43  1  0  0  0  0
  6  7  1  0  0  0  0
  6 28  1  0  0  0  0
  7  8  1  0  0  0  0
  7 20  1  0  0  0  0
  8  9  1  0  0  0  0
  8 29  1  0  0  0  0
  8 30  1  0  0  0  0
  9 10  1  0  0  0  0
  9 11  1  0  0  0  0
  9 31  1  0  0  0  0
 10 32  1  0  0  0  0
 11 12  1  0  0  0  0
 11 33  1  0  0  0  0
 11 34  1  0  0  0  0
 12 19  1  0  0  0  0
 12 13  1  0  0  0  0
 13 14  2  0  0  0  0
 13 35  1  0  0  0  0
 14 15  1  0  0  0  0
 15 16  1  0  0  0  0
 15 19  2  0  0  0  0
 16 17  1  0  0  0  0
 16 18  2  0  0  0  0
 17 36  1  0  0  0  0
 17 37  1  0  0  0  0
 17 38  1  0  0  0  0
 20 21  1  0  0  0  0
 21 22  2  0  0  0  0
 21 39  1  0  0  0  0
 22 23  1  0  0  0  0
 23 40  1  0  0  0  0
 23 41  1  0  0  0  0
 23 42  1  0  0  0  0
M  CHG  1   5   1
M  END
> <s_m_source_file>
AV-unprocessed.smi

> <i_m_source_file_index>
2845

> <i_lp_mmshare_version>
43012

> <i_f3d_flags>
0

> <s_epik_input>
W0NIM11jKFtjSF0xKWMoW0NIM10pW2NIXWMoYzEyKW4oW2NIXW4yKVtDSDJdW0NASF0oW09IXSlbQ0gyXW4zW2NIXW5jKG4zKVtTQF0oPU8pW0NIM10=

> <s_epik_cmdline>
J2VwaWtfcHl0aG9uJywgJy1waCcsICc3LjAnLCAnLXRuJywgJzgnLCAnLW1hJywgJzIwMCcsICctbWV0YWxfYmluZGluZycsICctaW1hZScsICc8aW5maWxlLm1hZT4nLCAnLW9tYWUnLCAnPG91dGZpbGUubWFlPic=

> <r_lp_tautomer_probability>
1

> <r_epik_Ionization_Penalty>
1.12076

> <r_epik_Ionization_Penalty_Charging>
1.12075

> <r_epik_Ionization_Penalty_Neutral>
1.54566e-06

> <r_epik_State_Penalty>
1.17957

> <r_epik_Charging_Adjusted_Penalty>
2.30033

> <i_epik_Tot_Q>
1

> <i_epik_Tot_abs_Q>
1

> <r_epik_Metal_State_Penalty>
1.26402

> <b_epik_Metal_Only>
0

> <s_lp_Force_Field>
OPLS_2005

> <r_lp_Energy>
15.2254

> <b_lp_Chiralities_Consistent>
1

> <s_lp_Variant>
AV-unprocessed.smi:2845-5

> <Gold.Version>
5.8.1

> <Gold.Id.Protein>
6NUR|6NUR_protein|mol2

> <Gold.PLP.Fitness>
53.2969

> <Gold.PLP.PLP>
-45.1755

> <Gold.PLP.part.hbond>
-2.8429

> <Gold.PLP.part.metal>
0.0000

> <Gold.PLP.part.buried>
-6.7053

> <Gold.PLP.part.nonpolar>
-36.9958

> <Gold.PLP.part.repulsive>
1.4509

> <Gold.PLP.ligand.clash>
0.0000

> <Gold.PLP.ligand.torsion>
1.8926

> <Gold.PLP.Chemscore.Hbond>
2.6320

> <Gold.PLP.Chemscore.CHOScore>
1.0000

> <Gold.PLP.Chemscore.Metal>
0.0000

> <Gold.Chemscore.Hbonds>
donor molecule, donor type, donor heavy atom, donor atom, acceptor molecule, acceptor atom, score
      L1  H    10    32       P1  7957  0.91
      P1  H  6934  6946       L1    18  1.00
      P1  H  7989  7998       L1    10  0.67
      L1  C    13    35       P1 10175  0.85

> <Gold.PLP.Chemscore.Internal.Correction>
1.0105

> <Gold.Rescore>
     Score         DG    S(hbond)    S(metal)    S(lipo)     H(rot)  DE(clash)    DE(int)     intcor
     15.18     -16.96       1.98        0.00     102.18       2.77       0.03       1.75       ----

> <Gold.Chemscore.Fitness>
15.1806

> <Gold.Chemscore.DG>
-16.9584

> <Gold.Chemscore.ZeroCoef>
-5.4800

> <Gold.Chemscore.Hbond>
1.9789

> <Gold.Chemscore.Metal>
0.0000

> <Gold.Chemscore.Lipo>
102.1802

> <Gold.Chemscore.Internal_Hbond>
0.0000

> <Gold.Chemscore.DEClash>
0.0319

> <Gold.Chemscore.DEInternal>
1.7460

> <Gold.Chemscore.Rot>
2.7681

> <Gold.Chemscore.Internal.Correction>
   9.000000E+99

> <Gold.Chemscore.Hbonds>
donor molecule, donor type, donor heavy atom, donor atom, acceptor molecule, acceptor atom, score
      L1  H    10    32       P1  7957  0.88
      P1  H  6934  6946       L1    18  0.95
      P1  H  7989  7998       L1    10  0.09

> <Gold.Chemscore.Hbond.Weighted>
-6.6096

> <Gold.Chemscore.Metal.Weighted>
-0.0000

> <Gold.Chemscore.Lipo.Weighted>
-11.9551

> <Gold.Chemscore.Internal_Hbond.Weighted>
0.0000

> <Gold.Chemscore.DEClash.Weighted>
0.0319

> <Gold.Chemscore.DEInternal.Weighted>
1.7460

> <Gold.Chemscore.Rot.Weighted>
7.0863

> <Gold.Chemscore.Internal.Correction.Weighted>
   9.000000E+99

> <Gold.Protein.RotatedTorsions>
[ 6907 6896 6895 6894 ] final  146.23 input  -60.11 | X-H torsion
[ 7974 7965 7964 7962 ] final  172.66 input  175.53 | X-H torsion
[ 8008 7997 7996 7995 ] final -130.60 input   59.86 | X-H torsion
[ 10167 10162 10161 10158 ] final  132.16 input  -65.29 | X-H torsion
[ 10718 10713 10712 10709 ] final  -94.40 input   66.30 | X-H torsion
[ 10763 10752 10751 10750 ] final  142.56 input  -60.55 | X-H torsion
[ 11005 11000 10999 10996 ] final  -24.34 input  -57.11 | X-H torsion

> <Gold.Protein.ActiveResidues>
 VAL166  LYS551  ARG553  GLY616  TRP617  ASP618  TYR619  PRO620  LYS621  CYS622 
 ASP623  PHE694  ASN695  SER759  ASP760  ASP761  ALA762  ILE779  LEU786  VAL792 
 PHE793  MET794  SER795  GLU796  ALA797  LYS798  CYS799  TRP800  GLU811  SER814 

> <Gold.Protein.RotatedAtoms>
  152.1705  133.4641  159.4906 H   0  0  0  0  0  0  0  0  0  0  0  0  # atno 6907 bound_to 6896
  150.6919  134.1958  159.4312 H   0  0  0  0  0  0  0  0  0  0  0  0  # atno 6908 bound_to 6896
  151.9865  135.0001  160.0610 H   0  0  0  0  0  0  0  0  0  0  0  0  # atno 6909 bound_to 6896
  144.7262  139.9531  143.6432 H   0  0  0  0  0  0  0  0  0  0  0  0  # atno 7974 bound_to 7965
  155.2984  140.0451  157.3028 H   0  0  0  0  0  0  0  0  0  0  0  0  # atno 8008 bound_to 7997
  154.5501  140.2314  155.8467 H   0  0  0  0  0  0  0  0  0  0  0  0  # atno 8009 bound_to 7997
  156.1959  140.3038  155.9433 H   0  0  0  0  0  0  0  0  0  0  0  0  # atno 8010 bound_to 7997
  139.5352  144.6674  151.4812 H   0  0  0  0  0  0  0  0  0  0  0  0  # atno 10167 bound_to 10162
  156.0026  130.5066  150.5920 H   0  0  0  0  0  0  0  0  0  0  0  0  # atno 10718 bound_to 10713
  153.9578  135.2963  155.3435 H   0  0  0  0  0  0  0  0  0  0  0  0  # atno 10763 bound_to 10752
  154.7391  135.5033  153.9096 H   0  0  0  0  0  0  0  0  0  0  0  0  # atno 10764 bound_to 10752
  153.0962  135.6721  153.9869 H   0  0  0  0  0  0  0  0  0  0  0  0  # atno 10765 bound_to 10752
  140.8836  133.7637  156.0333 H   0  0  0  0  0  0  0  0  0  0  0  0  # atno 11005 bound_to 11000
  146.0696  139.3685  143.0531 LP  0  0  0  0  0  0  0  0  0  0  0  0  # atno 17320 bound_to 7965
  145.7986  140.9781  143.1011 LP  0  0  0  0  0  0  0  0  0  0  0  0  # atno 17321 bound_to 7965
  140.6554  143.8611  150.6829 LP  0  0  0  0  0  0  0  0  0  0  0  0  # atno 17342 bound_to 10162
  140.1989  143.3976  152.1807 LP  0  0  0  0  0  0  0  0  0  0  0  0  # atno 17343 bound_to 10162
  157.3783  131.0777  151.1498 LP  0  0  0  0  0  0  0  0  0  0  0  0  # atno 17370 bound_to 10713
  157.2229  130.6489  149.5818 LP  0  0  0  0  0  0  0  0  0  0  0  0  # atno 17371 bound_to 10713
  140.8431  134.3042  157.5305 LP  0  0  0  0  0  0  0  0  0  0  0  0  # atno 17394 bound_to 11000
  139.8722  134.9427  156.3833 LP  0  0  0  0  0  0  0  0  0  0  0  0  # atno 17395 bound_to 11000

$$$$
