AV-unprocessed.smi:50|AV-procd|sdf|493|dock10
  -GOLD-   2262016363D 1   1.00000     0.00000
 Structure written by MMmdl.
 43 44  0  0  0  0  0  0  0  0  1 V2000
  145.3629  132.6237  149.1792 C   0  0  0  0  0  0  0  0  0  0  0  0
  145.5046  133.6973  150.2724 C   0  0  0  0  0  0  0  0  0  0  0  0
  146.1702  133.0988  151.5276 C   0  0  0  0  0  0  0  0  0  0  0  0
  144.1617  134.4338  150.5375 C   0  0  2  0  0  0  0  0  0  0  0  0
  143.7297  135.1735  149.3507 N   0  0  0  0  0  0  0  0  0  0  0  0
  144.1552  135.2967  151.8145 C   0  0  0  0  0  0  0  0  0  0  0  0
  143.4031  135.0900  152.7673 O   0  0  0  0  0  0  0  0  0  0  0  0
  145.0766  136.2771  151.7552 O   0  0  0  0  0  0  0  0  0  0  0  0
  145.2123  137.1815  152.8383 C   0  0  0  0  0  0  0  0  0  0  0  0
  146.2865  138.2178  152.4986 C   0  0  0  0  0  0  0  0  0  0  0  0
  147.1050  138.4164  153.6395 O   0  0  0  0  0  0  0  0  0  0  0  0
  148.0022  139.4664  153.4922 C   0  0  0  0  0  0  0  0  0  0  0  0
  149.2534  139.0607  154.1017 N   0  0  0  0  0  0  0  0  0  0  0  0
  149.9635  137.9014  153.9122 C   0  0  0  0  0  0  0  0  0  0  0  0
  151.0590  137.8309  154.6161 N   0  0  0  0  0  0  0  0  0  0  0  0
  151.0831  139.0256  155.3302 C   0  0  0  0  0  0  0  0  0  0  0  0
  152.0440  139.5196  156.2754 C   0  0  0  0  0  0  0  0  0  0  0  0
  153.0770  138.9792  156.6646 O   0  0  0  0  0  0  0  0  0  0  0  0
  151.6933  140.7807  156.7744 N   0  0  0  0  0  0  0  0  0  0  0  0
  150.5472  141.4788  156.4009 C   0  0  0  0  0  0  0  0  0  0  0  0
  150.3578  142.6750  156.9733 N   0  0  0  0  0  0  0  0  0  0  0  0
  149.6633  141.0233  155.5301 N   0  0  0  0  0  0  0  0  0  0  0  0
  149.9754  139.7909  155.0209 C   0  0  0  0  0  0  0  0  0  0  0  0
  143.4122  133.6558  150.6865 H   0  0  0  0  0  0  0  0  0  0  0  0
  152.3213  141.1957  157.4470 H   0  0  0  0  0  0  0  0  0  0  0  0
  144.7160  131.8061  149.4982 H   0  0  0  0  0  0  0  0  0  0  0  0
  146.3324  132.1949  148.9239 H   0  0  0  0  0  0  0  0  0  0  0  0
  144.9415  133.0449  148.2661 H   0  0  0  0  0  0  0  0  0  0  0  0
  146.1974  134.4415  149.8765 H   0  0  0  0  0  0  0  0  0  0  0  0
  145.6020  132.2596  151.9294 H   0  0  0  0  0  0  0  0  0  0  0  0
  146.2743  133.8428  152.3175 H   0  0  0  0  0  0  0  0  0  0  0  0
  147.1694  132.7294  151.2960 H   0  0  0  0  0  0  0  0  0  0  0  0
  143.3137  136.0601  149.5973 H   0  0  0  0  0  0  0  0  0  0  0  0
  144.5090  135.3847  148.7440 H   0  0  0  0  0  0  0  0  0  0  0  0
  144.2599  137.6775  153.0312 H   0  0  0  0  0  0  0  0  0  0  0  0
  145.4895  136.6348  153.7407 H   0  0  0  0  0  0  0  0  0  0  0  0
  146.8911  137.8680  151.6602 H   0  0  0  0  0  0  0  0  0  0  0  0
  145.8177  139.1573  152.2017 H   0  0  0  0  0  0  0  0  0  0  0  0
  148.1844  139.6798  152.4373 H   0  0  0  0  0  0  0  0  0  0  0  0
  147.6354  140.3688  153.9846 H   0  0  0  0  0  0  0  0  0  0  0  0
  149.6464  137.1149  153.2428 H   0  0  0  0  0  0  0  0  0  0  0  0
  151.0321  143.0243  157.6390 H   0  0  0  0  0  0  0  0  0  0  0  0
  149.5448  143.2275  156.7421 H   0  0  0  0  0  0  0  0  0  0  0  0
  1  2  1  0  0  0  0
  1 26  1  0  0  0  0
  1 27  1  0  0  0  0
  1 28  1  0  0  0  0
  2  3  1  0  0  0  0
  2  4  1  0  0  0  0
  2 29  1  0  0  0  0
  3 30  1  0  0  0  0
  3 31  1  0  0  0  0
  3 32  1  0  0  0  0
  4 24  1  0  0  0  0
  4  5  1  0  0  0  0
  4  6  1  0  0  0  0
  5 33  1  0  0  0  0
  5 34  1  0  0  0  0
  6  7  2  0  0  0  0
  6  8  1  0  0  0  0
  8  9  1  0  0  0  0
  9 10  1  0  0  0  0
  9 35  1  0  0  0  0
  9 36  1  0  0  0  0
 10 11  1  0  0  0  0
 10 37  1  0  0  0  0
 10 38  1  0  0  0  0
 11 12  1  0  0  0  0
 12 13  1  0  0  0  0
 12 39  1  0  0  0  0
 12 40  1  0  0  0  0
 13 23  1  0  0  0  0
 13 14  1  0  0  0  0
 14 15  2  0  0  0  0
 14 41  1  0  0  0  0
 15 16  1  0  0  0  0
 16 23  2  0  0  0  0
 16 17  1  0  0  0  0
 17 18  2  0  0  0  0
 17 19  1  0  0  0  0
 19 25  1  0  0  0  0
 19 20  1  0  0  0  0
 20 21  1  0  0  0  0
 20 22  2  0  0  0  0
 21 42  1  0  0  0  0
 21 43  1  0  0  0  0
 22 23  1  0  0  0  0
M  END
> <s_m_source_file>
AV-unprocessed.smi

> <i_m_source_file_index>
50

> <i_lp_mmshare_version>
43012

> <i_f3d_flags>
0

> <s_epik_input>
W0NIM11bQ0hdKFtDSDNdKVtDQEhdKFtOSDJdKUMoPU8pT1tDSDJdW0NIMl1PW0NIMl1uKFtjSF1uMSljKGMxMiluYyhbTkgyXSlbbkhdYzI9Tw==

> <s_epik_cmdline>
J2VwaWtfcHl0aG9uJywgJy1waCcsICc3LjAnLCAnLXRuJywgJzgnLCAnLW1hJywgJzIwMCcsICctbWV0YWxfYmluZGluZycsICctaW1hZScsICc8aW5maWxlLm1hZT4nLCAnLW9tYWUnLCAnPG91dGZpbGUubWFlPic=

> <r_lp_tautomer_probability>
0.99994

> <r_epik_Ionization_Penalty>
0.704142

> <r_epik_Ionization_Penalty_Charging>
0.00148332

> <r_epik_Ionization_Penalty_Neutral>
0.702658

> <r_epik_State_Penalty>
0.725442

> <r_epik_Charging_Adjusted_Penalty>
0.726926

> <i_epik_Tot_Q>
0

> <i_epik_Tot_abs_Q>
0

> <r_epik_Metal_State_Penalty>
1.04557

> <b_epik_Metal_Only>
0

> <s_epik_Chemistry_Notes>
This compound has an ester and may undergo hydrolysis at high or low pH. This compound contains an acetal/aminal-like group ( X-CH(R)-Y where X, Y are N, S, or O) that may be acid/base labile, releasing an aldehyde.

> <s_lp_Force_Field>
OPLS_2005

> <r_lp_Energy>
11.3413

> <b_lp_Chiralities_Consistent>
1

> <s_lp_Variant>
AV-unprocessed.smi:50-3

> <Gold.Version>
5.8.1

> <Gold.Id.Protein>
6NUR|6NUR_protein|mol2

> <Gold.PLP.Fitness>
44.1662

> <Gold.PLP.PLP>
-33.5660

> <Gold.PLP.part.hbond>
-3.5998

> <Gold.PLP.part.metal>
0.0000

> <Gold.PLP.part.buried>
-0.0684

> <Gold.PLP.part.nonpolar>
-30.5871

> <Gold.PLP.part.repulsive>
0.8850

> <Gold.PLP.ligand.clash>
0.0000

> <Gold.PLP.ligand.torsion>
0.8808

> <Gold.PLP.Chemscore.Hbond>
3.0000

> <Gold.PLP.Chemscore.CHOScore>
0.9970

> <Gold.PLP.Chemscore.Metal>
0.0000

> <Gold.Chemscore.Hbonds>
donor molecule, donor type, donor heavy atom, donor atom, acceptor molecule, acceptor atom, score
      L1  H     5    34       P1  7921  0.99
      L1  H    21    43       P1  8028  0.90
      P1  H  7997  8010       L1    18  0.98
      L1  C    14    41       P1  7948  0.28

> <Gold.PLP.Chemscore.Internal.Correction>
0.3707

> <Gold.Rescore>
     Score         DG    S(hbond)    S(metal)    S(lipo)     H(rot)  DE(clash)    DE(int)     intcor
      5.12      -8.01       2.66        0.00      49.73       4.75       2.04       0.85       ----

> <Gold.Chemscore.Fitness>
5.1185

> <Gold.Chemscore.DG>
-8.0072

> <Gold.Chemscore.ZeroCoef>
-5.4800

> <Gold.Chemscore.Hbond>
2.6553

> <Gold.Chemscore.Metal>
0.0000

> <Gold.Chemscore.Lipo>
49.7339

> <Gold.Chemscore.Internal_Hbond>
0.0000

> <Gold.Chemscore.DEClash>
2.0377

> <Gold.Chemscore.DEInternal>
0.8509

> <Gold.Chemscore.Rot>
4.7501

> <Gold.Chemscore.Internal.Correction>
   9.000000E+99

> <Gold.Chemscore.Hbonds>
donor molecule, donor type, donor heavy atom, donor atom, acceptor molecule, acceptor atom, score
      L1  H     5    34       P1  7921  0.89
      L1  H    21    43       P1  8028  0.87
      P1  H  7997  8010       L1    18  0.87

> <Gold.Chemscore.Hbond.Weighted>
-8.8686

> <Gold.Chemscore.Metal.Weighted>
-0.0000

> <Gold.Chemscore.Lipo.Weighted>
-5.8189

> <Gold.Chemscore.Internal_Hbond.Weighted>
0.0000

> <Gold.Chemscore.DEClash.Weighted>
2.0377

> <Gold.Chemscore.DEInternal.Weighted>
0.8509

> <Gold.Chemscore.Rot.Weighted>
12.1603

> <Gold.Chemscore.Internal.Correction.Weighted>
   9.000000E+99

> <Gold.Protein.RotatedTorsions>
[ 6907 6896 6895 6894 ] final   25.33 input  -60.11 | X-H torsion
[ 7974 7965 7964 7962 ] final -103.72 input  175.53 | X-H torsion
[ 8008 7997 7996 7995 ] final   45.51 input   59.86 | X-H torsion
[ 10167 10162 10161 10158 ] final  143.97 input  -65.29 | X-H torsion
[ 10718 10713 10712 10709 ] final   94.39 input   66.30 | X-H torsion
[ 10763 10752 10751 10750 ] final  -86.12 input  -60.55 | X-H torsion
[ 11005 11000 10999 10996 ] final  -99.48 input  -57.11 | X-H torsion

> <Gold.Protein.ActiveResidues>
 VAL166  LYS551  ARG553  GLY616  TRP617  ASP618  TYR619  PRO620  LYS621  CYS622 
 ASP623  PHE694  ASN695  SER759  ASP760  ASP761  ALA762  ILE779  LEU786  VAL792 
 PHE793  MET794  SER795  GLU796  ALA797  LYS798  CYS799  TRP800  GLU811  SER814 

> <Gold.Protein.RotatedAtoms>
  151.9709  135.0077  160.0552 H   0  0  0  0  0  0  0  0  0  0  0  0  # atno 6907 bound_to 6896
  152.1784  133.4686  159.4953 H   0  0  0  0  0  0  0  0  0  0  0  0  # atno 6908 bound_to 6896
  150.6913  134.1782  159.4281 H   0  0  0  0  0  0  0  0  0  0  0  0  # atno 6909 bound_to 6896
  145.2523  140.9242  143.3088 H   0  0  0  0  0  0  0  0  0  0  0  0  # atno 7974 bound_to 7965
  155.3371  140.3406  155.4239 H   0  0  0  0  0  0  0  0  0  0  0  0  # atno 8008 bound_to 7997
  156.1832  140.1671  156.8271 H   0  0  0  0  0  0  0  0  0  0  0  0  # atno 8009 bound_to 7997
  154.5357  140.0735  156.8406 H   0  0  0  0  0  0  0  0  0  0  0  0  # atno 8010 bound_to 7997
  139.4957  144.6004  151.6492 H   0  0  0  0  0  0  0  0  0  0  0  0  # atno 10167 bound_to 10162
  157.6948  131.0510  150.4179 H   0  0  0  0  0  0  0  0  0  0  0  0  # atno 10718 bound_to 10713
  154.6189  135.5460  153.7553 H   0  0  0  0  0  0  0  0  0  0  0  0  # atno 10763 bound_to 10752
  153.0229  135.6408  154.1470 H   0  0  0  0  0  0  0  0  0  0  0  0  # atno 10764 bound_to 10752
  154.1405  135.2908  155.3142 H   0  0  0  0  0  0  0  0  0  0  0  0  # atno 10765 bound_to 10752
  141.1307  133.8325  157.0977 H   0  0  0  0  0  0  0  0  0  0  0  0  # atno 11005 bound_to 11000
  144.9492  139.4102  143.6411 LP  0  0  0  0  0  0  0  0  0  0  0  0  # atno 17320 bound_to 7965
  146.3299  139.8490  142.8876 LP  0  0  0  0  0  0  0  0  0  0  0  0  # atno 17321 bound_to 7965
  140.5653  144.0201  150.6189 LP  0  0  0  0  0  0  0  0  0  0  0  0  # atno 17342 bound_to 10162
  140.3300  143.3083  152.0697 LP  0  0  0  0  0  0  0  0  0  0  0  0  # atno 17343 bound_to 10162
  156.4556  130.4021  149.6608 LP  0  0  0  0  0  0  0  0  0  0  0  0  # atno 17370 bound_to 10713
  156.3741  130.7546  151.2532 LP  0  0  0  0  0  0  0  0  0  0  0  0  # atno 17371 bound_to 10713
  140.0353  134.9881  157.0858 LP  0  0  0  0  0  0  0  0  0  0  0  0  # atno 17394 bound_to 11000
  140.4221  134.1870  155.7165 LP  0  0  0  0  0  0  0  0  0  0  0  0  # atno 17395 bound_to 11000

$$$$
