AV-unprocessed.smi:2562|AV-procd|sdf|10053|dock2
  -GOLD-   2272014 93D 1   1.00000     0.00000
 Structure written by MMmdl.
 30 31  0  0  0  0  0  0  0  0  3 V2000
  152.6907  143.3248  158.9674 C   0  0  0  0  0  0  0  0  0  0  0  0
  153.1052  142.0224  159.6608 C   0  0  0  0  0  0  0  0  0  0  0  0
  152.0829  140.8953  159.4616 C   0  0  0  0  0  0  0  0  0  0  0  0
  151.9340  140.5126  158.0049 C   0  0  0  0  0  0  0  0  0  0  0  0
  152.9038  139.9630  157.2582 N   0  0  0  0  0  0  0  0  0  0  0  0
  152.3822  139.8194  156.0571 N   0  5  0  0  0  0  0  0  0  0  0  0
  151.1226  140.2898  156.0491 C   0  0  0  0  0  0  0  0  0  0  0  0
  150.1814  140.2697  154.8640 C   0  0  1  0  0  0  0  0  0  0  0  0
  149.9932  138.8361  154.3315 C   0  0  0  0  0  0  0  0  0  0  0  0
  149.0619  138.8349  153.1871 N   0  3  0  0  0  0  0  0  0  0  0  0
  147.7784  139.4766  153.5312 C   0  0  0  0  0  0  0  0  0  0  0  0
  148.0282  140.8879  154.0884 C   0  0  0  0  0  0  0  0  0  0  0  0
  148.9065  140.8104  155.2053 O   0  0  0  0  0  0  0  0  0  0  0  0
  150.8307  140.7202  157.2726 N   0  0  0  0  0  0  0  0  0  0  0  0
  153.4352  144.1043  159.1297 H   0  0  0  0  0  0  0  0  0  0  0  0
  151.7373  143.6892  159.3507 H   0  0  0  0  0  0  0  0  0  0  0  0
  152.5882  143.1821  157.8915 H   0  0  0  0  0  0  0  0  0  0  0  0
  154.0758  141.7049  159.2780 H   0  0  0  0  0  0  0  0  0  0  0  0
  153.2393  142.2082  160.7271 H   0  0  0  0  0  0  0  0  0  0  0  0
  152.3809  140.0120  160.0276 H   0  0  0  0  0  0  0  0  0  0  0  0
  151.1081  141.1989  159.8444 H   0  0  0  0  0  0  0  0  0  0  0  0
  150.6285  140.8935  154.0878 H   0  0  0  0  0  0  0  0  0  0  0  0
  150.9481  138.4146  154.0157 H   0  0  0  0  0  0  0  0  0  0  0  0
  149.5988  138.1883  155.1157 H   0  0  0  0  0  0  0  0  0  0  0  0
  149.4881  139.3484  152.4291 H   0  0  0  0  0  0  0  0  0  0  0  0
  147.1448  139.5187  152.6451 H   0  0  0  0  0  0  0  0  0  0  0  0
  147.2593  138.8663  154.2716 H   0  0  0  0  0  0  0  0  0  0  0  0
  148.4507  141.5419  153.3238 H   0  0  0  0  0  0  0  0  0  0  0  0
  147.0885  141.3380  154.4088 H   0  0  0  0  0  0  0  0  0  0  0  0
  148.8960  137.8839  152.8907 H   0  0  0  0  0  0  0  0  0  0  0  0
  1  2  1  0  0  0  0
  1 15  1  0  0  0  0
  1 16  1  0  0  0  0
  1 17  1  0  0  0  0
  2  3  1  0  0  0  0
  2 18  1  0  0  0  0
  2 19  1  0  0  0  0
  3  4  1  0  0  0  0
  3 20  1  0  0  0  0
  3 21  1  0  0  0  0
  4 14  1  0  0  0  0
  4  5  2  0  0  0  0
  5  6  1  0  0  0  0
  6  7  1  0  0  0  0
  7  8  1  0  0  0  0
  7 14  2  0  0  0  0
  8 13  1  0  0  0  0
  8  9  1  0  0  0  0
  8 22  1  0  0  0  0
  9 10  1  0  0  0  0
  9 23  1  0  0  0  0
  9 24  1  0  0  0  0
 10 11  1  0  0  0  0
 10 25  1  0  0  0  0
 10 30  1  0  0  0  0
 11 12  1  0  0  0  0
 11 26  1  0  0  0  0
 11 27  1  0  0  0  0
 12 13  1  0  0  0  0
 12 28  1  0  0  0  0
 12 29  1  0  0  0  0
M  CHG  1   6  -1
M  CHG  1  10   1
M  END
> <s_m_source_file>
AV-unprocessed.smi

> <i_m_source_file_index>
2562

> <i_lp_mmshare_version>
43012

> <i_f3d_flags>
0

> <s_epik_input>
W0NIM11bQ0gyXVtDSDJdYzFuW25IXWMobjEpW0NAQEhdMltDSDJdW05IXVtDSDJdW0NIMl1PMg==

> <s_epik_cmdline>
J2VwaWtfcHl0aG9uJywgJy1waCcsICc3LjAnLCAnLXRuJywgJzgnLCAnLW1hJywgJzIwMCcsICctbWV0YWxfYmluZGluZycsICctaW1hZScsICc8aW5maWxlLm1hZT4nLCAnLW9tYWUnLCAnPG91dGZpbGUubWFlPic=

> <r_epik_Ionization_Penalty>
3.5188

> <r_epik_Ionization_Penalty_Charging>
3.5188

> <r_epik_Ionization_Penalty_Neutral>
2.11677e-13

> <r_epik_State_Penalty>
2.51144

> <r_epik_Charging_Adjusted_Penalty>
6.03025

> <i_epik_Tot_Q>
0

> <i_epik_Tot_abs_Q>
2

> <r_epik_Metal_State_Penalty>
0.975833

> <b_epik_Metal_Only>
0

> <s_lp_Force_Field>
OPLS_2005

> <r_lp_Energy>
5.22066

> <b_lp_Chiralities_Consistent>
1

> <s_lp_Variant>
AV-unprocessed.smi:2562-12

> <Gold.Version>
5.8.1

> <Gold.Id.Protein>
6NUR|6NUR_protein|mol2

> <Gold.PLP.Fitness>
40.0022

> <Gold.PLP.PLP>
-28.0866

> <Gold.PLP.part.hbond>
-3.7944

> <Gold.PLP.part.metal>
0.0000

> <Gold.PLP.part.buried>
-1.6826

> <Gold.PLP.part.nonpolar>
-22.8366

> <Gold.PLP.part.repulsive>
0.2046

> <Gold.PLP.ligand.clash>
0.0000

> <Gold.PLP.ligand.torsion>
0.0506

> <Gold.PLP.Chemscore.Hbond>
4.0000

> <Gold.PLP.Chemscore.CHOScore>
0.0000

> <Gold.PLP.Chemscore.Metal>
0.0000

> <Gold.Chemscore.Hbonds>
donor molecule, donor type, donor heavy atom, donor atom, acceptor molecule, acceptor atom, score
      L1  H    10    25       P1  7957  0.78
      L1  H    10    30       P1  7948  2.00
      P1  H  7997  8009       L1     5  0.96

> <Gold.PLP.Chemscore.Internal.Correction>
0.0169

> <Gold.Rescore>
     Score         DG    S(hbond)    S(metal)    S(lipo)     H(rot)  DE(clash)    DE(int)     intcor
     17.36     -17.47       2.71        0.00      57.57       1.48       0.00       0.11       ----

> <Gold.Chemscore.Fitness>
17.3629

> <Gold.Chemscore.DG>
-17.4717

> <Gold.Chemscore.ZeroCoef>
-5.4800

> <Gold.Chemscore.Hbond>
2.7084

> <Gold.Chemscore.Metal>
0.0000

> <Gold.Chemscore.Lipo>
57.5687

> <Gold.Chemscore.Internal_Hbond>
0.0000

> <Gold.Chemscore.DEClash>
0.0038

> <Gold.Chemscore.DEInternal>
0.1050

> <Gold.Chemscore.Rot>
1.4804

> <Gold.Chemscore.Internal.Correction>
   9.000000E+99

> <Gold.Chemscore.Hbonds>
donor molecule, donor type, donor heavy atom, donor atom, acceptor molecule, acceptor atom, score
      L1  H    10    25       P1  7957  0.76
      L1  H    10    30       P1  7948  0.99
      P1  H  7997  8009       L1     5  0.32

> <Gold.Chemscore.Hbond.Weighted>
-9.0461

> <Gold.Chemscore.Metal.Weighted>
-0.0000

> <Gold.Chemscore.Lipo.Weighted>
-6.7355

> <Gold.Chemscore.Internal_Hbond.Weighted>
0.0000

> <Gold.Chemscore.DEClash.Weighted>
0.0038

> <Gold.Chemscore.DEInternal.Weighted>
0.1050

> <Gold.Chemscore.Rot.Weighted>
3.7899

> <Gold.Chemscore.Internal.Correction.Weighted>
   9.000000E+99

> <Gold.Protein.RotatedTorsions>
[ 6907 6896 6895 6894 ] final  136.17 input  -60.11 | X-H torsion
[ 7974 7965 7964 7962 ] final  158.50 input  175.53 | X-H torsion
[ 8008 7997 7996 7995 ] final  160.06 input   59.86 | X-H torsion
[ 10167 10162 10161 10158 ] final  -51.67 input  -65.29 | X-H torsion
[ 10718 10713 10712 10709 ] final  -94.33 input   66.30 | X-H torsion
[ 10763 10752 10751 10750 ] final  -45.24 input  -60.55 | X-H torsion
[ 11005 11000 10999 10996 ] final   97.73 input  -57.11 | X-H torsion

> <Gold.Protein.ActiveResidues>
 VAL166  LYS551  ARG553  GLY616  TRP617  ASP618  TYR619  PRO620  LYS621  CYS622 
 ASP623  PHE694  ASN695  SER759  ASP760  ASP761  ALA762  ILE779  LEU786  VAL792 
 PHE793  MET794  SER795  GLU796  ALA797  LYS798  CYS799  TRP800  GLU811  SER814 

> <Gold.Protein.RotatedAtoms>
  152.2923  133.5573  159.5564 H   0  0  0  0  0  0  0  0  0  0  0  0  # atno 6907 bound_to 6896
  150.7240  134.0411  159.3775 H   0  0  0  0  0  0  0  0  0  0  0  0  # atno 6908 bound_to 6896
  151.8316  135.0620  160.0488 H   0  0  0  0  0  0  0  0  0  0  0  0  # atno 6909 bound_to 6896
  144.7842  139.7487  143.6247 H   0  0  0  0  0  0  0  0  0  0  0  0  # atno 7974 bound_to 7965
  156.2198  140.1814  156.7505 H   0  0  0  0  0  0  0  0  0  0  0  0  # atno 8008 bound_to 7997
  154.5847  140.0660  156.9183 H   0  0  0  0  0  0  0  0  0  0  0  0  # atno 8009 bound_to 7997
  155.2441  140.3324  155.4291 H   0  0  0  0  0  0  0  0  0  0  0  0  # atno 8010 bound_to 7997
  140.6576  143.2611  151.4538 H   0  0  0  0  0  0  0  0  0  0  0  0  # atno 10167 bound_to 10162
  156.0025  130.5063  150.5911 H   0  0  0  0  0  0  0  0  0  0  0  0  # atno 10718 bound_to 10713
  154.0254  135.6664  153.4776 H   0  0  0  0  0  0  0  0  0  0  0  0  # atno 10763 bound_to 10752
  153.0563  135.5054  154.7984 H   0  0  0  0  0  0  0  0  0  0  0  0  # atno 10764 bound_to 10752
  154.6912  135.3061  154.9442 H   0  0  0  0  0  0  0  0  0  0  0  0  # atno 10765 bound_to 10752
  139.8775  134.9015  156.4350 H   0  0  0  0  0  0  0  0  0  0  0  0  # atno 11005 bound_to 11000
  146.2066  139.5394  142.9709 LP  0  0  0  0  0  0  0  0  0  0  0  0  # atno 17320 bound_to 7965
  145.5967  141.0361  143.2040 LP  0  0  0  0  0  0  0  0  0  0  0  0  # atno 17321 bound_to 7965
  139.5802  144.1726  152.1958 LP  0  0  0  0  0  0  0  0  0  0  0  0  # atno 17342 bound_to 10162
  140.1049  144.5507  150.6964 LP  0  0  0  0  0  0  0  0  0  0  0  0  # atno 17343 bound_to 10162
  157.3775  131.0775  151.1505 LP  0  0  0  0  0  0  0  0  0  0  0  0  # atno 17370 bound_to 10713
  157.2238  130.6493  149.5822 LP  0  0  0  0  0  0  0  0  0  0  0  0  # atno 17371 bound_to 10713
  140.9040  133.7759  155.9713 LP  0  0  0  0  0  0  0  0  0  0  0  0  # atno 17394 bound_to 11000
  140.8620  134.2829  157.5230 LP  0  0  0  0  0  0  0  0  0  0  0  0  # atno 17395 bound_to 11000

$$$$
