AV-unprocessed.smi:157|AV-procd|sdf|1319|dock8
  -GOLD-   2262019 13D 1   1.00000     0.00000
 Structure written by MMmdl.
 36 38  0  0  0  0  0  0  0  0  2 V2000
  138.1817  137.7919  154.1256 O   0  0  0  0  0  0  0  0  0  0  0  0
  139.2241  136.8538  154.2852 C   0  0  0  0  0  0  0  0  0  0  0  0
  140.4490  137.5357  154.9342 C   0  0  1  0  0  0  0  0  0  0  0  0
  141.5080  136.5781  155.0105 O   0  0  0  0  0  0  0  0  0  0  0  0
  142.4379  136.7675  153.9814 C   0  0  1  0  0  0  0  0  0  0  0  0
  142.5471  135.5079  153.1816 N   0  0  0  0  0  0  0  0  0  0  0  0
  141.6393  134.5106  153.1075 C   0  0  0  0  0  0  0  0  0  0  0  0
  141.9981  133.5035  152.3293 N   0  3  0  0  0  0  0  0  0  0  0  0
  143.2456  133.8176  151.8334 C   0  0  0  0  0  0  0  0  0  0  0  0
  143.5668  135.0669  152.3700 C   0  0  0  0  0  0  0  0  0  0  0  0
  144.7164  135.8523  152.1944 N   0  0  0  0  0  0  0  0  0  0  0  0
  145.5602  135.6568  151.2338 C   0  0  0  0  0  0  0  0  0  0  0  0
  145.5840  134.6481  150.2851 N   0  0  0  0  0  0  0  0  0  0  0  0
  145.4080  133.2457  150.6184 C   0  0  0  0  0  0  0  0  0  0  0  0
  143.9544  132.8609  150.9257 C   0  0  2  0  0  0  0  0  0  0  0  0
  143.2721  132.6662  149.7041 O   0  0  0  0  0  0  0  0  0  0  0  0
  141.9183  137.9085  153.1075 C   0  0  0  0  0  0  0  0  0  0  0  0
  141.0763  138.6688  154.1069 C   0  0  1  0  0  0  0  0  0  0  0  0
  140.1452  139.5220  153.4733 O   0  0  0  0  0  0  0  0  0  0  0  0
  140.1880  137.8993  155.9290 H   0  0  0  0  0  0  0  0  0  0  0  0
  143.4348  136.9394  154.3894 H   0  0  0  0  0  0  0  0  0  0  0  0
  143.9686  131.8882  151.4187 H   0  0  0  0  0  0  0  0  0  0  0  0
  141.7265  139.2687  154.7457 H   0  0  0  0  0  0  0  0  0  0  0  0
  137.3568  137.3309  154.1435 H   0  0  0  0  0  0  0  0  0  0  0  0
  138.8744  135.9994  154.8644 H   0  0  0  0  0  0  0  0  0  0  0  0
  139.4691  136.4863  153.2889 H   0  0  0  0  0  0  0  0  0  0  0  0
  140.7041  134.5330  153.6382 H   0  0  0  0  0  0  0  0  0  0  0  0
  146.3933  136.3508  151.1137 H   0  0  0  0  0  0  0  0  0  0  0  0
  146.1745  134.7628  149.4735 H   0  0  0  0  0  0  0  0  0  0  0  0
  145.8133  132.6241  149.8191 H   0  0  0  0  0  0  0  0  0  0  0  0
  146.0200  133.0420  151.4986 H   0  0  0  0  0  0  0  0  0  0  0  0
  142.5444  133.2672  149.6631 H   0  0  0  0  0  0  0  0  0  0  0  0
  142.7376  138.4905  152.6846 H   0  0  0  0  0  0  0  0  0  0  0  0
  141.3049  137.5105  152.2969 H   0  0  0  0  0  0  0  0  0  0  0  0
  140.4667  139.7293  152.6088 H   0  0  0  0  0  0  0  0  0  0  0  0
  141.4622  132.6645  152.1471 H   0  0  0  0  0  0  0  0  0  0  0  0
  1  2  1  0  0  0  0
  1 24  1  0  0  0  0
  2  3  1  0  0  0  0
  2 25  1  0  0  0  0
  2 26  1  0  0  0  0
  3 20  1  0  0  0  0
  3 18  1  0  0  0  0
  3  4  1  0  0  0  0
  4  5  1  0  0  0  0
  5 21  1  0  0  0  0
  5  6  1  0  0  0  0
  5 17  1  0  0  0  0
  6 10  1  0  0  0  0
  6  7  1  0  0  0  0
  7  8  2  0  0  0  0
  7 27  1  0  0  0  0
  8  9  1  0  0  0  0
  8 36  1  0  0  0  0
  9 15  1  0  0  0  0
  9 10  2  0  0  0  0
 10 11  1  0  0  0  0
 11 12  2  0  0  0  0
 12 13  1  0  0  0  0
 12 28  1  0  0  0  0
 13 14  1  0  0  0  0
 13 29  1  0  0  0  0
 14 15  1  0  0  0  0
 14 30  1  0  0  0  0
 14 31  1  0  0  0  0
 15 22  1  0  0  0  0
 15 16  1  0  0  0  0
 16 32  1  0  0  0  0
 17 18  1  0  0  0  0
 17 33  1  0  0  0  0
 17 34  1  0  0  0  0
 18 23  1  0  0  0  0
 18 19  1  0  0  0  0
 19 35  1  0  0  0  0
M  CHG  1   8   1
M  END
> <s_m_source_file>
AV-unprocessed.smi

> <i_m_source_file_index>
157

> <i_lp_mmshare_version>
43012

> <i_f3d_flags>
0

> <s_epik_input>
W09IXVtDSDJdW0NASF0xT1tDQEhdKFtDSDJdW0NAQEhdMVtPSF0pbihbY0hdbjIpYyhjMjMpTj1bQ0hdW05IXVtDSDJdW0NASF0zW09IXQ==

> <s_epik_cmdline>
J2VwaWtfcHl0aG9uJywgJy1waCcsICc3LjAnLCAnLXRuJywgJzgnLCAnLW1hJywgJzIwMCcsICctbWV0YWxfYmluZGluZycsICctaW1hZScsICc8aW5maWxlLm1hZT4nLCAnLW9tYWUnLCAnPG91dGZpbGUubWFlPic=

> <r_epik_Ionization_Penalty>
1.68594

> <r_epik_Ionization_Penalty_Charging>
0

> <r_epik_Ionization_Penalty_Neutral>
1.68594

> <r_epik_State_Penalty>
1.79006

> <r_epik_Charging_Adjusted_Penalty>
1.79006

> <i_epik_Tot_Q>
1

> <i_epik_Tot_abs_Q>
1

> <r_epik_Metal_State_Penalty>
5.85324

> <b_epik_Metal_Only>
0

> <s_epik_Chemistry_Notes>
This compound has an imine and may undergo hydrolysis. This compound contains an acetal/aminal-like group ( X-CH(R)-Y where X, Y are N, S, or O) that may be acid/base labile, releasing an aldehyde.

> <s_lp_Force_Field>
OPLS_2005

> <r_lp_Energy>
55.1144

> <b_lp_Chiralities_Consistent>
1

> <s_lp_Variant>
AV-unprocessed.smi:157-29

> <Gold.Version>
5.8.1

> <Gold.Id.Protein>
6NUR|6NUR_protein|mol2

> <Gold.PLP.Fitness>
44.8829

> <Gold.PLP.PLP>
-35.0650

> <Gold.PLP.part.hbond>
-5.2850

> <Gold.PLP.part.metal>
0.0000

> <Gold.PLP.part.buried>
-7.0750

> <Gold.PLP.part.nonpolar>
-22.5955

> <Gold.PLP.part.repulsive>
0.3117

> <Gold.PLP.ligand.clash>
0.0000

> <Gold.PLP.ligand.torsion>
0.6515

> <Gold.PLP.Chemscore.Hbond>
2.8480

> <Gold.PLP.Chemscore.CHOScore>
0.8537

> <Gold.PLP.Chemscore.Metal>
0.0000

> <Gold.Chemscore.Hbonds>
donor molecule, donor type, donor heavy atom, donor atom, acceptor molecule, acceptor atom, score
      L1  H    13    29       P1  7921  0.86
      L1  H    16    32       P1 10186  1.00
      L1  H    19    35       P1 10160  1.00
      L1  C    12    28       P1  7948  0.76

> <Gold.PLP.Chemscore.Internal.Correction>
0.0157

> <Gold.Rescore>
     Score         DG    S(hbond)    S(metal)    S(lipo)     H(rot)  DE(clash)    DE(int)     intcor
     10.12     -10.73       2.89        0.00      42.49       3.67       0.02       0.58       ----

> <Gold.Chemscore.Fitness>
10.1238

> <Gold.Chemscore.DG>
-10.7274

> <Gold.Chemscore.ZeroCoef>
-5.4800

> <Gold.Chemscore.Hbond>
2.8923

> <Gold.Chemscore.Metal>
0.0000

> <Gold.Chemscore.Lipo>
42.4947

> <Gold.Chemscore.Internal_Hbond>
0.0000

> <Gold.Chemscore.DEClash>
0.0236

> <Gold.Chemscore.DEInternal>
0.5800

> <Gold.Chemscore.Rot>
3.6659

> <Gold.Chemscore.Internal.Correction>
   9.000000E+99

> <Gold.Chemscore.Hbonds>
donor molecule, donor type, donor heavy atom, donor atom, acceptor molecule, acceptor atom, score
      L1  H    13    29       P1  7921  0.39
      L1  H    16    32       P1 10186  1.00
      L1  H    19    35       P1 10160  0.99

> <Gold.Chemscore.Hbond.Weighted>
-9.6603

> <Gold.Chemscore.Metal.Weighted>
-0.0000

> <Gold.Chemscore.Lipo.Weighted>
-4.9719

> <Gold.Chemscore.Internal_Hbond.Weighted>
0.0000

> <Gold.Chemscore.DEClash.Weighted>
0.0236

> <Gold.Chemscore.DEInternal.Weighted>
0.5800

> <Gold.Chemscore.Rot.Weighted>
9.3848

> <Gold.Chemscore.Internal.Correction.Weighted>
   9.000000E+99

> <Gold.Protein.RotatedTorsions>
[ 6907 6896 6895 6894 ] final  -54.55 input  -60.11 | X-H torsion
[ 7974 7965 7964 7962 ] final  -72.56 input  175.53 | X-H torsion
[ 8008 7997 7996 7995 ] final  -70.43 input   59.86 | X-H torsion
[ 10167 10162 10161 10158 ] final   63.35 input  -65.29 | X-H torsion
[ 10718 10713 10712 10709 ] final  -83.89 input   66.30 | X-H torsion
[ 10763 10752 10751 10750 ] final -115.10 input  -60.55 | X-H torsion
[ 11005 11000 10999 10996 ] final -138.11 input  -57.11 | X-H torsion

> <Gold.Protein.ActiveResidues>
 VAL166  LYS551  ARG553  GLY616  TRP617  ASP618  TYR619  PRO620  LYS621  CYS622 
 ASP623  PHE694  ASN695  SER759  ASP760  ASP761  ALA762  ILE779  LEU786  VAL792 
 PHE793  MET794  SER795  GLU796  ALA797  LYS798  CYS799  TRP800  GLU811  SER814 

> <Gold.Protein.RotatedAtoms>
  150.8328  134.7588  159.6867 H   0  0  0  0  0  0  0  0  0  0  0  0  # atno 6907 bound_to 6896
  152.4430  134.5550  159.9887 H   0  0  0  0  0  0  0  0  0  0  0  0  # atno 6908 bound_to 6896
  151.5707  133.3353  159.3025 H   0  0  0  0  0  0  0  0  0  0  0  0  # atno 6909 bound_to 6896
  145.6635  140.9245  143.0921 H   0  0  0  0  0  0  0  0  0  0  0  0  # atno 7974 bound_to 7965
  154.5011  140.0834  156.7799 H   0  0  0  0  0  0  0  0  0  0  0  0  # atno 8008 bound_to 7997
  155.4001  140.3436  155.4238 H   0  0  0  0  0  0  0  0  0  0  0  0  # atno 8009 bound_to 7997
  156.1457  140.1543  156.8837 H   0  0  0  0  0  0  0  0  0  0  0  0  # atno 8010 bound_to 7997
  140.1340  144.4617  150.6849 H   0  0  0  0  0  0  0  0  0  0  0  0  # atno 10167 bound_to 10162
  156.0013  130.4680  150.4326 H   0  0  0  0  0  0  0  0  0  0  0  0  # atno 10718 bound_to 10713
  154.8467  135.4394  154.1610 H   0  0  0  0  0  0  0  0  0  0  0  0  # atno 10763 bound_to 10752
  153.2747  135.6948  153.7452 H   0  0  0  0  0  0  0  0  0  0  0  0  # atno 10764 bound_to 10752
  153.6679  135.3424  155.3120 H   0  0  0  0  0  0  0  0  0  0  0  0  # atno 10765 bound_to 10752
  140.8647  134.2125  157.4687 H   0  0  0  0  0  0  0  0  0  0  0  0  # atno 11005 bound_to 11000
  144.7081  139.8480  143.7423 LP  0  0  0  0  0  0  0  0  0  0  0  0  # atno 17320 bound_to 7965
  146.1105  139.4109  143.0290 LP  0  0  0  0  0  0  0  0  0  0  0  0  # atno 17321 bound_to 7965
  140.6800  143.2322  151.5408 LP  0  0  0  0  0  0  0  0  0  0  0  0  # atno 17342 bound_to 10162
  139.5505  144.2407  152.1522 LP  0  0  0  0  0  0  0  0  0  0  0  0  # atno 17343 bound_to 10162
  157.2374  131.0518  151.2457 LP  0  0  0  0  0  0  0  0  0  0  0  0  # atno 17370 bound_to 10713
  157.3653  130.7153  149.6529 LP  0  0  0  0  0  0  0  0  0  0  0  0  # atno 17371 bound_to 10713
  139.8708  134.9746  156.4853 LP  0  0  0  0  0  0  0  0  0  0  0  0  # atno 17394 bound_to 11000
  140.8642  133.8036  155.9297 LP  0  0  0  0  0  0  0  0  0  0  0  0  # atno 17395 bound_to 11000

$$$$
