AV-unprocessed.smi:108|AV-procd|sdf|1029|dock8
  -GOLD-   2262018 33D 1   1.00000     0.00000
 Structure written by MMmdl.
 59 62  0  0  0  0  0  0  0  0  1 V2000
  150.4144  131.7944  157.3106 O   0  0  0  0  0  0  0  0  0  0  0  0
  150.2987  132.5894  156.3752 C   0  0  0  0  0  0  0  0  0  0  0  0
  151.1117  133.9022  156.3982 C   0  0  0  0  0  0  0  0  0  0  0  0
  150.2698  135.1159  156.4833 N   0  0  0  0  0  0  0  0  0  0  0  0
  149.2973  135.1949  157.5100 C   0  0  0  0  0  0  0  0  0  0  0  0
  149.1673  134.2931  158.3392 O   0  0  0  0  0  0  0  0  0  0  0  0
  148.4656  136.3918  157.4946 C   0  0  0  0  0  0  0  0  0  0  0  0
  147.4849  136.5322  158.4029 F   0  0  0  0  0  0  0  0  0  0  0  0
  148.6510  137.3554  156.5692 C   0  0  0  0  0  0  0  0  0  0  0  0
  149.6379  137.2920  155.6007 N   0  0  0  0  0  0  0  0  0  0  0  0
  149.7554  138.3356  154.5079 C   0  0  2  0  0  0  0  0  0  0  0  0
  151.1334  139.0156  154.4275 C   0  0  0  0  0  0  0  0  0  0  0  0
  150.8655  140.3658  155.0632 C   0  0  0  0  0  0  0  0  0  0  0  0
  149.4132  140.6053  154.6697 C   0  0  0  0  0  0  0  0  0  0  0  0
  148.8038  139.3243  154.7695 O   0  0  0  0  0  0  0  0  0  0  0  0
  150.4353  136.1283  155.5071 C   0  0  0  0  0  0  0  0  0  0  0  0
  151.2536  135.9944  154.5940 O   0  0  0  0  0  0  0  0  0  0  0  0
  149.4704  132.3472  155.3283 N   0  0  0  0  0  0  0  0  0  0  0  0
  148.6385  131.1323  155.2882 C   0  0  0  0  0  0  0  0  0  0  0  0
  149.2665  129.9999  154.4467 C   0  0  0  0  0  0  0  0  0  0  0  0
  148.2824  129.3225  153.5078 C   0  0  0  0  0  0  0  0  0  0  0  0
  147.0153  129.8983  153.2724 C   0  0  0  0  0  0  0  0  0  0  0  0
  146.1125  129.2831  152.3840 C   0  0  0  0  0  0  0  0  0  0  0  0
  146.4717  128.0886  151.7303 C   0  0  0  0  0  0  0  0  0  0  0  0
  147.7339  127.5096  151.9655 C   0  0  0  0  0  0  0  0  0  0  0  0
  148.6382  128.1253  152.8527 C   0  0  0  0  0  0  0  0  0  0  0  0
  149.3282  133.2496  154.1722 C   0  0  0  0  0  0  0  0  0  0  0  0
  147.8979  133.4635  153.6888 C   0  0  0  0  0  0  0  0  0  0  0  0
  147.5090  133.1772  152.3595 C   0  0  0  0  0  0  0  0  0  0  0  0
  146.1798  133.3905  151.9462 C   0  0  0  0  0  0  0  0  0  0  0  0
  145.2278  133.8838  152.8583 C   0  0  0  0  0  0  0  0  0  0  0  0
  145.6056  134.1609  154.1858 C   0  0  0  0  0  0  0  0  0  0  0  0
  146.9354  133.9496  154.5988 C   0  0  0  0  0  0  0  0  0  0  0  0
  151.8191  133.8709  157.2273 H   0  0  0  0  0  0  0  0  0  0  0  0
  151.7405  133.9471  155.5083 H   0  0  0  0  0  0  0  0  0  0  0  0
  147.9820  138.2001  156.6012 H   0  0  0  0  0  0  0  0  0  0  0  0
  149.5352  137.8179  153.5729 H   0  0  0  0  0  0  0  0  0  0  0  0
  151.9332  138.4356  154.8879 H   0  0  0  0  0  0  0  0  0  0  0  0
  151.3825  139.1498  153.3741 H   0  0  0  0  0  0  0  0  0  0  0  0
  150.9552  140.3101  156.1480 H   0  0  0  0  0  0  0  0  0  0  0  0
  151.5373  141.1469  154.7063 H   0  0  0  0  0  0  0  0  0  0  0  0
  148.9171  141.3368  155.3080 H   0  0  0  0  0  0  0  0  0  0  0  0
  149.3483  140.9516  153.6372 H   0  0  0  0  0  0  0  0  0  0  0  0
  148.4643  130.7662  156.3007 H   0  0  0  0  0  0  0  0  0  0  0  0
  147.6449  131.3705  154.9047 H   0  0  0  0  0  0  0  0  0  0  0  0
  150.0982  130.3965  153.8634 H   0  0  0  0  0  0  0  0  0  0  0  0
  149.7002  129.2457  155.1045 H   0  0  0  0  0  0  0  0  0  0  0  0
  146.7358  130.8193  153.7640 H   0  0  0  0  0  0  0  0  0  0  0  0
  145.1457  129.7293  152.2029 H   0  0  0  0  0  0  0  0  0  0  0  0
  145.7797  127.6172  151.0483 H   0  0  0  0  0  0  0  0  0  0  0  0
  148.0096  126.5942  151.4632 H   0  0  0  0  0  0  0  0  0  0  0  0
  149.6074  127.6804  153.0245 H   0  0  0  0  0  0  0  0  0  0  0  0
  149.7427  134.2317  154.4022 H   0  0  0  0  0  0  0  0  0  0  0  0
  149.9419  132.8930  153.3448 H   0  0  0  0  0  0  0  0  0  0  0  0
  148.2223  132.7947  151.6446 H   0  0  0  0  0  0  0  0  0  0  0  0
  145.8907  133.1751  150.9281 H   0  0  0  0  0  0  0  0  0  0  0  0
  144.2086  134.0476  152.5404 H   0  0  0  0  0  0  0  0  0  0  0  0
  144.8757  134.5360  154.8878 H   0  0  0  0  0  0  0  0  0  0  0  0
  147.2162  134.1655  155.6193 H   0  0  0  0  0  0  0  0  0  0  0  0
  1  2  2  0  0  0  0
  2  3  1  0  0  0  0
  2 18  1  0  0  0  0
  3  4  1  0  0  0  0
  3 34  1  0  0  0  0
  3 35  1  0  0  0  0
  4 16  1  0  0  0  0
  4  5  1  0  0  0  0
  5  6  2  0  0  0  0
  5  7  1  0  0  0  0
  7  8  1  0  0  0  0
  7  9  2  0  0  0  0
  9 10  1  0  0  0  0
  9 36  1  0  0  0  0
 10 11  1  0  0  0  0
 10 16  1  0  0  0  0
 11 15  1  0  0  0  0
 11 12  1  0  0  0  0
 11 37  1  0  0  0  0
 12 13  1  0  0  0  0
 12 38  1  0  0  0  0
 12 39  1  0  0  0  0
 13 14  1  0  0  0  0
 13 40  1  0  0  0  0
 13 41  1  0  0  0  0
 14 15  1  0  0  0  0
 14 42  1  0  0  0  0
 14 43  1  0  0  0  0
 16 17  2  0  0  0  0
 18 19  1  0  0  0  0
 18 27  1  0  0  0  0
 19 20  1  0  0  0  0
 19 44  1  0  0  0  0
 19 45  1  0  0  0  0
 20 21  1  0  0  0  0
 20 46  1  0  0  0  0
 20 47  1  0  0  0  0
 21 26  1  0  0  0  0
 21 22  2  0  0  0  0
 22 23  1  0  0  0  0
 22 48  1  0  0  0  0
 23 24  2  0  0  0  0
 23 49  1  0  0  0  0
 24 25  1  0  0  0  0
 24 50  1  0  0  0  0
 25 26  2  0  0  0  0
 25 51  1  0  0  0  0
 26 52  1  0  0  0  0
 27 28  1  0  0  0  0
 27 53  1  0  0  0  0
 27 54  1  0  0  0  0
 28 33  1  0  0  0  0
 28 29  2  0  0  0  0
 29 30  1  0  0  0  0
 29 55  1  0  0  0  0
 30 31  2  0  0  0  0
 30 56  1  0  0  0  0
 31 32  1  0  0  0  0
 31 57  1  0  0  0  0
 32 33  2  0  0  0  0
 32 58  1  0  0  0  0
 33 59  1  0  0  0  0
M  END
> <s_m_source_file>
AV-unprocessed.smi

> <i_m_source_file_index>
108

> <i_lp_mmshare_version>
43012

> <i_f3d_flags>
0

> <s_epik_input>
W2NIXTFbY0hdW2NIXVtjSF1bY0hdYzFbQ0gyXVtDSDJdTihbQ0gyXWMyW2NIXVtjSF1bY0hdW2NIXVtjSF0yKUMoPU8pW0NIMl1uM2MoPU8pYyhGKVtjSF1uKGMzPU8pW0NAQEhdNFtDSDJdW0NIMl1bQ0gyXU80

> <s_epik_cmdline>
J2VwaWtfcHl0aG9uJywgJy1waCcsICc3LjAnLCAnLXRuJywgJzgnLCAnLW1hJywgJzIwMCcsICctbWV0YWxfYmluZGluZycsICctaW1hZScsICc8aW5maWxlLm1hZT4nLCAnLW9tYWUnLCAnPG91dGZpbGUubWFlPic=

> <r_lp_tautomer_probability>
1

> <r_epik_Ionization_Penalty>
5.46209e-09

> <r_epik_Ionization_Penalty_Charging>
4.22697e-09

> <r_epik_Ionization_Penalty_Neutral>
1.23512e-09

> <r_epik_State_Penalty>
-0

> <r_epik_Charging_Adjusted_Penalty>
4.22697e-09

> <i_epik_Tot_Q>
0

> <i_epik_Tot_abs_Q>
0

> <r_epik_Metal_State_Penalty>
-0

> <b_epik_Metal_Only>
0

> <s_epik_Chemistry_Notes>
This compound contains an acetal/aminal-like group ( X-CH(R)-Y where X, Y are N, S, or O) that may be acid/base labile, releasing an aldehyde.

> <s_lp_Force_Field>
OPLS_2005

> <r_lp_Energy>
39.1501

> <b_lp_Chiralities_Consistent>
1

> <s_lp_Variant>
AV-unprocessed.smi:108-1

> <Gold.Version>
5.8.1

> <Gold.Id.Protein>
6NUR|6NUR_protein|mol2

> <Gold.PLP.Fitness>
55.9918

> <Gold.PLP.PLP>
-52.0128

> <Gold.PLP.part.hbond>
-2.0000

> <Gold.PLP.part.metal>
0.0000

> <Gold.PLP.part.buried>
-4.4784

> <Gold.PLP.part.nonpolar>
-45.9685

> <Gold.PLP.part.repulsive>
0.2526

> <Gold.PLP.ligand.clash>
0.0000

> <Gold.PLP.ligand.torsion>
1.1249

> <Gold.PLP.Chemscore.Hbond>
2.0000

> <Gold.PLP.Chemscore.CHOScore>
0.0000

> <Gold.PLP.Chemscore.Metal>
0.0000

> <Gold.Chemscore.Hbonds>
donor molecule, donor type, donor heavy atom, donor atom, acceptor molecule, acceptor atom, score
      P1  H  6896  6909       L1     6  1.00
      P1  H 10752 10764       L1    17  1.00

> <Gold.PLP.Chemscore.Internal.Correction>
0.2288

> <Gold.Rescore>
     Score         DG    S(hbond)    S(metal)    S(lipo)     H(rot)  DE(clash)    DE(int)     intcor
     16.60     -19.88       1.84        0.00     120.24       2.28       0.38       2.90       ----

> <Gold.Chemscore.Fitness>
16.5969

> <Gold.Chemscore.DG>
-19.8805

> <Gold.Chemscore.ZeroCoef>
-5.4800

> <Gold.Chemscore.Hbond>
1.8438

> <Gold.Chemscore.Metal>
0.0000

> <Gold.Chemscore.Lipo>
120.2381

> <Gold.Chemscore.Internal_Hbond>
0.0000

> <Gold.Chemscore.DEClash>
0.3823

> <Gold.Chemscore.DEInternal>
2.9014

> <Gold.Chemscore.Rot>
2.2756

> <Gold.Chemscore.Internal.Correction>
   9.000000E+99

> <Gold.Chemscore.Hbonds>
donor molecule, donor type, donor heavy atom, donor atom, acceptor molecule, acceptor atom, score
      P1  H  6896  6909       L1     6  0.74
      P1  H 10752 10764       L1    17  1.00

> <Gold.Chemscore.Hbond.Weighted>
-6.1581

> <Gold.Chemscore.Metal.Weighted>
-0.0000

> <Gold.Chemscore.Lipo.Weighted>
-14.0679

> <Gold.Chemscore.Internal_Hbond.Weighted>
0.0000

> <Gold.Chemscore.DEClash.Weighted>
0.3823

> <Gold.Chemscore.DEInternal.Weighted>
2.9014

> <Gold.Chemscore.Rot.Weighted>
5.8255

> <Gold.Chemscore.Internal.Correction.Weighted>
   9.000000E+99

> <Gold.Protein.RotatedTorsions>
[ 6907 6896 6895 6894 ] final   26.78 input  -60.11 | X-H torsion
[ 7974 7965 7964 7962 ] final  136.56 input  175.53 | X-H torsion
[ 8008 7997 7996 7995 ] final -119.16 input   59.86 | X-H torsion
[ 10167 10162 10161 10158 ] final -126.55 input  -65.29 | X-H torsion
[ 10718 10713 10712 10709 ] final -121.41 input   66.30 | X-H torsion
[ 10763 10752 10751 10750 ] final  -58.52 input  -60.55 | X-H torsion
[ 11005 11000 10999 10996 ] final  -35.71 input  -57.11 | X-H torsion

> <Gold.Protein.ActiveResidues>
 VAL166  LYS551  ARG553  GLY616  TRP617  ASP618  TYR619  PRO620  LYS621  CYS622 
 ASP623  PHE694  ASN695  SER759  ASP760  ASP761  ALA762  ILE779  LEU786  VAL792 
 PHE793  MET794  SER795  GLU796  ALA797  LYS798  CYS799  TRP800  GLU811  SER814 

> <Gold.Protein.RotatedAtoms>
  151.9925  134.9971  160.0561 H   0  0  0  0  0  0  0  0  0  0  0  0  # atno 6907 bound_to 6896
  152.1595  133.4568  159.4862 H   0  0  0  0  0  0  0  0  0  0  0  0  # atno 6908 bound_to 6896
  150.6886  134.2007  159.4364 H   0  0  0  0  0  0  0  0  0  0  0  0  # atno 6909 bound_to 6896
  144.9553  139.4772  143.5506 H   0  0  0  0  0  0  0  0  0  0  0  0  # atno 7974 bound_to 7965
  155.1112  140.0397  157.2724 H   0  0  0  0  0  0  0  0  0  0  0  0  # atno 8008 bound_to 7997
  154.6684  140.2606  155.7008 H   0  0  0  0  0  0  0  0  0  0  0  0  # atno 8009 bound_to 7997
  156.2648  140.2802  156.1183 H   0  0  0  0  0  0  0  0  0  0  0  0  # atno 8010 bound_to 7997
  139.9702  143.5853  152.2415 H   0  0  0  0  0  0  0  0  0  0  0  0  # atno 10167 bound_to 10162
  156.1335  130.6413  150.9659 H   0  0  0  0  0  0  0  0  0  0  0  0  # atno 10718 bound_to 10713
  154.2394  135.6346  153.5202 H   0  0  0  0  0  0  0  0  0  0  0  0  # atno 10763 bound_to 10752
  152.9933  135.5538  154.5927 H   0  0  0  0  0  0  0  0  0  0  0  0  # atno 10764 bound_to 10752
  154.5429  135.2896  155.1054 H   0  0  0  0  0  0  0  0  0  0  0  0  # atno 10765 bound_to 10752
  140.9817  133.7052  156.1696 H   0  0  0  0  0  0  0  0  0  0  0  0  # atno 11005 bound_to 11000
  146.3335  139.8666  142.8847 LP  0  0  0  0  0  0  0  0  0  0  0  0  # atno 17320 bound_to 7965
  145.2782  141.0130  143.3732 LP  0  0  0  0  0  0  0  0  0  0  0  0  # atno 17321 bound_to 7965
  139.6487  144.7659  151.2192 LP  0  0  0  0  0  0  0  0  0  0  0  0  # atno 17342 bound_to 10162
  140.7524  143.6197  150.8525 LP  0  0  0  0  0  0  0  0  0  0  0  0  # atno 17343 bound_to 10162
  157.6510  131.0897  150.8050 LP  0  0  0  0  0  0  0  0  0  0  0  0  # atno 17370 bound_to 10713
  156.8133  130.4959  149.5353 LP  0  0  0  0  0  0  0  0  0  0  0  0  # atno 17371 bound_to 10713
  140.7176  134.4394  157.5577 LP  0  0  0  0  0  0  0  0  0  0  0  0  # atno 17394 bound_to 11000
  139.8953  134.8686  156.2137 LP  0  0  0  0  0  0  0  0  0  0  0  0  # atno 17395 bound_to 11000

$$$$
