AV-unprocessed.smi:1036|AV-procd|sdf|4518|dock5
  -GOLD-   22720 2533D 1   1.00000     0.00000
 Structure written by MMmdl.
 41 43  0  0  0  0  0  0  0  0  1 V2000
  154.4793  136.2109  157.1060 O   0  0  0  0  0  0  0  0  0  0  0  0
  153.9931  137.5349  157.0784 C   0  0  0  0  0  0  0  0  0  0  0  0
  153.1462  137.8058  158.3300 C   0  0  0  0  0  0  0  0  0  0  0  0
  152.1590  138.8477  158.1125 N   0  0  0  0  0  0  0  0  0  0  0  0
  152.1014  140.1733  158.5268 C   0  0  0  0  0  0  0  0  0  0  0  0
  153.0436  140.7589  159.2638 N   0  0  0  0  0  0  0  0  0  0  0  0
  152.5480  142.0407  159.4105 C   0  0  0  0  0  0  0  0  0  0  0  0
  153.0822  143.1593  160.0893 C   0  0  0  0  0  0  0  0  0  0  0  0
  152.3859  144.3858  160.1023 C   0  0  0  0  0  0  0  0  0  0  0  0
  151.1480  144.5115  159.4390 C   0  0  0  0  0  0  0  0  0  0  0  0
  150.5977  143.4101  158.7560 C   0  0  0  0  0  0  0  0  0  0  0  0
  151.2964  142.1883  158.7454 C   0  0  0  0  0  0  0  0  0  0  0  0
  151.0431  140.9437  158.1767 N   0  0  0  0  0  0  0  0  0  0  0  0
  149.8804  140.5871  157.3737 C   0  0  0  0  0  0  0  0  0  0  0  0
  150.2659  140.2111  155.9296 C   0  0  2  0  0  0  0  0  0  0  0  0
  151.3094  141.0703  155.5168 O   0  0  0  0  0  0  0  0  0  0  0  0
  149.0735  140.2479  154.9799 C   0  0  0  0  0  0  0  0  0  0  0  0
  148.3114  141.4290  154.8372 C   0  0  0  0  0  0  0  0  0  0  0  0
  147.2066  141.4627  153.9653 C   0  0  0  0  0  0  0  0  0  0  0  0
  146.4823  142.5988  153.8350 F   0  0  0  0  0  0  0  0  0  0  0  0
  146.8512  140.3140  153.2339 C   0  0  0  0  0  0  0  0  0  0  0  0
  147.5983  139.1301  153.3795 C   0  0  0  0  0  0  0  0  0  0  0  0
  148.7059  139.0948  154.2487 C   0  0  0  0  0  0  0  0  0  0  0  0
  149.4087  137.9443  154.3812 F   0  0  0  0  0  0  0  0  0  0  0  0
  155.4202  136.2402  157.1895 H   0  0  0  0  0  0  0  0  0  0  0  0
  154.8587  138.1976  157.0735 H   0  0  0  0  0  0  0  0  0  0  0  0
  153.4406  137.7236  156.1571 H   0  0  0  0  0  0  0  0  0  0  0  0
  152.6610  136.8967  158.6866 H   0  0  0  0  0  0  0  0  0  0  0  0
  153.7986  138.1451  159.1353 H   0  0  0  0  0  0  0  0  0  0  0  0
  151.3668  138.5450  157.5646 H   0  0  0  0  0  0  0  0  0  0  0  0
  154.0295  143.0738  160.6009 H   0  0  0  0  0  0  0  0  0  0  0  0
  152.8036  145.2344  160.6238 H   0  0  0  0  0  0  0  0  0  0  0  0
  150.6213  145.4546  159.4546 H   0  0  0  0  0  0  0  0  0  0  0  0
  149.6505  143.5034  158.2456 H   0  0  0  0  0  0  0  0  0  0  0  0
  149.3283  139.7781  157.8528 H   0  0  0  0  0  0  0  0  0  0  0  0
  149.2092  141.4471  157.3673 H   0  0  0  0  0  0  0  0  0  0  0  0
  150.6892  139.2063  155.9253 H   0  0  0  0  0  0  0  0  0  0  0  0
  151.0203  141.9641  155.6209 H   0  0  0  0  0  0  0  0  0  0  0  0
  148.5697  142.3148  155.3986 H   0  0  0  0  0  0  0  0  0  0  0  0
  146.0016  140.3386  152.5676 H   0  0  0  0  0  0  0  0  0  0  0  0
  147.3206  138.2464  152.8241 H   0  0  0  0  0  0  0  0  0  0  0  0
  1  2  1  0  0  0  0
  1 25  1  0  0  0  0
  2  3  1  0  0  0  0
  2 26  1  0  0  0  0
  2 27  1  0  0  0  0
  3  4  1  0  0  0  0
  3 28  1  0  0  0  0
  3 29  1  0  0  0  0
  4  5  1  0  0  0  0
  4 30  1  0  0  0  0
  5 13  1  0  0  0  0
  5  6  2  0  0  0  0
  6  7  1  0  0  0  0
  7 12  2  0  0  0  0
  7  8  1  0  0  0  0
  8  9  2  0  0  0  0
  8 31  1  0  0  0  0
  9 10  1  0  0  0  0
  9 32  1  0  0  0  0
 10 11  2  0  0  0  0
 10 33  1  0  0  0  0
 11 12  1  0  0  0  0
 11 34  1  0  0  0  0
 12 13  1  0  0  0  0
 13 14  1  0  0  0  0
 14 15  1  0  0  0  0
 14 35  1  0  0  0  0
 14 36  1  0  0  0  0
 15 16  1  0  0  0  0
 15 17  1  0  0  0  0
 15 37  1  0  0  0  0
 16 38  1  0  0  0  0
 17 23  1  0  0  0  0
 17 18  2  0  0  0  0
 18 19  1  0  0  0  0
 18 39  1  0  0  0  0
 19 20  1  0  0  0  0
 19 21  2  0  0  0  0
 21 22  1  0  0  0  0
 21 40  1  0  0  0  0
 22 23  2  0  0  0  0
 22 41  1  0  0  0  0
 23 24  1  0  0  0  0
M  END
> <s_m_source_file>
AV-unprocessed.smi

> <i_m_source_file_index>
1036

> <i_lp_mmshare_version>
43012

> <i_f3d_flags>
0

> <s_epik_input>
W09IXVtDSDJdW0NIMl1bTkhdYyhuMSluKGMoYzEyKVtjSF1bY0hdW2NIXVtjSF0yKVtDSDJdW0NASF0oW09IXSljM1tjSF1jKEYpW2NIXVtjSF1jM0Y=

> <s_epik_cmdline>
J2VwaWtfcHl0aG9uJywgJy1waCcsICc3LjAnLCAnLXRuJywgJzgnLCAnLW1hJywgJzIwMCcsICctbWV0YWxfYmluZGluZycsICctaW1hZScsICc8aW5maWxlLm1hZT4nLCAnLW9tYWUnLCAnPG91dGZpbGUubWFlPic=

> <r_epik_Ionization_Penalty>
1.30972

> <r_epik_Ionization_Penalty_Charging>
0

> <r_epik_Ionization_Penalty_Neutral>
1.30972

> <r_epik_State_Penalty>
1.38438

> <r_epik_Charging_Adjusted_Penalty>
1.38438

> <i_epik_Tot_Q>
0

> <i_epik_Tot_abs_Q>
0

> <r_epik_Metal_State_Penalty>
0.00551145

> <b_epik_Metal_Only>
0

> <s_lp_Force_Field>
OPLS_2005

> <r_lp_Energy>
9.11105

> <b_lp_Chiralities_Consistent>
1

> <s_lp_Variant>
AV-unprocessed.smi:1036-3

> <Gold.Version>
5.8.1

> <Gold.Id.Protein>
6NUR|6NUR_protein|mol2

> <Gold.PLP.Fitness>
46.8123

> <Gold.PLP.PLP>
-42.9539

> <Gold.PLP.part.hbond>
-2.0000

> <Gold.PLP.part.metal>
0.0000

> <Gold.PLP.part.buried>
-2.8040

> <Gold.PLP.part.nonpolar>
-38.2860

> <Gold.PLP.part.repulsive>
0.0692

> <Gold.PLP.ligand.clash>
0.0000

> <Gold.PLP.ligand.torsion>
0.4687

> <Gold.PLP.Chemscore.Hbond>
1.5920

> <Gold.PLP.Chemscore.CHOScore>
0.0000

> <Gold.PLP.Chemscore.Metal>
0.0000

> <Gold.Chemscore.Hbonds>
donor molecule, donor type, donor heavy atom, donor atom, acceptor molecule, acceptor atom, score
      P1  H  7989  7998       L1    16  0.59
      P1  H 10752 10763       L1     1  1.00

> <Gold.PLP.Chemscore.Internal.Correction>
0.0197

> <Gold.Rescore>
     Score         DG    S(hbond)    S(metal)    S(lipo)     H(rot)  DE(clash)    DE(int)     intcor
     13.74     -14.39       1.15        0.00     113.72       3.22       0.22       0.42       ----

> <Gold.Chemscore.Fitness>
13.7431

> <Gold.Chemscore.DG>
-14.3923

> <Gold.Chemscore.ZeroCoef>
-5.4800

> <Gold.Chemscore.Hbond>
1.1524

> <Gold.Chemscore.Metal>
0.0000

> <Gold.Chemscore.Lipo>
113.7170

> <Gold.Chemscore.Internal_Hbond>
0.0000

> <Gold.Chemscore.DEClash>
0.2247

> <Gold.Chemscore.DEInternal>
0.4245

> <Gold.Chemscore.Rot>
3.2194

> <Gold.Chemscore.Internal.Correction>
   9.000000E+99

> <Gold.Chemscore.Hbonds>
donor molecule, donor type, donor heavy atom, donor atom, acceptor molecule, acceptor atom, score
      P1  H  7989  7998       L1    16  0.19
      P1  H 10752 10763       L1     1  0.23

> <Gold.Chemscore.Hbond.Weighted>
-3.8490

> <Gold.Chemscore.Metal.Weighted>
-0.0000

> <Gold.Chemscore.Lipo.Weighted>
-13.3049

> <Gold.Chemscore.Internal_Hbond.Weighted>
0.0000

> <Gold.Chemscore.DEClash.Weighted>
0.2247

> <Gold.Chemscore.DEInternal.Weighted>
0.4245

> <Gold.Chemscore.Rot.Weighted>
8.2416

> <Gold.Chemscore.Internal.Correction.Weighted>
   9.000000E+99

> <Gold.Protein.RotatedTorsions>
[ 6907 6896 6895 6894 ] final   15.02 input  -60.11 | X-H torsion
[ 7974 7965 7964 7962 ] final  -24.43 input  175.53 | X-H torsion
[ 8008 7997 7996 7995 ] final  -82.59 input   59.86 | X-H torsion
[ 10167 10162 10161 10158 ] final  -83.81 input  -65.29 | X-H torsion
[ 10718 10713 10712 10709 ] final  -50.49 input   66.30 | X-H torsion
[ 10763 10752 10751 10750 ] final  161.15 input  -60.55 | X-H torsion
[ 11005 11000 10999 10996 ] final  170.48 input  -57.11 | X-H torsion

> <Gold.Protein.ActiveResidues>
 VAL166  LYS551  ARG553  GLY616  TRP617  ASP618  TYR619  PRO620  LYS621  CYS622 
 ASP623  PHE694  ASN695  SER759  ASP760  ASP761  ALA762  ILE779  LEU786  VAL792 
 PHE793  MET794  SER795  GLU796  ALA797  LYS798  CYS799  TRP800  GLU811  SER814 

> <Gold.Protein.RotatedAtoms>
  151.8115  135.0679  160.0413 H   0  0  0  0  0  0  0  0  0  0  0  0  # atno 6907 bound_to 6896
  152.3017  133.5658  159.5631 H   0  0  0  0  0  0  0  0  0  0  0  0  # atno 6908 bound_to 6896
  150.7276  134.0198  159.3739 H   0  0  0  0  0  0  0  0  0  0  0  0  # atno 6909 bound_to 6896
  146.1555  140.4750  142.8593 H   0  0  0  0  0  0  0  0  0  0  0  0  # atno 7974 bound_to 7965
  154.6102  140.0631  156.9484 H   0  0  0  0  0  0  0  0  0  0  0  0  # atno 8008 bound_to 7997
  155.1985  140.3313  155.4328 H   0  0  0  0  0  0  0  0  0  0  0  0  # atno 8009 bound_to 7997
  156.2372  140.1868  156.7070 H   0  0  0  0  0  0  0  0  0  0  0  0  # atno 8010 bound_to 7997
  140.4191  143.2592  151.8914 H   0  0  0  0  0  0  0  0  0  0  0  0  # atno 10167 bound_to 10162
  156.1796  130.4150  149.9526 H   0  0  0  0  0  0  0  0  0  0  0  0  # atno 10718 bound_to 10713
  154.2584  135.2769  155.2788 H   0  0  0  0  0  0  0  0  0  0  0  0  # atno 10763 bound_to 10752
  154.5405  135.5704  153.6838 H   0  0  0  0  0  0  0  0  0  0  0  0  # atno 10764 bound_to 10752
  152.9967  135.6250  154.2734 H   0  0  0  0  0  0  0  0  0  0  0  0  # atno 10765 bound_to 10752
  140.3088  134.7534  157.3975 H   0  0  0  0  0  0  0  0  0  0  0  0  # atno 11005 bound_to 11000
  144.7958  140.6120  143.6511 LP  0  0  0  0  0  0  0  0  0  0  0  0  # atno 17320 bound_to 7965
  145.4718  139.1503  143.3810 LP  0  0  0  0  0  0  0  0  0  0  0  0  # atno 17321 bound_to 7965
  139.4782  144.5456  151.8463 LP  0  0  0  0  0  0  0  0  0  0  0  0  # atno 17342 bound_to 10162
  140.4553  144.1797  150.5901 LP  0  0  0  0  0  0  0  0  0  0  0  0  # atno 17343 bound_to 10162
  156.7301  130.9040  151.3625 LP  0  0  0  0  0  0  0  0  0  0  0  0  # atno 17370 bound_to 10713
  157.6859  130.9185  150.0385 LP  0  0  0  0  0  0  0  0  0  0  0  0  # atno 17371 bound_to 10713
  140.1043  134.5430  155.8323 LP  0  0  0  0  0  0  0  0  0  0  0  0  # atno 17394 bound_to 11000
  141.2112  133.6704  156.6569 LP  0  0  0  0  0  0  0  0  0  0  0  0  # atno 17395 bound_to 11000

$$$$
