AV-unprocessed.smi:3213|AV-procd|sdf|12282|dock3
  -GOLD-   2272018123D 1   1.00000     0.00000
 Structure written by MMmdl.
 35 35  0  0  0  0  0  0  0  0  1 V2000
  152.3582  142.9844  161.1289 C   0  0  0  0  0  0  0  0  0  0  0  0
  152.7813  142.3810  159.7778 C   0  0  0  0  0  0  0  0  0  0  0  0
  153.1631  143.5267  158.8162 C   0  0  0  0  0  0  0  0  0  0  0  0
  153.9811  141.4375  160.0038 C   0  0  0  0  0  0  0  0  0  0  0  0
  151.6275  141.6317  159.2654 N   0  0  0  0  0  0  0  0  0  0  0  0
  151.5821  140.7618  158.2403 C   0  0  0  0  0  0  0  0  0  0  0  0
  152.5554  140.4651  157.5469 O   0  0  0  0  0  0  0  0  0  0  0  0
  150.2144  140.1348  157.9529 C   0  0  0  0  0  0  0  0  0  0  0  0
  149.7899  140.3693  156.5835 N   0  0  0  0  0  0  0  0  0  0  0  0
  148.7188  141.1131  156.1345 C   0  0  0  0  0  0  0  0  0  0  0  0
  148.7176  141.0504  154.7697 C   0  0  0  0  0  0  0  0  0  0  0  0
  147.7623  141.6876  153.7998 C   0  0  0  0  0  0  0  0  0  0  0  0
  146.4948  142.1892  154.5038 C   0  0  0  0  0  0  0  0  0  0  0  0
  145.5572  141.1394  154.6079 O   0  0  0  0  0  0  0  0  0  0  0  0
  149.8462  140.2332  154.4755 C   0  0  0  0  0  0  0  0  0  0  0  0
  150.4847  139.8266  155.5606 N   0  0  0  0  0  0  0  0  0  0  0  0
  153.1675  143.5621  161.5771 H   0  0  0  0  0  0  0  0  0  0  0  0
  152.0777  142.2080  161.8418 H   0  0  0  0  0  0  0  0  0  0  0  0
  151.5032  143.6524  161.0169 H   0  0  0  0  0  0  0  0  0  0  0  0
  152.3102  144.1745  158.6109 H   0  0  0  0  0  0  0  0  0  0  0  0
  153.5337  143.1560  157.8606 H   0  0  0  0  0  0  0  0  0  0  0  0
  153.9512  144.1487  159.2418 H   0  0  0  0  0  0  0  0  0  0  0  0
  154.8159  141.9680  160.4631 H   0  0  0  0  0  0  0  0  0  0  0  0
  154.3484  141.0099  159.0710 H   0  0  0  0  0  0  0  0  0  0  0  0
  153.7163  140.6103  160.6635 H   0  0  0  0  0  0  0  0  0  0  0  0
  150.7595  141.7897  159.7563 H   0  0  0  0  0  0  0  0  0  0  0  0
  150.2325  139.0595  158.1400 H   0  0  0  0  0  0  0  0  0  0  0  0
  149.4747  140.5655  158.6283 H   0  0  0  0  0  0  0  0  0  0  0  0
  148.0543  141.6221  156.8175 H   0  0  0  0  0  0  0  0  0  0  0  0
  148.2434  142.5212  153.2867 H   0  0  0  0  0  0  0  0  0  0  0  0
  147.4833  140.9795  153.0184 H   0  0  0  0  0  0  0  0  0  0  0  0
  146.7293  142.5572  155.5033 H   0  0  0  0  0  0  0  0  0  0  0  0
  146.0452  143.0129  153.9483 H   0  0  0  0  0  0  0  0  0  0  0  0
  144.9258  141.2300  153.9106 H   0  0  0  0  0  0  0  0  0  0  0  0
  150.2183  139.9262  153.5090 H   0  0  0  0  0  0  0  0  0  0  0  0
  1  2  1  0  0  0  0
  1 17  1  0  0  0  0
  1 18  1  0  0  0  0
  1 19  1  0  0  0  0
  2  3  1  0  0  0  0
  2  4  1  0  0  0  0
  2  5  1  0  0  0  0
  3 20  1  0  0  0  0
  3 21  1  0  0  0  0
  3 22  1  0  0  0  0
  4 23  1  0  0  0  0
  4 24  1  0  0  0  0
  4 25  1  0  0  0  0
  5  6  1  0  0  0  0
  5 26  1  0  0  0  0
  6  7  2  0  0  0  0
  6  8  1  0  0  0  0
  8  9  1  0  0  0  0
  8 27  1  0  0  0  0
  8 28  1  0  0  0  0
  9 16  1  0  0  0  0
  9 10  1  0  0  0  0
 10 11  2  0  0  0  0
 10 29  1  0  0  0  0
 11 12  1  0  0  0  0
 11 15  1  0  0  0  0
 12 13  1  0  0  0  0
 12 30  1  0  0  0  0
 12 31  1  0  0  0  0
 13 14  1  0  0  0  0
 13 32  1  0  0  0  0
 13 33  1  0  0  0  0
 14 34  1  0  0  0  0
 15 16  2  0  0  0  0
 15 35  1  0  0  0  0
M  END
> <s_m_source_file>
AV-unprocessed.smi

> <i_m_source_file_index>
3213

> <i_lp_mmshare_version>
43012

> <i_f3d_flags>
0

> <s_epik_input>
W0NIM11DKFtDSDNdKShbQ0gzXSlbTkhdQyg9TylbQ0gyXW4xW2NIXWMoW2NIXW4xKVtDSDJdW0NIMl1bT0hd

> <s_epik_cmdline>
J2VwaWtfcHl0aG9uJywgJy1waCcsICc3LjAnLCAnLXRuJywgJzgnLCAnLW1hJywgJzIwMCcsICctbWV0YWxfYmluZGluZycsICctaW1hZScsICc8aW5maWxlLm1hZT4nLCAnLW9tYWUnLCAnPG91dGZpbGUubWFlPic=

> <r_lp_tautomer_probability>
1

> <r_epik_Ionization_Penalty>
3.05354e-05

> <r_epik_Ionization_Penalty_Charging>
0

> <r_epik_Ionization_Penalty_Neutral>
3.05354e-05

> <r_epik_State_Penalty>
-0

> <r_epik_Charging_Adjusted_Penalty>
0

> <i_epik_Tot_Q>
0

> <i_epik_Tot_abs_Q>
0

> <r_epik_Metal_State_Penalty>
-0

> <b_epik_Metal_Only>
0

> <s_lp_Force_Field>
OPLS_2005

> <r_lp_Energy>
4.97676

> <b_lp_Chiralities_Consistent>
1

> <s_lp_Variant>
AV-unprocessed.smi:3213-1

> <Gold.Version>
5.8.1

> <Gold.Id.Protein>
6NUR|6NUR_protein|mol2

> <Gold.PLP.Fitness>
40.2089

> <Gold.PLP.PLP>
-33.0208

> <Gold.PLP.part.hbond>
-2.0000

> <Gold.PLP.part.metal>
0.0000

> <Gold.PLP.part.buried>
-1.5693

> <Gold.PLP.part.nonpolar>
-28.4194

> <Gold.PLP.part.repulsive>
0.1726

> <Gold.PLP.ligand.clash>
0.0000

> <Gold.PLP.ligand.torsion>
0.5573

> <Gold.PLP.Chemscore.Hbond>
1.7582

> <Gold.PLP.Chemscore.CHOScore>
1.0000

> <Gold.PLP.Chemscore.Metal>
0.0000

> <Gold.Chemscore.Hbonds>
donor molecule, donor type, donor heavy atom, donor atom, acceptor molecule, acceptor atom, score
      L1  H    14    34       P1 10175  1.00
      P1  H  7997  8010       L1     7  0.80
      L1  C    15    35       P1  7957  1.00

> <Gold.PLP.Chemscore.Internal.Correction>
0.0282

> <Gold.Rescore>
     Score         DG    S(hbond)    S(metal)    S(lipo)     H(rot)  DE(clash)    DE(int)     intcor
     12.95     -14.76       1.80        0.00      82.08       2.48       0.26       1.56       ----

> <Gold.Chemscore.Fitness>
12.9490

> <Gold.Chemscore.DG>
-14.7640

> <Gold.Chemscore.ZeroCoef>
-5.4800

> <Gold.Chemscore.Hbond>
1.8020

> <Gold.Chemscore.Metal>
0.0000

> <Gold.Chemscore.Lipo>
82.0787

> <Gold.Chemscore.Internal_Hbond>
0.0000

> <Gold.Chemscore.DEClash>
0.2576

> <Gold.Chemscore.DEInternal>
1.5573

> <Gold.Chemscore.Rot>
2.4758

> <Gold.Chemscore.Internal.Correction>
   9.000000E+99

> <Gold.Chemscore.Hbonds>
donor molecule, donor type, donor heavy atom, donor atom, acceptor molecule, acceptor atom, score
      L1  H    14    34       P1 10175  0.55
      P1  H  7997  8010       L1     7  0.75

> <Gold.Chemscore.Hbond.Weighted>
-6.0188

> <Gold.Chemscore.Metal.Weighted>
-0.0000

> <Gold.Chemscore.Lipo.Weighted>
-9.6032

> <Gold.Chemscore.Internal_Hbond.Weighted>
0.0000

> <Gold.Chemscore.DEClash.Weighted>
0.2576

> <Gold.Chemscore.DEInternal.Weighted>
1.5573

> <Gold.Chemscore.Rot.Weighted>
6.3380

> <Gold.Chemscore.Internal.Correction.Weighted>
   9.000000E+99

> <Gold.Protein.RotatedTorsions>
[ 6907 6896 6895 6894 ] final   88.46 input  -60.11 | X-H torsion
[ 7974 7965 7964 7962 ] final -139.12 input  175.53 | X-H torsion
[ 8008 7997 7996 7995 ] final   49.26 input   59.86 | X-H torsion
[ 10167 10162 10161 10158 ] final   32.22 input  -65.29 | X-H torsion
[ 10718 10713 10712 10709 ] final   62.27 input   66.30 | X-H torsion
[ 10763 10752 10751 10750 ] final -161.84 input  -60.55 | X-H torsion
[ 11005 11000 10999 10996 ] final -108.28 input  -57.11 | X-H torsion

> <Gold.Protein.ActiveResidues>
 VAL166  LYS551  ARG553  GLY616  TRP617  ASP618  TYR619  PRO620  LYS621  CYS622 
 ASP623  PHE694  ASN695  SER759  ASP760  ASP761  ALA762  ILE779  LEU786  VAL792 
 PHE793  MET794  SER795  GLU796  ALA797  LYS798  CYS799  TRP800  GLU811  SER814 

> <Gold.Protein.RotatedAtoms>
  152.5425  134.2117  159.8752 H   0  0  0  0  0  0  0  0  0  0  0  0  # atno 6907 bound_to 6896
  151.2100  133.4555  159.2605 H   0  0  0  0  0  0  0  0  0  0  0  0  # atno 6908 bound_to 6896
  151.0906  134.9926  159.8456 H   0  0  0  0  0  0  0  0  0  0  0  0  # atno 6909 bound_to 6896
  144.8702  140.6355  143.5272 H   0  0  0  0  0  0  0  0  0  0  0  0  # atno 7974 bound_to 7965
  155.3992  140.3437  155.4256 H   0  0  0  0  0  0  0  0  0  0  0  0  # atno 8008 bound_to 7997
  156.1513  140.1572  156.8797 H   0  0  0  0  0  0  0  0  0  0  0  0  # atno 8009 bound_to 7997
  154.5055  140.0803  156.7866 H   0  0  0  0  0  0  0  0  0  0  0  0  # atno 8010 bound_to 7997
  140.4518  144.1036  150.6193 H   0  0  0  0  0  0  0  0  0  0  0  0  # atno 10167 bound_to 10162
  157.5889  130.9041  149.9567 H   0  0  0  0  0  0  0  0  0  0  0  0  # atno 10718 bound_to 10713
  154.7268  135.3037  154.8958 H   0  0  0  0  0  0  0  0  0  0  0  0  # atno 10763 bound_to 10752
  153.9813  135.6730  153.4754 H   0  0  0  0  0  0  0  0  0  0  0  0  # atno 10764 bound_to 10752
  153.0882  135.4973  154.8558 H   0  0  0  0  0  0  0  0  0  0  0  0  # atno 10765 bound_to 10752
  141.0910  133.9055  157.2076 H   0  0  0  0  0  0  0  0  0  0  0  0  # atno 11005 bound_to 11000
  145.4145  139.1574  143.4108 LP  0  0  0  0  0  0  0  0  0  0  0  0  # atno 17320 bound_to 7965
  146.2925  140.4251  142.8734 LP  0  0  0  0  0  0  0  0  0  0  0  0  # atno 17321 bound_to 7965
  140.4198  143.2617  151.9730 LP  0  0  0  0  0  0  0  0  0  0  0  0  # atno 17342 bound_to 10162
  139.4797  144.5841  151.7882 LP  0  0  0  0  0  0  0  0  0  0  0  0  # atno 17343 bound_to 10162
  156.0941  130.3661  150.0340 LP  0  0  0  0  0  0  0  0  0  0  0  0  # atno 17370 bound_to 10713
  156.8466  130.9444  151.3628 LP  0  0  0  0  0  0  0  0  0  0  0  0  # atno 17371 bound_to 10713
  139.9736  135.0121  156.9574 LP  0  0  0  0  0  0  0  0  0  0  0  0  # atno 17394 bound_to 11000
  140.5252  134.0867  155.7302 LP  0  0  0  0  0  0  0  0  0  0  0  0  # atno 17395 bound_to 11000

$$$$
