AV-unprocessed.smi:2378|AV-procd|sdf|9449|dock8
  -GOLD-   2272013 83D 1   1.00000     0.00000
 Structure written by MMmdl.
 40 41  0  0  0  0  0  0  0  0  1 V2000
  152.9773  143.2291  162.4552 C   0  0  0  0  0  0  0  0  0  0  0  0
  152.3748  143.2417  161.0659 C   0  0  0  0  0  0  0  0  0  0  0  0
  152.9751  142.5300  160.0098 C   0  0  0  0  0  0  0  0  0  0  0  0
  152.3662  142.5843  158.7424 C   0  0  0  0  0  0  0  0  0  0  0  0
  151.2389  143.2833  158.4932 N   0  0  0  0  0  0  0  0  0  0  0  0
  150.6509  143.9725  159.5027 C   0  0  0  0  0  0  0  0  0  0  0  0
  149.4619  144.7348  159.3504 N   0  0  0  0  0  0  0  0  0  0  0  0
  148.4603  144.8999  160.2325 C   0  0  0  0  0  0  0  0  0  0  0  0
  148.3989  144.3805  161.3475 O   0  0  0  0  0  0  0  0  0  0  0  0
  147.5120  145.7116  159.7424 N   0  0  0  0  0  0  0  0  0  0  0  0
  146.2915  146.0942  160.4431 C   0  0  0  0  0  0  0  0  0  0  0  0
  145.3741  146.9498  159.5529 C   0  0  0  0  0  0  0  0  0  0  0  0
  146.0059  148.2947  159.1609 C   0  0  2  0  0  0  0  0  0  0  0  0
  145.7691  149.3765  160.2328 C   0  0  0  0  0  0  0  0  0  0  0  0
  146.3469  150.7216  159.7780 C   0  0  0  0  0  0  0  0  0  0  0  0
  145.7977  151.0792  158.3931 C   0  0  0  0  0  0  0  0  0  0  0  0
  146.0210  149.9159  157.4139 C   0  0  0  0  0  0  0  0  0  0  0  0
  145.4291  148.7275  157.9298 O   0  0  0  0  0  0  0  0  0  0  0  0
  151.1970  143.9710  160.8062 C   0  0  0  0  0  0  0  0  0  0  0  0
  153.8475  142.5739  162.5042 H   0  0  0  0  0  0  0  0  0  0  0  0
  152.2446  142.8777  163.1821 H   0  0  0  0  0  0  0  0  0  0  0  0
  153.2898  144.2341  162.7396 H   0  0  0  0  0  0  0  0  0  0  0  0
  153.8777  141.9564  160.1616 H   0  0  0  0  0  0  0  0  0  0  0  0
  152.7949  142.0521  157.9063 H   0  0  0  0  0  0  0  0  0  0  0  0
  149.3659  145.2161  158.4688 H   0  0  0  0  0  0  0  0  0  0  0  0
  147.6426  146.0940  158.8173 H   0  0  0  0  0  0  0  0  0  0  0  0
  145.7639  145.2061  160.7952 H   0  0  0  0  0  0  0  0  0  0  0  0
  146.5791  146.6559  161.3322 H   0  0  0  0  0  0  0  0  0  0  0  0
  145.1097  146.3932  158.6527 H   0  0  0  0  0  0  0  0  0  0  0  0
  144.4392  147.1389  160.0824 H   0  0  0  0  0  0  0  0  0  0  0  0
  147.0792  148.1511  159.0240 H   0  0  0  0  0  0  0  0  0  0  0  0
  144.6994  149.4837  160.4175 H   0  0  0  0  0  0  0  0  0  0  0  0
  146.2213  149.0785  161.1793 H   0  0  0  0  0  0  0  0  0  0  0  0
  146.1046  151.5039  160.4978 H   0  0  0  0  0  0  0  0  0  0  0  0
  147.4348  150.6581  159.7364 H   0  0  0  0  0  0  0  0  0  0  0  0
  144.7307  151.2933  158.4654 H   0  0  0  0  0  0  0  0  0  0  0  0
  146.2751  151.9855  158.0195 H   0  0  0  0  0  0  0  0  0  0  0  0
  145.5673  150.1456  156.4496 H   0  0  0  0  0  0  0  0  0  0  0  0
  147.0853  149.7562  157.2347 H   0  0  0  0  0  0  0  0  0  0  0  0
  150.7189  144.5240  161.6021 H   0  0  0  0  0  0  0  0  0  0  0  0
  1  2  1  0  0  0  0
  1 20  1  0  0  0  0
  1 21  1  0  0  0  0
  1 22  1  0  0  0  0
  2 19  1  0  0  0  0
  2  3  2  0  0  0  0
  3  4  1  0  0  0  0
  3 23  1  0  0  0  0
  4  5  2  0  0  0  0
  4 24  1  0  0  0  0
  5  6  1  0  0  0  0
  6  7  1  0  0  0  0
  6 19  2  0  0  0  0
  7  8  1  0  0  0  0
  7 25  1  0  0  0  0
  8  9  2  0  0  0  0
  8 10  1  0  0  0  0
 10 11  1  0  0  0  0
 10 26  1  0  0  0  0
 11 12  1  0  0  0  0
 11 27  1  0  0  0  0
 11 28  1  0  0  0  0
 12 13  1  0  0  0  0
 12 29  1  0  0  0  0
 12 30  1  0  0  0  0
 13 18  1  0  0  0  0
 13 14  1  0  0  0  0
 13 31  1  0  0  0  0
 14 15  1  0  0  0  0
 14 32  1  0  0  0  0
 14 33  1  0  0  0  0
 15 16  1  0  0  0  0
 15 34  1  0  0  0  0
 15 35  1  0  0  0  0
 16 17  1  0  0  0  0
 16 36  1  0  0  0  0
 16 37  1  0  0  0  0
 17 18  1  0  0  0  0
 17 38  1  0  0  0  0
 17 39  1  0  0  0  0
 19 40  1  0  0  0  0
M  END
> <s_m_source_file>
AV-unprocessed.smi

> <i_m_source_file_index>
2378

> <i_lp_mmshare_version>
43012

> <i_f3d_flags>
0

> <s_epik_input>
W0NIM11jMVtjSF1bY0hdbmMoW2NIXTEpW05IXUMoPU8pW05IXVtDSDJdW0NIMl1bQ0BASF0yW0NIMl1bQ0gyXVtDSDJdW0NIMl1PMg==

> <s_epik_cmdline>
J2VwaWtfcHl0aG9uJywgJy1waCcsICc3LjAnLCAnLXRuJywgJzgnLCAnLW1hJywgJzIwMCcsICctbWV0YWxfYmluZGluZycsICctaW1hZScsICc8aW5maWxlLm1hZT4nLCAnLW9tYWUnLCAnPG91dGZpbGUubWFlPic=

> <r_lp_tautomer_probability>
1

> <r_epik_Ionization_Penalty>
8.60919e-05

> <r_epik_Ionization_Penalty_Charging>
0

> <r_epik_Ionization_Penalty_Neutral>
8.60919e-05

> <r_epik_State_Penalty>
-0

> <r_epik_Charging_Adjusted_Penalty>
0

> <i_epik_Tot_Q>
0

> <i_epik_Tot_abs_Q>
0

> <r_epik_Metal_State_Penalty>
-0

> <b_epik_Metal_Only>
0

> <s_lp_Force_Field>
OPLS_2005

> <r_lp_Energy>
11.3516

> <b_lp_Chiralities_Consistent>
1

> <s_lp_Variant>
AV-unprocessed.smi:2378-1

> <Gold.Version>
5.8.1

> <Gold.Id.Protein>
6NUR|6NUR_protein|mol2

> <Gold.PLP.Fitness>
55.7903

> <Gold.PLP.PLP>
-48.8591

> <Gold.PLP.part.hbond>
-2.8356

> <Gold.PLP.part.metal>
0.0000

> <Gold.PLP.part.buried>
-7.7097

> <Gold.PLP.part.nonpolar>
-39.1327

> <Gold.PLP.part.repulsive>
0.7429

> <Gold.PLP.ligand.clash>
0.0000

> <Gold.PLP.ligand.torsion>
0.5600

> <Gold.PLP.Chemscore.Hbond>
2.6803

> <Gold.PLP.Chemscore.CHOScore>
0.0000

> <Gold.PLP.Chemscore.Metal>
0.0000

> <Gold.Chemscore.Hbonds>
donor molecule, donor type, donor heavy atom, donor atom, acceptor molecule, acceptor atom, score
      L1  H     7    25       P1  8029  0.80
      L1  H    10    26       P1  8029  1.00
      P1  H  6933  6944       L1     9  0.90

> <Gold.PLP.Chemscore.Internal.Correction>
0.0105

> <Gold.Rescore>
     Score         DG    S(hbond)    S(metal)    S(lipo)     H(rot)  DE(clash)    DE(int)     intcor
     22.39     -24.22       2.65        0.00     115.72       1.42       0.07       1.75       ----

> <Gold.Chemscore.Fitness>
22.3857

> <Gold.Chemscore.DG>
-24.2153

> <Gold.Chemscore.ZeroCoef>
-5.4800

> <Gold.Chemscore.Hbond>
2.6477

> <Gold.Chemscore.Metal>
0.0000

> <Gold.Chemscore.Lipo>
115.7220

> <Gold.Chemscore.Internal_Hbond>
0.0000

> <Gold.Chemscore.DEClash>
0.0750

> <Gold.Chemscore.DEInternal>
1.7546

> <Gold.Chemscore.Rot>
1.4248

> <Gold.Chemscore.Internal.Correction>
   9.000000E+99

> <Gold.Chemscore.Hbonds>
donor molecule, donor type, donor heavy atom, donor atom, acceptor molecule, acceptor atom, score
      L1  H     7    25       P1  8029  0.62
      L1  H    10    26       P1  8029  0.92
      P1  H  6933  6944       L1     9  0.80

> <Gold.Chemscore.Hbond.Weighted>
-8.8434

> <Gold.Chemscore.Metal.Weighted>
-0.0000

> <Gold.Chemscore.Lipo.Weighted>
-13.5395

> <Gold.Chemscore.Internal_Hbond.Weighted>
0.0000

> <Gold.Chemscore.DEClash.Weighted>
0.0750

> <Gold.Chemscore.DEInternal.Weighted>
1.7546

> <Gold.Chemscore.Rot.Weighted>
3.6476

> <Gold.Chemscore.Internal.Correction.Weighted>
   9.000000E+99

> <Gold.Protein.RotatedTorsions>
[ 6907 6896 6895 6894 ] final  116.06 input  -60.11 | X-H torsion
[ 7974 7965 7964 7962 ] final -125.14 input  175.53 | X-H torsion
[ 8008 7997 7996 7995 ] final  -54.80 input   59.86 | X-H torsion
[ 10167 10162 10161 10158 ] final   21.65 input  -65.29 | X-H torsion
[ 10718 10713 10712 10709 ] final -155.74 input   66.30 | X-H torsion
[ 10763 10752 10751 10750 ] final  118.28 input  -60.55 | X-H torsion
[ 11005 11000 10999 10996 ] final   50.29 input  -57.11 | X-H torsion

> <Gold.Protein.ActiveResidues>
 VAL166  LYS551  ARG553  GLY616  TRP617  ASP618  TYR619  PRO620  LYS621  CYS622 
 ASP623  PHE694  ASN695  SER759  ASP760  ASP761  ALA762  ILE779  LEU786  VAL792 
 PHE793  MET794  SER795  GLU796  ALA797  LYS798  CYS799  TRP800  GLU811  SER814 

> <Gold.Protein.RotatedAtoms>
  152.4702  133.8013  159.6953 H   0  0  0  0  0  0  0  0  0  0  0  0  # atno 6907 bound_to 6896
  150.8687  133.7527  159.2974 H   0  0  0  0  0  0  0  0  0  0  0  0  # atno 6908 bound_to 6896
  151.5069  135.1067  159.9895 H   0  0  0  0  0  0  0  0  0  0  0  0  # atno 6909 bound_to 6896
  145.0007  140.7818  143.4498 H   0  0  0  0  0  0  0  0  0  0  0  0  # atno 7974 bound_to 7965
  154.4174  140.1168  156.5374 H   0  0  0  0  0  0  0  0  0  0  0  0  # atno 8008 bound_to 7997
  155.6543  140.3496  155.4740 H   0  0  0  0  0  0  0  0  0  0  0  0  # atno 8009 bound_to 7997
  155.9767  140.1152  157.0754 H   0  0  0  0  0  0  0  0  0  0  0  0  # atno 8010 bound_to 7997
  140.5410  143.9676  150.6519 H   0  0  0  0  0  0  0  0  0  0  0  0  # atno 10167 bound_to 10162
  156.5170  130.8461  151.2668 H   0  0  0  0  0  0  0  0  0  0  0  0  # atno 10718 bound_to 10713
  153.5653  135.3513  155.2816 H   0  0  0  0  0  0  0  0  0  0  0  0  # atno 10763 bound_to 10752
  154.8689  135.4146  154.2786 H   0  0  0  0  0  0  0  0  0  0  0  0  # atno 10764 bound_to 10752
  153.3540  135.7056  153.6835 H   0  0  0  0  0  0  0  0  0  0  0  0  # atno 10765 bound_to 10752
  140.1030  134.5056  155.8745 H   0  0  0  0  0  0  0  0  0  0  0  0  # atno 11005 bound_to 11000
  145.2157  139.2183  143.5120 LP  0  0  0  0  0  0  0  0  0  0  0  0  # atno 17320 bound_to 7965
  146.3451  140.2004  142.8589 LP  0  0  0  0  0  0  0  0  0  0  0  0  # atno 17321 bound_to 7965
  140.3077  143.3218  152.0910 LP  0  0  0  0  0  0  0  0  0  0  0  0  # atno 17342 bound_to 10162
  139.4989  144.6656  151.6363 LP  0  0  0  0  0  0  0  0  0  0  0  0  # atno 17343 bound_to 10162
  157.7442  130.9930  150.2657 LP  0  0  0  0  0  0  0  0  0  0  0  0  # atno 17370 bound_to 10713
  156.3185  130.3782  149.7596 LP  0  0  0  0  0  0  0  0  0  0  0  0  # atno 17371 bound_to 10713
  141.2110  133.6702  156.6555 LP  0  0  0  0  0  0  0  0  0  0  0  0  # atno 17394 bound_to 11000
  140.3194  134.8020  157.4240 LP  0  0  0  0  0  0  0  0  0  0  0  0  # atno 17395 bound_to 11000

$$$$
