AV-unprocessed.smi:600|AV-procd|sdf|3030|dock2
  -GOLD-   2262023543D 1   1.00000     0.00000
 Structure written by MMmdl.
 33 34  0  0  0  0  0  0  0  0  1 V2000
  152.1037  139.3074  155.5119 C   0  0  0  0  0  0  0  0  0  0  0  0
  152.1405  140.2117  156.6012 O   0  0  0  0  0  0  0  0  0  0  0  0
  150.8471  140.5210  157.0933 C   0  0  0  0  0  0  0  0  0  0  0  0
  150.8086  141.9767  157.5859 C   0  0  0  0  0  0  0  0  0  0  0  0
  151.7548  142.2040  158.6841 N   0  0  0  0  0  0  0  0  0  0  0  0
  152.6530  141.1670  158.8728 N   0  0  0  0  0  0  0  0  0  0  0  0
  153.5310  141.2231  159.8206 C   0  0  0  0  0  0  0  0  0  0  0  0
  154.4839  140.0865  160.0129 C   0  0  0  0  0  0  0  0  0  0  0  0
  154.6610  139.3069  159.0701 O   0  0  0  0  0  0  0  0  0  0  0  0
  155.0783  140.0340  161.2742 N   0  0  0  0  0  0  0  0  0  0  0  0
  154.9470  139.0041  162.0560 C   0  0  0  0  0  0  0  0  0  0  0  0
  154.2495  137.8213  161.8314 N   0  0  0  0  0  0  0  0  0  0  0  0
  153.9676  136.9816  162.9811 C   0  0  0  0  0  0  0  0  0  0  0  0
  155.1059  137.1781  163.9784 C   0  0  0  0  0  0  0  0  0  0  0  0
  155.6821  138.8633  163.7070 S   0  0  0  0  0  0  0  0  0  0  0  0
  153.5947  142.3854  160.7003 C   0  0  0  0  0  0  0  0  0  0  0  0
  152.7105  143.3877  160.5041 C   0  0  0  0  0  0  0  0  0  0  0  0
  151.7030  143.3386  159.4445 C   0  0  0  0  0  0  0  0  0  0  0  0
  150.8819  144.2360  159.2572 O   0  0  0  0  0  0  0  0  0  0  0  0
  153.1187  139.0982  155.1748 H   0  0  0  0  0  0  0  0  0  0  0  0
  151.5496  139.7263  154.6709 H   0  0  0  0  0  0  0  0  0  0  0  0
  151.6421  138.3619  155.7994 H   0  0  0  0  0  0  0  0  0  0  0  0
  150.0952  140.3610  156.3187 H   0  0  0  0  0  0  0  0  0  0  0  0
  150.6065  139.8519  157.9206 H   0  0  0  0  0  0  0  0  0  0  0  0
  151.0667  142.6381  156.7572 H   0  0  0  0  0  0  0  0  0  0  0  0
  149.7906  142.2539  157.8643 H   0  0  0  0  0  0  0  0  0  0  0  0
  153.0186  137.2964  163.4163 H   0  0  0  0  0  0  0  0  0  0  0  0
  153.8697  135.9365  162.6864 H   0  0  0  0  0  0  0  0  0  0  0  0
  154.7929  137.0170  165.0101 H   0  0  0  0  0  0  0  0  0  0  0  0
  155.9267  136.4949  163.7585 H   0  0  0  0  0  0  0  0  0  0  0  0
  154.3211  142.4683  161.4949 H   0  0  0  0  0  0  0  0  0  0  0  0
  152.7469  144.2536  161.1485 H   0  0  0  0  0  0  0  0  0  0  0  0
  153.7224  137.6392  160.9891 H   0  0  0  0  0  0  0  0  0  0  0  0
  1  2  1  0  0  0  0
  1 20  1  0  0  0  0
  1 21  1  0  0  0  0
  1 22  1  0  0  0  0
  2  3  1  0  0  0  0
  3  4  1  0  0  0  0
  3 23  1  0  0  0  0
  3 24  1  0  0  0  0
  4  5  1  0  0  0  0
  4 25  1  0  0  0  0
  4 26  1  0  0  0  0
  5 18  1  0  0  0  0
  5  6  1  0  0  0  0
  6  7  2  0  0  0  0
  7  8  1  0  0  0  0
  7 16  1  0  0  0  0
  8  9  2  0  0  0  0
  8 10  1  0  0  0  0
 10 11  2  0  0  0  0
 11 15  1  0  0  0  0
 11 12  1  0  0  0  0
 12 13  1  0  0  0  0
 12 33  1  0  0  0  0
 13 14  1  0  0  0  0
 13 27  1  0  0  0  0
 13 28  1  0  0  0  0
 14 15  1  0  0  0  0
 14 29  1  0  0  0  0
 14 30  1  0  0  0  0
 16 17  2  0  0  0  0
 16 31  1  0  0  0  0
 17 18  1  0  0  0  0
 17 32  1  0  0  0  0
 18 19  2  0  0  0  0
M  END
> <s_m_source_file>
AV-unprocessed.smi

> <i_m_source_file_index>
600

> <i_lp_mmshare_version>
43012

> <i_f3d_flags>
0

> <s_epik_input>
W0NIM11PW0NIMl1bQ0gyXW4xbmMoW2NIXVtjSF1jMT1PKUMoPU8pW05IXUMyPU5bQ0gyXVtDSDJdUzI=

> <s_epik_cmdline>
J2VwaWtfcHl0aG9uJywgJy1waCcsICc3LjAnLCAnLXRuJywgJzgnLCAnLW1hJywgJzIwMCcsICctbWV0YWxfYmluZGluZycsICctaW1hZScsICc8aW5maWxlLm1hZT4nLCAnLW9tYWUnLCAnPG91dGZpbGUubWFlPic=

> <r_epik_Ionization_Penalty>
0.0115713

> <r_epik_Ionization_Penalty_Charging>
8.15052e-11

> <r_epik_Ionization_Penalty_Neutral>
0.0115713

> <r_epik_State_Penalty>
0.0066973

> <r_epik_Charging_Adjusted_Penalty>
0.0066973

> <i_epik_Tot_Q>
0

> <i_epik_Tot_abs_Q>
0

> <r_epik_Metal_State_Penalty>
-0

> <b_epik_Metal_Only>
0

> <s_epik_Chemistry_Notes>
This compound has an imine and may undergo hydrolysis.

> <s_lp_Force_Field>
OPLS_2005

> <r_lp_Energy>
40.8102

> <b_lp_Chiralities_Consistent>
1

> <s_lp_Variant>
AV-unprocessed.smi:600-1

> <Gold.Version>
5.8.1

> <Gold.Id.Protein>
6NUR|6NUR_protein|mol2

> <Gold.PLP.Fitness>
37.8545

> <Gold.PLP.PLP>
-37.0066

> <Gold.PLP.part.hbond>
-1.8440

> <Gold.PLP.part.metal>
0.0000

> <Gold.PLP.part.buried>
-5.3525

> <Gold.PLP.part.nonpolar>
-30.4502

> <Gold.PLP.part.repulsive>
0.1308

> <Gold.PLP.ligand.clash>
0.0000

> <Gold.PLP.ligand.torsion>
1.0866

> <Gold.PLP.Chemscore.Hbond>
1.0000

> <Gold.PLP.Chemscore.CHOScore>
0.0000

> <Gold.PLP.Chemscore.Metal>
0.0000

> <Gold.Chemscore.Hbonds>
donor molecule, donor type, donor heavy atom, donor atom, acceptor molecule, acceptor atom, score
      P1  H  7997  8009       L1     9  1.00

> <Gold.PLP.Chemscore.Internal.Correction>
0.0211

> <Gold.Rescore>
     Score         DG    S(hbond)    S(metal)    S(lipo)     H(rot)  DE(clash)    DE(int)     intcor
     10.98     -13.90       0.99        0.00      77.37       1.54       0.04       2.88       ----

> <Gold.Chemscore.Fitness>
10.9805

> <Gold.Chemscore.DG>
-13.8967

> <Gold.Chemscore.ZeroCoef>
-5.4800

> <Gold.Chemscore.Hbond>
0.9920

> <Gold.Chemscore.Metal>
0.0000

> <Gold.Chemscore.Lipo>
77.3690

> <Gold.Chemscore.Internal_Hbond>
0.0000

> <Gold.Chemscore.DEClash>
0.0405

> <Gold.Chemscore.DEInternal>
2.8757

> <Gold.Chemscore.Rot>
1.5425

> <Gold.Chemscore.Internal.Correction>
   9.000000E+99

> <Gold.Chemscore.Hbonds>
donor molecule, donor type, donor heavy atom, donor atom, acceptor molecule, acceptor atom, score
      P1  H  7997  8009       L1     9  0.96

> <Gold.Chemscore.Hbond.Weighted>
-3.3134

> <Gold.Chemscore.Metal.Weighted>
-0.0000

> <Gold.Chemscore.Lipo.Weighted>
-9.0522

> <Gold.Chemscore.Internal_Hbond.Weighted>
0.0000

> <Gold.Chemscore.DEClash.Weighted>
0.0405

> <Gold.Chemscore.DEInternal.Weighted>
2.8757

> <Gold.Chemscore.Rot.Weighted>
3.9489

> <Gold.Chemscore.Internal.Correction.Weighted>
   9.000000E+99

> <Gold.Protein.RotatedTorsions>
[ 6907 6896 6895 6894 ] final    3.14 input  -60.11 | X-H torsion
[ 7974 7965 7964 7962 ] final -100.77 input  175.53 | X-H torsion
[ 8008 7997 7996 7995 ] final  124.15 input   59.86 | X-H torsion
[ 10167 10162 10161 10158 ] final  -61.78 input  -65.29 | X-H torsion
[ 10718 10713 10712 10709 ] final   30.50 input   66.30 | X-H torsion
[ 10763 10752 10751 10750 ] final  124.08 input  -60.55 | X-H torsion
[ 11005 11000 10999 10996 ] final  -62.16 input  -57.11 | X-H torsion

> <Gold.Protein.ActiveResidues>
 VAL166  LYS551  ARG553  GLY616  TRP617  ASP618  TYR619  PRO620  LYS621  CYS622 
 ASP623  PHE694  ASN695  SER759  ASP760  ASP761  ALA762  ILE779  LEU786  VAL792 
 PHE793  MET794  SER795  GLU796  ALA797  LYS798  CYS799  TRP800  GLU811  SER814 

> <Gold.Protein.RotatedAtoms>
  151.6202  135.1032  160.0099 H   0  0  0  0  0  0  0  0  0  0  0  0  # atno 6907 bound_to 6896
  152.4161  133.7037  159.6449 H   0  0  0  0  0  0  0  0  0  0  0  0  # atno 6908 bound_to 6896
  150.8050  133.8454  159.3231 H   0  0  0  0  0  0  0  0  0  0  0  0  # atno 6909 bound_to 6896
  145.2902  140.9350  143.2882 H   0  0  0  0  0  0  0  0  0  0  0  0  # atno 7974 bound_to 7965
  156.2791  140.2746  156.1742 H   0  0  0  0  0  0  0  0  0  0  0  0  # atno 8008 bound_to 7997
  155.0623  140.0386  157.2598 H   0  0  0  0  0  0  0  0  0  0  0  0  # atno 8009 bound_to 7997
  154.7107  140.2668  155.6637 H   0  0  0  0  0  0  0  0  0  0  0  0  # atno 8010 bound_to 7997
  140.5983  143.2355  151.5986 H   0  0  0  0  0  0  0  0  0  0  0  0  # atno 10167 bound_to 10162
  157.2603  130.7158  149.6450 H   0  0  0  0  0  0  0  0  0  0  0  0  # atno 10718 bound_to 10713
  153.6557  135.3355  155.3113 H   0  0  0  0  0  0  0  0  0  0  0  0  # atno 10763 bound_to 10752
  154.8527  135.4351  154.1857 H   0  0  0  0  0  0  0  0  0  0  0  0  # atno 10764 bound_to 10752
  153.2811  135.7009  153.7460 H   0  0  0  0  0  0  0  0  0  0  0  0  # atno 10765 bound_to 10752
  141.1350  133.6637  156.5485 H   0  0  0  0  0  0  0  0  0  0  0  0  # atno 11005 bound_to 11000
  144.9179  139.4447  143.6555 LP  0  0  0  0  0  0  0  0  0  0  0  0  # atno 17320 bound_to 7965
  146.3187  139.8023  142.8963 LP  0  0  0  0  0  0  0  0  0  0  0  0  # atno 17321 bound_to 7965
  139.5273  144.3020  152.1065 LP  0  0  0  0  0  0  0  0  0  0  0  0  # atno 17342 bound_to 10162
  140.2196  144.4480  150.6348 LP  0  0  0  0  0  0  0  0  0  0  0  0  # atno 17343 bound_to 10162
  155.9664  130.4399  150.5279 LP  0  0  0  0  0  0  0  0  0  0  0  0  # atno 17370 bound_to 10713
  157.3182  131.0677  151.1951 LP  0  0  0  0  0  0  0  0  0  0  0  0  # atno 17371 bound_to 10713
  140.4083  134.7295  157.4821 LP  0  0  0  0  0  0  0  0  0  0  0  0  # atno 17394 bound_to 11000
  140.0446  134.6218  155.8938 LP  0  0  0  0  0  0  0  0  0  0  0  0  # atno 17395 bound_to 11000

$$$$
