AV-unprocessed.smi:3028|AV-procd|sdf|11521|dock3
  -GOLD-   2272016463D 1   1.00000     0.00000
 Structure written by MMmdl.
 47 48  0  0  0  0  0  0  0  0  1 V2000
  141.0286  142.0364  155.9872 C   0  0  0  0  0  0  0  0  0  0  0  0
  142.4926  142.3075  156.1805 C   0  0  0  0  0  0  0  0  0  0  0  0
  143.2399  142.2569  157.3911 C   0  0  0  0  0  0  0  0  0  0  0  0
  144.5173  142.5543  157.2200 N   0  0  0  0  0  0  0  0  0  0  0  0
  144.6346  142.8049  155.8978 N   0  0  0  0  0  0  0  0  0  0  0  0
  145.9301  143.1766  155.3415 C   0  0  2  0  0  0  0  0  0  0  0  0
  145.7773  143.4686  153.8366 C   0  0  0  0  0  0  0  0  0  0  0  0
  147.0172  142.1084  155.6393 C   0  0  2  0  0  0  0  0  0  0  0  0
  147.4121  142.0484  157.1316 C   0  0  0  0  0  0  0  0  0  0  0  0
  148.1968  142.4278  154.8384 N   0  0  0  0  0  0  0  0  0  0  0  0
  149.1512  141.3151  154.7239 C   0  0  0  0  0  0  0  0  0  0  0  0
  150.4121  141.5195  155.5789 C   0  0  0  0  0  0  0  0  0  0  0  0
  151.3120  140.6803  155.5703 O   0  0  0  0  0  0  0  0  0  0  0  0
  150.5205  142.6295  156.3286 N   0  0  0  0  0  0  0  0  0  0  0  0
  151.6266  143.0115  157.2041 C   0  0  0  0  0  0  0  0  0  0  0  0
  151.6688  142.0762  158.4221 C   0  0  0  0  0  0  0  0  0  0  0  0
  152.7240  142.5492  159.4354 C   0  0  0  0  0  0  0  0  0  0  0  0
  152.4589  143.8930  159.8236 O   0  0  0  0  0  0  0  0  0  0  0  0
  152.5303  144.8091  158.7361 C   0  0  0  0  0  0  0  0  0  0  0  0
  151.4626  144.4630  157.6858 C   0  0  0  0  0  0  0  0  0  0  0  0
  143.4251  142.6627  155.2475 C   0  0  0  0  0  0  0  0  0  0  0  0
  140.5754  141.6014  156.8782 H   0  0  0  0  0  0  0  0  0  0  0  0
  140.8524  141.3415  155.1658 H   0  0  0  0  0  0  0  0  0  0  0  0
  140.4784  142.9497  155.7603 H   0  0  0  0  0  0  0  0  0  0  0  0
  142.8928  142.0149  158.3849 H   0  0  0  0  0  0  0  0  0  0  0  0
  146.2329  144.1079  155.8254 H   0  0  0  0  0  0  0  0  0  0  0  0
  146.6994  143.8616  153.4082 H   0  0  0  0  0  0  0  0  0  0  0  0
  144.9984  144.2111  153.6610 H   0  0  0  0  0  0  0  0  0  0  0  0
  145.5112  142.5695  153.2798 H   0  0  0  0  0  0  0  0  0  0  0  0
  146.6267  141.1348  155.3389 H   0  0  0  0  0  0  0  0  0  0  0  0
  146.5612  141.7951  157.7638 H   0  0  0  0  0  0  0  0  0  0  0  0
  147.8031  143.0066  157.4754 H   0  0  0  0  0  0  0  0  0  0  0  0
  148.1706  141.2912  157.3258 H   0  0  0  0  0  0  0  0  0  0  0  0
  148.6352  143.2672  155.1901 H   0  0  0  0  0  0  0  0  0  0  0  0
  148.6748  140.3868  155.0367 H   0  0  0  0  0  0  0  0  0  0  0  0
  149.4471  141.2026  153.6806 H   0  0  0  0  0  0  0  0  0  0  0  0
  149.7497  143.2805  156.2851 H   0  0  0  0  0  0  0  0  0  0  0  0
  152.5788  142.9153  156.6811 H   0  0  0  0  0  0  0  0  0  0  0  0
  150.6923  142.0534  158.9082 H   0  0  0  0  0  0  0  0  0  0  0  0
  151.8848  141.0547  158.1072 H   0  0  0  0  0  0  0  0  0  0  0  0
  152.7013  141.9159  160.3224 H   0  0  0  0  0  0  0  0  0  0  0  0
  153.7285  142.4724  159.0161 H   0  0  0  0  0  0  0  0  0  0  0  0
  152.3696  145.8185  159.1150 H   0  0  0  0  0  0  0  0  0  0  0  0
  153.5285  144.7902  158.2957 H   0  0  0  0  0  0  0  0  0  0  0  0
  151.5281  145.1569  156.8476 H   0  0  0  0  0  0  0  0  0  0  0  0
  150.4728  144.5986  158.1245 H   0  0  0  0  0  0  0  0  0  0  0  0
  143.3291  142.8254  154.1840 H   0  0  0  0  0  0  0  0  0  0  0  0
  1  2  1  0  0  0  0
  1 22  1  0  0  0  0
  1 23  1  0  0  0  0
  1 24  1  0  0  0  0
  2 21  2  0  0  0  0
  2  3  1  0  0  0  0
  3  4  2  0  0  0  0
  3 25  1  0  0  0  0
  4  5  1  0  0  0  0
  5  6  1  0  0  0  0
  5 21  1  0  0  0  0
  6  7  1  0  0  0  0
  6  8  1  0  0  0  0
  6 26  1  0  0  0  0
  7 27  1  0  0  0  0
  7 28  1  0  0  0  0
  7 29  1  0  0  0  0
  8  9  1  0  0  0  0
  8 10  1  0  0  0  0
  8 30  1  0  0  0  0
  9 31  1  0  0  0  0
  9 32  1  0  0  0  0
  9 33  1  0  0  0  0
 10 11  1  0  0  0  0
 10 34  1  0  0  0  0
 11 12  1  0  0  0  0
 11 35  1  0  0  0  0
 11 36  1  0  0  0  0
 12 13  2  0  0  0  0
 12 14  1  0  0  0  0
 14 15  1  0  0  0  0
 14 37  1  0  0  0  0
 15 20  1  0  0  0  0
 15 16  1  0  0  0  0
 15 38  1  0  0  0  0
 16 17  1  0  0  0  0
 16 39  1  0  0  0  0
 16 40  1  0  0  0  0
 17 18  1  0  0  0  0
 17 41  1  0  0  0  0
 17 42  1  0  0  0  0
 18 19  1  0  0  0  0
 19 20  1  0  0  0  0
 19 43  1  0  0  0  0
 19 44  1  0  0  0  0
 20 45  1  0  0  0  0
 20 46  1  0  0  0  0
 21 47  1  0  0  0  0
M  END
> <s_m_source_file>
AV-unprocessed.smi

> <i_m_source_file_index>
3028

> <i_lp_mmshare_version>
43012

> <i_f3d_flags>
0

> <s_epik_input>
W0NIM11jMVtjSF1ubihbY0hdMSlbQ0BIXShbQ0gzXSlbQ0BIXShbQ0gzXSlbTkhdW0NIMl1DKD1PKVtOSF1bQ0hdMltDSDJdW0NIMl1PW0NIMl1bQ0gyXTI=

> <s_epik_cmdline>
J2VwaWtfcHl0aG9uJywgJy1waCcsICc3LjAnLCAnLXRuJywgJzgnLCAnLW1hJywgJzIwMCcsICctbWV0YWxfYmluZGluZycsICctaW1hZScsICc8aW5maWxlLm1hZT4nLCAnLW9tYWUnLCAnPG91dGZpbGUubWFlPic=

> <r_lp_tautomer_probability>
1

> <r_epik_Ionization_Penalty>
0.88617

> <r_epik_Ionization_Penalty_Charging>
0

> <r_epik_Ionization_Penalty_Neutral>
0.88617

> <r_epik_State_Penalty>
0.921066

> <r_epik_Charging_Adjusted_Penalty>
0.921066

> <i_epik_Tot_Q>
0

> <i_epik_Tot_abs_Q>
0

> <r_epik_Metal_State_Penalty>
0.917309

> <b_epik_Metal_Only>
0

> <s_lp_Force_Field>
OPLS_2005

> <r_lp_Energy>
19.247

> <b_lp_Chiralities_Consistent>
1

> <s_lp_Variant>
AV-unprocessed.smi:3028-5

> <Gold.Version>
5.8.1

> <Gold.Id.Protein>
6NUR|6NUR_protein|mol2

> <Gold.PLP.Fitness>
47.1144

> <Gold.PLP.PLP>
-37.7497

> <Gold.PLP.part.hbond>
-2.9952

> <Gold.PLP.part.metal>
0.0000

> <Gold.PLP.part.buried>
-5.5908

> <Gold.PLP.part.nonpolar>
-28.2062

> <Gold.PLP.part.repulsive>
0.1196

> <Gold.PLP.ligand.clash>
0.0000

> <Gold.PLP.ligand.torsion>
0.6862

> <Gold.PLP.Chemscore.Hbond>
2.5291

> <Gold.PLP.Chemscore.CHOScore>
1.0000

> <Gold.PLP.Chemscore.Metal>
0.0000

> <Gold.Chemscore.Hbonds>
donor molecule, donor type, donor heavy atom, donor atom, acceptor molecule, acceptor atom, score
      L1  H    10    34       P1  8028  0.99
      L1  H    14    37       P1  8028  1.00
      P1  H  7989  7998       L1    13  0.43
      L1  C    21    47       P1 10174  1.00

> <Gold.PLP.Chemscore.Internal.Correction>
0.1498

> <Gold.Rescore>
     Score         DG    S(hbond)    S(metal)    S(lipo)     H(rot)  DE(clash)    DE(int)     intcor
     15.95     -17.16       1.96        0.00      86.06       1.92       0.32       0.89       ----

> <Gold.Chemscore.Fitness>
15.9513

> <Gold.Chemscore.DG>
-17.1615

> <Gold.Chemscore.ZeroCoef>
-5.4800

> <Gold.Chemscore.Hbond>
1.9568

> <Gold.Chemscore.Metal>
0.0000

> <Gold.Chemscore.Lipo>
86.0641

> <Gold.Chemscore.Internal_Hbond>
0.0000

> <Gold.Chemscore.DEClash>
0.3173

> <Gold.Chemscore.DEInternal>
0.8929

> <Gold.Chemscore.Rot>
1.9233

> <Gold.Chemscore.Internal.Correction>
   9.000000E+99

> <Gold.Chemscore.Hbonds>
donor molecule, donor type, donor heavy atom, donor atom, acceptor molecule, acceptor atom, score
      L1  H    10    34       P1  8028  0.93
      L1  H    14    37       P1  8028  0.98
      P1  H  7989  7998       L1    13  0.04

> <Gold.Chemscore.Hbond.Weighted>
-6.5356

> <Gold.Chemscore.Metal.Weighted>
-0.0000

> <Gold.Chemscore.Lipo.Weighted>
-10.0695

> <Gold.Chemscore.Internal_Hbond.Weighted>
0.0000

> <Gold.Chemscore.DEClash.Weighted>
0.3173

> <Gold.Chemscore.DEInternal.Weighted>
0.8929

> <Gold.Chemscore.Rot.Weighted>
4.9235

> <Gold.Chemscore.Internal.Correction.Weighted>
   9.000000E+99

> <Gold.Protein.RotatedTorsions>
[ 6907 6896 6895 6894 ] final   -6.86 input  -60.11 | X-H torsion
[ 7974 7965 7964 7962 ] final  -76.04 input  175.53 | X-H torsion
[ 8008 7997 7996 7995 ] final   57.65 input   59.86 | X-H torsion
[ 10167 10162 10161 10158 ] final   67.00 input  -65.29 | X-H torsion
[ 10718 10713 10712 10709 ] final  176.55 input   66.30 | X-H torsion
[ 10763 10752 10751 10750 ] final -125.94 input  -60.55 | X-H torsion
[ 11005 11000 10999 10996 ] final -137.10 input  -57.11 | X-H torsion

> <Gold.Protein.ActiveResidues>
 VAL166  LYS551  ARG553  GLY616  TRP617  ASP618  TYR619  PRO620  LYS621  CYS622 
 ASP623  PHE694  ASN695  SER759  ASP760  ASP761  ALA762  ILE779  LEU786  VAL792 
 PHE793  MET794  SER795  GLU796  ALA797  LYS798  CYS799  TRP800  GLU811  SER814 

> <Gold.Protein.RotatedAtoms>
  151.4587  135.1036  159.9718 H   0  0  0  0  0  0  0  0  0  0  0  0  # atno 6907 bound_to 6896
  152.4861  133.8372  159.7144 H   0  0  0  0  0  0  0  0  0  0  0  0  # atno 6908 bound_to 6896
  150.8972  133.7106  159.2916 H   0  0  0  0  0  0  0  0  0  0  0  0  # atno 6909 bound_to 6896
  145.6181  140.9370  143.1153 H   0  0  0  0  0  0  0  0  0  0  0  0  # atno 7974 bound_to 7965
  155.5372  140.3483  155.4439 H   0  0  0  0  0  0  0  0  0  0  0  0  # atno 8008 bound_to 7997
  156.0677  140.1355  156.9892 H   0  0  0  0  0  0  0  0  0  0  0  0  # atno 8009 bound_to 7997
  154.4512  140.0972  156.6597 H   0  0  0  0  0  0  0  0  0  0  0  0  # atno 8010 bound_to 7997
  140.0943  144.4960  150.7078 H   0  0  0  0  0  0  0  0  0  0  0  0  # atno 10167 bound_to 10162
  156.9185  130.9933  151.3009 H   0  0  0  0  0  0  0  0  0  0  0  0  # atno 10718 bound_to 10713
  154.8741  135.4012  154.3350 H   0  0  0  0  0  0  0  0  0  0  0  0  # atno 10763 bound_to 10752
  153.4158  135.7022  153.6333 H   0  0  0  0  0  0  0  0  0  0  0  0  # atno 10764 bound_to 10752
  153.5016  135.3726  155.2513 H   0  0  0  0  0  0  0  0  0  0  0  0  # atno 10765 bound_to 10752
  140.8743  134.2011  157.4631 H   0  0  0  0  0  0  0  0  0  0  0  0  # atno 11005 bound_to 11000
  144.7242  139.7930  143.7371 LP  0  0  0  0  0  0  0  0  0  0  0  0  # atno 17320 bound_to 7965
  146.1452  139.4520  143.0083 LP  0  0  0  0  0  0  0  0  0  0  0  0  # atno 17321 bound_to 7965
  140.7012  143.2436  151.4860 LP  0  0  0  0  0  0  0  0  0  0  0  0  # atno 17342 bound_to 10162
  139.5707  144.1936  152.1831 LP  0  0  0  0  0  0  0  0  0  0  0  0  # atno 17343 bound_to 10162
  157.5923  130.8452  149.8677 LP  0  0  0  0  0  0  0  0  0  0  0  0  # atno 17370 bound_to 10713
  156.0502  130.3719  150.1219 LP  0  0  0  0  0  0  0  0  0  0  0  0  # atno 17371 bound_to 10713
  139.8714  134.9788  156.5014 LP  0  0  0  0  0  0  0  0  0  0  0  0  # atno 17394 bound_to 11000
  140.8536  133.8113  155.9194 LP  0  0  0  0  0  0  0  0  0  0  0  0  # atno 17395 bound_to 11000

$$$$
