AV-unprocessed.smi:2153|AV-procd|sdf|8768|dock5
  -GOLD-   2272011543D 1   1.00000     0.00000
 Structure written by MMmdl.
 48 49  0  0  0  0  0  0  0  0  1 V2000
  153.1471  141.8737  161.4606 C   0  0  0  0  0  0  0  0  0  0  0  0
  153.0041  143.1767  160.6588 C   0  0  2  0  0  0  0  0  0  0  0  0
  152.0078  144.1504  161.3226 C   0  0  0  0  0  0  0  0  0  0  0  0
  151.8962  145.4669  160.5381 C   0  0  0  0  0  0  0  0  0  0  0  0
  151.5340  145.2101  159.0685 C   0  0  0  0  0  0  0  0  0  0  0  0
  152.5296  144.2443  158.4074 C   0  0  0  0  0  0  0  0  0  0  0  0
  152.6253  142.9127  159.1836 C   0  0  2  0  0  0  0  0  0  0  0  0
  151.3792  142.2271  159.1722 O   0  0  0  0  0  0  0  0  0  0  0  0
  150.9573  141.7310  157.9110 C   0  0  0  0  0  0  0  0  0  0  0  0
  152.0234  140.7609  157.3773 C   0  0  0  0  0  0  0  0  0  0  0  0
  151.6265  140.1717  156.1015 N   0  0  0  0  0  0  0  0  0  0  0  0
  152.2934  139.1995  155.4599 C   0  0  0  0  0  0  0  0  0  0  0  0
  153.3589  138.7336  155.8630 O   0  0  0  0  0  0  0  0  0  0  0  0
  151.6741  138.6874  154.1538 C   0  0  0  0  0  0  0  0  0  0  0  0
  150.4239  137.9548  154.3934 N   0  0  0  0  0  0  0  0  0  0  0  0
  149.2232  138.5315  154.0201 C   0  0  0  0  0  0  0  0  0  0  0  0
  148.0208  137.9502  154.2224 C   0  0  0  0  0  0  0  0  0  0  0  0
  147.9195  136.6505  154.8734 C   0  0  0  0  0  0  0  0  0  0  0  0
  146.8474  136.0780  155.0726 O   0  0  0  0  0  0  0  0  0  0  0  0
  149.1590  136.0862  155.2550 N   0  0  0  0  0  0  0  0  0  0  0  0
  149.1318  134.7916  155.9039 C   0  0  0  0  0  0  0  0  0  0  0  0
  150.4167  136.6841  155.0109 C   0  0  0  0  0  0  0  0  0  0  0  0
  151.4751  136.1302  155.3166 O   0  0  0  0  0  0  0  0  0  0  0  0
  152.1989  141.3392  161.5270 H   0  0  0  0  0  0  0  0  0  0  0  0
  153.4845  142.0753  162.4774 H   0  0  0  0  0  0  0  0  0  0  0  0
  153.8748  141.2064  160.9982 H   0  0  0  0  0  0  0  0  0  0  0  0
  153.9828  143.6585  160.6626 H   0  0  0  0  0  0  0  0  0  0  0  0
  151.0233  143.6860  161.3937 H   0  0  0  0  0  0  0  0  0  0  0  0
  152.3196  144.3633  162.3455 H   0  0  0  0  0  0  0  0  0  0  0  0
  151.1476  146.1112  160.9991 H   0  0  0  0  0  0  0  0  0  0  0  0
  152.8429  146.0055  160.5917 H   0  0  0  0  0  0  0  0  0  0  0  0
  150.5312  144.7879  159.0111 H   0  0  0  0  0  0  0  0  0  0  0  0
  151.5066  146.1527  158.5215 H   0  0  0  0  0  0  0  0  0  0  0  0
  152.2506  144.0759  157.3680 H   0  0  0  0  0  0  0  0  0  0  0  0
  153.5143  144.7122  158.3770 H   0  0  0  0  0  0  0  0  0  0  0  0
  153.3919  142.2803  158.7320 H   0  0  0  0  0  0  0  0  0  0  0  0
  149.9952  141.2241  157.9797 H   0  0  0  0  0  0  0  0  0  0  0  0
  150.8383  142.5647  157.2177 H   0  0  0  0  0  0  0  0  0  0  0  0
  152.9550  141.3024  157.2139 H   0  0  0  0  0  0  0  0  0  0  0  0
  152.2421  139.9851  158.1132 H   0  0  0  0  0  0  0  0  0  0  0  0
  150.7669  140.5075  155.6922 H   0  0  0  0  0  0  0  0  0  0  0  0
  151.4938  139.5221  153.4741 H   0  0  0  0  0  0  0  0  0  0  0  0
  152.3990  138.0501  153.6444 H   0  0  0  0  0  0  0  0  0  0  0  0
  149.2441  139.5011  153.5441 H   0  0  0  0  0  0  0  0  0  0  0  0
  147.1212  138.4569  153.9053 H   0  0  0  0  0  0  0  0  0  0  0  0
  150.0126  134.6723  156.5358 H   0  0  0  0  0  0  0  0  0  0  0  0
  149.1040  134.0411  155.1130 H   0  0  0  0  0  0  0  0  0  0  0  0
  148.2507  134.7313  156.5449 H   0  0  0  0  0  0  0  0  0  0  0  0
  1  2  1  0  0  0  0
  1 24  1  0  0  0  0
  1 25  1  0  0  0  0
  1 26  1  0  0  0  0
  2  7  1  0  0  0  0
  2  3  1  0  0  0  0
  2 27  1  0  0  0  0
  3  4  1  0  0  0  0
  3 28  1  0  0  0  0
  3 29  1  0  0  0  0
  4  5  1  0  0  0  0
  4 30  1  0  0  0  0
  4 31  1  0  0  0  0
  5  6  1  0  0  0  0
  5 32  1  0  0  0  0
  5 33  1  0  0  0  0
  6  7  1  0  0  0  0
  6 34  1  0  0  0  0
  6 35  1  0  0  0  0
  7  8  1  0  0  0  0
  7 36  1  0  0  0  0
  8  9  1  0  0  0  0
  9 10  1  0  0  0  0
  9 37  1  0  0  0  0
  9 38  1  0  0  0  0
 10 11  1  0  0  0  0
 10 39  1  0  0  0  0
 10 40  1  0  0  0  0
 11 12  1  0  0  0  0
 11 41  1  0  0  0  0
 12 13  2  0  0  0  0
 12 14  1  0  0  0  0
 14 15  1  0  0  0  0
 14 42  1  0  0  0  0
 14 43  1  0  0  0  0
 15 22  1  0  0  0  0
 15 16  1  0  0  0  0
 16 17  2  0  0  0  0
 16 44  1  0  0  0  0
 17 18  1  0  0  0  0
 17 45  1  0  0  0  0
 18 19  2  0  0  0  0
 18 20  1  0  0  0  0
 20 21  1  0  0  0  0
 20 22  1  0  0  0  0
 21 46  1  0  0  0  0
 21 47  1  0  0  0  0
 21 48  1  0  0  0  0
 22 23  2  0  0  0  0
M  END
> <s_m_source_file>
AV-unprocessed.smi

> <i_m_source_file_index>
2153

> <i_lp_mmshare_version>
43012

> <i_f3d_flags>
0

> <s_epik_input>
W0NIM11bQ0BASF0xW0NIMl1bQ0gyXVtDSDJdW0NIMl1bQ0BIXTFPW0NIMl1bQ0gyXVtOSF1DKD1PKVtDSDJdbjJbY0hdW2NIXWMoPU8pbihbQ0gzXSljMj1P

> <s_epik_cmdline>
J2VwaWtfcHl0aG9uJywgJy1waCcsICc3LjAnLCAnLXRuJywgJzgnLCAnLW1hJywgJzIwMCcsICctbWV0YWxfYmluZGluZycsICctaW1hZScsICc8aW5maWxlLm1hZT4nLCAnLW9tYWUnLCAnPG91dGZpbGUubWFlPic=

> <r_lp_tautomer_probability>
1

> <r_epik_Ionization_Penalty>
4.02205e-08

> <r_epik_Ionization_Penalty_Charging>
1.23606e-08

> <r_epik_Ionization_Penalty_Neutral>
2.78599e-08

> <r_epik_State_Penalty>
-0

> <r_epik_Charging_Adjusted_Penalty>
1.23606e-08

> <i_epik_Tot_Q>
0

> <i_epik_Tot_abs_Q>
0

> <r_epik_Metal_State_Penalty>
-0

> <b_epik_Metal_Only>
0

> <s_lp_Force_Field>
OPLS_2005

> <r_lp_Energy>
17.534

> <b_lp_Chiralities_Consistent>
1

> <s_lp_Variant>
AV-unprocessed.smi:2153-3

> <Gold.Version>
5.8.1

> <Gold.Id.Protein>
6NUR|6NUR_protein|mol2

> <Gold.PLP.Fitness>
54.9329

> <Gold.PLP.PLP>
-46.3617

> <Gold.PLP.part.hbond>
-2.0000

> <Gold.PLP.part.metal>
0.0000

> <Gold.PLP.part.buried>
-4.9518

> <Gold.PLP.part.nonpolar>
-39.3628

> <Gold.PLP.part.repulsive>
0.2906

> <Gold.PLP.ligand.clash>
0.0000

> <Gold.PLP.ligand.torsion>
0.2260

> <Gold.PLP.Chemscore.Hbond>
2.0000

> <Gold.PLP.Chemscore.CHOScore>
0.9811

> <Gold.PLP.Chemscore.Metal>
0.0000

> <Gold.Chemscore.Hbonds>
donor molecule, donor type, donor heavy atom, donor atom, acceptor molecule, acceptor atom, score
      P1  H  7997  8008       L1    13  0.96
      P1  H 10752 10763       L1    23  1.00
      L1  C    16    44       P1  7957  0.97

> <Gold.PLP.Chemscore.Internal.Correction>
0.0798

> <Gold.Rescore>
     Score         DG    S(hbond)    S(metal)    S(lipo)     H(rot)  DE(clash)    DE(int)     intcor
     19.97     -20.26       1.95        0.00     118.56       2.20       0.09       0.20       ----

> <Gold.Chemscore.Fitness>
19.9671

> <Gold.Chemscore.DG>
-20.2573

> <Gold.Chemscore.ZeroCoef>
-5.4800

> <Gold.Chemscore.Hbond>
1.9549

> <Gold.Chemscore.Metal>
0.0000

> <Gold.Chemscore.Lipo>
118.5621

> <Gold.Chemscore.Internal_Hbond>
0.0000

> <Gold.Chemscore.DEClash>
0.0920

> <Gold.Chemscore.DEInternal>
0.1982

> <Gold.Chemscore.Rot>
2.1968

> <Gold.Chemscore.Internal.Correction>
   9.000000E+99

> <Gold.Chemscore.Hbonds>
donor molecule, donor type, donor heavy atom, donor atom, acceptor molecule, acceptor atom, score
      P1  H  7997  8008       L1    13  0.51
      P1  H 10752 10763       L1    23  1.00

> <Gold.Chemscore.Hbond.Weighted>
-6.5293

> <Gold.Chemscore.Metal.Weighted>
-0.0000

> <Gold.Chemscore.Lipo.Weighted>
-13.8718

> <Gold.Chemscore.Internal_Hbond.Weighted>
0.0000

> <Gold.Chemscore.DEClash.Weighted>
0.0920

> <Gold.Chemscore.DEInternal.Weighted>
0.1982

> <Gold.Chemscore.Rot.Weighted>
5.6238

> <Gold.Chemscore.Internal.Correction.Weighted>
   9.000000E+99

> <Gold.Protein.RotatedTorsions>
[ 6907 6896 6895 6894 ] final  110.17 input  -60.11 | X-H torsion
[ 7974 7965 7964 7962 ] final  162.90 input  175.53 | X-H torsion
[ 8008 7997 7996 7995 ] final  -38.31 input   59.86 | X-H torsion
[ 10167 10162 10161 10158 ] final -166.39 input  -65.29 | X-H torsion
[ 10718 10713 10712 10709 ] final  -42.98 input   66.30 | X-H torsion
[ 10763 10752 10751 10750 ] final   77.94 input  -60.55 | X-H torsion
[ 11005 11000 10999 10996 ] final  -29.92 input  -57.11 | X-H torsion

> <Gold.Protein.ActiveResidues>
 VAL166  LYS551  ARG553  GLY616  TRP617  ASP618  TYR619  PRO620  LYS621  CYS622 
 ASP623  PHE694  ASN695  SER759  ASP760  ASP761  ALA762  ILE779  LEU786  VAL792 
 PHE793  MET794  SER795  GLU796  ALA797  LYS798  CYS799  TRP800  GLU811  SER814 

> <Gold.Protein.RotatedAtoms>
  152.5033  133.8839  159.7359 H   0  0  0  0  0  0  0  0  0  0  0  0  # atno 6907 bound_to 6896
  150.9295  133.6775  159.2821 H   0  0  0  0  0  0  0  0  0  0  0  0  # atno 6908 bound_to 6896
  151.4125  135.0991  159.9642 H   0  0  0  0  0  0  0  0  0  0  0  0  # atno 6909 bound_to 6896
  144.7615  139.8106  143.6331 H   0  0  0  0  0  0  0  0  0  0  0  0  # atno 7974 bound_to 7965
  154.4039  140.1581  156.2679 H   0  0  0  0  0  0  0  0  0  0  0  0  # atno 8008 bound_to 7997
  155.8979  140.3435  155.5982 H   0  0  0  0  0  0  0  0  0  0  0  0  # atno 8009 bound_to 7997
  155.7482  140.0801  157.2204 H   0  0  0  0  0  0  0  0  0  0  0  0  # atno 8010 bound_to 7997
  139.6118  144.0799  152.1849 H   0  0  0  0  0  0  0  0  0  0  0  0  # atno 10167 bound_to 10162
  156.2539  130.4190  149.8618 H   0  0  0  0  0  0  0  0  0  0  0  0  # atno 10718 bound_to 10713
  153.0837  135.4895  154.8553 H   0  0  0  0  0  0  0  0  0  0  0  0  # atno 10763 bound_to 10752
  154.7183  135.3034  154.9091 H   0  0  0  0  0  0  0  0  0  0  0  0  # atno 10764 bound_to 10752
  153.9763  135.6795  153.4801 H   0  0  0  0  0  0  0  0  0  0  0  0  # atno 10765 bound_to 10752
  140.9338  133.7321  156.0974 H   0  0  0  0  0  0  0  0  0  0  0  0  # atno 11005 bound_to 11000
  146.1682  139.4821  142.9945 LP  0  0  0  0  0  0  0  0  0  0  0  0  # atno 17320 bound_to 7965
  145.6606  141.0241  143.1711 LP  0  0  0  0  0  0  0  0  0  0  0  0  # atno 17321 bound_to 7965
  140.0420  144.6000  150.7404 LP  0  0  0  0  0  0  0  0  0  0  0  0  # atno 17342 bound_to 10162
  140.7324  143.2705  151.3903 LP  0  0  0  0  0  0  0  0  0  0  0  0  # atno 17343 bound_to 10162
  156.6157  130.8605  151.3464 LP  0  0  0  0  0  0  0  0  0  0  0  0  # atno 17370 bound_to 10713
  157.7225  130.9577  150.1496 LP  0  0  0  0  0  0  0  0  0  0  0  0  # atno 17371 bound_to 10713
  140.7827  134.3707  157.5483 LP  0  0  0  0  0  0  0  0  0  0  0  0  # atno 17394 bound_to 11000
  139.8803  134.9092  156.2984 LP  0  0  0  0  0  0  0  0  0  0  0  0  # atno 17395 bound_to 11000

$$$$
