AV-unprocessed.smi:1599|AV-procd|sdf|6423|dock6
  -GOLD-   22720 7 63D 1   1.00000     0.00000
 Structure written by MMmdl.
 39 40  0  0  0  0  0  0  0  0  1 V2000
  150.4593  134.0634  156.0652 C   0  0  0  0  0  0  0  0  0  0  0  0
  149.5662  135.2595  155.7009 C   0  0  2  0  0  0  0  0  0  0  0  0
  149.0022  135.0299  154.3726 N   0  0  0  0  0  0  0  0  0  0  0  0
  148.2374  133.9870  154.0184 C   0  0  0  0  0  0  0  0  0  0  0  0
  147.9290  133.0733  154.7836 O   0  0  0  0  0  0  0  0  0  0  0  0
  147.8566  134.0785  152.7338 N   0  0  0  0  0  0  0  0  0  0  0  0
  147.0434  133.1700  152.0105 C   0  0  0  0  0  0  0  0  0  0  0  0
  146.5849  131.9224  152.5070 C   0  0  0  0  0  0  0  0  0  0  0  0
  145.8422  131.2930  151.6091 N   0  0  0  0  0  0  0  0  0  0  0  0
  145.8124  132.1207  150.5341 N   0  0  0  0  0  0  0  0  0  0  0  0
  145.0665  131.7354  149.3494 C   0  0  0  0  0  0  0  0  0  0  0  0
  143.9020  132.6935  149.0918 C   0  0  0  0  0  0  0  0  0  0  0  0
  142.9584  132.7736  150.0341 N   0  0  0  0  0  0  0  0  0  0  0  0
  143.8533  133.3508  148.0543 O   0  0  0  0  0  0  0  0  0  0  0  0
  146.5376  133.2770  150.7458 C   0  0  0  0  0  0  0  0  0  0  0  0
  150.3404  136.5940  155.7181 C   0  0  2  0  0  0  0  0  0  0  0  0
  149.5249  137.8137  155.2853 C   0  0  0  0  0  0  0  0  0  0  0  0
  150.5748  138.7890  154.7755 C   0  0  0  0  0  0  0  0  0  0  0  0
  151.8297  137.9300  154.6015 C   0  0  0  0  0  0  0  0  0  0  0  0
  151.3840  136.5906  154.7557 O   0  0  0  0  0  0  0  0  0  0  0  0
  150.8579  134.1577  157.0754 H   0  0  0  0  0  0  0  0  0  0  0  0
  151.3039  133.9749  155.3810 H   0  0  0  0  0  0  0  0  0  0  0  0
  149.8983  133.1292  156.0250 H   0  0  0  0  0  0  0  0  0  0  0  0
  148.7624  135.3076  156.4379 H   0  0  0  0  0  0  0  0  0  0  0  0
  149.1991  135.7298  153.6725 H   0  0  0  0  0  0  0  0  0  0  0  0
  148.1768  134.8868  152.2210 H   0  0  0  0  0  0  0  0  0  0  0  0
  146.7615  131.4617  153.4678 H   0  0  0  0  0  0  0  0  0  0  0  0
  145.7446  131.7362  148.4950 H   0  0  0  0  0  0  0  0  0  0  0  0
  144.6959  130.7154  149.4638 H   0  0  0  0  0  0  0  0  0  0  0  0
  142.1665  133.3866  149.9027 H   0  0  0  0  0  0  0  0  0  0  0  0
  143.0362  132.2138  150.8708 H   0  0  0  0  0  0  0  0  0  0  0  0
  146.6186  134.0477  149.9936 H   0  0  0  0  0  0  0  0  0  0  0  0
  150.7737  136.7703  156.7049 H   0  0  0  0  0  0  0  0  0  0  0  0
  148.8514  137.5462  154.4698 H   0  0  0  0  0  0  0  0  0  0  0  0
  148.9235  138.2271  156.0955 H   0  0  0  0  0  0  0  0  0  0  0  0
  150.2607  139.2404  153.8337 H   0  0  0  0  0  0  0  0  0  0  0  0
  150.7556  139.5929  155.4898 H   0  0  0  0  0  0  0  0  0  0  0  0
  152.3074  138.0754  153.6323 H   0  0  0  0  0  0  0  0  0  0  0  0
  152.5606  138.1564  155.3790 H   0  0  0  0  0  0  0  0  0  0  0  0
  1  2  1  0  0  0  0
  1 21  1  0  0  0  0
  1 22  1  0  0  0  0
  1 23  1  0  0  0  0
  2  3  1  0  0  0  0
  2 16  1  0  0  0  0
  2 24  1  0  0  0  0
  3  4  1  0  0  0  0
  3 25  1  0  0  0  0
  4  5  2  0  0  0  0
  4  6  1  0  0  0  0
  6  7  1  0  0  0  0
  6 26  1  0  0  0  0
  7 15  2  0  0  0  0
  7  8  1  0  0  0  0
  8  9  2  0  0  0  0
  8 27  1  0  0  0  0
  9 10  1  0  0  0  0
 10 11  1  0  0  0  0
 10 15  1  0  0  0  0
 11 12  1  0  0  0  0
 11 28  1  0  0  0  0
 11 29  1  0  0  0  0
 12 13  1  0  0  0  0
 12 14  2  0  0  0  0
 13 30  1  0  0  0  0
 13 31  1  0  0  0  0
 15 32  1  0  0  0  0
 16 20  1  0  0  0  0
 16 17  1  0  0  0  0
 16 33  1  0  0  0  0
 17 18  1  0  0  0  0
 17 34  1  0  0  0  0
 17 35  1  0  0  0  0
 18 19  1  0  0  0  0
 18 36  1  0  0  0  0
 18 37  1  0  0  0  0
 19 20  1  0  0  0  0
 19 38  1  0  0  0  0
 19 39  1  0  0  0  0
M  END
> <s_m_source_file>
AV-unprocessed.smi

> <i_m_source_file_index>
1599

> <i_lp_mmshare_version>
43012

> <i_f3d_flags>
0

> <s_epik_input>
TzFbQ0gyXVtDSDJdW0NIMl1bQ0BIXTFbQ0BIXShbQ0gzXSlbTkhdQyg9TylbTkhdYzJbY0hdbm4oW2NIXTIpW0NIMl1DKD1PKVtOSDJd

> <s_epik_cmdline>
J2VwaWtfcHl0aG9uJywgJy1waCcsICc3LjAnLCAnLXRuJywgJzgnLCAnLW1hJywgJzIwMCcsICctbWV0YWxfYmluZGluZycsICctaW1hZScsICc8aW5maWxlLm1hZT4nLCAnLW9tYWUnLCAnPG91dGZpbGUubWFlPic=

> <r_lp_tautomer_probability>
1

> <r_epik_Ionization_Penalty>
4.15391e-05

> <r_epik_Ionization_Penalty_Charging>
0

> <r_epik_Ionization_Penalty_Neutral>
4.15391e-05

> <r_epik_State_Penalty>
-0

> <r_epik_Charging_Adjusted_Penalty>
0

> <i_epik_Tot_Q>
0

> <i_epik_Tot_abs_Q>
0

> <r_epik_Metal_State_Penalty>
-0

> <b_epik_Metal_Only>
0

> <s_lp_Force_Field>
OPLS_2005

> <r_lp_Energy>
20.6042

> <b_lp_Chiralities_Consistent>
1

> <s_lp_Variant>
AV-unprocessed.smi:1599-1

> <Gold.Version>
5.8.1

> <Gold.Id.Protein>
6NUR|6NUR_protein|mol2

> <Gold.PLP.Fitness>
45.2480

> <Gold.PLP.PLP>
-32.0091

> <Gold.PLP.part.hbond>
-4.4660

> <Gold.PLP.part.metal>
0.0000

> <Gold.PLP.part.buried>
-4.5121

> <Gold.PLP.part.nonpolar>
-26.2925

> <Gold.PLP.part.repulsive>
2.2996

> <Gold.PLP.ligand.clash>
0.0000

> <Gold.PLP.ligand.torsion>
0.0405

> <Gold.PLP.Chemscore.Hbond>
3.9120

> <Gold.PLP.Chemscore.CHOScore>
0.5181

> <Gold.PLP.Chemscore.Metal>
0.0000

> <Gold.Chemscore.Hbonds>
donor molecule, donor type, donor heavy atom, donor atom, acceptor molecule, acceptor atom, score
      L1  H     3    25       P1  7948  0.90
      L1  H     6    26       P1  7948  1.00
      L1  H    13    30       P1 10186  1.00
      P1  H  7918  7932       L1    14  0.09
      P1  H 10752 10763       L1    20  1.00
      L1  C    15    32       P1  7921  0.41

> <Gold.PLP.Chemscore.Internal.Correction>
0.0294

> <Gold.Rescore>
     Score         DG    S(hbond)    S(metal)    S(lipo)     H(rot)  DE(clash)    DE(int)     intcor
     14.62     -17.18       3.14        0.00      60.26       2.28       0.19       2.37       ----

> <Gold.Chemscore.Fitness>
14.6184

> <Gold.Chemscore.DG>
-17.1831

> <Gold.Chemscore.ZeroCoef>
-5.4800

> <Gold.Chemscore.Hbond>
3.1424

> <Gold.Chemscore.Metal>
0.0000

> <Gold.Chemscore.Lipo>
60.2573

> <Gold.Chemscore.Internal_Hbond>
0.0000

> <Gold.Chemscore.DEClash>
0.1910

> <Gold.Chemscore.DEInternal>
2.3737

> <Gold.Chemscore.Rot>
2.2823

> <Gold.Chemscore.Internal.Correction>
   9.000000E+99

> <Gold.Chemscore.Hbonds>
donor molecule, donor type, donor heavy atom, donor atom, acceptor molecule, acceptor atom, score
      L1  H     3    25       P1  7948  0.62
      L1  H     6    26       P1  7948  0.37
      L1  H    13    30       P1 10186  0.98
      P1  H  7918  7932       L1    14  0.10
      P1  H 10752 10763       L1    20  0.25

> <Gold.Chemscore.Hbond.Weighted>
-10.4957

> <Gold.Chemscore.Metal.Weighted>
-0.0000

> <Gold.Chemscore.Lipo.Weighted>
-7.0501

> <Gold.Chemscore.Internal_Hbond.Weighted>
0.0000

> <Gold.Chemscore.DEClash.Weighted>
0.1910

> <Gold.Chemscore.DEInternal.Weighted>
2.3737

> <Gold.Chemscore.Rot.Weighted>
5.8427

> <Gold.Chemscore.Internal.Correction.Weighted>
   9.000000E+99

> <Gold.Protein.RotatedTorsions>
[ 6907 6896 6895 6894 ] final   12.66 input  -60.11 | X-H torsion
[ 7974 7965 7964 7962 ] final -126.15 input  175.53 | X-H torsion
[ 8008 7997 7996 7995 ] final  137.57 input   59.86 | X-H torsion
[ 10167 10162 10161 10158 ] final  113.83 input  -65.29 | X-H torsion
[ 10718 10713 10712 10709 ] final -121.81 input   66.30 | X-H torsion
[ 10763 10752 10751 10750 ] final   35.75 input  -60.55 | X-H torsion
[ 11005 11000 10999 10996 ] final  -84.19 input  -57.11 | X-H torsion

> <Gold.Protein.ActiveResidues>
 VAL166  LYS551  ARG553  GLY616  TRP617  ASP618  TYR619  PRO620  LYS621  CYS622 
 ASP623  PHE694  ASN695  SER759  ASP760  ASP761  ALA762  ILE779  LEU786  VAL792 
 PHE793  MET794  SER795  GLU796  ALA797  LYS798  CYS799  TRP800  GLU811  SER814 

> <Gold.Protein.RotatedAtoms>
  151.7738  135.0779  160.0363 H   0  0  0  0  0  0  0  0  0  0  0  0  # atno 6907 bound_to 6896
  152.3270  133.5911  159.5792 H   0  0  0  0  0  0  0  0  0  0  0  0  # atno 6908 bound_to 6896
  150.7401  133.9841  159.3628 H   0  0  0  0  0  0  0  0  0  0  0  0  # atno 6909 bound_to 6896
  144.9902  140.7724  143.4559 H   0  0  0  0  0  0  0  0  0  0  0  0  # atno 7974 bound_to 7965
  156.3001  140.2416  156.3931 H   0  0  0  0  0  0  0  0  0  0  0  0  # atno 8008 bound_to 7997
  154.8596  140.0420  157.1676 H   0  0  0  0  0  0  0  0  0  0  0  0  # atno 8009 bound_to 7997
  154.8911  140.2963  155.5374 H   0  0  0  0  0  0  0  0  0  0  0  0  # atno 8010 bound_to 7997
  139.6432  144.7125  151.2194 H   0  0  0  0  0  0  0  0  0  0  0  0  # atno 10167 bound_to 10162
  156.1367  130.6436  150.9707 H   0  0  0  0  0  0  0  0  0  0  0  0  # atno 10718 bound_to 10713
  153.0106  135.6324  154.1877 H   0  0  0  0  0  0  0  0  0  0  0  0  # atno 10763 bound_to 10752
  154.1619  135.2823  155.3108 H   0  0  0  0  0  0  0  0  0  0  0  0  # atno 10764 bound_to 10752
  154.5975  135.5598  153.7401 H   0  0  0  0  0  0  0  0  0  0  0  0  # atno 10765 bound_to 10752
  141.1652  133.7333  156.8831 H   0  0  0  0  0  0  0  0  0  0  0  0  # atno 11005 bound_to 11000
  145.2297  139.2121  143.5049 LP  0  0  0  0  0  0  0  0  0  0  0  0  # atno 17320 bound_to 7965
  146.3429  140.2171  142.8591 LP  0  0  0  0  0  0  0  0  0  0  0  0  # atno 17321 bound_to 7965
  140.7501  143.6275  150.8454 LP  0  0  0  0  0  0  0  0  0  0  0  0  # atno 17342 bound_to 10162
  139.9915  143.5842  152.2908 LP  0  0  0  0  0  0  0  0  0  0  0  0  # atno 17343 bound_to 10162
  157.6539  131.0892  150.7991 LP  0  0  0  0  0  0  0  0  0  0  0  0  # atno 17370 bound_to 10713
  156.8070  130.4940  149.5361 LP  0  0  0  0  0  0  0  0  0  0  0  0  # atno 17371 bound_to 10713
  140.1701  134.9106  157.2822 LP  0  0  0  0  0  0  0  0  0  0  0  0  # atno 17394 bound_to 11000
  140.2512  134.3681  155.7441 LP  0  0  0  0  0  0  0  0  0  0  0  0  # atno 17395 bound_to 11000

$$$$
