AV-unprocessed.smi:1499|AV-procd|sdf|6061|dock7
  -GOLD-   22720 6183D 1   1.00000     0.00000
 Structure written by MMmdl.
 41 42  0  0  0  0  0  0  0  0  2 V2000
  151.5707  134.5902  154.1434 C   0  0  0  0  0  0  0  0  0  0  0  0
  150.4792  135.5054  154.7172 C   0  0  0  0  0  0  0  0  0  0  0  0
  150.5357  136.8816  154.1628 N   0  3  0  0  0  0  0  0  0  0  0  0
  151.7812  137.5936  154.5591 C   0  0  0  0  0  0  0  0  0  0  0  0
  151.8322  139.0184  153.9752 C   0  0  0  0  0  0  0  0  0  0  0  0
  150.6231  139.7464  154.3864 N   0  0  0  0  0  0  0  0  0  0  0  0
  150.5572  140.6827  155.3658 C   0  0  0  0  0  0  0  0  0  0  0  0
  149.6514  141.5144  155.4280 O   0  0  0  0  0  0  0  0  0  0  0  0
  151.6131  140.6782  156.2016 N   0  0  0  0  0  0  0  0  0  0  0  0
  151.8145  141.4879  157.3480 C   0  0  0  0  0  0  0  0  0  0  0  0
  152.7173  141.1878  158.4010 C   0  0  0  0  0  0  0  0  0  0  0  0
  152.6837  142.1192  159.3416 N   0  0  0  0  0  0  0  0  0  0  0  0
  151.7666  143.0220  158.9111 N   0  0  0  0  0  0  0  0  0  0  0  0
  151.4711  144.1905  159.7211 C   0  0  0  0  0  0  0  0  0  0  0  0
  150.9422  143.7880  161.0988 C   0  0  0  0  0  0  0  0  0  0  0  0
  151.7055  144.0825  162.1545 N   0  0  0  0  0  0  0  0  0  0  0  0
  149.8581  143.2193  161.2083 O   0  0  0  0  0  0  0  0  0  0  0  0
  151.2170  142.6671  157.6945 C   0  0  0  0  0  0  0  0  0  0  0  0
  149.4216  139.1001  153.8509 C   0  0  0  0  0  0  0  0  0  0  0  0
  149.3069  137.6791  154.4327 C   0  0  0  0  0  0  0  0  0  0  0  0
  151.5615  133.6225  154.6457 H   0  0  0  0  0  0  0  0  0  0  0  0
  152.5616  135.0235  154.2810 H   0  0  0  0  0  0  0  0  0  0  0  0
  151.4289  134.4000  153.0799 H   0  0  0  0  0  0  0  0  0  0  0  0
  149.4902  135.0753  154.5513 H   0  0  0  0  0  0  0  0  0  0  0  0
  150.6184  135.5520  155.7983 H   0  0  0  0  0  0  0  0  0  0  0  0
  151.8397  137.6391  155.6480 H   0  0  0  0  0  0  0  0  0  0  0  0
  152.6499  137.0291  154.2183 H   0  0  0  0  0  0  0  0  0  0  0  0
  152.7620  139.5010  154.2762 H   0  0  0  0  0  0  0  0  0  0  0  0
  151.8672  138.9736  152.8856 H   0  0  0  0  0  0  0  0  0  0  0  0
  152.3362  139.9994  156.0127 H   0  0  0  0  0  0  0  0  0  0  0  0
  153.3807  140.3428  158.5134 H   0  0  0  0  0  0  0  0  0  0  0  0
  152.3682  144.8030  159.8264 H   0  0  0  0  0  0  0  0  0  0  0  0
  150.7288  144.7969  159.2002 H   0  0  0  0  0  0  0  0  0  0  0  0
  151.3930  143.8422  163.0843 H   0  0  0  0  0  0  0  0  0  0  0  0
  152.5894  144.5513  162.0191 H   0  0  0  0  0  0  0  0  0  0  0  0
  150.4668  143.2731  157.2083 H   0  0  0  0  0  0  0  0  0  0  0  0
  148.5128  139.6670  154.0591 H   0  0  0  0  0  0  0  0  0  0  0  0
  149.4945  139.0541  152.7634 H   0  0  0  0  0  0  0  0  0  0  0  0
  148.4357  137.1885  154.0000 H   0  0  0  0  0  0  0  0  0  0  0  0
  149.1386  137.7339  155.5096 H   0  0  0  0  0  0  0  0  0  0  0  0
  150.5913  136.7808  153.1593 H   0  0  0  0  0  0  0  0  0  0  0  0
  1  2  1  0  0  0  0
  1 21  1  0  0  0  0
  1 22  1  0  0  0  0
  1 23  1  0  0  0  0
  2  3  1  0  0  0  0
  2 24  1  0  0  0  0
  2 25  1  0  0  0  0
  3 20  1  0  0  0  0
  3  4  1  0  0  0  0
  3 41  1  0  0  0  0
  4  5  1  0  0  0  0
  4 26  1  0  0  0  0
  4 27  1  0  0  0  0
  5  6  1  0  0  0  0
  5 28  1  0  0  0  0
  5 29  1  0  0  0  0
  6  7  1  0  0  0  0
  6 19  1  0  0  0  0
  7  8  2  0  0  0  0
  7  9  1  0  0  0  0
  9 10  1  0  0  0  0
  9 30  1  0  0  0  0
 10 18  2  0  0  0  0
 10 11  1  0  0  0  0
 11 12  2  0  0  0  0
 11 31  1  0  0  0  0
 12 13  1  0  0  0  0
 13 14  1  0  0  0  0
 13 18  1  0  0  0  0
 14 15  1  0  0  0  0
 14 32  1  0  0  0  0
 14 33  1  0  0  0  0
 15 16  1  0  0  0  0
 15 17  2  0  0  0  0
 16 34  1  0  0  0  0
 16 35  1  0  0  0  0
 18 36  1  0  0  0  0
 19 20  1  0  0  0  0
 19 37  1  0  0  0  0
 19 38  1  0  0  0  0
 20 39  1  0  0  0  0
 20 40  1  0  0  0  0
M  CHG  1   3   1
M  END
> <s_m_source_file>
AV-unprocessed.smi

> <i_m_source_file_index>
1499

> <i_lp_mmshare_version>
43012

> <i_f3d_flags>
0

> <s_epik_input>
W0NIM11bQ0gyXU4xW0NIMl1bQ0gyXU4oW0NIMl1bQ0gyXTEpQyg9TylbTkhdYzJbY0hdbm4oW2NIXTIpW0NIMl1DKD1PKVtOSDJd

> <s_epik_cmdline>
J2VwaWtfcHl0aG9uJywgJy1waCcsICc3LjAnLCAnLXRuJywgJzgnLCAnLW1hJywgJzIwMCcsICctbWV0YWxfYmluZGluZycsICctaW1hZScsICc8aW5maWxlLm1hZT4nLCAnLW9tYWUnLCAnPG91dGZpbGUubWFlPic=

> <r_lp_tautomer_probability>
1

> <r_epik_Ionization_Penalty>
0.390351

> <r_epik_Ionization_Penalty_Charging>
0.390326

> <r_epik_Ionization_Penalty_Neutral>
2.46507e-05

> <r_epik_State_Penalty>
0.388987

> <r_epik_Charging_Adjusted_Penalty>
0.779313

> <i_epik_Tot_Q>
1

> <i_epik_Tot_abs_Q>
1

> <r_epik_Metal_State_Penalty>
0.388988

> <b_epik_Metal_Only>
0

> <s_lp_Force_Field>
OPLS_2005

> <r_lp_Energy>
52.2824

> <b_lp_Chiralities_Consistent>
1

> <s_lp_Variant>
AV-unprocessed.smi:1499-1

> <Gold.Version>
5.8.1

> <Gold.Id.Protein>
6NUR|6NUR_protein|mol2

> <Gold.PLP.Fitness>
45.9873

> <Gold.PLP.PLP>
-37.5792

> <Gold.PLP.part.hbond>
-3.0041

> <Gold.PLP.part.metal>
0.0000

> <Gold.PLP.part.buried>
-6.1475

> <Gold.PLP.part.nonpolar>
-28.3553

> <Gold.PLP.part.repulsive>
0.5060

> <Gold.PLP.ligand.clash>
0.0000

> <Gold.PLP.ligand.torsion>
0.5011

> <Gold.PLP.Chemscore.Hbond>
2.1048

> <Gold.PLP.Chemscore.CHOScore>
1.0000

> <Gold.PLP.Chemscore.Metal>
0.0000

> <Gold.Chemscore.Hbonds>
donor molecule, donor type, donor heavy atom, donor atom, acceptor molecule, acceptor atom, score
      L1  H     3    41       P1  7949  0.80
      L1  C    18    36       P1  8028  0.74

> <Gold.PLP.Chemscore.Internal.Correction>
0.0958

> <Gold.Rescore>
     Score         DG    S(hbond)    S(metal)    S(lipo)     H(rot)  DE(clash)    DE(int)     intcor
      7.97     -10.60       0.99        0.00      56.13       1.85       1.15       1.48       ----

> <Gold.Chemscore.Fitness>
7.9715

> <Gold.Chemscore.DG>
-10.6003

> <Gold.Chemscore.ZeroCoef>
-5.4800

> <Gold.Chemscore.Hbond>
0.9873

> <Gold.Chemscore.Metal>
0.0000

> <Gold.Chemscore.Lipo>
56.1266

> <Gold.Chemscore.Internal_Hbond>
0.0000

> <Gold.Chemscore.DEClash>
1.1475

> <Gold.Chemscore.DEInternal>
1.4812

> <Gold.Chemscore.Rot>
1.8532

> <Gold.Chemscore.Internal.Correction>
   9.000000E+99

> <Gold.Chemscore.Hbonds>
donor molecule, donor type, donor heavy atom, donor atom, acceptor molecule, acceptor atom, score
      L1  H     3    41       P1  7949  0.01
      P1  H  6933  6944       L1    17  0.01

> <Gold.Chemscore.Hbond.Weighted>
-3.2976

> <Gold.Chemscore.Metal.Weighted>
-0.0000

> <Gold.Chemscore.Lipo.Weighted>
-6.5668

> <Gold.Chemscore.Internal_Hbond.Weighted>
0.0000

> <Gold.Chemscore.DEClash.Weighted>
1.1475

> <Gold.Chemscore.DEInternal.Weighted>
1.4812

> <Gold.Chemscore.Rot.Weighted>
4.7441

> <Gold.Chemscore.Internal.Correction.Weighted>
   9.000000E+99

> <Gold.Protein.RotatedTorsions>
[ 6907 6896 6895 6894 ] final -131.58 input  -60.11 | X-H torsion
[ 7974 7965 7964 7962 ] final   36.80 input  175.53 | X-H torsion
[ 8008 7997 7996 7995 ] final  -54.33 input   59.86 | X-H torsion
[ 10167 10162 10161 10158 ] final    6.64 input  -65.29 | X-H torsion
[ 10718 10713 10712 10709 ] final  -10.60 input   66.30 | X-H torsion
[ 10763 10752 10751 10750 ] final   93.06 input  -60.55 | X-H torsion
[ 11005 11000 10999 10996 ] final -108.55 input  -57.11 | X-H torsion

> <Gold.Protein.ActiveResidues>
 VAL166  LYS551  ARG553  GLY616  TRP617  ASP618  TYR619  PRO620  LYS621  CYS622 
 ASP623  PHE694  ASN695  SER759  ASP760  ASP761  ALA762  ILE779  LEU786  VAL792 
 PHE793  MET794  SER795  GLU796  ALA797  LYS798  CYS799  TRP800  GLU811  SER814 

> <Gold.Protein.RotatedAtoms>
  150.9526  133.6532  159.2768 H   0  0  0  0  0  0  0  0  0  0  0  0  # atno 6907 bound_to 6896
  151.3883  135.0950  159.9528 H   0  0  0  0  0  0  0  0  0  0  0  0  # atno 6908 bound_to 6896
  152.5116  133.9046  159.7512 H   0  0  0  0  0  0  0  0  0  0  0  0  # atno 6909 bound_to 6896
  146.1184  139.5972  142.9306 H   0  0  0  0  0  0  0  0  0  0  0  0  # atno 7974 bound_to 7965
  154.4159  140.1179  156.5298 H   0  0  0  0  0  0  0  0  0  0  0  0  # atno 8008 bound_to 7997
  155.6617  140.3496  155.4766 H   0  0  0  0  0  0  0  0  0  0  0  0  # atno 8009 bound_to 7997
  155.9708  140.1141  157.0804 H   0  0  0  0  0  0  0  0  0  0  0  0  # atno 8010 bound_to 7997
  140.6416  143.7760  150.7437 H   0  0  0  0  0  0  0  0  0  0  0  0  # atno 10167 bound_to 10162
  156.6711  130.5009  149.6000 H   0  0  0  0  0  0  0  0  0  0  0  0  # atno 10718 bound_to 10713
  153.2261  135.4339  155.0544 H   0  0  0  0  0  0  0  0  0  0  0  0  # atno 10763 bound_to 10752
  154.8274  135.3368  154.6855 H   0  0  0  0  0  0  0  0  0  0  0  0  # atno 10764 bound_to 10752
  153.7285  135.7012  153.5051 H   0  0  0  0  0  0  0  0  0  0  0  0  # atno 10765 bound_to 10752
  141.0896  133.9079  157.2107 H   0  0  0  0  0  0  0  0  0  0  0  0  # atno 11005 bound_to 11000
  145.5517  141.0412  143.2274 LP  0  0  0  0  0  0  0  0  0  0  0  0  # atno 17320 bound_to 7965
  144.7574  139.7040  143.7248 LP  0  0  0  0  0  0  0  0  0  0  0  0  # atno 17321 bound_to 7965
  140.1393  143.4456  152.2204 LP  0  0  0  0  0  0  0  0  0  0  0  0  # atno 17342 bound_to 10162
  139.5626  144.7415  151.4113 LP  0  0  0  0  0  0  0  0  0  0  0  0  # atno 17343 bound_to 10162
  156.1938  130.6577  151.1091 LP  0  0  0  0  0  0  0  0  0  0  0  0  # atno 17370 bound_to 10713
  157.7077  131.0749  150.6611 LP  0  0  0  0  0  0  0  0  0  0  0  0  # atno 17371 bound_to 10713
  139.9719  135.0125  156.9534 LP  0  0  0  0  0  0  0  0  0  0  0  0  # atno 17394 bound_to 11000
  140.5284  134.0838  155.7309 LP  0  0  0  0  0  0  0  0  0  0  0  0  # atno 17395 bound_to 11000

$$$$
