AV-unprocessed.smi:2707|AV-procd|sdf|10457|dock7
  -GOLD-   2272014493D 1   1.00000     0.00000
 Structure written by MMmdl.
 44 45  0  0  0  0  0  0  0  0  1 V2000
  149.0436  137.4502  156.6698 C   0  0  0  0  0  0  0  0  0  0  0  0
  150.0083  137.1872  155.4912 C   0  0  2  0  0  0  0  0  0  0  0  0
  149.4160  136.2171  154.5625 N   0  0  0  0  0  0  0  0  0  0  0  0
  149.0861  134.9387  154.8113 C   0  0  0  0  0  0  0  0  0  0  0  0
  149.2281  134.3952  155.9066 O   0  0  0  0  0  0  0  0  0  0  0  0
  148.5891  134.3462  153.7116 N   0  0  0  0  0  0  0  0  0  0  0  0
  148.1564  133.0023  153.5626 C   0  0  0  0  0  0  0  0  0  0  0  0
  147.0074  132.8216  152.7665 C   0  0  0  0  0  0  0  0  0  0  0  0
  146.5287  131.5158  152.5679 C   0  0  0  0  0  0  0  0  0  0  0  0
  147.2322  130.4560  153.1839 C   0  0  0  0  0  0  0  0  0  0  0  0
  146.8240  128.9784  153.0420 C   0  0  0  0  0  0  0  0  0  0  0  0
  147.9908  128.1706  152.4367 C   0  0  0  0  0  0  0  0  0  0  0  0
  145.5812  128.8680  152.1343 C   0  0  0  0  0  0  0  0  0  0  0  0
  146.4655  128.3315  154.3991 C   0  0  0  0  0  0  0  0  0  0  0  0
  148.3290  130.6942  153.9438 N   0  0  0  0  0  0  0  0  0  0  0  0
  148.7797  131.9383  154.1282 N   0  0  0  0  0  0  0  0  0  0  0  0
  151.3364  136.5997  156.0276 C   0  0  0  0  0  0  0  0  0  0  0  0
  152.2086  137.7163  156.6193 C   0  0  0  0  0  0  0  0  0  0  0  0
  151.7725  139.2408  155.7052 S   0  0  0  0  0  0  0  0  0  0  0  0
  151.2473  140.2320  156.6565 O   0  0  0  0  0  0  0  0  0  0  0  0
  152.8559  139.5862  154.7725 O   0  0  0  0  0  0  0  0  0  0  0  0
  150.3844  138.5000  154.7669 C   0  0  0  0  0  0  0  0  0  0  0  0
  149.4852  138.1138  157.4134 H   0  0  0  0  0  0  0  0  0  0  0  0
  148.7787  136.5225  157.1780 H   0  0  0  0  0  0  0  0  0  0  0  0
  148.1166  137.9184  156.3387 H   0  0  0  0  0  0  0  0  0  0  0  0
  149.2530  136.5553  153.6254 H   0  0  0  0  0  0  0  0  0  0  0  0
  148.5293  134.9161  152.8811 H   0  0  0  0  0  0  0  0  0  0  0  0
  146.5033  133.6623  152.3121 H   0  0  0  0  0  0  0  0  0  0  0  0
  145.6522  131.3598  151.9584 H   0  0  0  0  0  0  0  0  0  0  0  0
  147.7349  127.1149  152.3406 H   0  0  0  0  0  0  0  0  0  0  0  0
  148.8832  128.2378  153.0598 H   0  0  0  0  0  0  0  0  0  0  0  0
  148.2579  128.5277  151.4416 H   0  0  0  0  0  0  0  0  0  0  0  0
  145.7769  129.2461  151.1304 H   0  0  0  0  0  0  0  0  0  0  0  0
  144.7439  129.4358  152.5412 H   0  0  0  0  0  0  0  0  0  0  0  0
  145.2557  127.8324  152.0291 H   0  0  0  0  0  0  0  0  0  0  0  0
  146.1798  127.2862  154.2746 H   0  0  0  0  0  0  0  0  0  0  0  0
  145.6244  128.8357  154.8767 H   0  0  0  0  0  0  0  0  0  0  0  0
  147.3085  128.3507  155.0910 H   0  0  0  0  0  0  0  0  0  0  0  0
  151.1705  135.7996  156.7500 H   0  0  0  0  0  0  0  0  0  0  0  0
  151.8872  136.1541  155.1976 H   0  0  0  0  0  0  0  0  0  0  0  0
  151.9772  137.8766  157.6724 H   0  0  0  0  0  0  0  0  0  0  0  0
  153.2758  137.5140  156.5259 H   0  0  0  0  0  0  0  0  0  0  0  0
  150.7464  138.3016  153.7575 H   0  0  0  0  0  0  0  0  0  0  0  0
  149.5613  139.2118  154.6977 H   0  0  0  0  0  0  0  0  0  0  0  0
  1  2  1  0  0  0  0
  1 23  1  0  0  0  0
  1 24  1  0  0  0  0
  1 25  1  0  0  0  0
  2 22  1  0  0  0  0
  2  3  1  0  0  0  0
  2 17  1  0  0  0  0
  3  4  1  0  0  0  0
  3 26  1  0  0  0  0
  4  5  2  0  0  0  0
  4  6  1  0  0  0  0
  6  7  1  0  0  0  0
  6 27  1  0  0  0  0
  7 16  1  0  0  0  0
  7  8  2  0  0  0  0
  8  9  1  0  0  0  0
  8 28  1  0  0  0  0
  9 10  2  0  0  0  0
  9 29  1  0  0  0  0
 10 11  1  0  0  0  0
 10 15  1  0  0  0  0
 11 12  1  0  0  0  0
 11 13  1  0  0  0  0
 11 14  1  0  0  0  0
 12 30  1  0  0  0  0
 12 31  1  0  0  0  0
 12 32  1  0  0  0  0
 13 33  1  0  0  0  0
 13 34  1  0  0  0  0
 13 35  1  0  0  0  0
 14 36  1  0  0  0  0
 14 37  1  0  0  0  0
 14 38  1  0  0  0  0
 15 16  2  0  0  0  0
 17 18  1  0  0  0  0
 17 39  1  0  0  0  0
 17 40  1  0  0  0  0
 18 19  1  0  0  0  0
 18 41  1  0  0  0  0
 18 42  1  0  0  0  0
 19 20  2  0  0  0  0
 19 21  2  0  0  0  0
 19 22  1  0  0  0  0
 22 43  1  0  0  0  0
 22 44  1  0  0  0  0
M  END
> <s_m_source_file>
AV-unprocessed.smi

> <i_m_source_file_index>
2707

> <i_lp_mmshare_version>
43012

> <i_f3d_flags>
0

> <s_epik_input>
Tz1TKD1PKShbQ0gyXTEpW0NIMl1bQ0gyXVtDQEBdMShbQ0gzXSlbTkhdQyg9TylbTkhdYzJbY0hdW2NIXWMobm4yKUMoW0NIM10pKFtDSDNdKVtDSDNd

> <s_epik_cmdline>
J2VwaWtfcHl0aG9uJywgJy1waCcsICc3LjAnLCAnLXRuJywgJzgnLCAnLW1hJywgJzIwMCcsICctbWV0YWxfYmluZGluZycsICctaW1hZScsICc8aW5maWxlLm1hZT4nLCAnLW9tYWUnLCAnPG91dGZpbGUubWFlPic=

> <r_lp_tautomer_probability>
1

> <r_epik_Ionization_Penalty>
0.00910408

> <r_epik_Ionization_Penalty_Charging>
0

> <r_epik_Ionization_Penalty_Neutral>
0.00910408

> <r_epik_State_Penalty>
-0

> <r_epik_Charging_Adjusted_Penalty>
0

> <i_epik_Tot_Q>
0

> <i_epik_Tot_abs_Q>
0

> <r_epik_Metal_State_Penalty>
-0

> <b_epik_Metal_Only>
0

> <s_lp_Force_Field>
OPLS_2005

> <r_lp_Energy>
10.6556

> <b_lp_Chiralities_Consistent>
1

> <s_lp_Variant>
AV-unprocessed.smi:2707-2

> <Gold.Version>
5.8.1

> <Gold.Id.Protein>
6NUR|6NUR_protein|mol2

> <Gold.PLP.Fitness>
40.9224

> <Gold.PLP.PLP>
-31.7528

> <Gold.PLP.part.hbond>
-3.9556

> <Gold.PLP.part.metal>
0.0000

> <Gold.PLP.part.buried>
-2.9282

> <Gold.PLP.part.nonpolar>
-24.6101

> <Gold.PLP.part.repulsive>
0.2349

> <Gold.PLP.ligand.clash>
0.0000

> <Gold.PLP.ligand.torsion>
0.3291

> <Gold.PLP.Chemscore.Hbond>
3.2715

> <Gold.PLP.Chemscore.CHOScore>
0.0000

> <Gold.PLP.Chemscore.Metal>
0.0000

> <Gold.Chemscore.Hbonds>
donor molecule, donor type, donor heavy atom, donor atom, acceptor molecule, acceptor atom, score
      L1  H     3    26       P1  7948  0.99
      L1  H     6    27       P1  7948  1.00
      P1  H  7989  7998       L1    21  0.28
      P1  H  7997  8008       L1    21  0.98

> <Gold.PLP.Chemscore.Internal.Correction>
0.0132

> <Gold.Rescore>
     Score         DG    S(hbond)    S(metal)    S(lipo)     H(rot)  DE(clash)    DE(int)     intcor
     16.08     -18.37       2.62        0.00      62.16       1.22       0.01       2.28       ----

> <Gold.Chemscore.Fitness>
16.0813

> <Gold.Chemscore.DG>
-18.3699

> <Gold.Chemscore.ZeroCoef>
-5.4800

> <Gold.Chemscore.Hbond>
2.6201

> <Gold.Chemscore.Metal>
0.0000

> <Gold.Chemscore.Lipo>
62.1602

> <Gold.Chemscore.Internal_Hbond>
0.0000

> <Gold.Chemscore.DEClash>
0.0064

> <Gold.Chemscore.DEInternal>
2.2822

> <Gold.Chemscore.Rot>
1.2242

> <Gold.Chemscore.Internal.Correction>
   9.000000E+99

> <Gold.Chemscore.Hbonds>
donor molecule, donor type, donor heavy atom, donor atom, acceptor molecule, acceptor atom, score
      L1  H     3    26       P1  7948  0.90
      L1  H     6    27       P1  7948  0.49
      P1  H  7989  7998       L1    21  0.05
      P1  H  7997  8008       L1    21  0.72

> <Gold.Chemscore.Hbond.Weighted>
-8.7512

> <Gold.Chemscore.Metal.Weighted>
-0.0000

> <Gold.Chemscore.Lipo.Weighted>
-7.2727

> <Gold.Chemscore.Internal_Hbond.Weighted>
0.0000

> <Gold.Chemscore.DEClash.Weighted>
0.0064

> <Gold.Chemscore.DEInternal.Weighted>
2.2822

> <Gold.Chemscore.Rot.Weighted>
3.1340

> <Gold.Chemscore.Internal.Correction.Weighted>
   9.000000E+99

> <Gold.Protein.RotatedTorsions>
[ 6907 6896 6895 6894 ] final  132.57 input  -60.11 | X-H torsion
[ 7974 7965 7964 7962 ] final -141.31 input  175.53 | X-H torsion
[ 8008 7997 7996 7995 ] final   -9.31 input   59.86 | X-H torsion
[ 10167 10162 10161 10158 ] final    1.09 input  -65.29 | X-H torsion
[ 10718 10713 10712 10709 ] final   51.74 input   66.30 | X-H torsion
[ 10763 10752 10751 10750 ] final   -3.62 input  -60.55 | X-H torsion
[ 11005 11000 10999 10996 ] final  -56.28 input  -57.11 | X-H torsion

> <Gold.Protein.ActiveResidues>
 VAL166  LYS551  ARG553  GLY616  TRP617  ASP618  TYR619  PRO620  LYS621  CYS622 
 ASP623  PHE694  ASN695  SER759  ASP760  ASP761  ALA762  ILE779  LEU786  VAL792 
 PHE793  MET794  SER795  GLU796  ALA797  LYS798  CYS799  TRP800  GLU811  SER814 

> <Gold.Protein.RotatedAtoms>
  152.3311  133.5959  159.5809 H   0  0  0  0  0  0  0  0  0  0  0  0  # atno 6907 bound_to 6896
  150.7423  133.9867  159.3602 H   0  0  0  0  0  0  0  0  0  0  0  0  # atno 6908 bound_to 6896
  151.7742  135.0779  160.0415 H   0  0  0  0  0  0  0  0  0  0  0  0  # atno 6909 bound_to 6896
  144.8529  140.6095  143.5378 H   0  0  0  0  0  0  0  0  0  0  0  0  # atno 7974 bound_to 7965
  154.5658  140.2358  155.8265 H   0  0  0  0  0  0  0  0  0  0  0  0  # atno 8008 bound_to 7997
  156.2067  140.3037  155.9601 H   0  0  0  0  0  0  0  0  0  0  0  0  # atno 8009 bound_to 7997
  155.2803  140.0422  157.3005 H   0  0  0  0  0  0  0  0  0  0  0  0  # atno 8010 bound_to 7997
  140.6699  143.7077  150.7901 H   0  0  0  0  0  0  0  0  0  0  0  0  # atno 10167 bound_to 10162
  157.5009  130.8437  149.8315 H   0  0  0  0  0  0  0  0  0  0  0  0  # atno 10718 bound_to 10713
  153.3738  135.6995  153.6618 H   0  0  0  0  0  0  0  0  0  0  0  0  # atno 10763 bound_to 10752
  153.5257  135.3602  155.2653 H   0  0  0  0  0  0  0  0  0  0  0  0  # atno 10764 bound_to 10752
  154.8684  135.4168  154.3021 H   0  0  0  0  0  0  0  0  0  0  0  0  # atno 10765 bound_to 10752
  141.1113  133.6610  156.4596 H   0  0  0  0  0  0  0  0  0  0  0  0  # atno 11005 bound_to 11000
  145.4463  139.1529  143.3943 LP  0  0  0  0  0  0  0  0  0  0  0  0  # atno 17320 bound_to 7965
  146.2800  140.4587  142.8780 LP  0  0  0  0  0  0  0  0  0  0  0  0  # atno 17321 bound_to 7965
  140.0761  143.5014  152.2555 LP  0  0  0  0  0  0  0  0  0  0  0  0  # atno 17342 bound_to 10162
  139.5963  144.7568  151.3279 LP  0  0  0  0  0  0  0  0  0  0  0  0  # atno 17343 bound_to 10162
  156.0229  130.3789  150.1909 LP  0  0  0  0  0  0  0  0  0  0  0  0  # atno 17370 bound_to 10713
  157.0099  130.9948  151.3368 LP  0  0  0  0  0  0  0  0  0  0  0  0  # atno 17371 bound_to 10713
  140.4767  134.6702  157.5153 LP  0  0  0  0  0  0  0  0  0  0  0  0  # atno 17394 bound_to 11000
  140.0008  134.6839  155.9533 LP  0  0  0  0  0  0  0  0  0  0  0  0  # atno 17395 bound_to 11000

$$$$
