AV-unprocessed.smi:2276|AV-procd|sdf|9172|dock5
  -GOLD-   2272012383D 1   1.00000     0.00000
 Structure written by MMmdl.
 53 54  0  0  0  0  0  0  0  0  2 V2000
  152.3087  140.3232  162.8963 C   0  0  0  0  0  0  0  0  0  0  0  0
  151.6846  140.8370  161.6160 C   0  0  0  0  0  0  0  0  0  0  0  0
  151.1942  142.1540  161.5283 C   0  0  0  0  0  0  0  0  0  0  0  0
  150.6250  142.5720  160.3098 C   0  0  0  0  0  0  0  0  0  0  0  0
  150.0760  143.9738  160.1478 C   0  0  0  0  0  0  0  0  0  0  0  0
  150.5260  141.7683  159.2295 N   0  0  0  0  0  0  0  0  0  0  0  0
  151.0024  140.5001  159.2996 C   0  0  0  0  0  0  0  0  0  0  0  0
  150.9261  139.5742  158.2258 N   0  0  0  0  0  0  0  0  0  0  0  0
  151.1380  139.8154  156.9207 C   0  0  0  0  0  0  0  0  0  0  0  0
  151.6814  140.8230  156.4666 O   0  0  0  0  0  0  0  0  0  0  0  0
  150.6574  138.8231  156.1571 N   0  0  0  0  0  0  0  0  0  0  0  0
  150.5866  138.8247  154.6966 C   0  0  0  0  0  0  0  0  0  0  0  0
  149.3304  139.5638  154.1807 C   0  0  2  0  0  0  0  0  0  0  0  0
  149.1150  140.8684  154.9637 C   0  0  0  0  0  0  0  0  0  0  0  0
  148.0613  138.6779  154.2581 C   0  0  0  0  0  0  0  0  0  0  0  0
  146.8095  139.4110  154.0467 N   0  0  0  0  0  0  0  0  0  0  0  0
  146.6794  140.0497  152.7296 C   0  0  0  0  0  0  0  0  0  0  0  0
  146.5543  139.0248  151.5815 C   0  0  0  0  0  0  0  0  0  0  0  0
  145.4069  138.1177  151.8122 N   0  3  0  0  0  0  0  0  0  0  0  0
  145.2374  137.1341  150.7219 C   0  0  0  0  0  0  0  0  0  0  0  0
  145.4988  137.4802  153.1466 C   0  0  0  0  0  0  0  0  0  0  0  0
  145.6408  138.5499  154.2531 C   0  0  0  0  0  0  0  0  0  0  0  0
  151.5842  140.0005  160.4860 C   0  0  0  0  0  0  0  0  0  0  0  0
  152.2295  141.0574  163.6986 H   0  0  0  0  0  0  0  0  0  0  0  0
  153.3643  140.1013  162.7388 H   0  0  0  0  0  0  0  0  0  0  0  0
  151.8099  139.4098  163.2207 H   0  0  0  0  0  0  0  0  0  0  0  0
  151.2537  142.8264  162.3718 H   0  0  0  0  0  0  0  0  0  0  0  0
  150.4156  144.6249  160.9538 H   0  0  0  0  0  0  0  0  0  0  0  0
  148.9863  143.9566  160.1591 H   0  0  0  0  0  0  0  0  0  0  0  0
  150.4036  144.4073  159.2024 H   0  0  0  0  0  0  0  0  0  0  0  0
  150.5710  138.6602  158.4649 H   0  0  0  0  0  0  0  0  0  0  0  0
  150.2480  138.0267  156.6235 H   0  0  0  0  0  0  0  0  0  0  0  0
  151.4912  139.2466  154.2553 H   0  0  0  0  0  0  0  0  0  0  0  0
  150.5544  137.7814  154.3818 H   0  0  0  0  0  0  0  0  0  0  0  0
  149.5382  139.8439  153.1493 H   0  0  0  0  0  0  0  0  0  0  0  0
  148.9449  140.6734  156.0230 H   0  0  0  0  0  0  0  0  0  0  0  0
  148.2529  141.4169  154.5832 H   0  0  0  0  0  0  0  0  0  0  0  0
  149.9817  141.5249  154.8823 H   0  0  0  0  0  0  0  0  0  0  0  0
  148.1146  137.8592  153.5499 H   0  0  0  0  0  0  0  0  0  0  0  0
  148.0352  138.2006  155.2387 H   0  0  0  0  0  0  0  0  0  0  0  0
  145.7900  140.6811  152.7453 H   0  0  0  0  0  0  0  0  0  0  0  0
  147.5124  140.7233  152.5372 H   0  0  0  0  0  0  0  0  0  0  0  0
  146.4036  139.5561  150.6412 H   0  0  0  0  0  0  0  0  0  0  0  0
  147.4707  138.4480  151.4612 H   0  0  0  0  0  0  0  0  0  0  0  0
  146.1048  136.4771  150.6525 H   0  0  0  0  0  0  0  0  0  0  0  0
  145.1150  137.6394  149.7635 H   0  0  0  0  0  0  0  0  0  0  0  0
  144.3538  136.5182  150.8915 H   0  0  0  0  0  0  0  0  0  0  0  0
  144.5950  136.8966  153.3248 H   0  0  0  0  0  0  0  0  0  0  0  0
  146.3297  136.7738  153.1693 H   0  0  0  0  0  0  0  0  0  0  0  0
  145.7034  138.0744  155.2326 H   0  0  0  0  0  0  0  0  0  0  0  0
  144.7466  139.1742  154.2748 H   0  0  0  0  0  0  0  0  0  0  0  0
  151.9528  138.9858  160.5323 H   0  0  0  0  0  0  0  0  0  0  0  0
  144.5779  138.6945  151.8226 H   0  0  0  0  0  0  0  0  0  0  0  0
  1  2  1  0  0  0  0
  1 24  1  0  0  0  0
  1 25  1  0  0  0  0
  1 26  1  0  0  0  0
  2 23  1  0  0  0  0
  2  3  2  0  0  0  0
  3  4  1  0  0  0  0
  3 27  1  0  0  0  0
  4  5  1  0  0  0  0
  4  6  2  0  0  0  0
  5 28  1  0  0  0  0
  5 29  1  0  0  0  0
  5 30  1  0  0  0  0
  6  7  1  0  0  0  0
  7  8  1  0  0  0  0
  7 23  2  0  0  0  0
  8  9  1  0  0  0  0
  8 31  1  0  0  0  0
  9 10  2  0  0  0  0
  9 11  1  0  0  0  0
 11 12  1  0  0  0  0
 11 32  1  0  0  0  0
 12 13  1  0  0  0  0
 12 33  1  0  0  0  0
 12 34  1  0  0  0  0
 13 14  1  0  0  0  0
 13 15  1  0  0  0  0
 13 35  1  0  0  0  0
 14 36  1  0  0  0  0
 14 37  1  0  0  0  0
 14 38  1  0  0  0  0
 15 16  1  0  0  0  0
 15 39  1  0  0  0  0
 15 40  1  0  0  0  0
 16 22  1  0  0  0  0
 16 17  1  0  0  0  0
 17 18  1  0  0  0  0
 17 41  1  0  0  0  0
 17 42  1  0  0  0  0
 18 19  1  0  0  0  0
 18 43  1  0  0  0  0
 18 44  1  0  0  0  0
 19 20  1  0  0  0  0
 19 21  1  0  0  0  0
 19 53  1  0  0  0  0
 20 45  1  0  0  0  0
 20 46  1  0  0  0  0
 20 47  1  0  0  0  0
 21 22  1  0  0  0  0
 21 48  1  0  0  0  0
 21 49  1  0  0  0  0
 22 50  1  0  0  0  0
 22 51  1  0  0  0  0
 23 52  1  0  0  0  0
M  CHG  1  19   1
M  END
> <s_m_source_file>
AV-unprocessed.smi

> <i_m_source_file_index>
2276

> <i_lp_mmshare_version>
43012

> <i_f3d_flags>
0

> <s_epik_input>
W0NIM11jMVtjSF1jKFtDSDNdKW5jKFtjSF0xKVtOSF1DKD1PKVtOSF1bQ0gyXVtDQEhdKFtDSDNdKVtDSDJdTjJbQ0gyXVtDSDJdTihbQ0gzXSlbQ0gyXVtDSDJdMg==

> <s_epik_cmdline>
J2VwaWtfcHl0aG9uJywgJy1waCcsICc3LjAnLCAnLXRuJywgJzgnLCAnLW1hJywgJzIwMCcsICctbWV0YWxfYmluZGluZycsICctaW1hZScsICc8aW5maWxlLm1hZT4nLCAnLW9tYWUnLCAnPG91dGZpbGUubWFlPic=

> <r_epik_Ionization_Penalty>
0.0247364

> <r_epik_Ionization_Penalty_Charging>
0.0230248

> <r_epik_Ionization_Penalty_Neutral>
0.00171164

> <r_epik_State_Penalty>
0.239056

> <r_epik_Charging_Adjusted_Penalty>
0.262081

> <i_epik_Tot_Q>
1

> <i_epik_Tot_abs_Q>
1

> <r_epik_Metal_State_Penalty>
0.239048

> <b_epik_Metal_Only>
0

> <s_lp_Force_Field>
OPLS_2005

> <r_lp_Energy>
20.3682

> <b_lp_Chiralities_Consistent>
1

> <s_lp_Variant>
AV-unprocessed.smi:2276-1

> <Gold.Version>
5.8.1

> <Gold.Id.Protein>
6NUR|6NUR_protein|mol2

> <Gold.PLP.Fitness>
50.5334

> <Gold.PLP.PLP>
-42.3662

> <Gold.PLP.part.hbond>
-3.5006

> <Gold.PLP.part.metal>
0.0000

> <Gold.PLP.part.buried>
3.3667

> <Gold.PLP.part.nonpolar>
-42.0526

> <Gold.PLP.part.repulsive>
0.2694

> <Gold.PLP.ligand.clash>
0.0000

> <Gold.PLP.ligand.torsion>
0.7365

> <Gold.PLP.Chemscore.Hbond>
3.2029

> <Gold.PLP.Chemscore.CHOScore>
0.0000

> <Gold.PLP.Chemscore.Metal>
0.0000

> <Gold.Chemscore.Hbonds>
donor molecule, donor type, donor heavy atom, donor atom, acceptor molecule, acceptor atom, score
      L1  H    19    53       P1 10175  1.78

> <Gold.PLP.Chemscore.Internal.Correction>
0.0316

> <Gold.Rescore>
     Score         DG    S(hbond)    S(metal)    S(lipo)     H(rot)  DE(clash)    DE(int)     intcor
     18.89     -20.79       2.00        0.00     109.47       1.63       1.25       0.64       ----

> <Gold.Chemscore.Fitness>
18.8949

> <Gold.Chemscore.DG>
-20.7890

> <Gold.Chemscore.ZeroCoef>
-5.4800

> <Gold.Chemscore.Hbond>
1.9968

> <Gold.Chemscore.Metal>
0.0000

> <Gold.Chemscore.Lipo>
109.4701

> <Gold.Chemscore.Internal_Hbond>
0.0000

> <Gold.Chemscore.DEClash>
1.2535

> <Gold.Chemscore.DEInternal>
0.6406

> <Gold.Chemscore.Rot>
1.6282

> <Gold.Chemscore.Internal.Correction>
   9.000000E+99

> <Gold.Chemscore.Hbonds>
donor molecule, donor type, donor heavy atom, donor atom, acceptor molecule, acceptor atom, score
      L1  H    19    53       P1 10175  0.83

> <Gold.Chemscore.Hbond.Weighted>
-6.6692

> <Gold.Chemscore.Metal.Weighted>
-0.0000

> <Gold.Chemscore.Lipo.Weighted>
-12.8080

> <Gold.Chemscore.Internal_Hbond.Weighted>
0.0000

> <Gold.Chemscore.DEClash.Weighted>
1.2535

> <Gold.Chemscore.DEInternal.Weighted>
0.6406

> <Gold.Chemscore.Rot.Weighted>
4.1682

> <Gold.Chemscore.Internal.Correction.Weighted>
   9.000000E+99

> <Gold.Protein.RotatedTorsions>
[ 6907 6896 6895 6894 ] final   39.30 input  -60.11 | X-H torsion
[ 7974 7965 7964 7962 ] final -151.41 input  175.53 | X-H torsion
[ 8008 7997 7996 7995 ] final  -23.54 input   59.86 | X-H torsion
[ 10167 10162 10161 10158 ] final  115.55 input  -65.29 | X-H torsion
[ 10718 10713 10712 10709 ] final   14.34 input   66.30 | X-H torsion
[ 10763 10752 10751 10750 ] final  121.43 input  -60.55 | X-H torsion
[ 11005 11000 10999 10996 ] final -127.85 input  -57.11 | X-H torsion

> <Gold.Protein.ActiveResidues>
 VAL166  LYS551  ARG553  GLY616  TRP617  ASP618  TYR619  PRO620  LYS621  CYS622 
 ASP623  PHE694  ASN695  SER759  ASP760  ASP761  ALA762  ILE779  LEU786  VAL792 
 PHE793  MET794  SER795  GLU796  ALA797  LYS798  CYS799  TRP800  GLU811  SER814 

> <Gold.Protein.RotatedAtoms>
  152.1677  134.8860  160.0536 H   0  0  0  0  0  0  0  0  0  0  0  0  # atno 6907 bound_to 6896
  151.9832  133.3760  159.4123 H   0  0  0  0  0  0  0  0  0  0  0  0  # atno 6908 bound_to 6896
  150.6897  134.3939  159.5132 H   0  0  0  0  0  0  0  0  0  0  0  0  # atno 6909 bound_to 6896
  144.7852  140.4802  143.5811 H   0  0  0  0  0  0  0  0  0  0  0  0  # atno 7974 bound_to 7965
  154.4579  140.1978  156.0326 H   0  0  0  0  0  0  0  0  0  0  0  0  # atno 8008 bound_to 7997
  156.0783  140.3275  155.7634 H   0  0  0  0  0  0  0  0  0  0  0  0  # atno 8009 bound_to 7997
  155.5152  140.0565  157.2907 H   0  0  0  0  0  0  0  0  0  0  0  0  # atno 8010 bound_to 7997
  139.6309  144.7114  151.2433 H   0  0  0  0  0  0  0  0  0  0  0  0  # atno 10167 bound_to 10162
  157.0378  130.6219  149.5746 H   0  0  0  0  0  0  0  0  0  0  0  0  # atno 10718 bound_to 10713
  153.6139  135.3425  155.2988 H   0  0  0  0  0  0  0  0  0  0  0  0  # atno 10763 bound_to 10752
  154.8613  135.4257  154.2279 H   0  0  0  0  0  0  0  0  0  0  0  0  # atno 10764 bound_to 10752
  153.3137  135.7033  153.7165 H   0  0  0  0  0  0  0  0  0  0  0  0  # atno 10765 bound_to 10752
  140.9565  134.0994  157.4011 H   0  0  0  0  0  0  0  0  0  0  0  0  # atno 11005 bound_to 11000
  145.5942  139.1498  143.3165 LP  0  0  0  0  0  0  0  0  0  0  0  0  # atno 17320 bound_to 7965
  146.2080  140.6066  142.9072 LP  0  0  0  0  0  0  0  0  0  0  0  0  # atno 17321 bound_to 7965
  140.7439  143.6481  150.8273 LP  0  0  0  0  0  0  0  0  0  0  0  0  # atno 17342 bound_to 10162
  140.0106  143.5647  152.2840 LP  0  0  0  0  0  0  0  0  0  0  0  0  # atno 17343 bound_to 10162
  156.0048  130.5133  150.7791 LP  0  0  0  0  0  0  0  0  0  0  0  0  # atno 17370 bound_to 10713
  157.5128  131.0926  151.0177 LP  0  0  0  0  0  0  0  0  0  0  0  0  # atno 17371 bound_to 10713
  139.8864  135.0081  156.6496 LP  0  0  0  0  0  0  0  0  0  0  0  0  # atno 17394 bound_to 11000
  140.7528  133.8883  155.8359 LP  0  0  0  0  0  0  0  0  0  0  0  0  # atno 17395 bound_to 11000

$$$$
