AV-unprocessed.smi:2248|AV-procd|sdf|9094|dock3
  -GOLD-   2272012293D 1   1.00000     0.00000
 Structure written by MMmdl.
 35 36  0  0  0  0  0  0  0  0  1 V2000
  153.2944  141.0708  160.6318 C   0  0  0  0  0  0  0  0  0  0  0  0
  152.5822  142.2460  159.9956 C   0  0  0  0  0  0  0  0  0  0  0  0
  152.7180  143.5461  160.5205 C   0  0  0  0  0  0  0  0  0  0  0  0
  152.0319  144.5938  159.8809 C   0  0  0  0  0  0  0  0  0  0  0  0
  151.2448  144.3010  158.7503 C   0  0  0  0  0  0  0  0  0  0  0  0
  151.1629  142.9686  158.2866 C   0  0  0  0  0  0  0  0  0  0  0  0
  150.3446  142.7782  157.1418 N   0  0  0  0  0  0  0  0  0  0  0  0
  150.3706  141.7617  156.2618 C   0  0  0  0  0  0  0  0  0  0  0  0
  151.1399  140.8010  156.3031 O   0  0  0  0  0  0  0  0  0  0  0  0
  149.4374  141.9180  155.3120 N   0  0  0  0  0  0  0  0  0  0  0  0
  149.2023  140.9858  154.2151 C   0  0  2  0  0  0  0  0  0  0  0  0
  147.8342  141.1975  153.6271 C   0  0  0  0  0  0  0  0  0  0  0  0
  147.0988  140.0882  153.6243 C   0  0  0  0  0  0  0  0  0  0  0  0
  147.8209  138.9056  154.2179 C   0  0  2  0  0  0  0  0  0  0  0  0
  147.0362  138.2361  155.3592 C   0  0  0  0  0  0  0  0  0  0  0  0
  147.7864  137.1835  155.9280 O   0  0  0  0  0  0  0  0  0  0  0  0
  149.1736  139.5053  154.6790 C   0  0  0  0  0  0  0  0  0  0  0  0
  151.8282  141.9651  158.9112 N   0  0  0  0  0  0  0  0  0  0  0  0
  149.9423  141.1339  153.4268 H   0  0  0  0  0  0  0  0  0  0  0  0
  147.9974  138.1840  153.4190 H   0  0  0  0  0  0  0  0  0  0  0  0
  153.6842  141.3321  161.6158 H   0  0  0  0  0  0  0  0  0  0  0  0
  154.1287  140.7528  160.0063 H   0  0  0  0  0  0  0  0  0  0  0  0
  152.6127  140.2280  160.7506 H   0  0  0  0  0  0  0  0  0  0  0  0
  153.3305  143.7381  161.3892 H   0  0  0  0  0  0  0  0  0  0  0  0
  152.1079  145.6058  160.2501 H   0  0  0  0  0  0  0  0  0  0  0  0
  150.7119  145.0948  158.2474 H   0  0  0  0  0  0  0  0  0  0  0  0
  149.6577  143.4985  156.9751 H   0  0  0  0  0  0  0  0  0  0  0  0
  148.8460  142.7351  155.3507 H   0  0  0  0  0  0  0  0  0  0  0  0
  147.5150  142.1543  153.2409 H   0  0  0  0  0  0  0  0  0  0  0  0
  146.0937  140.0123  153.2363 H   0  0  0  0  0  0  0  0  0  0  0  0
  146.8135  138.9628  156.1411 H   0  0  0  0  0  0  0  0  0  0  0  0
  146.0836  137.8452  154.9999 H   0  0  0  0  0  0  0  0  0  0  0  0
  148.6790  137.2517  155.6246 H   0  0  0  0  0  0  0  0  0  0  0  0
  150.0103  138.9507  154.2527 H   0  0  0  0  0  0  0  0  0  0  0  0
  149.2744  139.4331  155.7633 H   0  0  0  0  0  0  0  0  0  0  0  0
  1  2  1  0  0  0  0
  1 21  1  0  0  0  0
  1 22  1  0  0  0  0
  1 23  1  0  0  0  0
  2 18  1  0  0  0  0
  2  3  2  0  0  0  0
  3  4  1  0  0  0  0
  3 24  1  0  0  0  0
  4  5  2  0  0  0  0
  4 25  1  0  0  0  0
  5  6  1  0  0  0  0
  5 26  1  0  0  0  0
  6  7  1  0  0  0  0
  6 18  2  0  0  0  0
  7  8  1  0  0  0  0
  7 27  1  0  0  0  0
  8  9  2  0  0  0  0
  8 10  1  0  0  0  0
 10 11  1  0  0  0  0
 10 28  1  0  0  0  0
 11 19  1  0  0  0  0
 11 17  1  0  0  0  0
 11 12  1  0  0  0  0
 12 13  2  0  0  0  0
 12 29  1  0  0  0  0
 13 14  1  0  0  0  0
 13 30  1  0  0  0  0
 14 20  1  0  0  0  0
 14 15  1  0  0  0  0
 14 17  1  0  0  0  0
 15 16  1  0  0  0  0
 15 31  1  0  0  0  0
 15 32  1  0  0  0  0
 16 33  1  0  0  0  0
 17 34  1  0  0  0  0
 17 35  1  0  0  0  0
M  END
> <s_m_source_file>
AV-unprocessed.smi

> <i_m_source_file_index>
2248

> <i_lp_mmshare_version>
43012

> <i_f3d_flags>
0

> <s_epik_input>
W0NIM11jMVtjSF1bY0hdW2NIXWMobjEpW05IXUMoPU8pW05IXVtDQEBIXTJbQ0hdPVtDSF1bQ0BASF0oW0NIMl0yKVtDSDJdW09IXQ==

> <s_epik_cmdline>
J2VwaWtfcHl0aG9uJywgJy1waCcsICc3LjAnLCAnLXRuJywgJzgnLCAnLW1hJywgJzIwMCcsICctbWV0YWxfYmluZGluZycsICctaW1hZScsICc8aW5maWxlLm1hZT4nLCAnLW9tYWUnLCAnPG91dGZpbGUubWFlPic=

> <r_lp_tautomer_probability>
1

> <r_epik_Ionization_Penalty>
8.36606e-05

> <r_epik_Ionization_Penalty_Charging>
0

> <r_epik_Ionization_Penalty_Neutral>
8.36606e-05

> <r_epik_State_Penalty>
-0

> <r_epik_Charging_Adjusted_Penalty>
0

> <i_epik_Tot_Q>
0

> <i_epik_Tot_abs_Q>
0

> <r_epik_Metal_State_Penalty>
-0

> <b_epik_Metal_Only>
0

> <s_lp_Force_Field>
OPLS_2005

> <r_lp_Energy>
17.2686

> <b_lp_Chiralities_Consistent>
1

> <s_lp_Variant>
AV-unprocessed.smi:2248-1

> <Gold.Version>
5.8.1

> <Gold.Id.Protein>
6NUR|6NUR_protein|mol2

> <Gold.PLP.Fitness>
42.2744

> <Gold.PLP.PLP>
-37.6300

> <Gold.PLP.part.hbond>
-2.0000

> <Gold.PLP.part.metal>
0.0000

> <Gold.PLP.part.buried>
-2.9227

> <Gold.PLP.part.nonpolar>
-32.0016

> <Gold.PLP.part.repulsive>
0.2366

> <Gold.PLP.ligand.clash>
0.0000

> <Gold.PLP.ligand.torsion>
0.3244

> <Gold.PLP.Chemscore.Hbond>
1.7600

> <Gold.PLP.Chemscore.CHOScore>
0.0000

> <Gold.PLP.Chemscore.Metal>
0.0000

> <Gold.Chemscore.Hbonds>
donor molecule, donor type, donor heavy atom, donor atom, acceptor molecule, acceptor atom, score
      L1  H     7    27       P1  8028  0.93
      L1  H    10    28       P1  8028  0.86

> <Gold.PLP.Chemscore.Internal.Correction>
0.0133

> <Gold.Rescore>
     Score         DG    S(hbond)    S(metal)    S(lipo)     H(rot)  DE(clash)    DE(int)     intcor
     15.43     -18.07       1.90        0.00      93.02       1.82       0.08       2.55       ----

> <Gold.Chemscore.Fitness>
15.4314

> <Gold.Chemscore.DG>
-18.0703

> <Gold.Chemscore.ZeroCoef>
-5.4800

> <Gold.Chemscore.Hbond>
1.9046

> <Gold.Chemscore.Metal>
0.0000

> <Gold.Chemscore.Lipo>
93.0244

> <Gold.Chemscore.Internal_Hbond>
0.0000

> <Gold.Chemscore.DEClash>
0.0848

> <Gold.Chemscore.DEInternal>
2.5542

> <Gold.Chemscore.Rot>
1.8184

> <Gold.Chemscore.Internal.Correction>
   9.000000E+99

> <Gold.Chemscore.Hbonds>
donor molecule, donor type, donor heavy atom, donor atom, acceptor molecule, acceptor atom, score
      L1  H     7    27       P1  8028  0.87
      L1  H    10    28       P1  8028  0.82

> <Gold.Chemscore.Hbond.Weighted>
-6.3615

> <Gold.Chemscore.Metal.Weighted>
-0.0000

> <Gold.Chemscore.Lipo.Weighted>
-10.8839

> <Gold.Chemscore.Internal_Hbond.Weighted>
0.0000

> <Gold.Chemscore.DEClash.Weighted>
0.0848

> <Gold.Chemscore.DEInternal.Weighted>
2.5542

> <Gold.Chemscore.Rot.Weighted>
4.6551

> <Gold.Chemscore.Internal.Correction.Weighted>
   9.000000E+99

> <Gold.Protein.RotatedTorsions>
[ 6907 6896 6895 6894 ] final   72.63 input  -60.11 | X-H torsion
[ 7974 7965 7964 7962 ] final   60.27 input  175.53 | X-H torsion
[ 8008 7997 7996 7995 ] final   76.06 input   59.86 | X-H torsion
[ 10167 10162 10161 10158 ] final -108.32 input  -65.29 | X-H torsion
[ 10718 10713 10712 10709 ] final  -65.15 input   66.30 | X-H torsion
[ 10763 10752 10751 10750 ] final  -79.28 input  -60.55 | X-H torsion
[ 11005 11000 10999 10996 ] final -149.47 input  -57.11 | X-H torsion

> <Gold.Protein.ActiveResidues>
 VAL166  LYS551  ARG553  GLY616  TRP617  ASP618  TYR619  PRO620  LYS621  CYS622 
 ASP623  PHE694  ASN695  SER759  ASP760  ASP761  ALA762  ILE779  LEU786  VAL792 
 PHE793  MET794  SER795  GLU796  ALA797  LYS798  CYS799  TRP800  GLU811  SER814 

> <Gold.Protein.RotatedAtoms>
  152.4878  134.4543  159.9584 H   0  0  0  0  0  0  0  0  0  0  0  0  # atno 6907 bound_to 6896
  151.4536  133.3605  159.2806 H   0  0  0  0  0  0  0  0  0  0  0  0  # atno 6908 bound_to 6896
  150.9005  134.8441  159.7417 H   0  0  0  0  0  0  0  0  0  0  0  0  # atno 6909 bound_to 6896
  145.8979  139.3559  143.0610 H   0  0  0  0  0  0  0  0  0  0  0  0  # atno 7974 bound_to 7965
  155.8218  140.3469  155.5519 H   0  0  0  0  0  0  0  0  0  0  0  0  # atno 8008 bound_to 7997
  155.8334  140.0930  157.1799 H   0  0  0  0  0  0  0  0  0  0  0  0  # atno 8009 bound_to 7997
  154.4004  140.1408  156.3628 H   0  0  0  0  0  0  0  0  0  0  0  0  # atno 8010 bound_to 7997
  140.1674  143.4071  152.1380 H   0  0  0  0  0  0  0  0  0  0  0  0  # atno 10167 bound_to 10162
  156.0687  130.4243  150.1522 H   0  0  0  0  0  0  0  0  0  0  0  0  # atno 10718 bound_to 10713
  154.5366  135.5701  153.6804 H   0  0  0  0  0  0  0  0  0  0  0  0  # atno 10763 bound_to 10752
  152.9952  135.6217  154.2558 H   0  0  0  0  0  0  0  0  0  0  0  0  # atno 10764 bound_to 10752
  154.2487  135.2860  155.2805 H   0  0  0  0  0  0  0  0  0  0  0  0  # atno 10765 bound_to 10752
  140.7504  134.3413  157.5127 H   0  0  0  0  0  0  0  0  0  0  0  0  # atno 11005 bound_to 11000
  145.8828  140.9352  143.0592 LP  0  0  0  0  0  0  0  0  0  0  0  0  # atno 17320 bound_to 7965
  144.6734  140.0802  143.7469 LP  0  0  0  0  0  0  0  0  0  0  0  0  # atno 17321 bound_to 7965
  139.5353  144.7203  151.4914 LP  0  0  0  0  0  0  0  0  0  0  0  0  # atno 17342 bound_to 10162
  140.6604  143.8510  150.6881 LP  0  0  0  0  0  0  0  0  0  0  0  0  # atno 17343 bound_to 10162
  156.9577  130.9795  151.3485 LP  0  0  0  0  0  0  0  0  0  0  0  0  # atno 17370 bound_to 10713
  157.5744  130.8333  149.8436 LP  0  0  0  0  0  0  0  0  0  0  0  0  # atno 17371 bound_to 10713
  139.8789  134.9138  156.3092 LP  0  0  0  0  0  0  0  0  0  0  0  0  # atno 17394 bound_to 11000
  140.9756  133.7300  156.0597 LP  0  0  0  0  0  0  0  0  0  0  0  0  # atno 17395 bound_to 11000

$$$$
