AV-unprocessed.smi:282|AV-procd|sdf|2122|dock1
  -GOLD-   2262021423D 1   1.00000     0.00000
 Structure written by MMmdl.
 65 69  0  0  0  0  0  0  0  0  2 V2000
  146.0717  128.2322  153.0803 C   0  0  0  0  0  0  0  0  0  0  0  0
  146.4760  129.5883  153.6757 C   0  0  0  0  0  0  0  0  0  0  0  0
  146.9766  130.6184  152.6275 C   0  0  1  0  0  0  0  0  0  0  0  0
  145.8916  130.8597  151.5512 C   0  0  0  0  0  0  0  0  0  0  0  0
  146.2751  131.9199  150.5840 N   0  3  1  0  0  0  0  0  0  0  0  0
  145.2769  132.1247  149.5012 C   0  0  0  0  0  0  0  0  0  0  0  0
  144.0348  132.8945  149.9923 C   0  0  0  0  0  0  0  0  0  0  0  0
  144.4314  134.2205  150.6564 C   0  0  0  0  0  0  0  0  0  0  0  0
  145.4611  133.9768  151.7690 C   0  0  0  0  0  0  0  0  0  0  0  0
  146.6808  133.1983  151.2295 C   0  0  1  0  0  0  0  0  0  0  0  0
  147.7520  132.9501  152.3031 C   0  0  0  0  0  0  0  0  0  0  0  0
  147.3618  131.8993  153.2391 N   0  0  0  0  0  0  0  0  0  0  0  0
  148.2411  131.8652  154.2684 C   0  0  0  0  0  0  0  0  0  0  0  0
  148.1716  132.7923  155.2601 N   0  0  0  0  0  0  0  0  0  0  0  0
  149.0309  132.7394  156.2825 C   0  0  0  0  0  0  0  0  0  0  0  0
  150.0098  131.8596  156.5051 N   0  0  0  0  0  0  0  0  0  0  0  0
  150.0742  130.9232  155.5157 C   0  0  0  0  0  0  0  0  0  0  0  0
  149.2270  130.8497  154.3756 C   0  0  0  0  0  0  0  0  0  0  0  0
  149.5693  129.7552  153.5934 N   0  0  0  0  0  0  0  0  0  0  0  0
  150.5657  129.2101  154.2366 C   0  0  0  0  0  0  0  0  0  0  0  0
  150.9506  129.8582  155.3905 N   0  0  0  0  0  0  0  0  0  0  0  0
  152.0251  129.4656  156.2930 C   0  0  0  0  0  0  0  0  0  0  0  0
  153.1103  128.5286  155.6721 C   0  0  0  0  0  0  0  0  0  0  0  0
  152.4559  127.1584  155.3373 C   0  0  0  0  0  0  0  0  0  0  0  0
  153.1064  126.4627  154.2921 O   0  0  0  0  0  0  0  0  0  0  0  0
  153.7331  129.1388  154.3896 C   0  0  0  0  0  0  0  0  0  0  0  0
  154.6206  130.3616  154.6875 C   0  0  0  0  0  0  0  0  0  0  0  0
  155.6388  130.0086  155.6152 O   0  0  0  0  0  0  0  0  0  0  0  0
  155.1204  129.5981  156.8743 C   0  0  0  0  0  0  0  0  0  0  0  0
  154.2556  128.3354  156.7004 C   0  0  0  0  0  0  0  0  0  0  0  0
  145.8394  127.5199  153.8724 H   0  0  0  0  0  0  0  0  0  0  0  0
  146.8788  127.8082  152.4822 H   0  0  0  0  0  0  0  0  0  0  0  0
  145.1867  128.3114  152.4496 H   0  0  0  0  0  0  0  0  0  0  0  0
  145.6368  130.0053  154.2337 H   0  0  0  0  0  0  0  0  0  0  0  0
  147.2501  129.3858  154.4150 H   0  0  0  0  0  0  0  0  0  0  0  0
  147.8600  130.2117  152.1326 H   0  0  0  0  0  0  0  0  0  0  0  0
  145.7095  129.9427  150.9912 H   0  0  0  0  0  0  0  0  0  0  0  0
  144.9509  131.1225  152.0354 H   0  0  0  0  0  0  0  0  0  0  0  0
  145.7551  132.6854  148.6970 H   0  0  0  0  0  0  0  0  0  0  0  0
  144.9868  131.1643  149.0730 H   0  0  0  0  0  0  0  0  0  0  0  0
  143.3657  133.0880  149.1535 H   0  0  0  0  0  0  0  0  0  0  0  0
  143.4674  132.2855  150.6967 H   0  0  0  0  0  0  0  0  0  0  0  0
  144.8531  134.8929  149.9082 H   0  0  0  0  0  0  0  0  0  0  0  0
  143.5497  134.7186  151.0611 H   0  0  0  0  0  0  0  0  0  0  0  0
  145.7841  134.9331  152.1817 H   0  0  0  0  0  0  0  0  0  0  0  0
  144.9944  133.4341  152.5917 H   0  0  0  0  0  0  0  0  0  0  0  0
  147.1410  133.8151  150.4561 H   0  0  0  0  0  0  0  0  0  0  0  0
  148.6843  132.6531  151.8200 H   0  0  0  0  0  0  0  0  0  0  0  0
  147.9606  133.8802  152.8349 H   0  0  0  0  0  0  0  0  0  0  0  0
  148.9178  133.5110  157.0299 H   0  0  0  0  0  0  0  0  0  0  0  0
  151.0587  128.3175  153.8789 H   0  0  0  0  0  0  0  0  0  0  0  0
  152.4662  130.3776  156.6920 H   0  0  0  0  0  0  0  0  0  0  0  0
  151.5654  128.9711  157.1500 H   0  0  0  0  0  0  0  0  0  0  0  0
  152.4515  126.5149  156.2176 H   0  0  0  0  0  0  0  0  0  0  0  0
  151.4176  127.2874  155.0330 H   0  0  0  0  0  0  0  0  0  0  0  0
  152.8604  126.8582  153.4697 H   0  0  0  0  0  0  0  0  0  0  0  0
  154.3604  128.3973  153.8942 H   0  0  0  0  0  0  0  0  0  0  0  0
  152.9622  129.3983  153.6647 H   0  0  0  0  0  0  0  0  0  0  0  0
  155.0934  130.7067  153.7680 H   0  0  0  0  0  0  0  0  0  0  0  0
  154.0410  131.2004  155.0717 H   0  0  0  0  0  0  0  0  0  0  0  0
  155.9575  129.3820  157.5381 H   0  0  0  0  0  0  0  0  0  0  0  0
  154.5623  130.4122  157.3374 H   0  0  0  0  0  0  0  0  0  0  0  0
  153.8538  128.0230  157.6649 H   0  0  0  0  0  0  0  0  0  0  0  0
  154.9205  127.5328  156.3809 H   0  0  0  0  0  0  0  0  0  0  0  0
  147.1060  131.5680  150.1302 H   0  0  0  0  0  0  0  0  0  0  0  0
  1  2  1  0  0  0  0
  1 31  1  0  0  0  0
  1 32  1  0  0  0  0
  1 33  1  0  0  0  0
  2  3  1  0  0  0  0
  2 34  1  0  0  0  0
  2 35  1  0  0  0  0
  3 12  1  0  0  0  0
  3  4  1  0  0  0  0
  3 36  1  0  0  0  0
  4  5  1  0  0  0  0
  4 37  1  0  0  0  0
  4 38  1  0  0  0  0
  5 10  1  0  0  0  0
  5  6  1  0  0  0  0
  5 65  1  0  0  0  0
  6  7  1  0  0  0  0
  6 39  1  0  0  0  0
  6 40  1  0  0  0  0
  7  8  1  0  0  0  0
  7 41  1  0  0  0  0
  7 42  1  0  0  0  0
  8  9  1  0  0  0  0
  8 43  1  0  0  0  0
  8 44  1  0  0  0  0
  9 10  1  0  0  0  0
  9 45  1  0  0  0  0
  9 46  1  0  0  0  0
 10 11  1  0  0  0  0
 10 47  1  0  0  0  0
 11 12  1  0  0  0  0
 11 48  1  0  0  0  0
 11 49  1  0  0  0  0
 12 13  1  0  0  0  0
 13 18  1  0  0  0  0
 13 14  2  0  0  0  0
 14 15  1  0  0  0  0
 15 16  2  0  0  0  0
 15 50  1  0  0  0  0
 16 17  1  0  0  0  0
 17 21  1  0  0  0  0
 17 18  2  0  0  0  0
 18 19  1  0  0  0  0
 19 20  2  0  0  0  0
 20 21  1  0  0  0  0
 20 51  1  0  0  0  0
 21 22  1  0  0  0  0
 22 23  1  0  0  0  0
 22 52  1  0  0  0  0
 22 53  1  0  0  0  0
 23 30  1  0  0  0  0
 23 24  1  0  0  0  0
 23 26  1  0  0  0  0
 24 25  1  0  0  0  0
 24 54  1  0  0  0  0
 24 55  1  0  0  0  0
 25 56  1  0  0  0  0
 26 27  1  0  0  0  0
 26 57  1  0  0  0  0
 26 58  1  0  0  0  0
 27 28  1  0  0  0  0
 27 59  1  0  0  0  0
 27 60  1  0  0  0  0
 28 29  1  0  0  0  0
 29 30  1  0  0  0  0
 29 61  1  0  0  0  0
 29 62  1  0  0  0  0
 30 63  1  0  0  0  0
 30 64  1  0  0  0  0
M  CHG  1   5   1
M  END
> <s_m_source_file>
AV-unprocessed.smi

> <i_m_source_file_index>
282

> <i_lp_mmshare_version>
43012

> <i_f3d_flags>
0

> <s_epik_input>
W0NIMl0xW0NIMl1bQ0gyXVtDSDJdW0NAQEhdKE4xMilbQ0gyXU4oW0NAQEhdKFtDSDJdMilbQ0gyXVtDSDNdKWMobltjSF1uMyljKGMzNCluW2NIXW40W0NIMl1DNShbQ0gyXVtPSF0pW0NIMl1bQ0gyXU9bQ0gyXVtDSDJdNQ==

> <s_epik_cmdline>
J2VwaWtfcHl0aG9uJywgJy1waCcsICc3LjAnLCAnLXRuJywgJzgnLCAnLW1hJywgJzIwMCcsICctbWV0YWxfYmluZGluZycsICctaW1hZScsICc8aW5maWxlLm1hZT4nLCAnLW9tYWUnLCAnPG91dGZpbGUubWFlPic=

> <r_lp_tautomer_probability>
1

> <r_epik_Ionization_Penalty>
0.00308583

> <r_epik_Ionization_Penalty_Charging>
0.00300384

> <r_epik_Ionization_Penalty_Neutral>
8.19894e-05

> <r_epik_State_Penalty>
-0

> <r_epik_Charging_Adjusted_Penalty>
0.00300384

> <i_epik_Tot_Q>
1

> <i_epik_Tot_abs_Q>
1

> <r_epik_Metal_State_Penalty>
-0

> <b_epik_Metal_Only>
0

> <s_lp_Force_Field>
OPLS_2005

> <r_lp_Energy>
60.0912

> <b_lp_Chiralities_Consistent>
1

> <s_lp_Variant>
AV-unprocessed.smi:282-6

> <Gold.Version>
5.8.1

> <Gold.Id.Protein>
6NUR|6NUR_protein|mol2

> <Gold.PLP.Fitness>
48.0374

> <Gold.PLP.PLP>
-41.4242

> <Gold.PLP.part.hbond>
-2.0000

> <Gold.PLP.part.metal>
0.0000

> <Gold.PLP.part.buried>
-2.8309

> <Gold.PLP.part.nonpolar>
-38.9035

> <Gold.PLP.part.repulsive>
0.3155

> <Gold.PLP.ligand.clash>
0.0359

> <Gold.PLP.ligand.torsion>
1.3777

> <Gold.PLP.Chemscore.Hbond>
2.0000

> <Gold.PLP.Chemscore.CHOScore>
1.0000

> <Gold.PLP.Chemscore.Metal>
0.0000

> <Gold.Chemscore.Hbonds>
donor molecule, donor type, donor heavy atom, donor atom, acceptor molecule, acceptor atom, score
      L1  H     5    65       P1 10747  1.00
      L1  H    25    56       P1 10737  0.91
      L1  C    20    51       P1 10737  1.00

> <Gold.PLP.Chemscore.Internal.Correction>
0.4046

> <Gold.Rescore>
     Score         DG    S(hbond)    S(metal)    S(lipo)     H(rot)  DE(clash)    DE(int)     intcor
     13.51     -17.83       1.87        0.00     106.04       2.46       0.59       3.72       ----

> <Gold.Chemscore.Fitness>
13.5144

> <Gold.Chemscore.DG>
-17.8336

> <Gold.Chemscore.ZeroCoef>
-5.4800

> <Gold.Chemscore.Hbond>
1.8678

> <Gold.Chemscore.Metal>
0.0000

> <Gold.Chemscore.Lipo>
106.0405

> <Gold.Chemscore.Internal_Hbond>
0.0000

> <Gold.Chemscore.DEClash>
0.5949

> <Gold.Chemscore.DEInternal>
3.7242

> <Gold.Chemscore.Rot>
2.4576

> <Gold.Chemscore.Internal.Correction>
   9.000000E+99

> <Gold.Chemscore.Hbonds>
donor molecule, donor type, donor heavy atom, donor atom, acceptor molecule, acceptor atom, score
      L1  H     5    65       P1 10747  0.91
      L1  H    25    56       P1 10737  0.86

> <Gold.Chemscore.Hbond.Weighted>
-6.2384

> <Gold.Chemscore.Metal.Weighted>
-0.0000

> <Gold.Chemscore.Lipo.Weighted>
-12.4067

> <Gold.Chemscore.Internal_Hbond.Weighted>
0.0000

> <Gold.Chemscore.DEClash.Weighted>
0.5949

> <Gold.Chemscore.DEInternal.Weighted>
3.7242

> <Gold.Chemscore.Rot.Weighted>
6.2915

> <Gold.Chemscore.Internal.Correction.Weighted>
   9.000000E+99

> <Gold.Protein.RotatedTorsions>
[ 6907 6896 6895 6894 ] final  147.79 input  -60.11 | X-H torsion
[ 7974 7965 7964 7962 ] final -111.15 input  175.53 | X-H torsion
[ 8008 7997 7996 7995 ] final -126.48 input   59.86 | X-H torsion
[ 10167 10162 10161 10158 ] final  -11.26 input  -65.29 | X-H torsion
[ 10718 10713 10712 10709 ] final -136.30 input   66.30 | X-H torsion
[ 10763 10752 10751 10750 ] final  -82.72 input  -60.55 | X-H torsion
[ 11005 11000 10999 10996 ] final -144.34 input  -57.11 | X-H torsion

> <Gold.Protein.ActiveResidues>
 VAL166  LYS551  ARG553  GLY616  TRP617  ASP618  TYR619  PRO620  LYS621  CYS622 
 ASP623  PHE694  ASN695  SER759  ASP760  ASP761  ALA762  ILE779  LEU786  VAL792 
 PHE793  MET794  SER795  GLU796  ALA797  LYS798  CYS799  TRP800  GLU811  SER814 

> <Gold.Protein.RotatedAtoms>
  152.1502  133.4517  159.4809 H   0  0  0  0  0  0  0  0  0  0  0  0  # atno 6907 bound_to 6896
  150.6895  134.2199  159.4401 H   0  0  0  0  0  0  0  0  0  0  0  0  # atno 6908 bound_to 6896
  152.0095  134.9884  160.0618 H   0  0  0  0  0  0  0  0  0  0  0  0  # atno 6909 bound_to 6896
  145.1596  140.8871  143.3598 H   0  0  0  0  0  0  0  0  0  0  0  0  # atno 7974 bound_to 7965
  155.2304  140.0425  157.2961 H   0  0  0  0  0  0  0  0  0  0  0  0  # atno 8008 bound_to 7997
  154.5892  140.2422  155.7915 H   0  0  0  0  0  0  0  0  0  0  0  0  # atno 8009 bound_to 7997
  156.2247  140.2958  156.0047 H   0  0  0  0  0  0  0  0  0  0  0  0  # atno 8010 bound_to 7997
  140.7134  143.5659  150.9145 H   0  0  0  0  0  0  0  0  0  0  0  0  # atno 10167 bound_to 10162
  156.2755  130.7290  151.1271 H   0  0  0  0  0  0  0  0  0  0  0  0  # atno 10718 bound_to 10713
  154.5792  135.5581  153.7169 H   0  0  0  0  0  0  0  0  0  0  0  0  # atno 10763 bound_to 10752
  153.0075  135.6316  154.2006 H   0  0  0  0  0  0  0  0  0  0  0  0  # atno 10764 bound_to 10752
  154.1947  135.2880  155.2990 H   0  0  0  0  0  0  0  0  0  0  0  0  # atno 10765 bound_to 10752
  140.8034  134.2830  157.4970 H   0  0  0  0  0  0  0  0  0  0  0  0  # atno 11005 bound_to 11000
  145.0345  139.3313  143.6008 LP  0  0  0  0  0  0  0  0  0  0  0  0  # atno 17320 bound_to 7965
  146.3484  139.9694  142.8708 LP  0  0  0  0  0  0  0  0  0  0  0  0  # atno 17321 bound_to 7965
  139.9385  143.6410  152.3059 LP  0  0  0  0  0  0  0  0  0  0  0  0  # atno 17342 bound_to 10162
  139.6886  144.7649  151.1479 LP  0  0  0  0  0  0  0  0  0  0  0  0  # atno 17343 bound_to 10162
  157.7298  131.0621  150.5758 LP  0  0  0  0  0  0  0  0  0  0  0  0  # atno 17370 bound_to 10713
  156.5858  130.4316  149.5957 LP  0  0  0  0  0  0  0  0  0  0  0  0  # atno 17371 bound_to 10713
  139.8720  134.9442  156.3875 LP  0  0  0  0  0  0  0  0  0  0  0  0  # atno 17394 bound_to 11000
  140.9272  133.7604  155.9979 LP  0  0  0  0  0  0  0  0  0  0  0  0  # atno 17395 bound_to 11000

$$$$
