AV-unprocessed.smi:2114|AV-procd|sdf|8620|dock4
  -GOLD-   2272011363D 1   1.00000     0.00000
 Structure written by MMmdl.
 47 48  0  0  0  0  0  0  0  0  1 V2000
  151.8759  145.4917  159.4126 C   0  0  0  0  0  0  0  0  0  0  0  0
  152.1219  144.8107  158.1948 O   0  0  0  0  0  0  0  0  0  0  0  0
  151.3786  143.6075  158.0848 C   0  0  0  0  0  0  0  0  0  0  0  0
  152.2492  142.4246  158.5356 C   0  0  1  0  0  0  0  0  0  0  0  0
  152.9878  142.7383  159.8471 C   0  0  0  0  0  0  0  0  0  0  0  0
  151.4146  141.2373  158.6988 N   0  0  0  0  0  0  0  0  0  0  0  0
  151.6386  140.0445  158.1229 C   0  0  0  0  0  0  0  0  0  0  0  0
  152.5823  139.8219  157.3643 O   0  0  0  0  0  0  0  0  0  0  0  0
  150.6184  138.9814  158.4122 C   0  0  0  0  0  0  0  0  0  0  0  0
  149.2450  139.1761  158.1479 C   0  0  0  0  0  0  0  0  0  0  0  0
  148.3327  138.1533  158.4700 C   0  0  0  0  0  0  0  0  0  0  0  0
  148.8130  136.9594  159.0576 C   0  0  0  0  0  0  0  0  0  0  0  0
  147.9141  135.9248  159.3935 N   0  0  0  0  0  0  0  0  0  0  0  0
  147.9652  134.7402  158.5417 C   0  0  0  0  0  0  0  0  0  0  0  0
  146.7366  133.8389  158.7752 C   0  0  2  0  0  0  0  0  0  0  0  0
  145.4471  134.3857  158.1369 C   0  0  0  0  0  0  0  0  0  0  0  0
  146.5779  133.5709  160.1704 O   0  0  0  0  0  0  0  0  0  0  0  0
  146.4733  134.7317  160.9939 C   0  0  1  0  0  0  0  0  0  0  0  0
  146.3115  134.2713  162.4464 C   0  0  0  0  0  0  0  0  0  0  0  0
  147.7222  135.6108  160.8066 C   0  0  0  0  0  0  0  0  0  0  0  0
  150.1299  136.7795  159.3235 N   0  0  0  0  0  0  0  0  0  0  0  0
  151.0010  137.7624  159.0117 C   0  0  0  0  0  0  0  0  0  0  0  0
  152.4628  146.4094  159.4443 H   0  0  0  0  0  0  0  0  0  0  0  0
  152.1604  144.8807  160.2703 H   0  0  0  0  0  0  0  0  0  0  0  0
  150.8233  145.7616  159.5082 H   0  0  0  0  0  0  0  0  0  0  0  0
  150.4899  143.6733  158.7146 H   0  0  0  0  0  0  0  0  0  0  0  0
  151.0401  143.4629  157.0572 H   0  0  0  0  0  0  0  0  0  0  0  0
  152.9919  142.2380  157.7577 H   0  0  0  0  0  0  0  0  0  0  0  0
  153.6232  143.6176  159.7380 H   0  0  0  0  0  0  0  0  0  0  0  0
  153.6283  141.9097  160.1502 H   0  0  0  0  0  0  0  0  0  0  0  0
  152.2876  142.9329  160.6600 H   0  0  0  0  0  0  0  0  0  0  0  0
  150.5969  141.3349  159.2828 H   0  0  0  0  0  0  0  0  0  0  0  0
  148.8821  140.0958  157.7123 H   0  0  0  0  0  0  0  0  0  0  0  0
  147.2797  138.3024  158.2828 H   0  0  0  0  0  0  0  0  0  0  0  0
  148.0309  134.9972  157.4852 H   0  0  0  0  0  0  0  0  0  0  0  0
  148.8740  134.1878  158.7844 H   0  0  0  0  0  0  0  0  0  0  0  0
  146.9372  132.8766  158.3033 H   0  0  0  0  0  0  0  0  0  0  0  0
  145.5490  134.4452  157.0532 H   0  0  0  0  0  0  0  0  0  0  0  0
  145.2007  135.3861  158.4923 H   0  0  0  0  0  0  0  0  0  0  0  0
  144.5998  133.7347  158.3528 H   0  0  0  0  0  0  0  0  0  0  0  0
  145.5830  135.2981  160.7194 H   0  0  0  0  0  0  0  0  0  0  0  0
  146.2154  135.1234  163.1197 H   0  0  0  0  0  0  0  0  0  0  0  0
  147.1695  133.6821  162.7716 H   0  0  0  0  0  0  0  0  0  0  0  0
  145.4203  133.6541  162.5622 H   0  0  0  0  0  0  0  0  0  0  0  0
  148.6076  135.0959  161.1830 H   0  0  0  0  0  0  0  0  0  0  0  0
  147.6069  136.5283  161.3853 H   0  0  0  0  0  0  0  0  0  0  0  0
  152.0355  137.5611  159.2497 H   0  0  0  0  0  0  0  0  0  0  0  0
  1  2  1  0  0  0  0
  1 23  1  0  0  0  0
  1 24  1  0  0  0  0
  1 25  1  0  0  0  0
  2  3  1  0  0  0  0
  3  4  1  0  0  0  0
  3 26  1  0  0  0  0
  3 27  1  0  0  0  0
  4  5  1  0  0  0  0
  4  6  1  0  0  0  0
  4 28  1  0  0  0  0
  5 29  1  0  0  0  0
  5 30  1  0  0  0  0
  5 31  1  0  0  0  0
  6  7  1  0  0  0  0
  6 32  1  0  0  0  0
  7  8  2  0  0  0  0
  7  9  1  0  0  0  0
  9 22  1  0  0  0  0
  9 10  2  0  0  0  0
 10 11  1  0  0  0  0
 10 33  1  0  0  0  0
 11 12  2  0  0  0  0
 11 34  1  0  0  0  0
 12 13  1  0  0  0  0
 12 21  1  0  0  0  0
 13 20  1  0  0  0  0
 13 14  1  0  0  0  0
 14 15  1  0  0  0  0
 14 35  1  0  0  0  0
 14 36  1  0  0  0  0
 15 16  1  0  0  0  0
 15 17  1  0  0  0  0
 15 37  1  0  0  0  0
 16 38  1  0  0  0  0
 16 39  1  0  0  0  0
 16 40  1  0  0  0  0
 17 18  1  0  0  0  0
 18 19  1  0  0  0  0
 18 20  1  0  0  0  0
 18 41  1  0  0  0  0
 19 42  1  0  0  0  0
 19 43  1  0  0  0  0
 19 44  1  0  0  0  0
 20 45  1  0  0  0  0
 20 46  1  0  0  0  0
 21 22  2  0  0  0  0
 22 47  1  0  0  0  0
M  END
> <s_m_source_file>
AV-unprocessed.smi

> <i_m_source_file_index>
2114

> <i_lp_mmshare_version>
43012

> <i_f3d_flags>
0

> <s_epik_input>
W0NIM11PW0NIMl1bQ0BIXShbQ0gzXSlbTkhdQyg9TyljMVtjSF1bY0hdYyhuW2NIXTEpTjJbQ0gyXVtDQEBIXShbQ0gzXSlPW0NAQEhdKFtDSDNdKVtDSDJdMg==

> <s_epik_cmdline>
J2VwaWtfcHl0aG9uJywgJy1waCcsICc3LjAnLCAnLXRuJywgJzgnLCAnLW1hJywgJzIwMCcsICctbWV0YWxfYmluZGluZycsICctaW1hZScsICc8aW5maWxlLm1hZT4nLCAnLW9tYWUnLCAnPG91dGZpbGUubWFlPic=

> <r_lp_tautomer_probability>
1

> <r_epik_Ionization_Penalty>
1.92915e-05

> <r_epik_Ionization_Penalty_Charging>
0

> <r_epik_Ionization_Penalty_Neutral>
1.92915e-05

> <r_epik_State_Penalty>
-0

> <r_epik_Charging_Adjusted_Penalty>
0

> <i_epik_Tot_Q>
0

> <i_epik_Tot_abs_Q>
0

> <r_epik_Metal_State_Penalty>
-0

> <b_epik_Metal_Only>
0

> <s_lp_Force_Field>
OPLS_2005

> <r_lp_Energy>
21.8338

> <b_lp_Chiralities_Consistent>
1

> <s_lp_Variant>
AV-unprocessed.smi:2114-4

> <Gold.Version>
5.8.1

> <Gold.Id.Protein>
6NUR|6NUR_protein|mol2

> <Gold.PLP.Fitness>
38.3447

> <Gold.PLP.PLP>
-35.2997

> <Gold.PLP.part.hbond>
-2.0000

> <Gold.PLP.part.metal>
0.0000

> <Gold.PLP.part.buried>
-6.2523

> <Gold.PLP.part.nonpolar>
-28.1378

> <Gold.PLP.part.repulsive>
0.1986

> <Gold.PLP.ligand.clash>
0.0000

> <Gold.PLP.ligand.torsion>
1.6590

> <Gold.PLP.Chemscore.Hbond>
2.0000

> <Gold.PLP.Chemscore.CHOScore>
0.0000

> <Gold.PLP.Chemscore.Metal>
0.0000

> <Gold.Chemscore.Hbonds>
donor molecule, donor type, donor heavy atom, donor atom, acceptor molecule, acceptor atom, score
      P1  H  6896  6908       L1    21  1.00
      P1  H  7997  8009       L1     8  1.00

> <Gold.PLP.Chemscore.Internal.Correction>
0.3629

> <Gold.Rescore>
     Score         DG    S(hbond)    S(metal)    S(lipo)     H(rot)  DE(clash)    DE(int)     intcor
     16.76     -18.52       1.95        0.00      89.12       1.52       0.00       1.76       ----

> <Gold.Chemscore.Fitness>
16.7568

> <Gold.Chemscore.DG>
-18.5187

> <Gold.Chemscore.ZeroCoef>
-5.4800

> <Gold.Chemscore.Hbond>
1.9491

> <Gold.Chemscore.Metal>
0.0000

> <Gold.Chemscore.Lipo>
89.1161

> <Gold.Chemscore.Internal_Hbond>
0.0000

> <Gold.Chemscore.DEClash>
0.0048

> <Gold.Chemscore.DEInternal>
1.7571

> <Gold.Chemscore.Rot>
1.5226

> <Gold.Chemscore.Internal.Correction>
   9.000000E+99

> <Gold.Chemscore.Hbonds>
donor molecule, donor type, donor heavy atom, donor atom, acceptor molecule, acceptor atom, score
      P1  H  6896  6908       L1    21  0.82
      P1  H  7997  8009       L1     8  0.99

> <Gold.Chemscore.Hbond.Weighted>
-6.5101

> <Gold.Chemscore.Metal.Weighted>
-0.0000

> <Gold.Chemscore.Lipo.Weighted>
-10.4266

> <Gold.Chemscore.Internal_Hbond.Weighted>
0.0000

> <Gold.Chemscore.DEClash.Weighted>
0.0048

> <Gold.Chemscore.DEInternal.Weighted>
1.7571

> <Gold.Chemscore.Rot.Weighted>
3.8980

> <Gold.Chemscore.Internal.Correction.Weighted>
   9.000000E+99

> <Gold.Protein.RotatedTorsions>
[ 6907 6896 6895 6894 ] final -154.55 input  -60.11 | X-H torsion
[ 7974 7965 7964 7962 ] final    9.62 input  175.53 | X-H torsion
[ 8008 7997 7996 7995 ] final  170.65 input   59.86 | X-H torsion
[ 10167 10162 10161 10158 ] final  128.52 input  -65.29 | X-H torsion
[ 10718 10713 10712 10709 ] final  160.06 input   66.30 | X-H torsion
[ 10763 10752 10751 10750 ] final -122.34 input  -60.55 | X-H torsion
[ 11005 11000 10999 10996 ] final  -95.48 input  -57.11 | X-H torsion

> <Gold.Protein.ActiveResidues>
 VAL166  LYS551  ARG553  GLY616  TRP617  ASP618  TYR619  PRO620  LYS621  CYS622 
 ASP623  PHE694  ASN695  SER759  ASP760  ASP761  ALA762  ILE779  LEU786  VAL792 
 PHE793  MET794  SER795  GLU796  ALA797  LYS798  CYS799  TRP800  GLU811  SER814 

> <Gold.Protein.RotatedAtoms>
  151.2592  133.4311  159.2614 H   0  0  0  0  0  0  0  0  0  0  0  0  # atno 6907 bound_to 6896
  151.0546  134.9696  159.8239 H   0  0  0  0  0  0  0  0  0  0  0  0  # atno 6908 bound_to 6896
  152.5388  134.2545  159.8964 H   0  0  0  0  0  0  0  0  0  0  0  0  # atno 6909 bound_to 6896
  146.2401  139.9756  142.8442 H   0  0  0  0  0  0  0  0  0  0  0  0  # atno 7974 bound_to 7965
  156.1345  140.1532  156.9015 H   0  0  0  0  0  0  0  0  0  0  0  0  # atno 8008 bound_to 7997
  154.4936  140.0844  156.7687 H   0  0  0  0  0  0  0  0  0  0  0  0  # atno 8009 bound_to 7997
  155.4194  140.3422  155.4272 H   0  0  0  0  0  0  0  0  0  0  0  0  # atno 8010 bound_to 7997
  139.5523  144.6822  151.4287 H   0  0  0  0  0  0  0  0  0  0  0  0  # atno 10167 bound_to 10162
  157.1556  131.0574  151.2258 H   0  0  0  0  0  0  0  0  0  0  0  0  # atno 10718 bound_to 10713
  154.8687  135.4136  154.2765 H   0  0  0  0  0  0  0  0  0  0  0  0  # atno 10763 bound_to 10752
  153.3666  135.7006  153.6676 H   0  0  0  0  0  0  0  0  0  0  0  0  # atno 10764 bound_to 10752
  153.5555  135.3620  155.2749 H   0  0  0  0  0  0  0  0  0  0  0  0  # atno 10765 bound_to 10752
  141.1440  133.8029  157.0441 H   0  0  0  0  0  0  0  0  0  0  0  0  # atno 11005 bound_to 11000
  145.1640  140.9687  143.4360 LP  0  0  0  0  0  0  0  0  0  0  0  0  # atno 17320 bound_to 7965
  145.0090  139.3528  143.6129 LP  0  0  0  0  0  0  0  0  0  0  0  0  # atno 17321 bound_to 7965
  140.6788  143.8128  150.7094 LP  0  0  0  0  0  0  0  0  0  0  0  0  # atno 17342 bound_to 10162
  140.1575  143.4304  152.2089 LP  0  0  0  0  0  0  0  0  0  0  0  0  # atno 17343 bound_to 10162
  157.4180  130.7422  149.6891 LP  0  0  0  0  0  0  0  0  0  0  0  0  # atno 17370 bound_to 10713
  155.9763  130.4078  150.3791 LP  0  0  0  0  0  0  0  0  0  0  0  0  # atno 17371 bound_to 10713
  140.0673  134.9721  157.1408 LP  0  0  0  0  0  0  0  0  0  0  0  0  # atno 17394 bound_to 11000
  140.3761  134.2338  155.7174 LP  0  0  0  0  0  0  0  0  0  0  0  0  # atno 17395 bound_to 11000

$$$$
