AV-unprocessed.smi:1140|AV-procd|sdf|4871|dock4
  -GOLD-   22720 3443D 1   1.00000     0.00000
 Structure written by MMmdl.
 48 50  0  0  0  0  0  0  0  0  1 V2000
  145.3120  134.6320  150.9486 C   0  0  0  0  0  0  0  0  0  0  0  0
  145.9408  133.3209  151.4263 C   0  0  0  0  0  0  0  0  0  0  0  0
  147.0155  133.6247  152.3106 O   0  0  0  0  0  0  0  0  0  0  0  0
  147.6300  132.5891  152.9890 C   0  0  0  0  0  0  0  0  0  0  0  0
  147.1356  131.3346  152.8371 N   0  0  0  0  0  0  0  0  0  0  0  0
  147.7367  130.3223  153.4952 C   0  0  0  0  0  0  0  0  0  0  0  0
  148.8564  130.5021  154.3275 C   0  0  0  0  0  0  0  0  0  0  0  0
  149.3713  131.8017  154.4865 C   0  0  0  0  0  0  0  0  0  0  0  0
  148.7423  132.8775  153.8138 C   0  0  0  0  0  0  0  0  0  0  0  0
  149.1969  134.2229  153.8875 N   0  0  0  0  0  0  0  0  0  0  0  0
  150.1237  134.7480  154.7064 C   0  0  0  0  0  0  0  0  0  0  0  0
  150.7035  134.1404  155.6064 O   0  0  0  0  0  0  0  0  0  0  0  0
  150.3328  136.0440  154.4347 N   0  0  0  0  0  0  0  0  0  0  0  0
  151.2694  136.9129  155.1414 C   0  0  0  0  0  0  0  0  0  0  0  0
  151.0499  136.7805  156.6635 C   0  0  0  0  0  0  0  0  0  0  0  0
  151.8860  137.8129  157.4414 C   0  0  0  0  0  0  0  0  0  0  0  0
  151.5507  139.1584  156.9589 N   0  0  0  0  0  0  0  0  0  0  0  0
  150.8141  140.0310  157.6915 C   0  0  0  0  0  0  0  0  0  0  0  0
  150.3960  139.7554  158.8171 O   0  0  0  0  0  0  0  0  0  0  0  0
  150.5429  141.3723  157.0834 C   0  0  0  0  0  0  0  0  0  0  0  0
  151.1809  142.5927  157.7225 C   0  0  0  0  0  0  0  0  0  0  0  0
  149.7068  142.3378  157.8971 C   0  0  0  0  0  0  0  0  0  0  0  0
  151.9491  139.3347  155.5549 C   0  0  0  0  0  0  0  0  0  0  0  0
  151.1166  138.3811  154.6792 C   0  0  0  0  0  0  0  0  0  0  0  0
  144.4786  134.4407  150.2724 H   0  0  0  0  0  0  0  0  0  0  0  0
  146.0398  135.2455  150.4172 H   0  0  0  0  0  0  0  0  0  0  0  0
  144.9332  135.2132  151.7896 H   0  0  0  0  0  0  0  0  0  0  0  0
  145.1861  132.7193  151.9355 H   0  0  0  0  0  0  0  0  0  0  0  0
  146.3030  132.7534  150.5675 H   0  0  0  0  0  0  0  0  0  0  0  0
  147.3173  129.3380  153.3491 H   0  0  0  0  0  0  0  0  0  0  0  0
  149.3140  129.6616  154.8281 H   0  0  0  0  0  0  0  0  0  0  0  0
  150.2441  131.9437  155.1047 H   0  0  0  0  0  0  0  0  0  0  0  0
  148.7288  134.8702  153.2700 H   0  0  0  0  0  0  0  0  0  0  0  0
  149.8045  136.4628  153.6832 H   0  0  0  0  0  0  0  0  0  0  0  0
  152.2880  136.5856  154.9237 H   0  0  0  0  0  0  0  0  0  0  0  0
  149.9945  136.9256  156.9008 H   0  0  0  0  0  0  0  0  0  0  0  0
  151.3049  135.7726  156.9925 H   0  0  0  0  0  0  0  0  0  0  0  0
  151.7206  137.6944  158.5130 H   0  0  0  0  0  0  0  0  0  0  0  0
  152.9500  137.6277  157.2864 H   0  0  0  0  0  0  0  0  0  0  0  0
  150.4524  141.4032  155.9991 H   0  0  0  0  0  0  0  0  0  0  0  0
  151.8116  142.4649  158.6003 H   0  0  0  0  0  0  0  0  0  0  0  0
  151.4831  143.3973  157.0552 H   0  0  0  0  0  0  0  0  0  0  0  0
  149.0076  142.9664  157.3498 H   0  0  0  0  0  0  0  0  0  0  0  0
  149.3667  142.0177  158.8807 H   0  0  0  0  0  0  0  0  0  0  0  0
  151.8386  140.3526  155.1853 H   0  0  0  0  0  0  0  0  0  0  0  0
  153.0103  139.1035  155.4512 H   0  0  0  0  0  0  0  0  0  0  0  0
  151.4179  138.4829  153.6361 H   0  0  0  0  0  0  0  0  0  0  0  0
  150.0673  138.6768  154.7272 H   0  0  0  0  0  0  0  0  0  0  0  0
  1  2  1  0  0  0  0
  1 25  1  0  0  0  0
  1 26  1  0  0  0  0
  1 27  1  0  0  0  0
  2  3  1  0  0  0  0
  2 28  1  0  0  0  0
  2 29  1  0  0  0  0
  3  4  1  0  0  0  0
  4  9  1  0  0  0  0
  4  5  2  0  0  0  0
  5  6  1  0  0  0  0
  6  7  2  0  0  0  0
  6 30  1  0  0  0  0
  7  8  1  0  0  0  0
  7 31  1  0  0  0  0
  8  9  2  0  0  0  0
  8 32  1  0  0  0  0
  9 10  1  0  0  0  0
 10 11  1  0  0  0  0
 10 33  1  0  0  0  0
 11 12  2  0  0  0  0
 11 13  1  0  0  0  0
 13 14  1  0  0  0  0
 13 34  1  0  0  0  0
 14 24  1  0  0  0  0
 14 15  1  0  0  0  0
 14 35  1  0  0  0  0
 15 16  1  0  0  0  0
 15 36  1  0  0  0  0
 15 37  1  0  0  0  0
 16 17  1  0  0  0  0
 16 38  1  0  0  0  0
 16 39  1  0  0  0  0
 17 18  1  0  0  0  0
 17 23  1  0  0  0  0
 18 19  2  0  0  0  0
 18 20  1  0  0  0  0
 20 22  1  0  0  0  0
 20 21  1  0  0  0  0
 20 40  1  0  0  0  0
 21 22  1  0  0  0  0
 21 41  1  0  0  0  0
 21 42  1  0  0  0  0
 22 43  1  0  0  0  0
 22 44  1  0  0  0  0
 23 24  1  0  0  0  0
 23 45  1  0  0  0  0
 23 46  1  0  0  0  0
 24 47  1  0  0  0  0
 24 48  1  0  0  0  0
M  END
> <s_m_source_file>
AV-unprocessed.smi

> <i_m_source_file_index>
1140

> <i_lp_mmshare_version>
43012

> <i_f3d_flags>
0

> <s_epik_input>
W0NIM11bQ0gyXU9jMW5bY0hdW2NIXVtjSF1jMVtOSF1DKD1PKVtOSF1bQ0hdMltDSDJdW0NIMl1OKFtDSDJdW0NIMl0yKUMoPU8pW0NIXTNbQ0gyXVtDSDJdMw==

> <s_epik_cmdline>
J2VwaWtfcHl0aG9uJywgJy1waCcsICc3LjAnLCAnLXRuJywgJzgnLCAnLW1hJywgJzIwMCcsICctbWV0YWxfYmluZGluZycsICctaW1hZScsICc8aW5maWxlLm1hZT4nLCAnLW9tYWUnLCAnPG91dGZpbGUubWFlPic=

> <r_lp_tautomer_probability>
1

> <r_epik_Ionization_Penalty>
0.00011541

> <r_epik_Ionization_Penalty_Charging>
0

> <r_epik_Ionization_Penalty_Neutral>
0.00011541

> <r_epik_State_Penalty>
-0

> <r_epik_Charging_Adjusted_Penalty>
0

> <i_epik_Tot_Q>
0

> <i_epik_Tot_abs_Q>
0

> <r_epik_Metal_State_Penalty>
-0

> <b_epik_Metal_Only>
0

> <s_lp_Force_Field>
OPLS_2005

> <r_lp_Energy>
31.5236

> <b_lp_Chiralities_Consistent>
1

> <s_lp_Variant>
AV-unprocessed.smi:1140-1

> <Gold.Version>
5.8.1

> <Gold.Id.Protein>
6NUR|6NUR_protein|mol2

> <Gold.PLP.Fitness>
42.8588

> <Gold.PLP.PLP>
-37.3090

> <Gold.PLP.part.hbond>
-3.0000

> <Gold.PLP.part.metal>
0.0000

> <Gold.PLP.part.buried>
-3.2582

> <Gold.PLP.part.nonpolar>
-32.1078

> <Gold.PLP.part.repulsive>
0.4199

> <Gold.PLP.ligand.clash>
0.0000

> <Gold.PLP.ligand.torsion>
0.1845

> <Gold.PLP.Chemscore.Hbond>
1.9360

> <Gold.PLP.Chemscore.CHOScore>
0.0000

> <Gold.PLP.Chemscore.Metal>
0.0000

> <Gold.Chemscore.Hbonds>
donor molecule, donor type, donor heavy atom, donor atom, acceptor molecule, acceptor atom, score
      L1  H    10    33       P1  7948  0.90
      L1  H    13    34       P1  7948  0.93

> <Gold.PLP.Chemscore.Internal.Correction>
0.1109

> <Gold.Rescore>
     Score         DG    S(hbond)    S(metal)    S(lipo)     H(rot)  DE(clash)    DE(int)     intcor
     12.06     -14.85       1.19        0.00      80.30       1.56       0.14       2.64       ----

> <Gold.Chemscore.Fitness>
12.0617

> <Gold.Chemscore.DG>
-14.8483

> <Gold.Chemscore.ZeroCoef>
-5.4800

> <Gold.Chemscore.Hbond>
1.1909

> <Gold.Chemscore.Metal>
0.0000

> <Gold.Chemscore.Lipo>
80.2951

> <Gold.Chemscore.Internal_Hbond>
0.0000

> <Gold.Chemscore.DEClash>
0.1431

> <Gold.Chemscore.DEInternal>
2.6434

> <Gold.Chemscore.Rot>
1.5640

> <Gold.Chemscore.Internal.Correction>
   9.000000E+99

> <Gold.Chemscore.Hbonds>
donor molecule, donor type, donor heavy atom, donor atom, acceptor molecule, acceptor atom, score
      L1  H    10    33       P1  7948  0.39
      L1  H    13    34       P1  7948  0.31

> <Gold.Chemscore.Hbond.Weighted>
-3.9776

> <Gold.Chemscore.Metal.Weighted>
-0.0000

> <Gold.Chemscore.Lipo.Weighted>
-9.3945

> <Gold.Chemscore.Internal_Hbond.Weighted>
0.0000

> <Gold.Chemscore.DEClash.Weighted>
0.1431

> <Gold.Chemscore.DEInternal.Weighted>
2.6434

> <Gold.Chemscore.Rot.Weighted>
4.0038

> <Gold.Chemscore.Internal.Correction.Weighted>
   9.000000E+99

> <Gold.Protein.RotatedTorsions>
[ 6907 6896 6895 6894 ] final   60.08 input  -60.11 | X-H torsion
[ 7974 7965 7964 7962 ] final   93.50 input  175.53 | X-H torsion
[ 8008 7997 7996 7995 ] final  148.06 input   59.86 | X-H torsion
[ 10167 10162 10161 10158 ] final -169.31 input  -65.29 | X-H torsion
[ 10718 10713 10712 10709 ] final   74.61 input   66.30 | X-H torsion
[ 10763 10752 10751 10750 ] final  139.94 input  -60.55 | X-H torsion
[ 11005 11000 10999 10996 ] final  117.51 input  -57.11 | X-H torsion

> <Gold.Protein.ActiveResidues>
 VAL166  LYS551  ARG553  GLY616  TRP617  ASP618  TYR619  PRO620  LYS621  CYS622 
 ASP623  PHE694  ASN695  SER759  ASP760  ASP761  ALA762  ILE779  LEU786  VAL792 
 PHE793  MET794  SER795  GLU796  ALA797  LYS798  CYS799  TRP800  GLU811  SER814 

> <Gold.Protein.RotatedAtoms>
  152.3971  134.6347  160.0084 H   0  0  0  0  0  0  0  0  0  0  0  0  # atno 6907 bound_to 6896
  151.6563  133.3313  159.3171 H   0  0  0  0  0  0  0  0  0  0  0  0  # atno 6908 bound_to 6896
  150.7877  134.6919  159.6546 H   0  0  0  0  0  0  0  0  0  0  0  0  # atno 6909 bound_to 6896
  145.4781  139.2279  143.2898 H   0  0  0  0  0  0  0  0  0  0  0  0  # atno 7974 bound_to 7965
  156.2804  140.2139  156.5637 H   0  0  0  0  0  0  0  0  0  0  0  0  # atno 8008 bound_to 7997
  154.7192  140.0505  157.0646 H   0  0  0  0  0  0  0  0  0  0  0  0  # atno 8009 bound_to 7997
  155.0501  140.3155  155.4698 H   0  0  0  0  0  0  0  0  0  0  0  0  # atno 8010 bound_to 7997
  139.5930  144.1171  152.1657 H   0  0  0  0  0  0  0  0  0  0  0  0  # atno 10167 bound_to 10162
  157.6599  130.9686  150.1236 H   0  0  0  0  0  0  0  0  0  0  0  0  # atno 10718 bound_to 10713
  153.9144  135.3007  155.3448 H   0  0  0  0  0  0  0  0  0  0  0  0  # atno 10763 bound_to 10752
  154.7607  135.4935  153.9462 H   0  0  0  0  0  0  0  0  0  0  0  0  # atno 10764 bound_to 10752
  153.1175  135.6774  153.9494 H   0  0  0  0  0  0  0  0  0  0  0  0  # atno 10765 bound_to 10752
  139.9077  134.9611  156.7362 H   0  0  0  0  0  0  0  0  0  0  0  0  # atno 11005 bound_to 11000
  146.2357  140.5565  142.8956 LP  0  0  0  0  0  0  0  0  0  0  0  0  # atno 17320 bound_to 7965
  144.7905  140.6023  143.6544 LP  0  0  0  0  0  0  0  0  0  0  0  0  # atno 17321 bound_to 7965
  140.0750  144.5748  150.7163 LP  0  0  0  0  0  0  0  0  0  0  0  0  # atno 17342 bound_to 10162
  140.7189  143.2570  151.4343 LP  0  0  0  0  0  0  0  0  0  0  0  0  # atno 17343 bound_to 10162
  156.2101  130.3666  149.8681 LP  0  0  0  0  0  0  0  0  0  0  0  0  # atno 17370 bound_to 10713
  156.6562  130.8763  151.3540 LP  0  0  0  0  0  0  0  0  0  0  0  0  # atno 17371 bound_to 10713
  140.6886  133.9411  155.7952 LP  0  0  0  0  0  0  0  0  0  0  0  0  # atno 17394 bound_to 11000
  141.0458  134.0555  157.3845 LP  0  0  0  0  0  0  0  0  0  0  0  0  # atno 17395 bound_to 11000

$$$$
