AV-unprocessed.smi:3314|AV-procd|sdf|12733|dock3
  -GOLD-   2272019 73D 1   1.00000     0.00000
 Structure written by MMmdl.
 38 39  0  0  0  0  0  0  0  0  2 V2000
  153.7058  141.1482  160.2834 C   0  0  0  0  0  0  0  0  0  0  0  0
  152.8623  142.2325  159.6460 C   0  0  0  0  0  0  0  0  0  0  0  0
  152.8064  143.5256  160.2002 C   0  0  0  0  0  0  0  0  0  0  0  0
  152.0052  144.4901  159.5581 C   0  0  0  0  0  0  0  0  0  0  0  0
  151.8980  145.8998  160.1003 C   0  0  0  0  0  0  0  0  0  0  0  0
  151.2931  144.2307  158.4404 N   0  0  0  0  0  0  0  0  0  0  0  0
  151.3416  142.9893  157.8970 C   0  0  0  0  0  0  0  0  0  0  0  0
  150.6318  142.6155  156.7257 N   0  0  0  0  0  0  0  0  0  0  0  0
  150.2589  141.3827  156.3342 C   0  0  0  0  0  0  0  0  0  0  0  0
  150.4770  140.3514  156.9718 O   0  0  0  0  0  0  0  0  0  0  0  0
  149.5081  141.3205  154.9900 C   0  0  2  0  0  0  0  0  0  0  0  0
  148.0205  140.9062  155.0955 C   0  0  0  0  0  0  0  0  0  0  0  0
  147.8815  139.4672  155.4243 N   0  3  1  0  0  0  0  0  0  0  0  0
  146.4718  139.0497  155.5763 C   0  0  0  0  0  0  0  0  0  0  0  0
  148.6252  138.6312  154.4556 C   0  0  0  0  0  0  0  0  0  0  0  0
  150.0993  139.0632  154.3989 C   0  0  0  0  0  0  0  0  0  0  0  0
  150.1824  140.4512  154.0752 O   0  0  0  0  0  0  0  0  0  0  0  0
  152.1175  141.9629  158.4803 C   0  0  0  0  0  0  0  0  0  0  0  0
  154.1990  141.5083  161.1868 H   0  0  0  0  0  0  0  0  0  0  0  0
  154.4735  140.8097  159.5874 H   0  0  0  0  0  0  0  0  0  0  0  0
  153.0841  140.2938  160.5521 H   0  0  0  0  0  0  0  0  0  0  0  0
  153.3626  143.7720  161.0930 H   0  0  0  0  0  0  0  0  0  0  0  0
  152.5545  146.0447  160.9589 H   0  0  0  0  0  0  0  0  0  0  0  0
  150.8749  146.1075  160.4145 H   0  0  0  0  0  0  0  0  0  0  0  0
  152.1768  146.6240  159.3343 H   0  0  0  0  0  0  0  0  0  0  0  0
  150.3719  143.3765  156.1152 H   0  0  0  0  0  0  0  0  0  0  0  0
  149.5463  142.3243  154.5649 H   0  0  0  0  0  0  0  0  0  0  0  0
  147.5112  141.5083  155.8497 H   0  0  0  0  0  0  0  0  0  0  0  0
  147.5185  141.1072  154.1478 H   0  0  0  0  0  0  0  0  0  0  0  0
  145.9277  139.1558  154.6367 H   0  0  0  0  0  0  0  0  0  0  0  0
  145.9713  139.6553  156.3325 H   0  0  0  0  0  0  0  0  0  0  0  0
  146.4122  138.0075  155.8911 H   0  0  0  0  0  0  0  0  0  0  0  0
  148.5576  137.5818  154.7441 H   0  0  0  0  0  0  0  0  0  0  0  0
  148.1704  138.7221  153.4678 H   0  0  0  0  0  0  0  0  0  0  0  0
  150.6043  138.8480  155.3415 H   0  0  0  0  0  0  0  0  0  0  0  0
  150.6240  138.4947  153.6310 H   0  0  0  0  0  0  0  0  0  0  0  0
  152.1466  140.9771  158.0385 H   0  0  0  0  0  0  0  0  0  0  0  0
  148.3225  139.3336  156.3240 H   0  0  0  0  0  0  0  0  0  0  0  0
  1  2  1  0  0  0  0
  1 19  1  0  0  0  0
  1 20  1  0  0  0  0
  1 21  1  0  0  0  0
  2 18  1  0  0  0  0
  2  3  2  0  0  0  0
  3  4  1  0  0  0  0
  3 22  1  0  0  0  0
  4  5  1  0  0  0  0
  4  6  2  0  0  0  0
  5 23  1  0  0  0  0
  5 24  1  0  0  0  0
  5 25  1  0  0  0  0
  6  7  1  0  0  0  0
  7  8  1  0  0  0  0
  7 18  2  0  0  0  0
  8  9  1  0  0  0  0
  8 26  1  0  0  0  0
  9 10  2  0  0  0  0
  9 11  1  0  0  0  0
 11 17  1  0  0  0  0
 11 12  1  0  0  0  0
 11 27  1  0  0  0  0
 12 13  1  0  0  0  0
 12 28  1  0  0  0  0
 12 29  1  0  0  0  0
 13 14  1  0  0  0  0
 13 15  1  0  0  0  0
 13 38  1  0  0  0  0
 14 30  1  0  0  0  0
 14 31  1  0  0  0  0
 14 32  1  0  0  0  0
 15 16  1  0  0  0  0
 15 33  1  0  0  0  0
 15 34  1  0  0  0  0
 16 17  1  0  0  0  0
 16 35  1  0  0  0  0
 16 36  1  0  0  0  0
 18 37  1  0  0  0  0
M  CHG  1  13   1
M  END
> <s_m_source_file>
AV-unprocessed.smi

> <i_m_source_file_index>
3314

> <i_lp_mmshare_version>
43012

> <i_f3d_flags>
0

> <s_epik_input>
W0NIM11jMVtjSF1jKFtDSDNdKW5jKFtjSF0xKVtOSF1DKD1PKVtDQEBIXTJbQ0gyXU4oW0NIM10pW0NIMl1bQ0gyXU8y

> <s_epik_cmdline>
J2VwaWtfcHl0aG9uJywgJy1waCcsICc3LjAnLCAnLXRuJywgJzgnLCAnLW1hJywgJzIwMCcsICctbWV0YWxfYmluZGluZycsICctaW1hZScsICc8aW5maWxlLm1hZT4nLCAnLW9tYWUnLCAnPG91dGZpbGUubWFlPic=

> <r_epik_Ionization_Penalty>
0.32442

> <r_epik_Ionization_Penalty_Charging>
0.314023

> <r_epik_Ionization_Penalty_Neutral>
0.0103972

> <r_epik_State_Penalty>
0.29453

> <r_epik_Charging_Adjusted_Penalty>
0.608553

> <i_epik_Tot_Q>
1

> <i_epik_Tot_abs_Q>
1

> <r_epik_Metal_State_Penalty>
0.286909

> <b_epik_Metal_Only>
0

> <s_lp_Force_Field>
OPLS_2005

> <r_lp_Energy>
14.9445

> <b_lp_Chiralities_Consistent>
1

> <s_lp_Variant>
AV-unprocessed.smi:3314-3

> <Gold.Version>
5.8.1

> <Gold.Id.Protein>
6NUR|6NUR_protein|mol2

> <Gold.PLP.Fitness>
42.9250

> <Gold.PLP.PLP>
-38.1422

> <Gold.PLP.part.hbond>
-1.8060

> <Gold.PLP.part.metal>
0.0000

> <Gold.PLP.part.buried>
-5.6010

> <Gold.PLP.part.nonpolar>
-31.4462

> <Gold.PLP.part.repulsive>
1.1701

> <Gold.PLP.ligand.clash>
0.0000

> <Gold.PLP.ligand.torsion>
0.1776

> <Gold.PLP.Chemscore.Hbond>
1.7052

> <Gold.PLP.Chemscore.CHOScore>
0.0000

> <Gold.PLP.Chemscore.Metal>
0.0000

> <Gold.Chemscore.Hbonds>
donor molecule, donor type, donor heavy atom, donor atom, acceptor molecule, acceptor atom, score
      L1  H     8    26       P1  8028  0.86
      P1  H  7989  7998       L1    17  0.82

> <Gold.PLP.Chemscore.Internal.Correction>
0.0223

> <Gold.Rescore>
     Score         DG    S(hbond)    S(metal)    S(lipo)     H(rot)  DE(clash)    DE(int)     intcor
     16.11     -19.21       1.71        0.00      90.39       1.00       0.18       2.92       ----

> <Gold.Chemscore.Fitness>
16.1057

> <Gold.Chemscore.DG>
-19.2060

> <Gold.Chemscore.ZeroCoef>
-5.4800

> <Gold.Chemscore.Hbond>
1.7098

> <Gold.Chemscore.Metal>
0.0000

> <Gold.Chemscore.Lipo>
90.3878

> <Gold.Chemscore.Internal_Hbond>
0.0000

> <Gold.Chemscore.DEClash>
0.1794

> <Gold.Chemscore.DEInternal>
2.9208

> <Gold.Chemscore.Rot>
1.0000

> <Gold.Chemscore.Internal.Correction>
   9.000000E+99

> <Gold.Chemscore.Hbonds>
donor molecule, donor type, donor heavy atom, donor atom, acceptor molecule, acceptor atom, score
      L1  H     8    26       P1  8028  0.80
      P1  H  7989  7998       L1    17  0.69

> <Gold.Chemscore.Hbond.Weighted>
-5.7106

> <Gold.Chemscore.Metal.Weighted>
-0.0000

> <Gold.Chemscore.Lipo.Weighted>
-10.5754

> <Gold.Chemscore.Internal_Hbond.Weighted>
0.0000

> <Gold.Chemscore.DEClash.Weighted>
0.1794

> <Gold.Chemscore.DEInternal.Weighted>
2.9208

> <Gold.Chemscore.Rot.Weighted>
2.5600

> <Gold.Chemscore.Internal.Correction.Weighted>
   9.000000E+99

> <Gold.Protein.RotatedTorsions>
[ 6907 6896 6895 6894 ] final -151.23 input  -60.11 | X-H torsion
[ 7974 7965 7964 7962 ] final    2.54 input  175.53 | X-H torsion
[ 8008 7997 7996 7995 ] final  -53.26 input   59.86 | X-H torsion
[ 10167 10162 10161 10158 ] final -116.50 input  -65.29 | X-H torsion
[ 10718 10713 10712 10709 ] final  105.78 input   66.30 | X-H torsion
[ 10763 10752 10751 10750 ] final  -49.38 input  -60.55 | X-H torsion
[ 11005 11000 10999 10996 ] final   51.01 input  -57.11 | X-H torsion

> <Gold.Protein.ActiveResidues>
 VAL166  LYS551  ARG553  GLY616  TRP617  ASP618  TYR619  PRO620  LYS621  CYS622 
 ASP623  PHE694  ASN695  SER759  ASP760  ASP761  ALA762  ILE779  LEU786  VAL792 
 PHE793  MET794  SER795  GLU796  ALA797  LYS798  CYS799  TRP800  GLU811  SER814 

> <Gold.Protein.RotatedAtoms>
  151.2101  133.4561  159.2597 H   0  0  0  0  0  0  0  0  0  0  0  0  # atno 6907 bound_to 6896
  151.0985  134.9958  159.8447 H   0  0  0  0  0  0  0  0  0  0  0  0  # atno 6908 bound_to 6896
  152.5441  134.2029  159.8772 H   0  0  0  0  0  0  0  0  0  0  0  0  # atno 6909 bound_to 6896
  146.2444  140.0820  142.8356 H   0  0  0  0  0  0  0  0  0  0  0  0  # atno 7974 bound_to 7965
  154.4128  140.1204  156.5125 H   0  0  0  0  0  0  0  0  0  0  0  0  # atno 8008 bound_to 7997
  155.6784  140.3496  155.4826 H   0  0  0  0  0  0  0  0  0  0  0  0  # atno 8009 bound_to 7997
  155.9572  140.1116  157.0916 H   0  0  0  0  0  0  0  0  0  0  0  0  # atno 8010 bound_to 7997
  140.0785  143.4810  152.1939 H   0  0  0  0  0  0  0  0  0  0  0  0  # atno 10167 bound_to 10162
  157.6693  131.0835  150.5908 H   0  0  0  0  0  0  0  0  0  0  0  0  # atno 10718 bound_to 10713
  154.0932  135.6574  153.4856 H   0  0  0  0  0  0  0  0  0  0  0  0  # atno 10763 bound_to 10752
  153.0314  135.5207  154.7360 H   0  0  0  0  0  0  0  0  0  0  0  0  # atno 10764 bound_to 10752
  154.6490  135.2998  154.9979 H   0  0  0  0  0  0  0  0  0  0  0  0  # atno 10765 bound_to 10752
  140.0968  134.5134  155.8799 H   0  0  0  0  0  0  0  0  0  0  0  0  # atno 11005 bound_to 11000
  145.0724  140.9165  143.4874 LP  0  0  0  0  0  0  0  0  0  0  0  0  # atno 17320 bound_to 7965
  145.0957  139.2858  143.5712 LP  0  0  0  0  0  0  0  0  0  0  0  0  # atno 17321 bound_to 7965
  139.5793  144.7503  151.3681 LP  0  0  0  0  0  0  0  0  0  0  0  0  # atno 17342 bound_to 10162
  140.7090  143.7440  150.7532 LP  0  0  0  0  0  0  0  0  0  0  0  0  # atno 17343 bound_to 10162
  156.6209  130.4405  149.5823 LP  0  0  0  0  0  0  0  0  0  0  0  0  # atno 17370 bound_to 10713
  156.2357  130.6821  151.1507 LP  0  0  0  0  0  0  0  0  0  0  0  0  # atno 17371 bound_to 10713
  141.2094  133.6684  156.6439 LP  0  0  0  0  0  0  0  0  0  0  0  0  # atno 17394 bound_to 11000
  140.3275  134.7957  157.4300 LP  0  0  0  0  0  0  0  0  0  0  0  0  # atno 17395 bound_to 11000

$$$$
