AV-unprocessed.smi:1259|AV-procd|sdf|5292|dock1
  -GOLD-   22720 4413D 1   1.00000     0.00000
 Structure written by MMmdl.
 34 35  0  0  0  0  0  0  0  0  1 V2000
  149.0439  124.0703  150.5445 C   0  0  0  0  0  0  0  0  0  0  0  0
  148.5390  125.3756  151.0849 C   0  0  0  0  0  0  0  0  0  0  0  0
  148.4863  126.6374  150.4243 C   0  0  0  0  0  0  0  0  0  0  0  0
  147.9418  127.4540  151.3776 C   0  0  0  0  0  0  0  0  0  0  0  0
  147.6522  128.7803  151.3034 N   0  0  0  0  0  0  0  0  0  0  0  0
  146.5345  129.4199  151.6890 C   0  0  0  0  0  0  0  0  0  0  0  0
  145.5495  128.8893  152.2029 O   0  0  0  0  0  0  0  0  0  0  0  0
  146.6218  130.7349  151.4405 N   0  0  0  0  0  0  0  0  0  0  0  0
  145.5824  131.7203  151.7207 C   0  0  1  0  0  0  0  0  0  0  0  0
  146.2443  133.0925  151.9072 C   0  0  0  0  0  0  0  0  0  0  0  0
  144.5037  131.7808  150.6518 C   0  0  0  0  0  0  0  0  0  0  0  0
  144.7639  132.4479  149.3220 C   0  0  0  0  0  0  0  0  0  0  0  0
  143.8069  133.0765  150.3083 C   0  0  0  0  0  0  0  0  0  0  0  0
  147.6978  126.7120  152.5122 N   0  0  0  0  0  0  0  0  0  0  0  0
  147.1268  127.1237  153.7798 C   0  0  0  0  0  0  0  0  0  0  0  0
  148.0675  125.4266  152.3257 N   0  0  0  0  0  0  0  0  0  0  0  0
  149.4456  124.1895  149.5381 H   0  0  0  0  0  0  0  0  0  0  0  0
  148.2446  123.3304  150.4970 H   0  0  0  0  0  0  0  0  0  0  0  0
  149.8378  123.6655  151.1726 H   0  0  0  0  0  0  0  0  0  0  0  0
  148.7988  126.8788  149.4195 H   0  0  0  0  0  0  0  0  0  0  0  0
  148.3740  129.3550  150.8943 H   0  0  0  0  0  0  0  0  0  0  0  0
  147.4702  131.0817  151.0174 H   0  0  0  0  0  0  0  0  0  0  0  0
  145.1054  131.4609  152.6677 H   0  0  0  0  0  0  0  0  0  0  0  0
  145.5072  133.8512  152.1721 H   0  0  0  0  0  0  0  0  0  0  0  0
  146.7447  133.4201  150.9952 H   0  0  0  0  0  0  0  0  0  0  0  0
  146.9872  133.0663  152.7051 H   0  0  0  0  0  0  0  0  0  0  0  0
  143.8863  130.8851  150.6090 H   0  0  0  0  0  0  0  0  0  0  0  0
  145.7260  132.9351  149.1780 H   0  0  0  0  0  0  0  0  0  0  0  0
  144.3393  131.9819  148.4352 H   0  0  0  0  0  0  0  0  0  0  0  0
  142.7439  133.0286  150.0810 H   0  0  0  0  0  0  0  0  0  0  0  0
  144.1347  133.9820  150.8151 H   0  0  0  0  0  0  0  0  0  0  0  0
  146.0455  127.2190  153.6788 H   0  0  0  0  0  0  0  0  0  0  0  0
  147.5443  128.0850  154.0797 H   0  0  0  0  0  0  0  0  0  0  0  0
  147.3490  126.3894  154.5551 H   0  0  0  0  0  0  0  0  0  0  0  0
  1  2  1  0  0  0  0
  1 17  1  0  0  0  0
  1 18  1  0  0  0  0
  1 19  1  0  0  0  0
  2 16  2  0  0  0  0
  2  3  1  0  0  0  0
  3  4  2  0  0  0  0
  3 20  1  0  0  0  0
  4  5  1  0  0  0  0
  4 14  1  0  0  0  0
  5  6  1  0  0  0  0
  5 21  1  0  0  0  0
  6  7  2  0  0  0  0
  6  8  1  0  0  0  0
  8  9  1  0  0  0  0
  8 22  1  0  0  0  0
  9 10  1  0  0  0  0
  9 11  1  0  0  0  0
  9 23  1  0  0  0  0
 10 24  1  0  0  0  0
 10 25  1  0  0  0  0
 10 26  1  0  0  0  0
 11 13  1  0  0  0  0
 11 12  1  0  0  0  0
 11 27  1  0  0  0  0
 12 13  1  0  0  0  0
 12 28  1  0  0  0  0
 12 29  1  0  0  0  0
 13 30  1  0  0  0  0
 13 31  1  0  0  0  0
 14 15  1  0  0  0  0
 14 16  1  0  0  0  0
 15 32  1  0  0  0  0
 15 33  1  0  0  0  0
 15 34  1  0  0  0  0
M  END
> <s_m_source_file>
AV-unprocessed.smi

> <i_m_source_file_index>
1259

> <i_lp_mmshare_version>
43012

> <i_f3d_flags>
0

> <s_epik_input>
W0NIM11jMVtjSF1jKG4objEpW0NIM10pW05IXUMoPU8pW05IXVtDQEhdKFtDSDNdKVtDSF0yW0NIMl1bQ0gyXTI=

> <s_epik_cmdline>
J2VwaWtfcHl0aG9uJywgJy1waCcsICc3LjAnLCAnLXRuJywgJzgnLCAnLW1hJywgJzIwMCcsICctbWV0YWxfYmluZGluZycsICctaW1hZScsICc8aW5maWxlLm1hZT4nLCAnLW9tYWUnLCAnPG91dGZpbGUubWFlPic=

> <r_lp_tautomer_probability>
1

> <r_epik_Ionization_Penalty>
0.000100032

> <r_epik_Ionization_Penalty_Charging>
0

> <r_epik_Ionization_Penalty_Neutral>
0.000100032

> <r_epik_State_Penalty>
-0

> <r_epik_Charging_Adjusted_Penalty>
0

> <i_epik_Tot_Q>
0

> <i_epik_Tot_abs_Q>
0

> <r_epik_Metal_State_Penalty>
-0

> <b_epik_Metal_Only>
0

> <s_lp_Force_Field>
OPLS_2005

> <r_lp_Energy>
14.2964

> <b_lp_Chiralities_Consistent>
1

> <s_lp_Variant>
AV-unprocessed.smi:1259-2

> <Gold.Version>
5.8.1

> <Gold.Id.Protein>
6NUR|6NUR_protein|mol2

> <Gold.PLP.Fitness>
39.3938

> <Gold.PLP.PLP>
-35.3231

> <Gold.PLP.part.hbond>
-2.4351

> <Gold.PLP.part.metal>
0.0000

> <Gold.PLP.part.buried>
-4.5216

> <Gold.PLP.part.nonpolar>
-27.7936

> <Gold.PLP.part.repulsive>
0.2888

> <Gold.PLP.ligand.clash>
0.0000

> <Gold.PLP.ligand.torsion>
1.2758

> <Gold.PLP.Chemscore.Hbond>
1.8500

> <Gold.PLP.Chemscore.CHOScore>
0.0000

> <Gold.PLP.Chemscore.Metal>
0.0000

> <Gold.Chemscore.Hbonds>
donor molecule, donor type, donor heavy atom, donor atom, acceptor molecule, acceptor atom, score
      L1  H     5    21       P1 10747  0.80
      L1  H     8    22       P1 10747  1.00

> <Gold.PLP.Chemscore.Internal.Correction>
1.0723

> <Gold.Rescore>
     Score         DG    S(hbond)    S(metal)    S(lipo)     H(rot)  DE(clash)    DE(int)     intcor
     13.10     -14.65       1.23        0.00      69.53       1.20       0.06       1.49       ----

> <Gold.Chemscore.Fitness>
13.0994

> <Gold.Chemscore.DG>
-14.6482

> <Gold.Chemscore.ZeroCoef>
-5.4800

> <Gold.Chemscore.Hbond>
1.2284

> <Gold.Chemscore.Metal>
0.0000

> <Gold.Chemscore.Lipo>
69.5276

> <Gold.Chemscore.Internal_Hbond>
0.0000

> <Gold.Chemscore.DEClash>
0.0555

> <Gold.Chemscore.DEInternal>
1.4933

> <Gold.Chemscore.Rot>
1.1990

> <Gold.Chemscore.Internal.Correction>
   9.000000E+99

> <Gold.Chemscore.Hbonds>
donor molecule, donor type, donor heavy atom, donor atom, acceptor molecule, acceptor atom, score
      L1  H     5    21       P1 10747  0.12
      L1  H     8    22       P1 10747  0.96

> <Gold.Chemscore.Hbond.Weighted>
-4.1030

> <Gold.Chemscore.Metal.Weighted>
-0.0000

> <Gold.Chemscore.Lipo.Weighted>
-8.1347

> <Gold.Chemscore.Internal_Hbond.Weighted>
0.0000

> <Gold.Chemscore.DEClash.Weighted>
0.0555

> <Gold.Chemscore.DEInternal.Weighted>
1.4933

> <Gold.Chemscore.Rot.Weighted>
3.0695

> <Gold.Chemscore.Internal.Correction.Weighted>
   9.000000E+99

> <Gold.Protein.RotatedTorsions>
[ 6907 6896 6895 6894 ] final    3.07 input  -60.11 | X-H torsion
[ 7974 7965 7964 7962 ] final  -45.92 input  175.53 | X-H torsion
[ 8008 7997 7996 7995 ] final  174.26 input   59.86 | X-H torsion
[ 10167 10162 10161 10158 ] final   90.28 input  -65.29 | X-H torsion
[ 10718 10713 10712 10709 ] final  113.23 input   66.30 | X-H torsion
[ 10763 10752 10751 10750 ] final  101.12 input  -60.55 | X-H torsion
[ 11005 11000 10999 10996 ] final -172.77 input  -57.11 | X-H torsion

> <Gold.Protein.ActiveResidues>
 VAL166  LYS551  ARG553  GLY616  TRP617  ASP618  TYR619  PRO620  LYS621  CYS622 
 ASP623  PHE694  ASN695  SER759  ASP760  ASP761  ALA762  ILE779  LEU786  VAL792 
 PHE793  MET794  SER795  GLU796  ALA797  LYS798  CYS799  TRP800  GLU811  SER814 

> <Gold.Protein.RotatedAtoms>
  151.6190  135.1033  160.0097 H   0  0  0  0  0  0  0  0  0  0  0  0  # atno 6907 bound_to 6896
  152.4168  133.7046  159.6454 H   0  0  0  0  0  0  0  0  0  0  0  0  # atno 6908 bound_to 6896
  150.8056  133.8443  159.3229 H   0  0  0  0  0  0  0  0  0  0  0  0  # atno 6909 bound_to 6896
  145.9772  140.7322  142.9381 H   0  0  0  0  0  0  0  0  0  0  0  0  # atno 7974 bound_to 7965
  156.0992  140.1439  156.9490 H   0  0  0  0  0  0  0  0  0  0  0  0  # atno 8008 bound_to 7997
  154.4691  140.0916  156.7143 H   0  0  0  0  0  0  0  0  0  0  0  0  # atno 8009 bound_to 7997
  155.4789  140.3444  155.4339 H   0  0  0  0  0  0  0  0  0  0  0  0  # atno 8010 bound_to 7997
  139.8489  144.6604  150.9194 H   0  0  0  0  0  0  0  0  0  0  0  0  # atno 10167 bound_to 10162
  157.6350  131.0980  150.7010 H   0  0  0  0  0  0  0  0  0  0  0  0  # atno 10718 bound_to 10713
  153.3226  135.4055  155.1429 H   0  0  0  0  0  0  0  0  0  0  0  0  # atno 10763 bound_to 10752
  154.8604  135.3591  154.5576 H   0  0  0  0  0  0  0  0  0  0  0  0  # atno 10764 bound_to 10752
  153.6010  135.7071  153.5443 H   0  0  0  0  0  0  0  0  0  0  0  0  # atno 10765 bound_to 10752
  140.4932  134.5964  157.4962 H   0  0  0  0  0  0  0  0  0  0  0  0  # atno 11005 bound_to 11000
  144.6852  140.2847  143.7287 LP  0  0  0  0  0  0  0  0  0  0  0  0  # atno 17320 bound_to 7965
  145.7822  139.1895  143.2151 LP  0  0  0  0  0  0  0  0  0  0  0  0  # atno 17321 bound_to 7965
  140.7790  143.3845  151.1418 LP  0  0  0  0  0  0  0  0  0  0  0  0  # atno 17342 bound_to 10162
  139.7485  143.8815  152.3070 LP  0  0  0  0  0  0  0  0  0  0  0  0  # atno 17343 bound_to 10162
  156.7343  130.4719  149.5492 LP  0  0  0  0  0  0  0  0  0  0  0  0  # atno 17370 bound_to 10713
  156.1581  130.6355  151.0684 LP  0  0  0  0  0  0  0  0  0  0  0  0  # atno 17371 bound_to 10713
  139.9756  134.7220  155.9955 LP  0  0  0  0  0  0  0  0  0  0  0  0  # atno 17394 bound_to 11000
  141.1473  133.6554  156.3906 LP  0  0  0  0  0  0  0  0  0  0  0  0  # atno 17395 bound_to 11000

$$$$
