AV-unprocessed.smi:2811|AV-procd|sdf|10831|dock2
  -GOLD-   2272015273D 1   1.00000     0.00000
 Structure written by MMmdl.
 38 40  0  0  0  0  0  0  0  0  1 V2000
  152.1479  145.9142  160.3148 C   0  0  0  0  0  0  0  0  0  0  0  0
  152.1583  144.5296  159.7017 C   0  0  0  0  0  0  0  0  0  0  0  0
  153.0154  143.5266  160.1939 C   0  0  0  0  0  0  0  0  0  0  0  0
  152.9781  142.2606  159.5778 C   0  0  0  0  0  0  0  0  0  0  0  0
  153.8767  141.1355  160.0461 C   0  0  0  0  0  0  0  0  0  0  0  0
  152.1599  141.9693  158.5447 N   0  0  0  0  0  0  0  0  0  0  0  0
  151.3241  142.9245  158.0640 C   0  0  0  0  0  0  0  0  0  0  0  0
  150.4353  142.7333  156.9657 N   0  0  0  0  0  0  0  0  0  0  0  0
  150.3296  141.7163  156.0842 C   0  0  0  0  0  0  0  0  0  0  0  0
  151.0784  140.7421  156.1376 O   0  0  0  0  0  0  0  0  0  0  0  0
  149.3712  141.8464  155.1539 N   0  0  0  0  0  0  0  0  0  0  0  0
  149.0288  140.8529  154.1427 C   0  0  2  0  0  0  0  0  0  0  0  0
  147.6252  141.0849  153.5760 C   0  0  0  0  0  0  0  0  0  0  0  0
  146.9228  139.7622  153.9099 C   0  0  2  0  0  0  0  0  0  0  0  0
  146.6297  139.6309  155.4115 C   0  0  0  0  0  0  0  0  0  0  0  0
  148.0197  139.3446  155.9770 C   0  0  0  0  0  0  0  0  0  0  0  0
  148.8938  139.4256  154.7135 C   0  0  1  0  0  0  0  0  0  0  0  0
  148.0031  138.8559  153.7690 O   0  0  0  0  0  0  0  0  0  0  0  0
  151.3071  144.2230  158.6210 C   0  0  0  0  0  0  0  0  0  0  0  0
  152.7952  145.9651  161.1908 H   0  0  0  0  0  0  0  0  0  0  0  0
  151.1372  146.1842  160.6224 H   0  0  0  0  0  0  0  0  0  0  0  0
  152.4952  146.6503  159.5895 H   0  0  0  0  0  0  0  0  0  0  0  0
  153.6850  143.7234  161.0186 H   0  0  0  0  0  0  0  0  0  0  0  0
  154.4399  141.4222  160.9348 H   0  0  0  0  0  0  0  0  0  0  0  0
  154.5870  140.8693  159.2630 H   0  0  0  0  0  0  0  0  0  0  0  0
  153.2853  140.2518  160.2882 H   0  0  0  0  0  0  0  0  0  0  0  0
  149.8309  143.5194  156.7761 H   0  0  0  0  0  0  0  0  0  0  0  0
  148.8016  142.6801  155.1837 H   0  0  0  0  0  0  0  0  0  0  0  0
  149.7558  140.8691  153.3288 H   0  0  0  0  0  0  0  0  0  0  0  0
  147.1107  141.9431  154.0108 H   0  0  0  0  0  0  0  0  0  0  0  0
  147.6731  141.2336  152.4967 H   0  0  0  0  0  0  0  0  0  0  0  0
  146.0663  139.5441  153.2714 H   0  0  0  0  0  0  0  0  0  0  0  0
  146.1828  140.5351  155.8262 H   0  0  0  0  0  0  0  0  0  0  0  0
  145.9572  138.7953  155.6081 H   0  0  0  0  0  0  0  0  0  0  0  0
  148.3160  140.0428  156.7601 H   0  0  0  0  0  0  0  0  0  0  0  0
  148.0555  138.3392  156.3979 H   0  0  0  0  0  0  0  0  0  0  0  0
  149.8433  138.8971  154.8033 H   0  0  0  0  0  0  0  0  0  0  0  0
  150.6445  144.9798  158.2260 H   0  0  0  0  0  0  0  0  0  0  0  0
  1  2  1  0  0  0  0
  1 20  1  0  0  0  0
  1 21  1  0  0  0  0
  1 22  1  0  0  0  0
  2 19  1  0  0  0  0
  2  3  2  0  0  0  0
  3  4  1  0  0  0  0
  3 23  1  0  0  0  0
  4  5  1  0  0  0  0
  4  6  2  0  0  0  0
  5 24  1  0  0  0  0
  5 25  1  0  0  0  0
  5 26  1  0  0  0  0
  6  7  1  0  0  0  0
  7  8  1  0  0  0  0
  7 19  2  0  0  0  0
  8  9  1  0  0  0  0
  8 27  1  0  0  0  0
  9 10  2  0  0  0  0
  9 11  1  0  0  0  0
 11 12  1  0  0  0  0
 11 28  1  0  0  0  0
 12 17  1  0  0  0  0
 12 13  1  0  0  0  0
 12 29  1  0  0  0  0
 13 14  1  0  0  0  0
 13 30  1  0  0  0  0
 13 31  1  0  0  0  0
 14 18  1  0  0  0  0
 14 15  1  0  0  0  0
 14 32  1  0  0  0  0
 15 16  1  0  0  0  0
 15 33  1  0  0  0  0
 15 34  1  0  0  0  0
 16 17  1  0  0  0  0
 16 35  1  0  0  0  0
 16 36  1  0  0  0  0
 17 18  1  0  0  0  0
 17 37  1  0  0  0  0
 19 38  1  0  0  0  0
M  END
> <s_m_source_file>
AV-unprocessed.smi

> <i_m_source_file_index>
2811

> <i_lp_mmshare_version>
43012

> <i_f3d_flags>
0

> <s_epik_input>
W0NIM11jMVtjSF1jKFtDSDNdKW5jKFtjSF0xKVtOSF1DKD1PKVtOSF1bQ0BIXShbQ0gyXVtDQEBIXTIzKVtDQEBIXShPMylbQ0gyXVtDSDJdMg==

> <s_epik_cmdline>
J2VwaWtfcHl0aG9uJywgJy1waCcsICc3LjAnLCAnLXRuJywgJzgnLCAnLW1hJywgJzIwMCcsICctbWV0YWxfYmluZGluZycsICctaW1hZScsICc8aW5maWxlLm1hZT4nLCAnLW9tYWUnLCAnPG91dGZpbGUubWFlPic=

> <r_lp_tautomer_probability>
1

> <r_epik_Ionization_Penalty>
0.000281548

> <r_epik_Ionization_Penalty_Charging>
0

> <r_epik_Ionization_Penalty_Neutral>
0.000281548

> <r_epik_State_Penalty>
-0

> <r_epik_Charging_Adjusted_Penalty>
0

> <i_epik_Tot_Q>
0

> <i_epik_Tot_abs_Q>
0

> <r_epik_Metal_State_Penalty>
-0

> <b_epik_Metal_Only>
0

> <s_lp_Force_Field>
OPLS_2005

> <r_lp_Energy>
38.9687

> <b_lp_Chiralities_Consistent>
1

> <s_lp_Variant>
AV-unprocessed.smi:2811-3

> <Gold.Version>
5.8.1

> <Gold.Id.Protein>
6NUR|6NUR_protein|mol2

> <Gold.PLP.Fitness>
43.3281

> <Gold.PLP.PLP>
-38.1985

> <Gold.PLP.part.hbond>
-2.0000

> <Gold.PLP.part.metal>
0.0000

> <Gold.PLP.part.buried>
-5.3608

> <Gold.PLP.part.nonpolar>
-31.3513

> <Gold.PLP.part.repulsive>
0.4483

> <Gold.PLP.ligand.clash>
0.0000

> <Gold.PLP.ligand.torsion>
0.2418

> <Gold.PLP.Chemscore.Hbond>
1.8640

> <Gold.PLP.Chemscore.CHOScore>
0.0000

> <Gold.PLP.Chemscore.Metal>
0.0000

> <Gold.Chemscore.Hbonds>
donor molecule, donor type, donor heavy atom, donor atom, acceptor molecule, acceptor atom, score
      L1  H     8    27       P1  8028  1.00
      L1  H    11    28       P1  8028  0.73

> <Gold.PLP.Chemscore.Internal.Correction>
0.0212

> <Gold.Rescore>
     Score         DG    S(hbond)    S(metal)    S(lipo)     H(rot)  DE(clash)    DE(int)     intcor
     17.66     -20.76       1.79        0.00     101.43       1.00       0.62       2.47       ----

> <Gold.Chemscore.Fitness>
17.6618

> <Gold.Chemscore.DG>
-20.7575

> <Gold.Chemscore.ZeroCoef>
-5.4800

> <Gold.Chemscore.Hbond>
1.7873

> <Gold.Chemscore.Metal>
0.0000

> <Gold.Chemscore.Lipo>
101.4347

> <Gold.Chemscore.Internal_Hbond>
0.0000

> <Gold.Chemscore.DEClash>
0.6246

> <Gold.Chemscore.DEInternal>
2.4711

> <Gold.Chemscore.Rot>
1.0000

> <Gold.Chemscore.Internal.Correction>
   9.000000E+99

> <Gold.Chemscore.Hbonds>
donor molecule, donor type, donor heavy atom, donor atom, acceptor molecule, acceptor atom, score
      L1  H     8    27       P1  8028  0.98
      L1  H    11    28       P1  8028  0.71

> <Gold.Chemscore.Hbond.Weighted>
-5.9696

> <Gold.Chemscore.Metal.Weighted>
-0.0000

> <Gold.Chemscore.Lipo.Weighted>
-11.8679

> <Gold.Chemscore.Internal_Hbond.Weighted>
0.0000

> <Gold.Chemscore.DEClash.Weighted>
0.6246

> <Gold.Chemscore.DEInternal.Weighted>
2.4711

> <Gold.Chemscore.Rot.Weighted>
2.5600

> <Gold.Chemscore.Internal.Correction.Weighted>
   9.000000E+99

> <Gold.Protein.RotatedTorsions>
[ 6907 6896 6895 6894 ] final   38.28 input  -60.11 | X-H torsion
[ 7974 7965 7964 7962 ] final   28.74 input  175.53 | X-H torsion
[ 8008 7997 7996 7995 ] final  -84.00 input   59.86 | X-H torsion
[ 10167 10162 10161 10158 ] final  160.92 input  -65.29 | X-H torsion
[ 10718 10713 10712 10709 ] final -158.59 input   66.30 | X-H torsion
[ 10763 10752 10751 10750 ] final -115.67 input  -60.55 | X-H torsion
[ 11005 11000 10999 10996 ] final -121.51 input  -57.11 | X-H torsion

> <Gold.Protein.ActiveResidues>
 VAL166  LYS551  ARG553  GLY616  TRP617  ASP618  TYR619  PRO620  LYS621  CYS622 
 ASP623  PHE694  ASN695  SER759  ASP760  ASP761  ALA762  ILE779  LEU786  VAL792 
 PHE793  MET794  SER795  GLU796  ALA797  LYS798  CYS799  TRP800  GLU811  SER814 

> <Gold.Protein.RotatedAtoms>
  152.1544  134.8962  160.0545 H   0  0  0  0  0  0  0  0  0  0  0  0  # atno 6907 bound_to 6896
  151.9982  133.3811  159.4179 H   0  0  0  0  0  0  0  0  0  0  0  0  # atno 6908 bound_to 6896
  150.6879  134.3785  159.5067 H   0  0  0  0  0  0  0  0  0  0  0  0  # atno 6909 bound_to 6896
  146.1711  139.7015  142.8966 H   0  0  0  0  0  0  0  0  0  0  0  0  # atno 7974 bound_to 7965
  154.6251  140.0611  156.9664 H   0  0  0  0  0  0  0  0  0  0  0  0  # atno 8008 bound_to 7997
  155.1754  140.3294  155.4366 H   0  0  0  0  0  0  0  0  0  0  0  0  # atno 8009 bound_to 7997
  156.2453  140.1907  156.6854 H   0  0  0  0  0  0  0  0  0  0  0  0  # atno 8010 bound_to 7997
  139.4844  144.4587  151.8734 H   0  0  0  0  0  0  0  0  0  0  0  0  # atno 10167 bound_to 10162
  156.5563  130.8627  151.2795 H   0  0  0  0  0  0  0  0  0  0  0  0  # atno 10718 bound_to 10713
  154.8490  135.4373  154.1699 H   0  0  0  0  0  0  0  0  0  0  0  0  # atno 10763 bound_to 10752
  153.2815  135.6954  153.7386 H   0  0  0  0  0  0  0  0  0  0  0  0  # atno 10764 bound_to 10752
  153.6588  135.3438  155.3096 H   0  0  0  0  0  0  0  0  0  0  0  0  # atno 10765 bound_to 10752
  141.0064  134.0328  157.3471 H   0  0  0  0  0  0  0  0  0  0  0  0  # atno 11005 bound_to 11000
  145.4336  141.0417  143.2897 LP  0  0  0  0  0  0  0  0  0  0  0  0  # atno 17320 bound_to 7965
  144.8165  139.5867  143.7006 LP  0  0  0  0  0  0  0  0  0  0  0  0  # atno 17321 bound_to 7965
  140.4048  144.2446  150.5891 LP  0  0  0  0  0  0  0  0  0  0  0  0  # atno 17342 bound_to 10162
  140.5023  143.2314  151.8660 LP  0  0  0  0  0  0  0  0  0  0  0  0  # atno 17343 bound_to 10162
  157.7377  130.9801  150.2212 LP  0  0  0  0  0  0  0  0  0  0  0  0  # atno 17370 bound_to 10713
  156.2839  130.3737  149.7908 LP  0  0  0  0  0  0  0  0  0  0  0  0  # atno 17371 bound_to 10713
  139.9066  135.0181  156.7511 LP  0  0  0  0  0  0  0  0  0  0  0  0  # atno 17394 bound_to 11000
  140.6805  133.9479  155.7907 LP  0  0  0  0  0  0  0  0  0  0  0  0  # atno 17395 bound_to 11000

$$$$
