#       Name:                AV-unprocessed.smi:2363
#       Creating user name   scv26
#       Creation time:       Fri Mar 27 13:05:19 2020


#       File generated by GOLD software.
#

@<TRIPOS>MOLECULE
AV-unprocessed.smi:2363
    49    50     1
SMALL
NO_CHARGES


@<TRIPOS>ATOM
      1 ****        -2.5381  -3.1929   2.0710 C.3            1 S1                 0.0000
      2 ****        -3.2954  -3.7666   0.8647 C.3            1 S1                 0.0000
      3 ****        -3.1469  -2.9365  -0.4228 C.3            1 S1                 0.0000
      4 ****        -3.6101  -1.5669  -0.2658 N.pl3          1 S1                 0.0000
      5 ****        -4.9309  -1.2948  -0.3530 N.2            1 S1                 0.0000
      6 ****        -5.0262   0.0151  -0.1655 C.2            1 S1                 0.0000
      7 ****        -3.7658   0.6407   0.0518 C.2            1 S1                 0.0000
      8 ****        -2.8957  -0.4130  -0.0184 C.2            1 S1                 0.0000
      9 ****        -1.5431  -0.4120   0.1196 N.am           1 S1                 0.0000
     10 ****        -0.7326   0.6071   0.4521 C.2            1 S1                 0.0000
     11 ****        -1.0972   1.7583   0.6911 O.2            1 S1                 0.0000
     12 ****         0.5483   0.2097   0.4905 N.am           1 S1                 0.0000
     13 ****         1.6998   1.0499   0.8226 C.3            1 S1                 0.0000
     14 ****         2.4313   0.4020   2.0106 C.3            1 S1                 0.0000
     15 ****         2.6072   1.2535  -0.4205 C.3            1 S1                 0.0000
     16 ****         3.8017   2.1856  -0.1316 C.3            1 S1                 0.0000
     17 ****         4.6386   2.4354  -1.3967 C.3            1 S1                 0.0000
     18 ****         3.8192   2.9755  -2.4257 O.3            1 S1                 0.0000
     19 ****         2.7802   2.0883  -2.8189 C.3            1 S1                 0.0000
     20 ****         1.8390   1.8225  -1.6333 C.3            1 S1                 0.0000
     21 ****        -2.6316  -3.8515   2.9346 H              1 S1                 0.0000
     22 ****        -2.9264  -2.2164   2.3611 H              1 S1                 0.0000
     23 ****        -1.4762  -3.0812   1.8512 H              1 S1                 0.0000
     24 ****        -2.9428  -4.7804   0.6732 H              1 S1                 0.0000
     25 ****        -4.3526  -3.8578   1.1171 H              1 S1                 0.0000
     26 ****        -2.1048  -2.9232  -0.7435 H              1 S1                 0.0000
     27 ****        -3.7101  -3.4023  -1.2328 H              1 S1                 0.0000
     28 ****        -6.0043   0.4720  -0.1935 H              1 S1                 0.0000
     29 ****        -3.5587   1.6855   0.2278 H              1 S1                 0.0000
     30 ****        -1.0959  -1.3042  -0.0305 H              1 S1                 0.0000
     31 ****         0.7466  -0.7564   0.2756 H              1 S1                 0.0000
     32 ****         1.3548   2.0312   1.1530 H              1 S1                 0.0000
     33 ****         3.2159   1.0477   2.4036 H              1 S1                 0.0000
     34 ****         2.8875  -0.5473   1.7279 H              1 S1                 0.0000
     35 ****         1.7425   0.2068   2.8335 H              1 S1                 0.0000
     36 ****         3.0061   0.2798  -0.7101 H              1 S1                 0.0000
     37 ****         3.4409   3.1393   0.2561 H              1 S1                 0.0000
     38 ****         4.4478   1.7602   0.6356 H              1 S1                 0.0000
     39 ****         5.4406   3.1414  -1.1803 H              1 S1                 0.0000
     40 ****         5.1116   1.5137  -1.7395 H              1 S1                 0.0000
     41 ****         2.2260   2.5395  -3.6422 H              1 S1                 0.0000
     42 ****         3.2046   1.1562  -3.1950 H              1 S1                 0.0000
     43 ****         1.0564   1.1350  -1.9544 H              1 S1                 0.0000
     44 ****         1.3403   2.7509  -1.3516 H              1 S1                 0.0000
     45 ****        -5.6752  -1.9408  -0.5222 LP             1 S1                 0.0000
     46 ****        -2.0677   1.9952   0.6448 LP             1 S1                 0.0000
     47 ****        -0.4230   2.4566   0.9316 LP             1 S1                 0.0000
     48 ****         4.3919   3.1710  -3.2218 LP             1 S1                 0.0000
     49 ****         3.4073   3.8246  -2.0948 LP             1 S1                 0.0000
@<TRIPOS>BOND
    1    1    2 1     
    2    1   21 1     
    3    1   22 1     
    4    1   23 1     
    5    2    3 1     
    6    2   24 1     
    7    2   25 1     
    8    3    4 1     
    9    3   26 1     
   10    3   27 1     
   11    4    8 1     
   12    4    5 1     
   13    5    6 2     
   14    6    7 1     
   15    6   28 1     
   16    7    8 2     
   17    7   29 1     
   18    8    9 1     
   19    9   10 am    
   20    9   30 1     
   21   10   11 2     
   22   10   12 am    
   23   12   13 1     
   24   12   31 1     
   25   13   14 1     
   26   13   15 1     
   27   13   32 1     
   28   14   33 1     
   29   14   34 1     
   30   14   35 1     
   31   15   20 1     
   32   15   16 1     
   33   15   36 1     
   34   16   17 1     
   35   16   37 1     
   36   16   38 1     
   37   17   18 1     
   38   17   39 1     
   39   17   40 1     
   40   18   19 1     
   41   19   20 1     
   42   19   41 1     
   43   19   42 1     
   44   20   43 1     
   45   20   44 1     
   46    5   45 1     
   47   11   46 1     
   48   11   47 1     
   49   18   48 1     
   50   18   49 1     
@<TRIPOS>SUBSTRUCTURE
      1 S1             1
@<TRIPOS>SET
LONE_PAIRS      STATIC     ATOMS    <user>   **** ""
5 45 46 47 48 49
DONOR_HYDROGENS      STATIC     ATOMS    <user>   **** ""
2 30 31
ATOM$BLUE        STATIC     ATOMS    COLORGROUP SYSTEM
5 45 46 47 48 49
ATOM$RED        STATIC     ATOMS    COLORGROUP SYSTEM
2 30 31
