AV-unprocessed.smi:3158|AV-procd|sdf|12047|dock7
  -GOLD-   2272017473D 1   1.00000     0.00000
 Structure written by MMmdl.
 39 39  0  0  0  0  0  0  0  0  1 V2000
  151.8606  136.6892  157.2310 C   0  0  0  0  0  0  0  0  0  0  0  0
  151.3168  138.0986  156.9540 C   0  0  0  0  0  0  0  0  0  0  0  0
  149.8746  138.1105  156.4129 C   0  0  2  0  0  0  0  0  0  0  0  0
  149.7204  137.1920  155.1903 C   0  0  0  0  0  0  0  0  0  0  0  0
  149.4809  139.4747  156.0713 N   0  0  0  0  0  0  0  0  0  0  0  0
  150.0633  140.2533  155.1453 C   0  0  0  0  0  0  0  0  0  0  0  0
  151.0420  139.8996  154.4865 O   0  0  0  0  0  0  0  0  0  0  0  0
  149.4201  141.6317  154.9355 C   0  0  1  0  0  0  0  0  0  0  0  0
  148.0543  141.5371  154.2244 C   0  0  0  0  0  0  0  0  0  0  0  0
  149.3084  142.3196  156.2300 N   0  0  0  0  0  0  0  0  0  0  0  0
  150.5460  142.3083  156.9995 C   0  0  0  0  0  0  0  0  0  0  0  0
  151.2372  143.6791  156.9009 C   0  0  0  0  0  0  0  0  0  0  0  0
  151.3166  144.3539  158.1851 N   0  0  0  0  0  0  0  0  0  0  0  0
  150.6460  145.4845  158.6022 C   0  0  0  0  0  0  0  0  0  0  0  0
  151.0369  145.7388  159.8856 C   0  0  0  0  0  0  0  0  0  0  0  0
  151.9625  144.6961  160.1694 C   0  0  0  0  0  0  0  0  0  0  0  0
  152.1301  143.8704  159.1489 N   0  0  0  0  0  0  0  0  0  0  0  0
  152.8933  136.7334  157.5773 H   0  0  0  0  0  0  0  0  0  0  0  0
  151.8372  136.0751  156.3306 H   0  0  0  0  0  0  0  0  0  0  0  0
  151.2788  136.1794  157.9989 H   0  0  0  0  0  0  0  0  0  0  0  0
  151.3730  138.6906  157.8685 H   0  0  0  0  0  0  0  0  0  0  0  0
  151.9734  138.5896  156.2346 H   0  0  0  0  0  0  0  0  0  0  0  0
  149.2195  137.7398  157.2037 H   0  0  0  0  0  0  0  0  0  0  0  0
  150.0010  136.1669  155.4334 H   0  0  0  0  0  0  0  0  0  0  0  0
  150.3496  137.5221  154.3631 H   0  0  0  0  0  0  0  0  0  0  0  0
  148.6887  137.1731  154.8374 H   0  0  0  0  0  0  0  0  0  0  0  0
  148.6799  139.8501  156.5587 H   0  0  0  0  0  0  0  0  0  0  0  0
  150.1046  142.1886  154.2930 H   0  0  0  0  0  0  0  0  0  0  0  0
  148.1296  140.9660  153.2979 H   0  0  0  0  0  0  0  0  0  0  0  0
  147.6736  142.5221  153.9554 H   0  0  0  0  0  0  0  0  0  0  0  0
  147.3062  141.0535  154.8538 H   0  0  0  0  0  0  0  0  0  0  0  0
  148.9725  143.2661  156.1239 H   0  0  0  0  0  0  0  0  0  0  0  0
  150.3438  142.0682  158.0444 H   0  0  0  0  0  0  0  0  0  0  0  0
  151.2134  141.5379  156.6136 H   0  0  0  0  0  0  0  0  0  0  0  0
  152.2506  143.5569  156.5163 H   0  0  0  0  0  0  0  0  0  0  0  0
  150.7127  144.3244  156.1947 H   0  0  0  0  0  0  0  0  0  0  0  0
  149.9503  146.0047  157.9605 H   0  0  0  0  0  0  0  0  0  0  0  0
  150.7095  146.5450  160.5251 H   0  0  0  0  0  0  0  0  0  0  0  0
  152.5145  144.5164  161.0801 H   0  0  0  0  0  0  0  0  0  0  0  0
  1  2  1  0  0  0  0
  1 18  1  0  0  0  0
  1 19  1  0  0  0  0
  1 20  1  0  0  0  0
  2  3  1  0  0  0  0
  2 21  1  0  0  0  0
  2 22  1  0  0  0  0
  3  4  1  0  0  0  0
  3  5  1  0  0  0  0
  3 23  1  0  0  0  0
  4 24  1  0  0  0  0
  4 25  1  0  0  0  0
  4 26  1  0  0  0  0
  5  6  1  0  0  0  0
  5 27  1  0  0  0  0
  6  7  2  0  0  0  0
  6  8  1  0  0  0  0
  8  9  1  0  0  0  0
  8 10  1  0  0  0  0
  8 28  1  0  0  0  0
  9 29  1  0  0  0  0
  9 30  1  0  0  0  0
  9 31  1  0  0  0  0
 10 11  1  0  0  0  0
 10 32  1  0  0  0  0
 11 12  1  0  0  0  0
 11 33  1  0  0  0  0
 11 34  1  0  0  0  0
 12 13  1  0  0  0  0
 12 35  1  0  0  0  0
 12 36  1  0  0  0  0
 13 17  1  0  0  0  0
 13 14  1  0  0  0  0
 14 15  2  0  0  0  0
 14 37  1  0  0  0  0
 15 16  1  0  0  0  0
 15 38  1  0  0  0  0
 16 17  2  0  0  0  0
 16 39  1  0  0  0  0
M  END
> <s_m_source_file>
AV-unprocessed.smi

> <i_m_source_file_index>
3158

> <i_lp_mmshare_version>
43012

> <i_f3d_flags>
0

> <s_epik_input>
W0NIM11bQ0gyXVtDQEhdKFtDSDNdKVtOSF1DKD1PKVtDQEhdKFtDSDNdKVtOSF1bQ0gyXVtDSDJdbjFbY0hdW2NIXVtjSF1uMQ==

> <s_epik_cmdline>
J2VwaWtfcHl0aG9uJywgJy1waCcsICc3LjAnLCAnLXRuJywgJzgnLCAnLW1hJywgJzIwMCcsICctbWV0YWxfYmluZGluZycsICctaW1hZScsICc8aW5maWxlLm1hZT4nLCAnLW9tYWUnLCAnPG91dGZpbGUubWFlPic=

> <r_lp_tautomer_probability>
1

> <r_epik_Ionization_Penalty>
0.724013

> <r_epik_Ionization_Penalty_Charging>
0

> <r_epik_Ionization_Penalty_Neutral>
0.724013

> <r_epik_State_Penalty>
0.74758

> <r_epik_Charging_Adjusted_Penalty>
0.74758

> <i_epik_Tot_Q>
0

> <i_epik_Tot_abs_Q>
0

> <r_epik_Metal_State_Penalty>
0.746846

> <b_epik_Metal_Only>
0

> <s_lp_Force_Field>
OPLS_2005

> <r_lp_Energy>
5.95419

> <b_lp_Chiralities_Consistent>
1

> <s_lp_Variant>
AV-unprocessed.smi:3158-7

> <Gold.Version>
5.8.1

> <Gold.Id.Protein>
6NUR|6NUR_protein|mol2

> <Gold.PLP.Fitness>
40.3558

> <Gold.PLP.PLP>
-33.2005

> <Gold.PLP.part.hbond>
-2.0000

> <Gold.PLP.part.metal>
0.0000

> <Gold.PLP.part.buried>
-4.2939

> <Gold.PLP.part.nonpolar>
-27.2802

> <Gold.PLP.part.repulsive>
0.1236

> <Gold.PLP.ligand.clash>
0.0000

> <Gold.PLP.ligand.torsion>
0.9970

> <Gold.PLP.Chemscore.Hbond>
2.0000

> <Gold.PLP.Chemscore.CHOScore>
1.0000

> <Gold.PLP.Chemscore.Metal>
0.0000

> <Gold.Chemscore.Hbonds>
donor molecule, donor type, donor heavy atom, donor atom, acceptor molecule, acceptor atom, score
      L1  H    10    32       P1  8028  0.99
      P1  H  7989  7998       L1     7  0.93
      L1  C    14    37       P1  8029  1.00

> <Gold.PLP.Chemscore.Internal.Correction>
0.1493

> <Gold.Rescore>
     Score         DG    S(hbond)    S(metal)    S(lipo)     H(rot)  DE(clash)    DE(int)     intcor
     14.39     -16.04       1.96        0.00      80.82       2.12       0.08       1.57       ----

> <Gold.Chemscore.Fitness>
14.3881

> <Gold.Chemscore.DG>
-16.0439

> <Gold.Chemscore.ZeroCoef>
-5.4800

> <Gold.Chemscore.Hbond>
1.9593

> <Gold.Chemscore.Metal>
0.0000

> <Gold.Chemscore.Lipo>
80.8182

> <Gold.Chemscore.Internal_Hbond>
0.0000

> <Gold.Chemscore.DEClash>
0.0820

> <Gold.Chemscore.DEInternal>
1.5738

> <Gold.Chemscore.Rot>
2.1234

> <Gold.Chemscore.Internal.Correction>
   9.000000E+99

> <Gold.Chemscore.Hbonds>
donor molecule, donor type, donor heavy atom, donor atom, acceptor molecule, acceptor atom, score
      L1  H    10    32       P1  8028  0.92
      P1  H  7989  7998       L1     7  0.86

> <Gold.Chemscore.Hbond.Weighted>
-6.5440

> <Gold.Chemscore.Metal.Weighted>
-0.0000

> <Gold.Chemscore.Lipo.Weighted>
-9.4557

> <Gold.Chemscore.Internal_Hbond.Weighted>
0.0000

> <Gold.Chemscore.DEClash.Weighted>
0.0820

> <Gold.Chemscore.DEInternal.Weighted>
1.5738

> <Gold.Chemscore.Rot.Weighted>
5.4359

> <Gold.Chemscore.Internal.Correction.Weighted>
   9.000000E+99

> <Gold.Protein.RotatedTorsions>
[ 6907 6896 6895 6894 ] final -126.48 input  -60.11 | X-H torsion
[ 7974 7965 7964 7962 ] final -136.50 input  175.53 | X-H torsion
[ 8008 7997 7996 7995 ] final  135.56 input   59.86 | X-H torsion
[ 10167 10162 10161 10158 ] final   74.27 input  -65.29 | X-H torsion
[ 10718 10713 10712 10709 ] final   28.99 input   66.30 | X-H torsion
[ 10763 10752 10751 10750 ] final  -71.76 input  -60.55 | X-H torsion
[ 11005 11000 10999 10996 ] final   27.55 input  -57.11 | X-H torsion

> <Gold.Protein.ActiveResidues>
 VAL166  LYS551  ARG553  GLY616  TRP617  ASP618  TYR619  PRO620  LYS621  CYS622 
 ASP623  PHE694  ASN695  SER759  ASP760  ASP761  ALA762  ILE779  LEU786  VAL792 
 PHE793  MET794  SER795  GLU796  ALA797  LYS798  CYS799  TRP800  GLU811  SER814 

> <Gold.Protein.RotatedAtoms>
  150.8973  133.7164  159.2888 H   0  0  0  0  0  0  0  0  0  0  0  0  # atno 6907 bound_to 6896
  151.4694  135.1043  159.9757 H   0  0  0  0  0  0  0  0  0  0  0  0  # atno 6908 bound_to 6896
  152.4856  133.8317  159.7162 H   0  0  0  0  0  0  0  0  0  0  0  0  # atno 6909 bound_to 6896
  144.8921  140.6657  143.5138 H   0  0  0  0  0  0  0  0  0  0  0  0  # atno 7974 bound_to 7965
  156.3003  140.2467  156.3601 H   0  0  0  0  0  0  0  0  0  0  0  0  # atno 8008 bound_to 7997
  154.8885  140.0410  157.1844 H   0  0  0  0  0  0  0  0  0  0  0  0  # atno 8009 bound_to 7997
  154.8622  140.2922  155.5536 H   0  0  0  0  0  0  0  0  0  0  0  0  # atno 8010 bound_to 7997
  140.0155  144.5581  150.7624 H   0  0  0  0  0  0  0  0  0  0  0  0  # atno 10167 bound_to 10162
  157.2407  130.7068  149.6357 H   0  0  0  0  0  0  0  0  0  0  0  0  # atno 10718 bound_to 10713
  154.4363  135.5951  153.6100 H   0  0  0  0  0  0  0  0  0  0  0  0  # atno 10763 bound_to 10752
  152.9802  135.5987  154.3777 H   0  0  0  0  0  0  0  0  0  0  0  0  # atno 10764 bound_to 10752
  154.3622  135.2841  155.2292 H   0  0  0  0  0  0  0  0  0  0  0  0  # atno 10765 bound_to 10752
  140.3250  134.2501  155.7711 H   0  0  0  0  0  0  0  0  0  0  0  0  # atno 11005 bound_to 11000
  145.3764  139.1647  143.4304 LP  0  0  0  0  0  0  0  0  0  0  0  0  # atno 17320 bound_to 7965
  146.3060  140.3841  142.8687 LP  0  0  0  0  0  0  0  0  0  0  0  0  # atno 17321 bound_to 7965
  140.7364  143.2753  151.3762 LP  0  0  0  0  0  0  0  0  0  0  0  0  # atno 17342 bound_to 10162
  139.6176  144.0972  152.2360 LP  0  0  0  0  0  0  0  0  0  0  0  0  # atno 17343 bound_to 10162
  155.9670  130.4459  150.5519 LP  0  0  0  0  0  0  0  0  0  0  0  0  # atno 17370 bound_to 10713
  157.3381  131.0712  151.1809 LP  0  0  0  0  0  0  0  0  0  0  0  0  # atno 17371 bound_to 10713
  141.2077  133.7797  157.0101 LP  0  0  0  0  0  0  0  0  0  0  0  0  # atno 17394 bound_to 11000
  140.0909  134.9593  157.1774 LP  0  0  0  0  0  0  0  0  0  0  0  0  # atno 17395 bound_to 11000

$$$$
