#       Name:                AV-unprocessed.smi:1246
#       Creating user name   scv26
#       Creation time:       Fri Mar 27 04:35:13 2020


#       File generated by GOLD software.
#

@<TRIPOS>MOLECULE
AV-unprocessed.smi:1246
    40    41     1
SMALL
NO_CHARGES


@<TRIPOS>ATOM
      1 ****        -5.7344  -0.4626  -0.6480 C.3            1 S1                 0.0000
      2 ****        -4.3942   0.1785  -0.8568 C.2            1 S1                 0.0000
      3 ****        -3.1048  -0.4071  -0.6938 C.2            1 S1                 0.0000
      4 ****        -2.2635   0.6230  -1.0149 C.2            1 S1                 0.0000
      5 ****        -0.9043   0.6454  -1.0308 N.am           1 S1                 0.0000
      6 ****        -0.0430  -0.3522  -0.7669 C.2            1 S1                 0.0000
      7 ****        -0.3539  -1.5055  -0.4680 O.2            1 S1                 0.0000
      8 ****         1.2262   0.0668  -0.8700 N.am           1 S1                 0.0000
      9 ****         2.4040  -0.7596  -0.6314 C.3            1 S1                 0.0000
     10 ****         2.6917  -0.9158   0.8709 C.3            1 S1                 0.0000
     11 ****         3.8889  -1.8094   1.1789 C.3            1 S1                 0.0000
     12 ****         4.2410  -1.3666   2.5816 C.3            1 S1                 0.0000
     13 ****         3.9427   0.1321   2.5406 C.3            1 S1                 0.0000
     14 ****         3.0449   0.3353   1.4511 O.3            1 S1                 0.0000
     15 ****        -3.0177   1.7282  -1.3404 N.pl3          1 S1                 0.0000
     16 ****        -2.5846   3.0524  -1.7410 C.3            1 S1                 0.0000
     17 ****        -4.3352   1.4486  -1.2412 N.2            1 S1                 0.0000
     18 ****        -5.6303  -1.4802  -0.2708 H              1 S1                 0.0000
     19 ****        -6.2955  -0.5108  -1.5814 H              1 S1                 0.0000
     20 ****        -6.3311   0.0976   0.0724 H              1 S1                 0.0000
     21 ****        -2.8613  -1.4140  -0.3899 H              1 S1                 0.0000
     22 ****        -0.4921   1.5345  -1.2721 H              1 S1                 0.0000
     23 ****         1.3921   1.0316  -1.1166 H              1 S1                 0.0000
     24 ****         2.2671  -1.7385  -1.0939 H              1 S1                 0.0000
     25 ****         3.2560  -0.2976  -1.1309 H              1 S1                 0.0000
     26 ****         1.8154  -1.3030   1.3942 H              1 S1                 0.0000
     27 ****         3.6555  -2.8724   1.1116 H              1 S1                 0.0000
     28 ****         4.7152  -1.5944   0.4997 H              1 S1                 0.0000
     29 ****         3.5846  -1.8584   3.3007 H              1 S1                 0.0000
     30 ****         5.2727  -1.5891   2.8552 H              1 S1                 0.0000
     31 ****         3.5078   0.4830   3.4765 H              1 S1                 0.0000
     32 ****         4.8515   0.7051   2.3549 H              1 S1                 0.0000
     33 ****        -1.8676   2.9725  -2.5584 H              1 S1                 0.0000
     34 ****        -2.1098   3.5523  -0.8963 H              1 S1                 0.0000
     35 ****        -3.4340   3.6495  -2.0758 H              1 S1                 0.0000
     36 ****        -1.3181  -1.7632  -0.4054 LP             1 S1                 0.0000
     37 ****         0.3578  -2.1844  -0.2878 LP             1 S1                 0.0000
     38 ****         2.2191   0.7912   1.7832 LP             1 S1                 0.0000
     39 ****         3.4867   0.9077   0.7603 LP             1 S1                 0.0000
     40 ****        -5.1019   2.0655  -1.4190 LP             1 S1                 0.0000
@<TRIPOS>BOND
    1    1    2 1     
    2    1   18 1     
    3    1   19 1     
    4    1   20 1     
    5    2   17 2     
    6    2    3 1     
    7    3    4 2     
    8    3   21 1     
    9    4    5 1     
   10    4   15 1     
   11    5    6 am    
   12    5   22 1     
   13    6    7 2     
   14    6    8 am    
   15    8    9 1     
   16    8   23 1     
   17    9   10 1     
   18    9   24 1     
   19    9   25 1     
   20   10   14 1     
   21   10   11 1     
   22   10   26 1     
   23   11   12 1     
   24   11   27 1     
   25   11   28 1     
   26   12   13 1     
   27   12   29 1     
   28   12   30 1     
   29   13   14 1     
   30   13   31 1     
   31   13   32 1     
   32   15   16 1     
   33   15   17 1     
   34   16   33 1     
   35   16   34 1     
   36   16   35 1     
   37    7   36 1     
   38    7   37 1     
   39   14   38 1     
   40   14   39 1     
   41   17   40 1     
@<TRIPOS>SUBSTRUCTURE
      1 S1             1
@<TRIPOS>SET
LONE_PAIRS      STATIC     ATOMS    <user>   **** ""
5 36 37 38 39 40
DONOR_HYDROGENS      STATIC     ATOMS    <user>   **** ""
2 22 23
ATOM$BLUE        STATIC     ATOMS    COLORGROUP SYSTEM
5 36 37 38 39 40
ATOM$RED        STATIC     ATOMS    COLORGROUP SYSTEM
2 22 23
