AV-unprocessed.smi:312|AV-procd|sdf|2308|dock1
  -GOLD-   2262022203D 1   1.00000     0.00000
 Structure written by MMmdl.
 35 36  0  0  0  0  0  0  0  0  1 V2000
  149.2536  140.9873  157.4259 C   0  0  0  0  0  0  0  0  0  0  0  0
  150.7820  140.8639  157.3669 C   0  0  1  0  0  0  0  0  0  0  0  0
  151.2884  140.8485  155.9090 C   0  0  0  0  0  0  0  0  0  0  0  0
  151.4391  139.5047  155.3810 N   0  0  0  0  0  0  0  0  0  0  0  0
  150.7844  138.9554  154.2859 C   0  0  0  0  0  0  0  0  0  0  0  0
  151.2490  137.6663  154.1563 C   0  0  0  0  0  0  0  0  0  0  0  0
  152.1789  137.4001  155.1585 N   0  0  0  0  0  0  0  0  0  0  0  0
  152.2383  138.5341  155.8448 C   0  0  0  0  0  0  0  0  0  0  0  0
  151.3772  141.9727  158.1117 N   0  0  0  0  0  0  0  0  0  0  0  0
  152.4856  141.9047  158.8667 C   0  0  0  0  0  0  0  0  0  0  0  0
  153.1241  140.8658  159.0390 O   0  0  0  0  0  0  0  0  0  0  0  0
  152.9501  143.2188  159.5144 C   0  0  0  0  0  0  0  0  0  0  0  0
  152.0454  143.6244  160.7018 C   0  0  0  0  0  0  0  0  0  0  0  0
  151.4259  144.9831  160.3497 C   0  0  0  0  0  0  0  0  0  0  0  0
  151.5615  145.1101  158.8350 C   0  0  0  0  0  0  0  0  0  0  0  0
  152.8777  144.3985  158.5262 C   0  0  0  0  0  0  0  0  0  0  0  0
  148.7729  140.1584  156.9058 H   0  0  0  0  0  0  0  0  0  0  0  0
  148.9106  141.9136  156.9635 H   0  0  0  0  0  0  0  0  0  0  0  0
  148.8981  140.9778  158.4569 H   0  0  0  0  0  0  0  0  0  0  0  0
  151.0454  139.9151  157.8384 H   0  0  0  0  0  0  0  0  0  0  0  0
  150.5901  141.3836  155.2641 H   0  0  0  0  0  0  0  0  0  0  0  0
  152.2456  141.3660  155.8290 H   0  0  0  0  0  0  0  0  0  0  0  0
  150.0681  139.5140  153.7015 H   0  0  0  0  0  0  0  0  0  0  0  0
  150.9869  136.9160  153.4252 H   0  0  0  0  0  0  0  0  0  0  0  0
  152.8829  138.6641  156.7018 H   0  0  0  0  0  0  0  0  0  0  0  0
  150.9205  142.8695  158.0299 H   0  0  0  0  0  0  0  0  0  0  0  0
  153.9802  143.1002  159.8550 H   0  0  0  0  0  0  0  0  0  0  0  0
  151.2535  142.8938  160.8785 H   0  0  0  0  0  0  0  0  0  0  0  0
  152.6166  143.6910  161.6284 H   0  0  0  0  0  0  0  0  0  0  0  0
  150.3918  145.0711  160.6841 H   0  0  0  0  0  0  0  0  0  0  0  0
  151.9964  145.7782  160.8316 H   0  0  0  0  0  0  0  0  0  0  0  0
  150.7352  144.5945  158.3436 H   0  0  0  0  0  0  0  0  0  0  0  0
  151.5553  146.1471  158.4984 H   0  0  0  0  0  0  0  0  0  0  0  0
  153.7117  145.0770  158.7100 H   0  0  0  0  0  0  0  0  0  0  0  0
  152.9391  144.0951  157.4797 H   0  0  0  0  0  0  0  0  0  0  0  0
  1  2  1  0  0  0  0
  1 17  1  0  0  0  0
  1 18  1  0  0  0  0
  1 19  1  0  0  0  0
  2  3  1  0  0  0  0
  2  9  1  0  0  0  0
  2 20  1  0  0  0  0
  3  4  1  0  0  0  0
  3 21  1  0  0  0  0
  3 22  1  0  0  0  0
  4  8  1  0  0  0  0
  4  5  1  0  0  0  0
  5  6  2  0  0  0  0
  5 23  1  0  0  0  0
  6  7  1  0  0  0  0
  6 24  1  0  0  0  0
  7  8  2  0  0  0  0
  8 25  1  0  0  0  0
  9 10  1  0  0  0  0
  9 26  1  0  0  0  0
 10 11  2  0  0  0  0
 10 12  1  0  0  0  0
 12 16  1  0  0  0  0
 12 13  1  0  0  0  0
 12 27  1  0  0  0  0
 13 14  1  0  0  0  0
 13 28  1  0  0  0  0
 13 29  1  0  0  0  0
 14 15  1  0  0  0  0
 14 30  1  0  0  0  0
 14 31  1  0  0  0  0
 15 16  1  0  0  0  0
 15 32  1  0  0  0  0
 15 33  1  0  0  0  0
 16 34  1  0  0  0  0
 16 35  1  0  0  0  0
M  END
> <s_m_source_file>
AV-unprocessed.smi

> <i_m_source_file_index>
312

> <i_lp_mmshare_version>
43012

> <i_f3d_flags>
0

> <s_epik_input>
W2NIXTFuW2NIXVtjSF1uMVtDSDJdW0NAQEhdKFtDSDNdKVtOSF1DKD1PKVtDSF0yW0NIMl1bQ0gyXVtDSDJdW0NIMl0y

> <s_epik_cmdline>
J2VwaWtfcHl0aG9uJywgJy1waCcsICc3LjAnLCAnLXRuJywgJzgnLCAnLW1hJywgJzIwMCcsICctbWV0YWxfYmluZGluZycsICctaW1hZScsICc8aW5maWxlLm1hZT4nLCAnLW9tYWUnLCAnPG91dGZpbGUubWFlPic=

> <r_lp_tautomer_probability>
1

> <r_epik_Ionization_Penalty>
0.642614

> <r_epik_Ionization_Penalty_Charging>
0.642614

> <r_epik_Ionization_Penalty_Neutral>
3.44135e-08

> <r_epik_State_Penalty>
0.660429

> <r_epik_Charging_Adjusted_Penalty>
1.30304

> <i_epik_Tot_Q>
0

> <i_epik_Tot_abs_Q>
0

> <r_epik_Metal_State_Penalty>
0.31224

> <b_epik_Metal_Only>
0

> <s_lp_Force_Field>
OPLS_2005

> <r_lp_Energy>
21.6538

> <b_lp_Chiralities_Consistent>
1

> <s_lp_Variant>
AV-unprocessed.smi:312-4

> <Gold.Version>
5.8.1

> <Gold.Id.Protein>
6NUR|6NUR_protein|mol2

> <Gold.PLP.Fitness>
45.8918

> <Gold.PLP.PLP>
-40.3886

> <Gold.PLP.part.hbond>
-1.0000

> <Gold.PLP.part.metal>
0.0000

> <Gold.PLP.part.buried>
-2.6884

> <Gold.PLP.part.nonpolar>
-35.5528

> <Gold.PLP.part.repulsive>
0.1268

> <Gold.PLP.ligand.clash>
0.0000

> <Gold.PLP.ligand.torsion>
1.1677

> <Gold.PLP.Chemscore.Hbond>
0.7644

> <Gold.PLP.Chemscore.CHOScore>
1.8345

> <Gold.PLP.Chemscore.Metal>
0.0000

> <Gold.Chemscore.Hbonds>
donor molecule, donor type, donor heavy atom, donor atom, acceptor molecule, acceptor atom, score
      P1  H 10752 10765       L1     7  0.78
      L1  C     5    23       P1  7957  0.75
      L1  C     6    24       P1  7948  0.01
      L1  C     6    24       P1  7949  1.00

> <Gold.PLP.Chemscore.Internal.Correction>
0.0419

> <Gold.Rescore>
     Score         DG    S(hbond)    S(metal)    S(lipo)     H(rot)  DE(clash)    DE(int)     intcor
     13.82     -15.08       0.84        0.00      96.54       1.76       0.11       1.16       ----

> <Gold.Chemscore.Fitness>
13.8152

> <Gold.Chemscore.DG>
-15.0809

> <Gold.Chemscore.ZeroCoef>
-5.4800

> <Gold.Chemscore.Hbond>
0.8389

> <Gold.Chemscore.Metal>
0.0000

> <Gold.Chemscore.Lipo>
96.5414

> <Gold.Chemscore.Internal_Hbond>
0.0000

> <Gold.Chemscore.DEClash>
0.1085

> <Gold.Chemscore.DEInternal>
1.1572

> <Gold.Chemscore.Rot>
1.7563

> <Gold.Chemscore.Internal.Correction>
   9.000000E+99

> <Gold.Chemscore.Hbonds>
donor molecule, donor type, donor heavy atom, donor atom, acceptor molecule, acceptor atom, score
      P1  H 10752 10765       L1     7  0.22

> <Gold.Chemscore.Hbond.Weighted>
-2.8018

> <Gold.Chemscore.Metal.Weighted>
-0.0000

> <Gold.Chemscore.Lipo.Weighted>
-11.2953

> <Gold.Chemscore.Internal_Hbond.Weighted>
0.0000

> <Gold.Chemscore.DEClash.Weighted>
0.1085

> <Gold.Chemscore.DEInternal.Weighted>
1.1572

> <Gold.Chemscore.Rot.Weighted>
4.4962

> <Gold.Chemscore.Internal.Correction.Weighted>
   9.000000E+99

> <Gold.Protein.RotatedTorsions>
[ 6907 6896 6895 6894 ] final  -48.68 input  -60.11 | X-H torsion
[ 7974 7965 7964 7962 ] final   32.98 input  175.53 | X-H torsion
[ 8008 7997 7996 7995 ] final -136.26 input   59.86 | X-H torsion
[ 10167 10162 10161 10158 ] final  111.88 input  -65.29 | X-H torsion
[ 10718 10713 10712 10709 ] final  -23.74 input   66.30 | X-H torsion
[ 10763 10752 10751 10750 ] final  175.48 input  -60.55 | X-H torsion
[ 11005 11000 10999 10996 ] final  111.29 input  -57.11 | X-H torsion

> <Gold.Protein.ActiveResidues>
 VAL166  LYS551  ARG553  GLY616  TRP617  ASP618  TYR619  PRO620  LYS621  CYS622 
 ASP623  PHE694  ASN695  SER759  ASP760  ASP761  ALA762  ILE779  LEU786  VAL792 
 PHE793  MET794  SER795  GLU796  ALA797  LYS798  CYS799  TRP800  GLU811  SER814 

> <Gold.Protein.RotatedAtoms>
  150.8881  134.8282  159.7273 H   0  0  0  0  0  0  0  0  0  0  0  0  # atno 6907 bound_to 6896
  152.4820  134.4690  159.9639 H   0  0  0  0  0  0  0  0  0  0  0  0  # atno 6908 bound_to 6896
  151.4756  133.3519  159.2865 H   0  0  0  0  0  0  0  0  0  0  0  0  # atno 6909 bound_to 6896
  146.1451  139.6455  142.9137 H   0  0  0  0  0  0  0  0  0  0  0  0  # atno 7974 bound_to 7965
  155.3922  140.0500  157.3040 H   0  0  0  0  0  0  0  0  0  0  0  0  # atno 8008 bound_to 7997
  154.5030  140.2164  155.9268 H   0  0  0  0  0  0  0  0  0  0  0  0  # atno 8009 bound_to 7997
  156.1491  140.3139  155.8624 H   0  0  0  0  0  0  0  0  0  0  0  0  # atno 8010 bound_to 7997
  139.6578  144.7129  151.1924 H   0  0  0  0  0  0  0  0  0  0  0  0  # atno 10167 bound_to 10162
  156.4870  130.4558  149.6778 H   0  0  0  0  0  0  0  0  0  0  0  0  # atno 10718 bound_to 10713
  154.4682  135.2770  155.1662 H   0  0  0  0  0  0  0  0  0  0  0  0  # atno 10763 bound_to 10752
  154.3422  135.6167  153.5605 H   0  0  0  0  0  0  0  0  0  0  0  0  # atno 10764 bound_to 10752
  152.9861  135.5791  154.5058 H   0  0  0  0  0  0  0  0  0  0  0  0  # atno 10765 bound_to 10752
  139.8900  134.9504  156.6410 H   0  0  0  0  0  0  0  0  0  0  0  0  # atno 11005 bound_to 11000
  145.4957  141.0438  143.2568 LP  0  0  0  0  0  0  0  0  0  0  0  0  # atno 17320 bound_to 7965
  144.7836  139.6473  143.7143 LP  0  0  0  0  0  0  0  0  0  0  0  0  # atno 17321 bound_to 7965
  140.7566  143.6044  150.8667 LP  0  0  0  0  0  0  0  0  0  0  0  0  # atno 17342 bound_to 10162
  139.9699  143.6069  152.2977 LP  0  0  0  0  0  0  0  0  0  0  0  0  # atno 17343 bound_to 10162
  156.3464  130.7409  151.2362 LP  0  0  0  0  0  0  0  0  0  0  0  0  # atno 17370 bound_to 10713
  157.7477  131.0389  150.4526 LP  0  0  0  0  0  0  0  0  0  0  0  0  # atno 17371 bound_to 10713
  140.7594  133.8830  155.8406 LP  0  0  0  0  0  0  0  0  0  0  0  0  # atno 17394 bound_to 11000
  140.9935  134.1247  157.4386 LP  0  0  0  0  0  0  0  0  0  0  0  0  # atno 17395 bound_to 11000

$$$$
