AV-unprocessed.smi:675|AV-procd|sdf|3304|dock8
  -GOLD-   22720 0263D 1   1.00000     0.00000
 Structure written by MMmdl.
 29 30  0  0  0  0  0  0  0  0  1 V2000
  151.3306  135.6408  155.5749 O   0  0  0  0  0  0  0  0  0  0  0  0
  151.2880  136.8103  155.9520 C   0  0  0  0  0  0  0  0  0  0  0  0
  152.0391  137.7840  155.2865 N   0  0  0  0  0  0  0  0  0  0  0  0
  152.0804  139.1409  155.6097 C   0  0  0  0  0  0  0  0  0  0  0  0
  152.7884  139.9042  154.9533 O   0  0  0  0  0  0  0  0  0  0  0  0
  151.2854  139.5588  156.7019 N   0  0  0  0  0  0  0  0  0  0  0  0
  151.3212  140.9503  157.0829 C   0  0  0  0  0  0  0  0  0  0  0  0
  151.8549  141.1733  158.5151 C   0  0  1  0  0  0  0  0  0  0  0  0
  153.1608  140.6361  158.6096 O   0  0  0  0  0  0  0  0  0  0  0  0
  151.8206  142.6568  158.8811 C   0  0  0  0  0  0  0  0  0  0  0  0
  151.3279  143.6049  157.9535 C   0  0  0  0  0  0  0  0  0  0  0  0
  151.2824  144.9732  158.2806 C   0  0  0  0  0  0  0  0  0  0  0  0
  151.7232  145.4096  159.5427 C   0  0  0  0  0  0  0  0  0  0  0  0
  152.2030  144.4749  160.4784 C   0  0  0  0  0  0  0  0  0  0  0  0
  152.2503  143.1035  160.1570 C   0  0  0  0  0  0  0  0  0  0  0  0
  152.8257  141.9982  161.3567 Cl  0  0  0  0  0  0  0  0  0  0  0  0
  150.5304  138.6257  157.3958 C   0  0  0  0  0  0  0  0  0  0  0  0
  150.4982  137.3095  157.0768 C   0  0  0  0  0  0  0  0  0  0  0  0
  149.5320  136.2089  157.9926 Cl  0  0  0  0  0  0  0  0  0  0  0  0
  152.6020  137.4789  154.5059 H   0  0  0  0  0  0  0  0  0  0  0  0
  151.8462  141.5289  156.3193 H   0  0  0  0  0  0  0  0  0  0  0  0
  150.2785  141.2672  157.0177 H   0  0  0  0  0  0  0  0  0  0  0  0
  151.2470  140.6190  159.2298 H   0  0  0  0  0  0  0  0  0  0  0  0
  153.7748  141.3509  158.6790 H   0  0  0  0  0  0  0  0  0  0  0  0
  150.9753  143.2899  156.9824 H   0  0  0  0  0  0  0  0  0  0  0  0
  150.9061  145.6875  157.5631 H   0  0  0  0  0  0  0  0  0  0  0  0
  151.6879  146.4591  159.7954 H   0  0  0  0  0  0  0  0  0  0  0  0
  152.5321  144.8128  161.4502 H   0  0  0  0  0  0  0  0  0  0  0  0
  149.9393  138.9611  158.2364 H   0  0  0  0  0  0  0  0  0  0  0  0
  1  2  2  0  0  0  0
  2 18  1  0  0  0  0
  2  3  1  0  0  0  0
  3 20  1  0  0  0  0
  3  4  1  0  0  0  0
  4  5  2  0  0  0  0
  4  6  1  0  0  0  0
  6  7  1  0  0  0  0
  6 17  1  0  0  0  0
  7  8  1  0  0  0  0
  7 21  1  0  0  0  0
  7 22  1  0  0  0  0
  8  9  1  0  0  0  0
  8 10  1  0  0  0  0
  8 23  1  0  0  0  0
  9 24  1  0  0  0  0
 10 15  1  0  0  0  0
 10 11  2  0  0  0  0
 11 12  1  0  0  0  0
 11 25  1  0  0  0  0
 12 13  2  0  0  0  0
 12 26  1  0  0  0  0
 13 14  1  0  0  0  0
 13 27  1  0  0  0  0
 14 15  2  0  0  0  0
 14 28  1  0  0  0  0
 15 16  1  0  0  0  0
 17 18  2  0  0  0  0
 17 29  1  0  0  0  0
 18 19  1  0  0  0  0
M  END
> <s_m_source_file>
AV-unprocessed.smi

> <i_m_source_file_index>
675

> <i_lp_mmshare_version>
43012

> <i_f3d_flags>
0

> <s_epik_input>
Tz1jMVtuSF1jKD1PKW4oW2NIXWMxQ2wpW0NIMl1bQ0BIXShbT0hdKWMyW2NIXVtjSF1bY0hdW2NIXWMyQ2w=

> <s_epik_cmdline>
J2VwaWtfcHl0aG9uJywgJy1waCcsICc3LjAnLCAnLXRuJywgJzgnLCAnLW1hJywgJzIwMCcsICctbWV0YWxfYmluZGluZycsICctaW1hZScsICc8aW5maWxlLm1hZT4nLCAnLW9tYWUnLCAnPG91dGZpbGUubWFlPic=

> <r_lp_tautomer_probability>
0.999537

> <r_epik_Ionization_Penalty>
0.029206

> <r_epik_Ionization_Penalty_Charging>
0.0292057

> <r_epik_Ionization_Penalty_Neutral>
2.68278e-07

> <r_epik_State_Penalty>
0.0240115

> <r_epik_Charging_Adjusted_Penalty>
0.0532172

> <i_epik_Tot_Q>
0

> <i_epik_Tot_abs_Q>
0

> <r_epik_Metal_State_Penalty>
2.21956

> <b_epik_Metal_Only>
0

> <s_lp_Force_Field>
OPLS_2005

> <r_lp_Energy>
14.2263

> <b_lp_Chiralities_Consistent>
1

> <s_lp_Variant>
AV-unprocessed.smi:675-2

> <Gold.Version>
5.8.1

> <Gold.Id.Protein>
6NUR|6NUR_protein|mol2

> <Gold.PLP.Fitness>
45.5325

> <Gold.PLP.PLP>
-38.0967

> <Gold.PLP.part.hbond>
-4.0000

> <Gold.PLP.part.metal>
0.0000

> <Gold.PLP.part.buried>
-3.9197

> <Gold.PLP.part.nonpolar>
-30.5181

> <Gold.PLP.part.repulsive>
0.2467

> <Gold.PLP.ligand.clash>
0.0000

> <Gold.PLP.ligand.torsion>
0.0086

> <Gold.PLP.Chemscore.Hbond>
2.4800

> <Gold.PLP.Chemscore.CHOScore>
0.0000

> <Gold.PLP.Chemscore.Metal>
0.0000

> <Gold.Chemscore.Hbonds>
donor molecule, donor type, donor heavy atom, donor atom, acceptor molecule, acceptor atom, score
      P1  H  7989  7998       L1     5  0.41
      P1  H  7997  8010       L1     5  1.00
      P1  H 10752 10764       L1     1  1.00

> <Gold.PLP.Chemscore.Internal.Correction>
0.0131

> <Gold.Rescore>
     Score         DG    S(hbond)    S(metal)    S(lipo)     H(rot)  DE(clash)    DE(int)     intcor
     17.52     -17.74       1.83        0.00     100.28       2.18       0.19       0.03       ----

> <Gold.Chemscore.Fitness>
17.5151

> <Gold.Chemscore.DG>
-17.7356

> <Gold.Chemscore.ZeroCoef>
-5.4800

> <Gold.Chemscore.Hbond>
1.8257

> <Gold.Chemscore.Metal>
0.0000

> <Gold.Chemscore.Lipo>
100.2765

> <Gold.Chemscore.Internal_Hbond>
0.0000

> <Gold.Chemscore.DEClash>
0.1914

> <Gold.Chemscore.DEInternal>
0.0291

> <Gold.Chemscore.Rot>
2.1775

> <Gold.Chemscore.Internal.Correction>
   9.000000E+99

> <Gold.Chemscore.Hbonds>
donor molecule, donor type, donor heavy atom, donor atom, acceptor molecule, acceptor atom, score
      P1  H  7989  7998       L1     5  0.32
      P1  H  7997  8010       L1     5  0.87
      P1  H 10752 10764       L1     1  0.39

> <Gold.Chemscore.Hbond.Weighted>
-6.0977

> <Gold.Chemscore.Metal.Weighted>
-0.0000

> <Gold.Chemscore.Lipo.Weighted>
-11.7323

> <Gold.Chemscore.Internal_Hbond.Weighted>
0.0000

> <Gold.Chemscore.DEClash.Weighted>
0.1914

> <Gold.Chemscore.DEInternal.Weighted>
0.0291

> <Gold.Chemscore.Rot.Weighted>
5.5745

> <Gold.Chemscore.Internal.Correction.Weighted>
   9.000000E+99

> <Gold.Protein.RotatedTorsions>
[ 6907 6896 6895 6894 ] final   75.92 input  -60.11 | X-H torsion
[ 7974 7965 7964 7962 ] final   -5.67 input  175.53 | X-H torsion
[ 8008 7997 7996 7995 ] final  114.50 input   59.86 | X-H torsion
[ 10167 10162 10161 10158 ] final   24.87 input  -65.29 | X-H torsion
[ 10718 10713 10712 10709 ] final  113.84 input   66.30 | X-H torsion
[ 10763 10752 10751 10750 ] final  -54.52 input  -60.55 | X-H torsion
[ 11005 11000 10999 10996 ] final   21.56 input  -57.11 | X-H torsion

> <Gold.Protein.ActiveResidues>
 VAL166  LYS551  ARG553  GLY616  TRP617  ASP618  TYR619  PRO620  LYS621  CYS622 
 ASP623  PHE694  ASN695  SER759  ASP760  ASP761  ALA762  ILE779  LEU786  VAL792 
 PHE793  MET794  SER795  GLU796  ALA797  LYS798  CYS799  TRP800  GLU811  SER814 

> <Gold.Protein.RotatedAtoms>
  152.5049  134.4047  159.9428 H   0  0  0  0  0  0  0  0  0  0  0  0  # atno 6907 bound_to 6896
  151.4012  133.3751  159.2740 H   0  0  0  0  0  0  0  0  0  0  0  0  # atno 6908 bound_to 6896
  150.9360  134.8794  159.7641 H   0  0  0  0  0  0  0  0  0  0  0  0  # atno 6909 bound_to 6896
  146.2348  140.2055  142.8334 H   0  0  0  0  0  0  0  0  0  0  0  0  # atno 7974 bound_to 7965
  156.2325  140.2958  156.0225 H   0  0  0  0  0  0  0  0  0  0  0  0  # atno 8008 bound_to 7997
  155.2185  140.0415  157.2962 H   0  0  0  0  0  0  0  0  0  0  0  0  # atno 8009 bound_to 7997
  154.6020  140.2429  155.7787 H   0  0  0  0  0  0  0  0  0  0  0  0  # atno 8010 bound_to 7997
  140.5152  144.0094  150.6391 H   0  0  0  0  0  0  0  0  0  0  0  0  # atno 10167 bound_to 10162
  157.6315  131.0990  150.7100 H   0  0  0  0  0  0  0  0  0  0  0  0  # atno 10718 bound_to 10713
  154.1762  135.6451  153.5022 H   0  0  0  0  0  0  0  0  0  0  0  0  # atno 10763 bound_to 10752
  153.0071  135.5395  154.6562 H   0  0  0  0  0  0  0  0  0  0  0  0  # atno 10764 bound_to 10752
  154.5914  135.2934  155.0604 H   0  0  0  0  0  0  0  0  0  0  0  0  # atno 10765 bound_to 10752
  140.3902  134.1827  155.7662 H   0  0  0  0  0  0  0  0  0  0  0  0  # atno 11005 bound_to 11000
  144.9748  140.8403  143.5433 LP  0  0  0  0  0  0  0  0  0  0  0  0  # atno 17320 bound_to 7965
  145.2041  139.2237  143.5177 LP  0  0  0  0  0  0  0  0  0  0  0  0  # atno 17321 bound_to 7965
  140.3427  143.3010  152.0571 LP  0  0  0  0  0  0  0  0  0  0  0  0  # atno 17342 bound_to 10162
  139.4907  144.6431  151.6836 LP  0  0  0  0  0  0  0  0  0  0  0  0  # atno 17343 bound_to 10162
  156.7438  130.4747  149.5471 LP  0  0  0  0  0  0  0  0  0  0  0  0  # atno 17370 bound_to 10713
  156.1522  130.6318  151.0611 LP  0  0  0  0  0  0  0  0  0  0  0  0  # atno 17371 bound_to 10713
  141.1893  133.8241  157.0960 LP  0  0  0  0  0  0  0  0  0  0  0  0  # atno 17394 bound_to 11000
  140.0412  134.9853  157.0966 LP  0  0  0  0  0  0  0  0  0  0  0  0  # atno 17395 bound_to 11000

$$$$
