AV-unprocessed.smi:102|AV-procd|sdf|956|dock8
  -GOLD-   2262017493D 1   1.00000     0.00000
 Structure written by MMmdl.
 44 45  0  0  0  0  0  0  0  0  1 V2000
  150.7836  141.6706  156.0182 C   0  0  0  0  0  0  0  0  0  0  0  0
  150.0852  140.5685  155.2330 C   0  0  0  0  0  0  0  0  0  0  0  0
  150.6889  139.8926  154.3992 O   0  0  0  0  0  0  0  0  0  0  0  0
  148.7868  140.4461  155.5644 O   0  0  0  0  0  0  0  0  0  0  0  0
  147.9514  139.5270  154.8739 C   0  0  0  0  0  0  0  0  0  0  0  0
  146.5203  139.5397  155.4445 C   0  0  1  0  0  0  0  0  0  0  0  0
  145.6664  138.7311  154.6460 O   0  0  0  0  0  0  0  0  0  0  0  0
  145.7094  137.4265  155.1212 C   0  0  2  0  0  0  0  0  0  0  0  0
  144.4222  136.7305  154.7622 N   0  0  0  0  0  0  0  0  0  0  0  0
  143.3800  137.4200  154.1580 C   0  0  0  0  0  0  0  0  0  0  0  0
  142.2025  136.8353  153.8343 C   0  0  0  0  0  0  0  0  0  0  0  0
  141.2369  137.5658  153.2514 F   0  0  0  0  0  0  0  0  0  0  0  0
  141.9688  135.4227  154.1220 C   0  0  0  0  0  0  0  0  0  0  0  0
  140.9390  134.8034  153.8626 O   0  0  0  0  0  0  0  0  0  0  0  0
  143.0377  134.7766  154.7513 N   0  0  0  0  0  0  0  0  0  0  0  0
  144.2546  135.3689  155.0948 C   0  0  0  0  0  0  0  0  0  0  0  0
  145.1197  134.7097  155.6698 O   0  0  0  0  0  0  0  0  0  0  0  0
  145.8699  137.5108  156.6376 C   0  0  1  0  0  0  0  0  0  0  0  0
  146.7523  136.4958  157.0953 O   0  0  0  0  0  0  0  0  0  0  0  0
  147.1233  136.4591  158.3849 C   0  0  0  0  0  0  0  0  0  0  0  0
  148.3956  135.6504  158.5989 C   0  0  0  0  0  0  0  0  0  0  0  0
  146.5402  137.0034  159.3226 O   0  0  0  0  0  0  0  0  0  0  0  0
  146.4560  138.9054  156.8448 C   0  0  2  0  0  0  0  0  0  0  0  0
  145.6060  139.6418  157.7151 O   0  0  0  0  0  0  0  0  0  0  0  0
  145.8841  140.9236  158.0108 C   0  0  0  0  0  0  0  0  0  0  0  0
  144.8911  141.5191  158.9996 C   0  0  0  0  0  0  0  0  0  0  0  0
  146.8165  141.5866  157.5563 O   0  0  0  0  0  0  0  0  0  0  0  0
  142.9160  133.8011  154.9818 H   0  0  0  0  0  0  0  0  0  0  0  0
  150.8958  141.3772  157.0619 H   0  0  0  0  0  0  0  0  0  0  0  0
  150.2044  142.5932  155.9771 H   0  0  0  0  0  0  0  0  0  0  0  0
  151.7735  141.8661  155.6053 H   0  0  0  0  0  0  0  0  0  0  0  0
  147.9587  139.7031  153.7973 H   0  0  0  0  0  0  0  0  0  0  0  0
  148.3821  138.5367  155.0235 H   0  0  0  0  0  0  0  0  0  0  0  0
  146.1489  140.5652  155.4567 H   0  0  0  0  0  0  0  0  0  0  0  0
  146.5260  136.9078  154.6135 H   0  0  0  0  0  0  0  0  0  0  0  0
  143.4982  138.4715  153.9384 H   0  0  0  0  0  0  0  0  0  0  0  0
  144.8828  137.4316  157.0975 H   0  0  0  0  0  0  0  0  0  0  0  0
  148.2746  134.6416  158.2035 H   0  0  0  0  0  0  0  0  0  0  0  0
  148.6306  135.5795  159.6610 H   0  0  0  0  0  0  0  0  0  0  0  0
  149.2349  136.1246  158.0901 H   0  0  0  0  0  0  0  0  0  0  0  0
  147.4555  138.8296  157.2769 H   0  0  0  0  0  0  0  0  0  0  0  0
  144.8560  140.9205  159.9101 H   0  0  0  0  0  0  0  0  0  0  0  0
  143.8927  141.5451  158.5628 H   0  0  0  0  0  0  0  0  0  0  0  0
  145.1786  142.5364  159.2657 H   0  0  0  0  0  0  0  0  0  0  0  0
  1  2  1  0  0  0  0
  1 29  1  0  0  0  0
  1 30  1  0  0  0  0
  1 31  1  0  0  0  0
  2  3  2  0  0  0  0
  2  4  1  0  0  0  0
  4  5  1  0  0  0  0
  5  6  1  0  0  0  0
  5 32  1  0  0  0  0
  5 33  1  0  0  0  0
  6 23  1  0  0  0  0
  6  7  1  0  0  0  0
  6 34  1  0  0  0  0
  7  8  1  0  0  0  0
  8  9  1  0  0  0  0
  8 18  1  0  0  0  0
  8 35  1  0  0  0  0
  9 16  1  0  0  0  0
  9 10  1  0  0  0  0
 10 11  2  0  0  0  0
 10 36  1  0  0  0  0
 11 12  1  0  0  0  0
 11 13  1  0  0  0  0
 13 14  2  0  0  0  0
 13 15  1  0  0  0  0
 15 28  1  0  0  0  0
 15 16  1  0  0  0  0
 16 17  2  0  0  0  0
 18 19  1  0  0  0  0
 18 23  1  0  0  0  0
 18 37  1  0  0  0  0
 19 20  1  0  0  0  0
 20 21  1  0  0  0  0
 20 22  2  0  0  0  0
 21 38  1  0  0  0  0
 21 39  1  0  0  0  0
 21 40  1  0  0  0  0
 23 24  1  0  0  0  0
 23 41  1  0  0  0  0
 24 25  1  0  0  0  0
 25 26  1  0  0  0  0
 25 27  2  0  0  0  0
 26 42  1  0  0  0  0
 26 43  1  0  0  0  0
 26 44  1  0  0  0  0
M  END
> <s_m_source_file>
AV-unprocessed.smi

> <i_m_source_file_index>
102

> <i_lp_mmshare_version>
43012

> <i_f3d_flags>
0

> <s_epik_input>
W0NIM11DKD1PKU9bQ0gyXVtDQEBIXTFPW0NASF0oW0NAQEhdKE9DKD1PKVtDSDNdKVtDQEhdMU9DKD1PKVtDSDNdKW4yW2NIXWMoRiljKD1PKVtuSF1jMj1P

> <s_epik_cmdline>
J2VwaWtfcHl0aG9uJywgJy1waCcsICc3LjAnLCAnLXRuJywgJzgnLCAnLW1hJywgJzIwMCcsICctbWV0YWxfYmluZGluZycsICctaW1hZScsICc8aW5maWxlLm1hZT4nLCAnLW9tYWUnLCAnPG91dGZpbGUubWFlPic=

> <r_lp_tautomer_probability>
0.999537

> <r_epik_Ionization_Penalty>
0.058267

> <r_epik_Ionization_Penalty_Charging>
0.058267

> <r_epik_Ionization_Penalty_Neutral>
6.57791e-16

> <r_epik_State_Penalty>
0.0503774

> <r_epik_Charging_Adjusted_Penalty>
0.108644

> <i_epik_Tot_Q>
0

> <i_epik_Tot_abs_Q>
0

> <r_epik_Metal_State_Penalty>
2.6644

> <b_epik_Metal_Only>
0

> <s_epik_Chemistry_Notes>
This compound has an ester and may undergo hydrolysis at high or low pH. This compound contains an acetal/aminal-like group ( X-CH(R)-Y where X, Y are N, S, or O) that may be acid/base labile, releasing an aldehyde.

> <s_lp_Force_Field>
OPLS_2005

> <r_lp_Energy>
12.7651

> <b_lp_Chiralities_Consistent>
1

> <s_lp_Variant>
AV-unprocessed.smi:102-12

> <Gold.Version>
5.8.1

> <Gold.Id.Protein>
6NUR|6NUR_protein|mol2

> <Gold.PLP.Fitness>
31.8487

> <Gold.PLP.PLP>
-20.5600

> <Gold.PLP.part.hbond>
-3.6460

> <Gold.PLP.part.metal>
0.0000

> <Gold.PLP.part.buried>
-5.9566

> <Gold.PLP.part.nonpolar>
-11.6017

> <Gold.PLP.part.repulsive>
0.5797

> <Gold.PLP.ligand.clash>
0.0000

> <Gold.PLP.ligand.torsion>
0.4102

> <Gold.PLP.Chemscore.Hbond>
2.9913

> <Gold.PLP.Chemscore.CHOScore>
1.0000

> <Gold.PLP.Chemscore.Metal>
0.0000

> <Gold.Chemscore.Hbonds>
donor molecule, donor type, donor heavy atom, donor atom, acceptor molecule, acceptor atom, score
      L1  H    15    28       P1 10957  0.94
      P1  H  7989  7998       L1     3  1.00
      P1  H 11000 11005       L1    14  1.00
      L1  C    10    36       P1 10175  1.00

> <Gold.PLP.Chemscore.Internal.Correction>
0.1352

> <Gold.Rescore>
     Score         DG    S(hbond)    S(metal)    S(lipo)     H(rot)  DE(clash)    DE(int)     intcor
      5.01      -8.33       3.20        0.00      21.64       4.05       0.09       3.23       ----

> <Gold.Chemscore.Fitness>
5.0135

> <Gold.Chemscore.DG>
-8.3320

> <Gold.Chemscore.ZeroCoef>
-5.4800

> <Gold.Chemscore.Hbond>
3.2015

> <Gold.Chemscore.Metal>
0.0000

> <Gold.Chemscore.Lipo>
21.6413

> <Gold.Chemscore.Internal_Hbond>
0.0000

> <Gold.Chemscore.DEClash>
0.0923

> <Gold.Chemscore.DEInternal>
3.2262

> <Gold.Chemscore.Rot>
4.0520

> <Gold.Chemscore.Internal.Correction>
   9.000000E+99

> <Gold.Chemscore.Hbonds>
donor molecule, donor type, donor heavy atom, donor atom, acceptor molecule, acceptor atom, score
      L1  H    15    28       P1 10957  0.90
      P1  H  7989  7998       L1     3  0.74
      P1  H 11000 11005       L1    14  0.24

> <Gold.Chemscore.Hbond.Weighted>
-10.6931

> <Gold.Chemscore.Metal.Weighted>
-0.0000

> <Gold.Chemscore.Lipo.Weighted>
-2.5320

> <Gold.Chemscore.Internal_Hbond.Weighted>
0.0000

> <Gold.Chemscore.DEClash.Weighted>
0.0923

> <Gold.Chemscore.DEInternal.Weighted>
3.2262

> <Gold.Chemscore.Rot.Weighted>
10.3732

> <Gold.Chemscore.Internal.Correction.Weighted>
   9.000000E+99

> <Gold.Protein.RotatedTorsions>
[ 6907 6896 6895 6894 ] final -120.07 input  -60.11 | X-H torsion
[ 7974 7965 7964 7962 ] final  -43.21 input  175.53 | X-H torsion
[ 8008 7997 7996 7995 ] final   36.29 input   59.86 | X-H torsion
[ 10167 10162 10161 10158 ] final  135.51 input  -65.29 | X-H torsion
[ 10718 10713 10712 10709 ] final  -77.60 input   66.30 | X-H torsion
[ 10763 10752 10751 10750 ] final  176.58 input  -60.55 | X-H torsion
[ 11005 11000 10999 10996 ] final   22.06 input  -57.11 | X-H torsion

> <Gold.Protein.ActiveResidues>
 VAL166  LYS551  ARG553  GLY616  TRP617  ASP618  TYR619  PRO620  LYS621  CYS622 
 ASP623  PHE694  ASN695  SER759  ASP760  ASP761  ALA762  ILE779  LEU786  VAL792 
 PHE793  MET794  SER795  GLU796  ALA797  LYS798  CYS799  TRP800  GLU811  SER814 

> <Gold.Protein.RotatedAtoms>
  150.8361  133.8012  159.3078 H   0  0  0  0  0  0  0  0  0  0  0  0  # atno 6907 bound_to 6896
  151.5727  135.1060  160.0008 H   0  0  0  0  0  0  0  0  0  0  0  0  # atno 6908 bound_to 6896
  152.4433  133.7447  159.6716 H   0  0  0  0  0  0  0  0  0  0  0  0  # atno 6909 bound_to 6896
  146.0041  140.7041  142.9256 H   0  0  0  0  0  0  0  0  0  0  0  0  # atno 7974 bound_to 7965
  155.1849  140.3303  155.4368 H   0  0  0  0  0  0  0  0  0  0  0  0  # atno 8008 bound_to 7997
  156.2463  140.1920  156.6896 H   0  0  0  0  0  0  0  0  0  0  0  0  # atno 8009 bound_to 7997
  154.6245  140.0591  156.9642 H   0  0  0  0  0  0  0  0  0  0  0  0  # atno 8010 bound_to 7997
  139.5214  144.6513  151.5293 H   0  0  0  0  0  0  0  0  0  0  0  0  # atno 10167 bound_to 10162
  156.0140  130.4495  150.3369 H   0  0  0  0  0  0  0  0  0  0  0  0  # atno 10718 bound_to 10713
  154.4830  135.2775  155.1556 H   0  0  0  0  0  0  0  0  0  0  0  0  # atno 10763 bound_to 10752
  154.3259  135.6200  153.5532 H   0  0  0  0  0  0  0  0  0  0  0  0  # atno 10764 bound_to 10752
  152.9877  135.5754  154.5234 H   0  0  0  0  0  0  0  0  0  0  0  0  # atno 10765 bound_to 10752
  140.3848  134.1882  155.7663 H   0  0  0  0  0  0  0  0  0  0  0  0  # atno 11005 bound_to 11000
  144.6929  140.3284  143.7220 LP  0  0  0  0  0  0  0  0  0  0  0  0  # atno 17320 bound_to 7965
  145.7443  139.1774  143.2358 LP  0  0  0  0  0  0  0  0  0  0  0  0  # atno 17321 bound_to 7965
  140.6319  143.9058  150.6613 LP  0  0  0  0  0  0  0  0  0  0  0  0  # atno 17342 bound_to 10162
  140.2365  143.3696  152.1522 LP  0  0  0  0  0  0  0  0  0  0  0  0  # atno 17343 bound_to 10162
  157.1466  131.0310  151.2904 LP  0  0  0  0  0  0  0  0  0  0  0  0  # atno 17370 bound_to 10713
  157.4427  130.7553  149.7083 LP  0  0  0  0  0  0  0  0  0  0  0  0  # atno 17371 bound_to 10713
  141.1911  133.8202  157.0891 LP  0  0  0  0  0  0  0  0  0  0  0  0  # atno 17394 bound_to 11000
  140.0451  134.9834  157.1034 LP  0  0  0  0  0  0  0  0  0  0  0  0  # atno 17395 bound_to 11000

$$$$
