AV-unprocessed.smi:1285|AV-procd|sdf|5374|dock2
  -GOLD-   22720 4523D 1   1.00000     0.00000
 Structure written by MMmdl.
 47 48  0  0  0  0  0  0  0  0  2 V2000
  145.0823  135.6833  150.8131 C   0  0  0  0  0  0  0  0  0  0  0  0
  145.7261  136.5233  151.9304 C   0  0  0  0  0  0  0  0  0  0  0  0
  145.9807  135.7768  153.2769 C   0  0  2  0  0  0  0  0  0  0  0  0
  144.6469  135.0929  153.6802 C   0  0  0  0  0  0  0  0  0  0  0  0
  146.3746  136.8023  154.3864 C   0  0  0  0  0  0  0  0  0  0  0  0
  147.4034  137.7461  153.9537 N   0  0  0  0  0  0  0  0  0  0  0  0
  147.8752  138.7789  154.6710 C   0  0  0  0  0  0  0  0  0  0  0  0
  147.4166  139.1023  155.7672 O   0  0  0  0  0  0  0  0  0  0  0  0
  149.0690  139.5312  154.0609 C   0  0  1  0  0  0  0  0  0  0  0  0
  149.0352  141.0478  154.3380 C   0  0  0  0  0  0  0  0  0  0  0  0
  150.3184  138.9245  154.5059 N   0  0  0  0  0  0  0  0  0  0  0  0
  150.6829  137.6410  154.5464 C   0  0  0  0  0  0  0  0  0  0  0  0
  151.8836  137.4382  155.0696 N   0  0  0  0  0  0  0  0  0  0  0  0
  152.2293  138.7286  155.3547 C   0  0  0  0  0  0  0  0  0  0  0  0
  151.3235  139.6569  155.0482 N   0  0  0  0  0  0  0  0  0  0  0  0
  147.0663  134.7447  153.0954 N   0  3  0  0  0  0  0  0  0  0  0  0
  147.6959  134.2351  154.3471 C   0  0  0  0  0  0  0  0  0  0  0  0
  148.9194  133.3654  154.0177 C   0  0  0  0  0  0  0  0  0  0  0  0
  148.5188  132.2817  153.1914 O   0  0  0  0  0  0  0  0  0  0  0  0
  147.9874  132.7328  151.9535 C   0  0  0  0  0  0  0  0  0  0  0  0
  146.7390  133.5973  152.2021 C   0  0  0  0  0  0  0  0  0  0  0  0
  144.9435  136.2891  149.9175 H   0  0  0  0  0  0  0  0  0  0  0  0
  144.1011  135.3079  151.1021 H   0  0  0  0  0  0  0  0  0  0  0  0
  145.7011  134.8309  150.5337 H   0  0  0  0  0  0  0  0  0  0  0  0
  146.6511  136.9615  151.5565 H   0  0  0  0  0  0  0  0  0  0  0  0
  145.0732  137.3790  152.1032 H   0  0  0  0  0  0  0  0  0  0  0  0
  143.8012  135.7770  153.5984 H   0  0  0  0  0  0  0  0  0  0  0  0
  144.6594  134.7474  154.7141 H   0  0  0  0  0  0  0  0  0  0  0  0
  144.4243  134.2329  153.0483 H   0  0  0  0  0  0  0  0  0  0  0  0
  145.5114  137.4004  154.6768 H   0  0  0  0  0  0  0  0  0  0  0  0
  146.7027  136.2950  155.2937 H   0  0  0  0  0  0  0  0  0  0  0  0
  147.8360  137.5617  153.0601 H   0  0  0  0  0  0  0  0  0  0  0  0
  149.0133  139.3974  152.9793 H   0  0  0  0  0  0  0  0  0  0  0  0
  148.1240  141.5000  153.9450 H   0  0  0  0  0  0  0  0  0  0  0  0
  149.8783  141.5475  153.8600 H   0  0  0  0  0  0  0  0  0  0  0  0
  149.0819  141.2705  155.4048 H   0  0  0  0  0  0  0  0  0  0  0  0
  150.0522  136.8373  154.1957 H   0  0  0  0  0  0  0  0  0  0  0  0
  153.1731  138.9910  155.8097 H   0  0  0  0  0  0  0  0  0  0  0  0
  148.0237  135.0472  154.9926 H   0  0  0  0  0  0  0  0  0  0  0  0
  146.9821  133.6400  154.9165 H   0  0  0  0  0  0  0  0  0  0  0  0
  149.6961  133.9524  153.5247 H   0  0  0  0  0  0  0  0  0  0  0  0
  149.3545  132.9671  154.9344 H   0  0  0  0  0  0  0  0  0  0  0  0
  148.7447  133.2915  151.4012 H   0  0  0  0  0  0  0  0  0  0  0  0
  147.7275  131.8654  151.3464 H   0  0  0  0  0  0  0  0  0  0  0  0
  145.9546  132.9845  152.6468 H   0  0  0  0  0  0  0  0  0  0  0  0
  146.3750  133.9329  151.2328 H   0  0  0  0  0  0  0  0  0  0  0  0
  147.8028  135.2430  152.6159 H   0  0  0  0  0  0  0  0  0  0  0  0
  1  2  1  0  0  0  0
  1 22  1  0  0  0  0
  1 23  1  0  0  0  0
  1 24  1  0  0  0  0
  2  3  1  0  0  0  0
  2 25  1  0  0  0  0
  2 26  1  0  0  0  0
  3  4  1  0  0  0  0
  3  5  1  0  0  0  0
  3 16  1  0  0  0  0
  4 27  1  0  0  0  0
  4 28  1  0  0  0  0
  4 29  1  0  0  0  0
  5  6  1  0  0  0  0
  5 30  1  0  0  0  0
  5 31  1  0  0  0  0
  6  7  1  0  0  0  0
  6 32  1  0  0  0  0
  7  8  2  0  0  0  0
  7  9  1  0  0  0  0
  9 10  1  0  0  0  0
  9 11  1  0  0  0  0
  9 33  1  0  0  0  0
 10 34  1  0  0  0  0
 10 35  1  0  0  0  0
 10 36  1  0  0  0  0
 11 15  1  0  0  0  0
 11 12  1  0  0  0  0
 12 13  2  0  0  0  0
 12 37  1  0  0  0  0
 13 14  1  0  0  0  0
 14 15  2  0  0  0  0
 14 38  1  0  0  0  0
 16 21  1  0  0  0  0
 16 17  1  0  0  0  0
 16 47  1  0  0  0  0
 17 18  1  0  0  0  0
 17 39  1  0  0  0  0
 17 40  1  0  0  0  0
 18 19  1  0  0  0  0
 18 41  1  0  0  0  0
 18 42  1  0  0  0  0
 19 20  1  0  0  0  0
 20 21  1  0  0  0  0
 20 43  1  0  0  0  0
 20 44  1  0  0  0  0
 21 45  1  0  0  0  0
 21 46  1  0  0  0  0
M  CHG  1  16   1
M  END
> <s_m_source_file>
AV-unprocessed.smi

> <i_m_source_file_index>
1285

> <i_lp_mmshare_version>
43012

> <i_f3d_flags>
0

> <s_epik_input>
W0NIMl0xW0NIMl1PW0NIMl1bQ0gyXU4xW0NAQF0oW0NIM10pKFtDSDJdW0NIM10pW0NIMl1bTkhdQyg9TylbQ0BIXShbQ0gzXSluMltjSF1uW2NIXW4y

> <s_epik_cmdline>
J2VwaWtfcHl0aG9uJywgJy1waCcsICc3LjAnLCAnLXRuJywgJzgnLCAnLW1hJywgJzIwMCcsICctbWV0YWxfYmluZGluZycsICctaW1hZScsICc8aW5maWxlLm1hZT4nLCAnLW9tYWUnLCAnPG91dGZpbGUubWFlPic=

> <r_lp_tautomer_probability>
1

> <r_epik_Ionization_Penalty>
0.569304

> <r_epik_Ionization_Penalty_Charging>
0.569295

> <r_epik_Ionization_Penalty_Neutral>
8.22697e-06

> <r_epik_State_Penalty>
0.581114

> <r_epik_Charging_Adjusted_Penalty>
1.15041

> <i_epik_Tot_Q>
1

> <i_epik_Tot_abs_Q>
1

> <r_epik_Metal_State_Penalty>
0.581117

> <b_epik_Metal_Only>
0

> <s_lp_Force_Field>
OPLS_2005

> <r_lp_Energy>
34.4039

> <b_lp_Chiralities_Consistent>
1

> <s_lp_Variant>
AV-unprocessed.smi:1285-8

> <Gold.Version>
5.8.1

> <Gold.Id.Protein>
6NUR|6NUR_protein|mol2

> <Gold.PLP.Fitness>
46.1005

> <Gold.PLP.PLP>
-30.9196

> <Gold.PLP.part.hbond>
-4.0000

> <Gold.PLP.part.metal>
0.0000

> <Gold.PLP.part.buried>
1.3228

> <Gold.PLP.part.nonpolar>
-29.1363

> <Gold.PLP.part.repulsive>
0.2884

> <Gold.PLP.ligand.clash>
0.0000

> <Gold.PLP.ligand.torsion>
1.3491

> <Gold.PLP.Chemscore.Hbond>
4.8316

> <Gold.PLP.Chemscore.CHOScore>
1.0096

> <Gold.PLP.Chemscore.Metal>
0.0000

> <Gold.Chemscore.Hbonds>
donor molecule, donor type, donor heavy atom, donor atom, acceptor molecule, acceptor atom, score
      L1  H     6    32       P1  7948  0.78
      L1  H    16    47       P1  7948  2.00
      P1  H  7989  7998       L1    15  0.90
      P1  H 10752 10763       L1    13  0.58
      L1  C    12    37       P1  7948  0.79

> <Gold.PLP.Chemscore.Internal.Correction>
0.3556

> <Gold.Rescore>
     Score         DG    S(hbond)    S(metal)    S(lipo)     H(rot)  DE(clash)    DE(int)     intcor
     11.17     -14.83       2.93        0.00      56.55       2.76       1.39       2.27       ----

> <Gold.Chemscore.Fitness>
11.1714

> <Gold.Chemscore.DG>
-14.8273

> <Gold.Chemscore.ZeroCoef>
-5.4800

> <Gold.Chemscore.Hbond>
2.9322

> <Gold.Chemscore.Metal>
0.0000

> <Gold.Chemscore.Lipo>
56.5493

> <Gold.Chemscore.Internal_Hbond>
0.0000

> <Gold.Chemscore.DEClash>
1.3867

> <Gold.Chemscore.DEInternal>
2.2692

> <Gold.Chemscore.Rot>
2.7589

> <Gold.Chemscore.Internal.Correction>
   9.000000E+99

> <Gold.Chemscore.Hbonds>
donor molecule, donor type, donor heavy atom, donor atom, acceptor molecule, acceptor atom, score
      L1  H     6    32       P1  7948  0.74
      L1  H    16    47       P1  7948  1.00
      P1  H  7989  7998       L1    15  0.17
      P1  H 10752 10763       L1    13  0.55

> <Gold.Chemscore.Hbond.Weighted>
-9.7937

> <Gold.Chemscore.Metal.Weighted>
-0.0000

> <Gold.Chemscore.Lipo.Weighted>
-6.6163

> <Gold.Chemscore.Internal_Hbond.Weighted>
0.0000

> <Gold.Chemscore.DEClash.Weighted>
1.3867

> <Gold.Chemscore.DEInternal.Weighted>
2.2692

> <Gold.Chemscore.Rot.Weighted>
7.0627

> <Gold.Chemscore.Internal.Correction.Weighted>
   9.000000E+99

> <Gold.Protein.RotatedTorsions>
[ 6907 6896 6895 6894 ] final   12.06 input  -60.11 | X-H torsion
[ 7974 7965 7964 7962 ] final   29.24 input  175.53 | X-H torsion
[ 8008 7997 7996 7995 ] final  -76.12 input   59.86 | X-H torsion
[ 10167 10162 10161 10158 ] final -144.59 input  -65.29 | X-H torsion
[ 10718 10713 10712 10709 ] final   18.00 input   66.30 | X-H torsion
[ 10763 10752 10751 10750 ] final   54.28 input  -60.55 | X-H torsion
[ 11005 11000 10999 10996 ] final   43.27 input  -57.11 | X-H torsion

> <Gold.Protein.ActiveResidues>
 VAL166  LYS551  ARG553  GLY616  TRP617  ASP618  TYR619  PRO620  LYS621  CYS622 
 ASP623  PHE694  ASN695  SER759  ASP760  ASP761  ALA762  ILE779  LEU786  VAL792 
 PHE793  MET794  SER795  GLU796  ALA797  LYS798  CYS799  TRP800  GLU811  SER814 

> <Gold.Protein.RotatedAtoms>
  151.7644  135.0802  160.0350 H   0  0  0  0  0  0  0  0  0  0  0  0  # atno 6907 bound_to 6896
  152.3331  133.5977  159.5832 H   0  0  0  0  0  0  0  0  0  0  0  0  # atno 6908 bound_to 6896
  150.7434  133.9753  159.3600 H   0  0  0  0  0  0  0  0  0  0  0  0  # atno 6909 bound_to 6896
  146.1683  139.6948  142.8985 H   0  0  0  0  0  0  0  0  0  0  0  0  # atno 7974 bound_to 7965
  154.5477  140.0732  156.8615 H   0  0  0  0  0  0  0  0  0  0  0  0  # atno 8008 bound_to 7997
  155.3055  140.3387  155.4228 H   0  0  0  0  0  0  0  0  0  0  0  0  # atno 8009 bound_to 7997
  156.1933  140.1694  156.8035 H   0  0  0  0  0  0  0  0  0  0  0  0  # atno 8010 bound_to 7997
  139.7885  143.8000  152.2647 H   0  0  0  0  0  0  0  0  0  0  0  0  # atno 10167 bound_to 10162
  157.0902  130.6424  149.5847 H   0  0  0  0  0  0  0  0  0  0  0  0  # atno 10718 bound_to 10713
  152.9803  135.5750  154.4878 H   0  0  0  0  0  0  0  0  0  0  0  0  # atno 10763 bound_to 10752
  154.4417  135.2776  155.1845 H   0  0  0  0  0  0  0  0  0  0  0  0  # atno 10764 bound_to 10752
  154.3510  135.6209  153.5696 H   0  0  0  0  0  0  0  0  0  0  0  0  # atno 10765 bound_to 10752
  140.1661  134.4281  155.8286 H   0  0  0  0  0  0  0  0  0  0  0  0  # atno 11005 bound_to 11000
  145.4409  141.0422  143.2858 LP  0  0  0  0  0  0  0  0  0  0  0  0  # atno 17320 bound_to 7965
  144.8125  139.5937  143.7023 LP  0  0  0  0  0  0  0  0  0  0  0  0  # atno 17321 bound_to 7965
  139.8084  144.7346  150.9730 LP  0  0  0  0  0  0  0  0  0  0  0  0  # atno 17342 bound_to 10162
  140.7820  143.4275  151.0746 LP  0  0  0  0  0  0  0  0  0  0  0  0  # atno 17343 bound_to 10162
  155.9900  130.4949  150.7238 LP  0  0  0  0  0  0  0  0  0  0  0  0  # atno 17370 bound_to 10713
  157.4727  131.0895  151.0624 LP  0  0  0  0  0  0  0  0  0  0  0  0  # atno 17371 bound_to 10713
  141.2213  133.6935  156.7680 LP  0  0  0  0  0  0  0  0  0  0  0  0  # atno 17394 bound_to 11000
  140.2433  134.8597  157.3595 LP  0  0  0  0  0  0  0  0  0  0  0  0  # atno 17395 bound_to 11000

$$$$
