AV-unprocessed.smi:2021|AV-procd|sdf|8183|dock2
  -GOLD-   2272010433D 1   1.00000     0.00000
 Structure written by MMmdl.
 41 42  0  0  0  0  0  0  0  0  3 V2000
  151.9676  144.2594  157.9154 C   0  0  0  0  0  0  0  0  0  0  0  0
  151.5750  143.3321  159.0779 C   0  0  0  0  0  0  0  0  0  0  0  0
  152.6139  143.4183  160.2059 C   0  0  0  0  0  0  0  0  0  0  0  0
  151.4002  141.8703  158.6133 C   0  0  0  0  0  0  0  0  0  0  0  0
  150.3381  141.7129  157.5827 N   0  3  1  0  0  0  0  0  0  0  0  0
  150.8554  141.6995  156.1929 C   0  0  0  0  0  0  0  0  0  0  0  0
  151.4674  140.3321  155.8423 C   0  0  0  0  0  0  0  0  0  0  0  0
  150.4900  139.3186  156.0368 O   0  0  0  0  0  0  0  0  0  0  0  0
  150.0608  139.2250  157.3921 C   0  0  2  0  0  0  0  0  0  0  0  0
  149.0685  138.0599  157.5049 C   0  0  0  0  0  0  0  0  0  0  0  0
  148.4843  138.0131  158.8381 N   0  0  0  0  0  0  0  0  0  0  0  0
  148.5049  136.9505  159.6517 C   0  0  0  0  0  0  0  0  0  0  0  0
  149.0474  135.9062  159.2836 O   0  0  0  0  0  0  0  0  0  0  0  0
  147.8949  137.1650  160.8389 N   0  5  0  0  0  0  0  0  0  0  0  0
  147.0472  136.2482  161.3345 C   0  0  0  0  0  0  0  0  0  0  0  0
  145.9406  135.8648  160.6776 N   0  0  0  0  0  0  0  0  0  0  0  0
  145.2058  134.9046  161.3600 N   0  0  0  0  0  0  0  0  0  0  0  0
  145.7837  134.5819  162.5167 C   0  0  0  0  0  0  0  0  0  0  0  0
  147.2801  135.4174  162.8754 S   0  0  0  0  0  0  0  0  0  0  0  0
  149.4174  140.5679  157.8051 C   0  0  0  0  0  0  0  0  0  0  0  0
  152.9104  143.9507  157.4627 H   0  0  0  0  0  0  0  0  0  0  0  0
  152.0858  145.2880  158.2577 H   0  0  0  0  0  0  0  0  0  0  0  0
  151.2083  144.2647  157.1331 H   0  0  0  0  0  0  0  0  0  0  0  0
  150.6337  143.6933  159.4906 H   0  0  0  0  0  0  0  0  0  0  0  0
  153.5931  143.0732  159.8717 H   0  0  0  0  0  0  0  0  0  0  0  0
  152.3193  142.8074  161.0597 H   0  0  0  0  0  0  0  0  0  0  0  0
  152.7261  144.4434  160.5605 H   0  0  0  0  0  0  0  0  0  0  0  0
  152.3536  141.5297  158.2067 H   0  0  0  0  0  0  0  0  0  0  0  0
  151.1933  141.2225  159.4650 H   0  0  0  0  0  0  0  0  0  0  0  0
  150.0250  141.9051  155.5161 H   0  0  0  0  0  0  0  0  0  0  0  0
  151.5785  142.5013  156.0406 H   0  0  0  0  0  0  0  0  0  0  0  0
  151.7823  140.3198  154.7987 H   0  0  0  0  0  0  0  0  0  0  0  0
  152.3542  140.1263  156.4436 H   0  0  0  0  0  0  0  0  0  0  0  0
  150.9192  139.0088  158.0299 H   0  0  0  0  0  0  0  0  0  0  0  0
  148.2680  138.1809  156.7734 H   0  0  0  0  0  0  0  0  0  0  0  0
  149.5661  137.1136  157.2869 H   0  0  0  0  0  0  0  0  0  0  0  0
  148.0357  138.8515  159.1765 H   0  0  0  0  0  0  0  0  0  0  0  0
  145.3279  133.8446  163.1607 H   0  0  0  0  0  0  0  0  0  0  0  0
  149.0826  140.5299  158.8409 H   0  0  0  0  0  0  0  0  0  0  0  0
  148.5222  140.7372  157.2051 H   0  0  0  0  0  0  0  0  0  0  0  0
  149.7788  142.5506  157.6574 H   0  0  0  0  0  0  0  0  0  0  0  0
  1  2  1  0  0  0  0
  1 21  1  0  0  0  0
  1 22  1  0  0  0  0
  1 23  1  0  0  0  0
  2  3  1  0  0  0  0
  2  4  1  0  0  0  0
  2 24  1  0  0  0  0
  3 25  1  0  0  0  0
  3 26  1  0  0  0  0
  3 27  1  0  0  0  0
  4  5  1  0  0  0  0
  4 28  1  0  0  0  0
  4 29  1  0  0  0  0
  5 20  1  0  0  0  0
  5  6  1  0  0  0  0
  5 41  1  0  0  0  0
  6  7  1  0  0  0  0
  6 30  1  0  0  0  0
  6 31  1  0  0  0  0
  7  8  1  0  0  0  0
  7 32  1  0  0  0  0
  7 33  1  0  0  0  0
  8  9  1  0  0  0  0
  9 10  1  0  0  0  0
  9 20  1  0  0  0  0
  9 34  1  0  0  0  0
 10 11  1  0  0  0  0
 10 35  1  0  0  0  0
 10 36  1  0  0  0  0
 11 12  1  0  0  0  0
 11 37  1  0  0  0  0
 12 13  2  0  0  0  0
 12 14  1  0  0  0  0
 14 15  1  0  0  0  0
 15 19  1  0  0  0  0
 15 16  2  0  0  0  0
 16 17  1  0  0  0  0
 17 18  2  0  0  0  0
 18 19  1  0  0  0  0
 18 38  1  0  0  0  0
 20 39  1  0  0  0  0
 20 40  1  0  0  0  0
M  CHG  1   5   1
M  CHG  1  14  -1
M  END
> <s_m_source_file>
AV-unprocessed.smi

> <i_m_source_file_index>
2021

> <i_lp_mmshare_version>
43012

> <i_f3d_flags>
0

> <s_epik_input>
W0NIM11bQ0hdKFtDSDNdKVtDSDJdTjFbQ0gyXVtDSDJdT1tDQEhdKFtDSDJdMSlbQ0gyXVtOSF1DKD1PKVtOSF1jMm5uW2NIXXMy

> <s_epik_cmdline>
J2VwaWtfcHl0aG9uJywgJy1waCcsICc3LjAnLCAnLXRuJywgJzgnLCAnLW1hJywgJzIwMCcsICctbWV0YWxfYmluZGluZycsICctaW1hZScsICc8aW5maWxlLm1hZT4nLCAnLW9tYWUnLCAnPG91dGZpbGUubWFlPic=

> <r_lp_tautomer_probability>
1

> <r_epik_Ionization_Penalty>
3.15762

> <r_epik_Ionization_Penalty_Charging>
3.12229

> <r_epik_Ionization_Penalty_Neutral>
0.0353298

> <r_epik_State_Penalty>
3.11266

> <r_epik_Charging_Adjusted_Penalty>
6.23495

> <i_epik_Tot_Q>
0

> <i_epik_Tot_abs_Q>
2

> <r_epik_Metal_State_Penalty>
0.541462

> <b_epik_Metal_Only>
1

> <s_lp_Force_Field>
OPLS_2005

> <r_lp_Energy>
12.7344

> <b_lp_Chiralities_Consistent>
1

> <s_lp_Variant>
AV-unprocessed.smi:2021-9

> <Gold.Version>
5.8.1

> <Gold.Id.Protein>
6NUR|6NUR_protein|mol2

> <Gold.PLP.Fitness>
47.0583

> <Gold.PLP.PLP>
-36.7533

> <Gold.PLP.part.hbond>
-3.0000

> <Gold.PLP.part.metal>
0.0000

> <Gold.PLP.part.buried>
-4.8419

> <Gold.PLP.part.nonpolar>
-29.8776

> <Gold.PLP.part.repulsive>
0.2466

> <Gold.PLP.ligand.clash>
0.0000

> <Gold.PLP.ligand.torsion>
1.5514

> <Gold.PLP.Chemscore.Hbond>
4.3466

> <Gold.PLP.Chemscore.CHOScore>
0.0000

> <Gold.PLP.Chemscore.Metal>
0.0000

> <Gold.Chemscore.Hbonds>
donor molecule, donor type, donor heavy atom, donor atom, acceptor molecule, acceptor atom, score
      P1  H  6896  6907       L1    13  0.73
      P1  H  6931  6943       L1    14  1.76
      P1  H  6934  6947       L1    14  1.63

> <Gold.PLP.Chemscore.Internal.Correction>
0.3681

> <Gold.Rescore>
     Score         DG    S(hbond)    S(metal)    S(lipo)     H(rot)  DE(clash)    DE(int)     intcor
     16.42     -18.09       2.21        0.00      85.09       1.85       0.15       1.53       ----

> <Gold.Chemscore.Fitness>
16.4159

> <Gold.Chemscore.DG>
-18.0941

> <Gold.Chemscore.ZeroCoef>
-5.4800

> <Gold.Chemscore.Hbond>
2.2113

> <Gold.Chemscore.Metal>
0.0000

> <Gold.Chemscore.Lipo>
85.0916

> <Gold.Chemscore.Internal_Hbond>
0.0000

> <Gold.Chemscore.DEClash>
0.1496

> <Gold.Chemscore.DEInternal>
1.5286

> <Gold.Chemscore.Rot>
1.8466

> <Gold.Chemscore.Internal.Correction>
   9.000000E+99

> <Gold.Chemscore.Hbonds>
donor molecule, donor type, donor heavy atom, donor atom, acceptor molecule, acceptor atom, score
      P1  H  6896  6907       L1    13  0.72
      P1  H  6931  6943       L1    14  0.56
      P1  H  6934  6947       L1    14  0.51

> <Gold.Chemscore.Hbond.Weighted>
-7.3856

> <Gold.Chemscore.Metal.Weighted>
-0.0000

> <Gold.Chemscore.Lipo.Weighted>
-9.9557

> <Gold.Chemscore.Internal_Hbond.Weighted>
0.0000

> <Gold.Chemscore.DEClash.Weighted>
0.1496

> <Gold.Chemscore.DEInternal.Weighted>
1.5286

> <Gold.Chemscore.Rot.Weighted>
4.7272

> <Gold.Chemscore.Internal.Correction.Weighted>
   9.000000E+99

> <Gold.Protein.RotatedTorsions>
[ 6907 6896 6895 6894 ] final  -75.61 input  -60.11 | X-H torsion
[ 7974 7965 7964 7962 ] final -118.02 input  175.53 | X-H torsion
[ 8008 7997 7996 7995 ] final  121.10 input   59.86 | X-H torsion
[ 10167 10162 10161 10158 ] final   46.26 input  -65.29 | X-H torsion
[ 10718 10713 10712 10709 ] final  138.38 input   66.30 | X-H torsion
[ 10763 10752 10751 10750 ] final -134.33 input  -60.55 | X-H torsion
[ 11005 11000 10999 10996 ] final -136.74 input  -57.11 | X-H torsion

> <Gold.Protein.ActiveResidues>
 VAL166  LYS551  ARG553  GLY616  TRP617  ASP618  TYR619  PRO620  LYS621  CYS622 
 ASP623  PHE694  ASN695  SER759  ASP760  ASP761  ALA762  ILE779  LEU786  VAL792 
 PHE793  MET794  SER795  GLU796  ALA797  LYS798  CYS799  TRP800  GLU811  SER814 

> <Gold.Protein.RotatedAtoms>
  150.7053  134.4696  159.5418 H   0  0  0  0  0  0  0  0  0  0  0  0  # atno 6907 bound_to 6896
  152.2354  134.8278  160.0477 H   0  0  0  0  0  0  0  0  0  0  0  0  # atno 6908 bound_to 6896
  151.9078  133.3518  159.3890 H   0  0  0  0  0  0  0  0  0  0  0  0  # atno 6909 bound_to 6896
  145.0785  140.8409  143.4053 H   0  0  0  0  0  0  0  0  0  0  0  0  # atno 7974 bound_to 7965
  156.2672  140.2816  156.1255 H   0  0  0  0  0  0  0  0  0  0  0  0  # atno 8008 bound_to 7997
  155.1110  140.0391  157.2741 H   0  0  0  0  0  0  0  0  0  0  0  0  # atno 8009 bound_to 7997
  154.6743  140.2594  155.6980 H   0  0  0  0  0  0  0  0  0  0  0  0  # atno 8010 bound_to 7997
  140.3157  144.2767  150.6191 H   0  0  0  0  0  0  0  0  0  0  0  0  # atno 10167 bound_to 10162
  157.4259  131.1043  151.0303 H   0  0  0  0  0  0  0  0  0  0  0  0  # atno 10718 bound_to 10713
  154.8721  135.3738  154.4718 H   0  0  0  0  0  0  0  0  0  0  0  0  # atno 10763 bound_to 10752
  153.5378  135.7027  153.5656 H   0  0  0  0  0  0  0  0  0  0  0  0  # atno 10764 bound_to 10752
  153.3832  135.3991  155.1836 H   0  0  0  0  0  0  0  0  0  0  0  0  # atno 10765 bound_to 10752
  140.8777  134.1971  157.4611 H   0  0  0  0  0  0  0  0  0  0  0  0  # atno 11005 bound_to 11000
  145.1206  139.2696  143.5590 LP  0  0  0  0  0  0  0  0  0  0  0  0  # atno 17320 bound_to 7965
  146.3530  140.0829  142.8616 LP  0  0  0  0  0  0  0  0  0  0  0  0  # atno 17321 bound_to 7965
  140.5529  143.2203  151.7897 LP  0  0  0  0  0  0  0  0  0  0  0  0  # atno 17342 bound_to 10162
  139.4884  144.4453  151.9717 LP  0  0  0  0  0  0  0  0  0  0  0  0  # atno 17343 bound_to 10162
  157.1217  130.6064  149.5506 LP  0  0  0  0  0  0  0  0  0  0  0  0  # atno 17370 bound_to 10713
  155.9896  130.4944  150.7222 LP  0  0  0  0  0  0  0  0  0  0  0  0  # atno 17371 bound_to 10713
  139.8717  134.9803  156.5071 LP  0  0  0  0  0  0  0  0  0  0  0  0  # atno 17394 bound_to 11000
  140.8499  133.8140  155.9158 LP  0  0  0  0  0  0  0  0  0  0  0  0  # atno 17395 bound_to 11000

$$$$
