AV-unprocessed.smi:109|AV-procd|sdf|1037|dock8
  -GOLD-   2262018 53D 1   1.00000     0.00000
 Structure written by MMmdl.
 58 61  0  0  0  0  0  0  0  0  1 V2000
  151.2463  140.4636  155.0125 O   0  0  0  0  0  0  0  0  0  0  0  0
  150.4757  140.7711  156.1541 C   0  0  0  0  0  0  0  0  0  0  0  0
  151.1708  141.8721  156.9731 C   0  0  0  0  0  0  0  0  0  0  0  0
  152.2074  141.3436  157.9950 C   0  0  2  0  0  0  0  0  0  0  0  0
  151.7006  140.1161  158.6129 N   0  0  0  0  0  0  0  0  0  0  0  0
  151.8728  138.9001  158.0474 C   0  0  0  0  0  0  0  0  0  0  0  0
  153.0902  138.4842  157.6099 N   0  0  0  0  0  0  0  0  0  0  0  0
  153.2264  137.2765  157.0539 C   0  0  0  0  0  0  0  0  0  0  0  0
  152.2943  136.3444  156.8434 N   0  0  0  0  0  0  0  0  0  0  0  0
  151.0702  136.7599  157.2799 C   0  0  0  0  0  0  0  0  0  0  0  0
  150.7785  138.0115  157.8882 C   0  0  0  0  0  0  0  0  0  0  0  0
  149.4278  138.0757  158.2050 N   0  0  0  0  0  0  0  0  0  0  0  0
  148.9543  136.9245  157.8074 C   0  0  0  0  0  0  0  0  0  0  0  0
  149.8754  136.0775  157.2276 N   0  0  0  0  0  0  0  0  0  0  0  0
  149.6871  134.6983  156.6771 C   0  0  1  0  0  0  0  0  0  0  0  0
  148.3356  134.3451  156.7904 O   0  0  0  0  0  0  0  0  0  0  0  0
  147.7545  134.0688  155.5147 C   0  0  1  0  0  0  0  0  0  0  0  0
  146.9944  135.3186  155.0185 C   0  0  0  0  0  0  0  0  0  0  0  0
  146.8431  135.2616  153.6163 O   0  0  0  0  0  0  0  0  0  0  0  0
  148.9774  133.6667  154.6793 C   0  0  1  0  0  0  0  0  0  0  0  0
  148.7952  133.7038  153.2757 O   0  0  0  0  0  0  0  0  0  0  0  0
  150.0775  134.5837  155.1888 C   0  0  1  0  0  0  0  0  0  0  0  0
  150.1108  135.8262  154.5028 O   0  0  0  0  0  0  0  0  0  0  0  0
  152.5652  142.3723  159.1067 C   0  0  0  0  0  0  0  0  0  0  0  0
  153.0021  141.7041  160.4351 C   0  0  0  0  0  0  0  0  0  0  0  0
  153.3062  142.7292  161.5401 C   0  0  0  0  0  0  0  0  0  0  0  0
  152.1124  143.6585  161.7888 C   0  0  0  0  0  0  0  0  0  0  0  0
  151.6924  144.3536  160.4889 C   0  0  0  0  0  0  0  0  0  0  0  0
  151.3768  143.3280  159.3893 C   0  0  0  0  0  0  0  0  0  0  0  0
  150.2843  134.0583  157.3281 H   0  0  0  0  0  0  0  0  0  0  0  0
  147.0658  133.2258  155.5872 H   0  0  0  0  0  0  0  0  0  0  0  0
  149.2419  132.6418  154.9451 H   0  0  0  0  0  0  0  0  0  0  0  0
  151.0607  134.1199  155.1029 H   0  0  0  0  0  0  0  0  0  0  0  0
  151.8167  139.7394  155.2210 H   0  0  0  0  0  0  0  0  0  0  0  0
  149.4843  141.0853  155.8275 H   0  0  0  0  0  0  0  0  0  0  0  0
  150.3535  139.8674  156.7518 H   0  0  0  0  0  0  0  0  0  0  0  0
  151.6582  142.5321  156.2579 H   0  0  0  0  0  0  0  0  0  0  0  0
  150.4226  142.4760  157.4886 H   0  0  0  0  0  0  0  0  0  0  0  0
  153.1322  141.1449  157.4538 H   0  0  0  0  0  0  0  0  0  0  0  0
  151.2981  140.2310  159.5321 H   0  0  0  0  0  0  0  0  0  0  0  0
  154.2252  137.0208  156.7318 H   0  0  0  0  0  0  0  0  0  0  0  0
  147.9131  136.6652  157.9314 H   0  0  0  0  0  0  0  0  0  0  0  0
  146.0206  135.4276  155.4938 H   0  0  0  0  0  0  0  0  0  0  0  0
  147.5585  136.2250  155.2368 H   0  0  0  0  0  0  0  0  0  0  0  0
  147.5593  135.7322  153.2177 H   0  0  0  0  0  0  0  0  0  0  0  0
  148.5706  134.5870  153.0253 H   0  0  0  0  0  0  0  0  0  0  0  0
  149.4739  135.7963  153.8052 H   0  0  0  0  0  0  0  0  0  0  0  0
  153.4017  142.9758  158.7500 H   0  0  0  0  0  0  0  0  0  0  0  0
  152.2232  141.0207  160.7762 H   0  0  0  0  0  0  0  0  0  0  0  0
  153.9001  141.1055  160.2924 H   0  0  0  0  0  0  0  0  0  0  0  0
  153.5708  142.2120  162.4627 H   0  0  0  0  0  0  0  0  0  0  0  0
  154.1774  143.3219  161.2583 H   0  0  0  0  0  0  0  0  0  0  0  0
  151.2747  143.0843  162.1869 H   0  0  0  0  0  0  0  0  0  0  0  0
  152.3679  144.4017  162.5446 H   0  0  0  0  0  0  0  0  0  0  0  0
  150.8208  144.9833  160.6697 H   0  0  0  0  0  0  0  0  0  0  0  0
  152.4898  145.0172  160.1525 H   0  0  0  0  0  0  0  0  0  0  0  0
  151.0960  143.8741  158.4885 H   0  0  0  0  0  0  0  0  0  0  0  0
  150.5002  142.7461  159.6773 H   0  0  0  0  0  0  0  0  0  0  0  0
  1  2  1  0  0  0  0
  1 34  1  0  0  0  0
  2  3  1  0  0  0  0
  2 35  1  0  0  0  0
  2 36  1  0  0  0  0
  3  4  1  0  0  0  0
  3 37  1  0  0  0  0
  3 38  1  0  0  0  0
  4  5  1  0  0  0  0
  4 24  1  0  0  0  0
  4 39  1  0  0  0  0
  5  6  1  0  0  0  0
  5 40  1  0  0  0  0
  6 11  1  0  0  0  0
  6  7  2  0  0  0  0
  7  8  1  0  0  0  0
  8  9  2  0  0  0  0
  8 41  1  0  0  0  0
  9 10  1  0  0  0  0
 10 14  1  0  0  0  0
 10 11  2  0  0  0  0
 11 12  1  0  0  0  0
 12 13  2  0  0  0  0
 13 14  1  0  0  0  0
 13 42  1  0  0  0  0
 14 15  1  0  0  0  0
 15 30  1  0  0  0  0
 15 22  1  0  0  0  0
 15 16  1  0  0  0  0
 16 17  1  0  0  0  0
 17 31  1  0  0  0  0
 17 18  1  0  0  0  0
 17 20  1  0  0  0  0
 18 19  1  0  0  0  0
 18 43  1  0  0  0  0
 18 44  1  0  0  0  0
 19 45  1  0  0  0  0
 20 32  1  0  0  0  0
 20 21  1  0  0  0  0
 20 22  1  0  0  0  0
 21 46  1  0  0  0  0
 22 33  1  0  0  0  0
 22 23  1  0  0  0  0
 23 47  1  0  0  0  0
 24 29  1  0  0  0  0
 24 25  1  0  0  0  0
 24 48  1  0  0  0  0
 25 26  1  0  0  0  0
 25 49  1  0  0  0  0
 25 50  1  0  0  0  0
 26 27  1  0  0  0  0
 26 51  1  0  0  0  0
 26 52  1  0  0  0  0
 27 28  1  0  0  0  0
 27 53  1  0  0  0  0
 27 54  1  0  0  0  0
 28 29  1  0  0  0  0
 28 55  1  0  0  0  0
 28 56  1  0  0  0  0
 29 57  1  0  0  0  0
 29 58  1  0  0  0  0
M  END
> <s_m_source_file>
AV-unprocessed.smi

> <i_m_source_file_index>
109

> <i_lp_mmshare_version>
43012

> <i_f3d_flags>
0

> <s_epik_input>
W0NIMl0xW0NIMl1bQ0gyXVtDSDJdW0NIMl1bQ0hdMVtDQEhdKFtDSDJdW0NIMl1bT0hdKVtOSF1jKG5bY0hdbjIpYyhjMjMpbltjSF1uM1tDQEBIXTRPW0NASF0oW0NIMl1bT0hdKVtDQEBIXShbT0hdKVtDQEhdNFtPSF0=

> <s_epik_cmdline>
J2VwaWtfcHl0aG9uJywgJy1waCcsICc3LjAnLCAnLXRuJywgJzgnLCAnLW1hJywgJzIwMCcsICctbWV0YWxfYmluZGluZycsICctaW1hZScsICc8aW5maWxlLm1hZT4nLCAnLW9tYWUnLCAnPG91dGZpbGUubWFlPic=

> <r_lp_tautomer_probability>
1

> <r_epik_Ionization_Penalty>
0.000793976

> <r_epik_Ionization_Penalty_Charging>
0

> <r_epik_Ionization_Penalty_Neutral>
0.000793976

> <r_epik_State_Penalty>
-0

> <r_epik_Charging_Adjusted_Penalty>
0

> <i_epik_Tot_Q>
0

> <i_epik_Tot_abs_Q>
0

> <r_epik_Metal_State_Penalty>
-0

> <b_epik_Metal_Only>
0

> <s_epik_Chemistry_Notes>
This compound contains an acetal/aminal-like group ( X-CH(R)-Y where X, Y are N, S, or O) that may be acid/base labile, releasing an aldehyde.

> <s_lp_Force_Field>
OPLS_2005

> <r_lp_Energy>
61.3844

> <b_lp_Chiralities_Consistent>
1

> <s_lp_Variant>
AV-unprocessed.smi:109-7

> <Gold.Version>
5.8.1

> <Gold.Id.Protein>
6NUR|6NUR_protein|mol2

> <Gold.PLP.Fitness>
54.5497

> <Gold.PLP.PLP>
-41.5059

> <Gold.PLP.part.hbond>
-6.8773

> <Gold.PLP.part.metal>
0.0000

> <Gold.PLP.part.buried>
-4.4199

> <Gold.PLP.part.nonpolar>
-28.8028

> <Gold.PLP.part.repulsive>
0.1201

> <Gold.PLP.ligand.clash>
0.1755

> <Gold.PLP.ligand.torsion>
2.0923

> <Gold.PLP.Chemscore.Hbond>
5.7520

> <Gold.PLP.Chemscore.CHOScore>
0.0000

> <Gold.PLP.Chemscore.Metal>
0.0000

> <Gold.Chemscore.Hbonds>
donor molecule, donor type, donor heavy atom, donor atom, acceptor molecule, acceptor atom, score
      L1  H    19    45       P1  7948  1.00
      L1  H    21    46       P1  7948  0.94
      L1  H    23    47       P1  7948  0.96
      P1  H  7989  7998       L1     1  0.99
      P1  H  7997  8010       L1     7  0.54
      P1  H 10752 10764       L1     9  0.62

> <Gold.PLP.Chemscore.Internal.Correction>
0.1478

> <Gold.Rescore>
     Score         DG    S(hbond)    S(metal)    S(lipo)     H(rot)  DE(clash)    DE(int)     intcor
     10.48     -14.76       3.28        0.00     105.46       5.47       0.27       4.02       ----

> <Gold.Chemscore.Fitness>
10.4757

> <Gold.Chemscore.DG>
-14.7648

> <Gold.Chemscore.ZeroCoef>
-5.4800

> <Gold.Chemscore.Hbond>
3.2754

> <Gold.Chemscore.Metal>
0.0000

> <Gold.Chemscore.Lipo>
105.4568

> <Gold.Chemscore.Internal_Hbond>
0.0000

> <Gold.Chemscore.DEClash>
0.2658

> <Gold.Chemscore.DEInternal>
4.0232

> <Gold.Chemscore.Rot>
5.4662

> <Gold.Chemscore.Internal.Correction>
   9.000000E+99

> <Gold.Chemscore.Hbonds>
donor molecule, donor type, donor heavy atom, donor atom, acceptor molecule, acceptor atom, score
      L1  H    19    45       P1  7948  0.95
      L1  H    21    46       P1  7948  0.22
      L1  H    23    47       P1  7948  0.39
      P1  H  7989  7998       L1     1  0.47
      P1  H  7997  8010       L1     7  0.46
      P1  H 10752 10764       L1     9  0.11

> <Gold.Chemscore.Hbond.Weighted>
-10.9398

> <Gold.Chemscore.Metal.Weighted>
-0.0000

> <Gold.Chemscore.Lipo.Weighted>
-12.3384

> <Gold.Chemscore.Internal_Hbond.Weighted>
0.0000

> <Gold.Chemscore.DEClash.Weighted>
0.2658

> <Gold.Chemscore.DEInternal.Weighted>
4.0232

> <Gold.Chemscore.Rot.Weighted>
13.9935

> <Gold.Chemscore.Internal.Correction.Weighted>
   9.000000E+99

> <Gold.Protein.RotatedTorsions>
[ 6907 6896 6895 6894 ] final    5.62 input  -60.11 | X-H torsion
[ 7974 7965 7964 7962 ] final  103.96 input  175.53 | X-H torsion
[ 8008 7997 7996 7995 ] final   46.83 input   59.86 | X-H torsion
[ 10167 10162 10161 10158 ] final -160.62 input  -65.29 | X-H torsion
[ 10718 10713 10712 10709 ] final -123.50 input   66.30 | X-H torsion
[ 10763 10752 10751 10750 ] final  -25.27 input  -60.55 | X-H torsion
[ 11005 11000 10999 10996 ] final  160.76 input  -57.11 | X-H torsion

> <Gold.Protein.ActiveResidues>
 VAL166  LYS551  ARG553  GLY616  TRP617  ASP618  TYR619  PRO620  LYS621  CYS622 
 ASP623  PHE694  ASN695  SER759  ASP760  ASP761  ALA762  ILE779  LEU786  VAL792 
 PHE793  MET794  SER795  GLU796  ALA797  LYS798  CYS799  TRP800  GLU811  SER814 

> <Gold.Protein.RotatedAtoms>
  151.6604  135.0990  160.0178 H   0  0  0  0  0  0  0  0  0  0  0  0  # atno 6907 bound_to 6896
  152.3950  133.6729  159.6277 H   0  0  0  0  0  0  0  0  0  0  0  0  # atno 6908 bound_to 6896
  150.7858  133.8807  159.3326 H   0  0  0  0  0  0  0  0  0  0  0  0  # atno 6909 bound_to 6896
  145.3390  139.2467  143.3619 H   0  0  0  0  0  0  0  0  0  0  0  0  # atno 7974 bound_to 7965
  155.3590  140.3417  155.4240 H   0  0  0  0  0  0  0  0  0  0  0  0  # atno 8008 bound_to 7997
  156.1724  140.1636  156.8459 H   0  0  0  0  0  0  0  0  0  0  0  0  # atno 8009 bound_to 7997
  154.5246  140.0759  156.8218 H   0  0  0  0  0  0  0  0  0  0  0  0  # atno 8010 bound_to 7997
  139.6525  144.0057  152.2171 H   0  0  0  0  0  0  0  0  0  0  0  0  # atno 10167 bound_to 10162
  156.1507  130.6533  150.9910 H   0  0  0  0  0  0  0  0  0  0  0  0  # atno 10718 bound_to 10713
  153.6971  135.6958  153.5073 H   0  0  0  0  0  0  0  0  0  0  0  0  # atno 10763 bound_to 10752
  153.2370  135.4318  155.0656 H   0  0  0  0  0  0  0  0  0  0  0  0  # atno 10764 bound_to 10752
  154.8355  135.3498  154.6511 H   0  0  0  0  0  0  0  0  0  0  0  0  # atno 10765 bound_to 10752
  140.2091  134.8281  157.3101 H   0  0  0  0  0  0  0  0  0  0  0  0  # atno 11005 bound_to 11000
  146.3015  140.3984  142.8702 LP  0  0  0  0  0  0  0  0  0  0  0  0  # atno 17320 bound_to 7965
  144.8805  140.7393  143.5990 LP  0  0  0  0  0  0  0  0  0  0  0  0  # atno 17321 bound_to 7965
  139.9775  144.6451  150.7931 LP  0  0  0  0  0  0  0  0  0  0  0  0  # atno 17342 bound_to 10162
  140.7544  143.3027  151.3040 LP  0  0  0  0  0  0  0  0  0  0  0  0  # atno 17343 bound_to 10162
  157.6655  131.0872  150.7739 LP  0  0  0  0  0  0  0  0  0  0  0  0  # atno 17370 bound_to 10713
  156.7807  130.4858  149.5401 LP  0  0  0  0  0  0  0  0  0  0  0  0  # atno 17371 bound_to 10713
  140.1970  134.4301  155.7683 LP  0  0  0  0  0  0  0  0  0  0  0  0  # atno 17394 bound_to 11000
  141.2226  133.7054  156.8121 LP  0  0  0  0  0  0  0  0  0  0  0  0  # atno 17395 bound_to 11000

$$$$
