AV-unprocessed.smi:1346|AV-procd|sdf|5512|dock5
  -GOLD-   22720 5 93D 1   1.00000     0.00000
 Structure written by MMmdl.
 47 48  0  0  0  0  0  0  0  0  1 V2000
  147.2217  137.0015  162.8379 C   0  0  0  0  0  0  0  0  0  0  0  0
  147.3960  135.6776  162.1504 C   0  0  0  0  0  0  0  0  0  0  0  0
  147.5176  134.5799  162.8774 N   0  0  0  0  0  0  0  0  0  0  0  0
  147.6622  133.5304  161.9655 O   0  0  0  0  0  0  0  0  0  0  0  0
  147.6251  134.0435  160.7097 C   0  0  0  0  0  0  0  0  0  0  0  0
  147.7607  133.0664  159.5910 C   0  0  0  0  0  0  0  0  0  0  0  0
  147.4582  135.4011  160.7540 C   0  0  0  0  0  0  0  0  0  0  0  0
  147.3613  136.3805  159.6115 C   0  0  0  0  0  0  0  0  0  0  0  0
  148.7506  136.9080  159.2515 C   0  0  0  0  0  0  0  0  0  0  0  0
  149.7536  136.3443  159.6885 O   0  0  0  0  0  0  0  0  0  0  0  0
  148.7942  137.9816  158.4468 N   0  0  0  0  0  0  0  0  0  0  0  0
  150.0107  138.6138  157.9489 C   0  0  0  0  0  0  0  0  0  0  0  0
  149.9746  140.1330  158.1644 C   0  0  0  0  0  0  0  0  0  0  0  0
  151.3030  140.6222  158.2712 O   0  0  0  0  0  0  0  0  0  0  0  0
  151.4003  141.9640  158.7282 C   0  0  2  0  0  0  0  0  0  0  0  0
  151.0161  142.9117  157.5722 C   0  0  0  0  0  0  0  0  0  0  0  0
  151.2327  144.3836  157.9525 C   0  0  0  0  0  0  0  0  0  0  0  0
  152.6807  144.6284  158.3995 C   0  0  0  0  0  0  0  0  0  0  0  0
  153.0664  143.6929  159.5554 C   0  0  0  0  0  0  0  0  0  0  0  0
  152.8552  142.2101  159.1878 C   0  0  1  0  0  0  0  0  0  0  0  0
  153.2417  141.2997  160.3648 C   0  0  0  0  0  0  0  0  0  0  0  0
  146.6868  137.7095  162.2044 H   0  0  0  0  0  0  0  0  0  0  0  0
  148.1877  137.4418  163.0858 H   0  0  0  0  0  0  0  0  0  0  0  0
  146.6543  136.8979  163.7633 H   0  0  0  0  0  0  0  0  0  0  0  0
  147.8828  133.5753  158.6351 H   0  0  0  0  0  0  0  0  0  0  0  0
  146.8762  132.4328  159.5243 H   0  0  0  0  0  0  0  0  0  0  0  0
  148.6274  132.4229  159.7425 H   0  0  0  0  0  0  0  0  0  0  0  0
  146.9186  135.9140  158.7307 H   0  0  0  0  0  0  0  0  0  0  0  0
  146.7165  137.2247  159.8576 H   0  0  0  0  0  0  0  0  0  0  0  0
  147.9174  138.3788  158.1423 H   0  0  0  0  0  0  0  0  0  0  0  0
  150.8493  138.1895  158.5014 H   0  0  0  0  0  0  0  0  0  0  0  0
  150.1810  138.3745  156.8980 H   0  0  0  0  0  0  0  0  0  0  0  0
  149.4339  140.6112  157.3469 H   0  0  0  0  0  0  0  0  0  0  0  0
  149.4381  140.3648  159.0854 H   0  0  0  0  0  0  0  0  0  0  0  0
  150.7343  142.1262  159.5785 H   0  0  0  0  0  0  0  0  0  0  0  0
  151.6154  142.6734  156.6922 H   0  0  0  0  0  0  0  0  0  0  0  0
  149.9760  142.7633  157.2821 H   0  0  0  0  0  0  0  0  0  0  0  0
  150.9909  145.0262  157.1054 H   0  0  0  0  0  0  0  0  0  0  0  0
  150.5484  144.6587  158.7562 H   0  0  0  0  0  0  0  0  0  0  0  0
  153.3563  144.4695  157.5580 H   0  0  0  0  0  0  0  0  0  0  0  0
  152.8053  145.6678  158.7046 H   0  0  0  0  0  0  0  0  0  0  0  0
  154.1080  143.8649  159.8292 H   0  0  0  0  0  0  0  0  0  0  0  0
  152.4724  143.9424  160.4358 H   0  0  0  0  0  0  0  0  0  0  0  0
  153.5190  141.9744  158.3543 H   0  0  0  0  0  0  0  0  0  0  0  0
  152.6004  141.4757  161.2289 H   0  0  0  0  0  0  0  0  0  0  0  0
  154.2728  141.4748  160.6739 H   0  0  0  0  0  0  0  0  0  0  0  0
  153.1565  140.2462  160.0967 H   0  0  0  0  0  0  0  0  0  0  0  0
  1  2  1  0  0  0  0
  1 22  1  0  0  0  0
  1 23  1  0  0  0  0
  1 24  1  0  0  0  0
  2  7  1  0  0  0  0
  2  3  2  0  0  0  0
  3  4  1  0  0  0  0
  4  5  1  0  0  0  0
  5  6  1  0  0  0  0
  5  7  2  0  0  0  0
  6 25  1  0  0  0  0
  6 26  1  0  0  0  0
  6 27  1  0  0  0  0
  7  8  1  0  0  0  0
  8  9  1  0  0  0  0
  8 28  1  0  0  0  0
  8 29  1  0  0  0  0
  9 10  2  0  0  0  0
  9 11  1  0  0  0  0
 11 12  1  0  0  0  0
 11 30  1  0  0  0  0
 12 13  1  0  0  0  0
 12 31  1  0  0  0  0
 12 32  1  0  0  0  0
 13 14  1  0  0  0  0
 13 33  1  0  0  0  0
 13 34  1  0  0  0  0
 14 15  1  0  0  0  0
 15 20  1  0  0  0  0
 15 16  1  0  0  0  0
 15 35  1  0  0  0  0
 16 17  1  0  0  0  0
 16 36  1  0  0  0  0
 16 37  1  0  0  0  0
 17 18  1  0  0  0  0
 17 38  1  0  0  0  0
 17 39  1  0  0  0  0
 18 19  1  0  0  0  0
 18 40  1  0  0  0  0
 18 41  1  0  0  0  0
 19 20  1  0  0  0  0
 19 42  1  0  0  0  0
 19 43  1  0  0  0  0
 20 21  1  0  0  0  0
 20 44  1  0  0  0  0
 21 45  1  0  0  0  0
 21 46  1  0  0  0  0
 21 47  1  0  0  0  0
M  END
> <s_m_source_file>
AV-unprocessed.smi

> <i_m_source_file_index>
1346

> <i_lp_mmshare_version>
43012

> <i_f3d_flags>
0

> <s_epik_input>
W0NIM11jMW5vYyhbQ0gzXSljMVtDSDJdQyg9TylbTkhdW0NIMl1bQ0gyXU9bQ0BASF0yW0NIMl1bQ0gyXVtDSDJdW0NIMl1bQ0BIXTJbQ0gzXQ==

> <s_epik_cmdline>
J2VwaWtfcHl0aG9uJywgJy1waCcsICc3LjAnLCAnLXRuJywgJzgnLCAnLW1hJywgJzIwMCcsICctbWV0YWxfYmluZGluZycsICctaW1hZScsICc8aW5maWxlLm1hZT4nLCAnLW9tYWUnLCAnPG91dGZpbGUubWFlPic=

> <r_lp_tautomer_probability>
1

> <r_epik_Ionization_Penalty>
3.26154e-08

> <r_epik_Ionization_Penalty_Charging>
0

> <r_epik_Ionization_Penalty_Neutral>
3.26154e-08

> <r_epik_State_Penalty>
-0

> <r_epik_Charging_Adjusted_Penalty>
0

> <i_epik_Tot_Q>
0

> <i_epik_Tot_abs_Q>
0

> <r_epik_Metal_State_Penalty>
-0

> <b_epik_Metal_Only>
0

> <s_lp_Force_Field>
OPLS_2005

> <r_lp_Energy>
5.71646

> <b_lp_Chiralities_Consistent>
1

> <s_lp_Variant>
AV-unprocessed.smi:1346-1

> <Gold.Version>
5.8.1

> <Gold.Id.Protein>
6NUR|6NUR_protein|mol2

> <Gold.PLP.Fitness>
45.0267

> <Gold.PLP.PLP>
-43.7361

> <Gold.PLP.part.hbond>
-1.0000

> <Gold.PLP.part.metal>
0.0000

> <Gold.PLP.part.buried>
-4.5940

> <Gold.PLP.part.nonpolar>
-37.5512

> <Gold.PLP.part.repulsive>
0.1545

> <Gold.PLP.ligand.clash>
0.0000

> <Gold.PLP.ligand.torsion>
0.9065

> <Gold.PLP.Chemscore.Hbond>
1.0000

> <Gold.PLP.Chemscore.CHOScore>
0.0000

> <Gold.PLP.Chemscore.Metal>
0.0000

> <Gold.Chemscore.Hbonds>
donor molecule, donor type, donor heavy atom, donor atom, acceptor molecule, acceptor atom, score
      P1  H  6896  6909       L1    10  1.00

> <Gold.PLP.Chemscore.Internal.Correction>
0.1036

> <Gold.Rescore>
     Score         DG    S(hbond)    S(metal)    S(lipo)     H(rot)  DE(clash)    DE(int)     intcor
     18.12     -18.93       1.00        0.00     124.40       1.74       0.01       0.80       ----

> <Gold.Chemscore.Fitness>
18.1210

> <Gold.Chemscore.DG>
-18.9306

> <Gold.Chemscore.ZeroCoef>
-5.4800

> <Gold.Chemscore.Hbond>
0.9994

> <Gold.Chemscore.Metal>
0.0000

> <Gold.Chemscore.Lipo>
124.3972

> <Gold.Chemscore.Internal_Hbond>
0.0000

> <Gold.Chemscore.DEClash>
0.0141

> <Gold.Chemscore.DEInternal>
0.7956

> <Gold.Chemscore.Rot>
1.7352

> <Gold.Chemscore.Internal.Correction>
   9.000000E+99

> <Gold.Chemscore.Hbonds>
donor molecule, donor type, donor heavy atom, donor atom, acceptor molecule, acceptor atom, score
      P1  H  6896  6909       L1    10  1.00

> <Gold.Chemscore.Hbond.Weighted>
-3.3381

> <Gold.Chemscore.Metal.Weighted>
-0.0000

> <Gold.Chemscore.Lipo.Weighted>
-14.5545

> <Gold.Chemscore.Internal_Hbond.Weighted>
0.0000

> <Gold.Chemscore.DEClash.Weighted>
0.0141

> <Gold.Chemscore.DEInternal.Weighted>
0.7956

> <Gold.Chemscore.Rot.Weighted>
4.4420

> <Gold.Chemscore.Internal.Correction.Weighted>
   9.000000E+99

> <Gold.Protein.RotatedTorsions>
[ 6907 6896 6895 6894 ] final   66.51 input  -60.11 | X-H torsion
[ 7974 7965 7964 7962 ] final  124.72 input  175.53 | X-H torsion
[ 8008 7997 7996 7995 ] final   14.18 input   59.86 | X-H torsion
[ 10167 10162 10161 10158 ] final -119.97 input  -65.29 | X-H torsion
[ 10718 10713 10712 10709 ] final  -34.40 input   66.30 | X-H torsion
[ 10763 10752 10751 10750 ] final -172.52 input  -60.55 | X-H torsion
[ 11005 11000 10999 10996 ] final -148.63 input  -57.11 | X-H torsion

> <Gold.Protein.ActiveResidues>
 VAL166  LYS551  ARG553  GLY616  TRP617  ASP618  TYR619  PRO620  LYS621  CYS622 
 ASP623  PHE694  ASN695  SER759  ASP760  ASP761  ALA762  ILE779  LEU786  VAL792 
 PHE793  MET794  SER795  GLU796  ALA797  LYS798  CYS799  TRP800  GLU811  SER814 

> <Gold.Protein.RotatedAtoms>
  152.4486  134.5442  159.9847 H   0  0  0  0  0  0  0  0  0  0  0  0  # atno 6907 bound_to 6896
  151.5520  133.3410  159.2963 H   0  0  0  0  0  0  0  0  0  0  0  0  # atno 6908 bound_to 6896
  150.8409  134.7732  159.6994 H   0  0  0  0  0  0  0  0  0  0  0  0  # atno 6909 bound_to 6896
  145.0811  139.3656  143.4908 H   0  0  0  0  0  0  0  0  0  0  0  0  # atno 7974 bound_to 7965
  154.8449  140.2920  155.5636 H   0  0  0  0  0  0  0  0  0  0  0  0  # atno 8008 bound_to 7997
  156.3013  140.2507  156.3329 H   0  0  0  0  0  0  0  0  0  0  0  0  # atno 8009 bound_to 7997
  154.9085  140.0389  157.1922 H   0  0  0  0  0  0  0  0  0  0  0  0  # atno 8010 bound_to 7997
  140.0409  143.5154  152.2130 H   0  0  0  0  0  0  0  0  0  0  0  0  # atno 10167 bound_to 10162
  156.3511  130.4308  149.7704 H   0  0  0  0  0  0  0  0  0  0  0  0  # atno 10718 bound_to 10713
  154.6184  135.2872  155.0354 H   0  0  0  0  0  0  0  0  0  0  0  0  # atno 10763 bound_to 10752
  154.1558  135.6496  153.4978 H   0  0  0  0  0  0  0  0  0  0  0  0  # atno 10764 bound_to 10752
  153.0225  135.5366  154.6964 H   0  0  0  0  0  0  0  0  0  0  0  0  # atno 10765 bound_to 10752
  140.7592  134.3317  157.5106 H   0  0  0  0  0  0  0  0  0  0  0  0  # atno 11005 bound_to 11000
  146.3531  140.0602  142.8630 LP  0  0  0  0  0  0  0  0  0  0  0  0  # atno 17320 bound_to 7965
  145.1177  140.9443  143.4619 LP  0  0  0  0  0  0  0  0  0  0  0  0  # atno 17321 bound_to 7965
  139.6014  144.7583  151.3162 LP  0  0  0  0  0  0  0  0  0  0  0  0  # atno 17342 bound_to 10162
  140.7260  143.7001  150.7852 LP  0  0  0  0  0  0  0  0  0  0  0  0  # atno 17343 bound_to 10162
  156.4904  130.8082  151.3092 LP  0  0  0  0  0  0  0  0  0  0  0  0  # atno 17370 bound_to 10713
  157.7461  130.9977  150.2826 LP  0  0  0  0  0  0  0  0  0  0  0  0  # atno 17371 bound_to 10713
  139.8773  134.9191  156.3220 LP  0  0  0  0  0  0  0  0  0  0  0  0  # atno 17394 bound_to 11000
  140.9679  133.7346  156.0492 LP  0  0  0  0  0  0  0  0  0  0  0  0  # atno 17395 bound_to 11000

$$$$
