#       Name:                AV-unprocessed.smi:3045
#       Creating user name   scv26
#       Creation time:       Fri Mar 27 16:59:14 2020


#       File generated by GOLD software.
#

@<TRIPOS>MOLECULE
AV-unprocessed.smi:3045
    40    41     1
SMALL
NO_CHARGES


@<TRIPOS>ATOM
      1 ****        -5.1382   0.1063  -1.8050 C.3            1 S1                 0.0000
      2 ****        -4.3086   0.4786  -0.6672 N.am           1 S1                 0.0000
      3 ****        -3.3713  -0.4638  -0.0813 C.3            1 S1                 0.0000
      4 ****        -2.5696   0.3435   0.9633 C.3            1 S1                 0.0000
      5 ****        -1.1050   0.5451   0.5434 C.2            1 S1                 0.0000
      6 ****        -0.8337   1.1537  -0.4926 O.2            1 S1                 0.0000
      7 ****        -0.1707   0.0261   1.3551 N.am           1 S1                 0.0000
      8 ****         1.2680   0.1206   1.1389 C.3            1 S1                 0.0000
      9 ****         1.7506  -0.8668   0.0626 C.3            1 S1                 0.0000
     10 ****         3.2449  -0.7680  -0.1740 C.ar           1 S1                 0.0000
     11 ****         3.7751   0.2685  -0.9740 C.ar           1 S1                 0.0000
     12 ****         5.1691   0.3429  -1.1758 C.ar           1 S1                 0.0000
     13 ****         6.0017  -0.6228  -0.5740 C.ar           1 S1                 0.0000
     14 ****         5.4584  -1.6007   0.1839 N.pl3          1 S1                 1.0000
     15 ****         4.1290  -1.7057   0.4023 C.ar           1 S1                 0.0000
     16 ****        -3.3153   1.6881   1.0927 C.3            1 S1                 0.0000
     17 ****        -4.3319   1.6558  -0.0364 C.2            1 S1                 0.0000
     18 ****        -5.0575   2.6105  -0.3098 O.2            1 S1                 0.0000
     19 ****        -6.1957   0.1774  -1.5483 H              1 S1                 0.0000
     20 ****        -4.9351  -0.9171  -2.1216 H              1 S1                 0.0000
     21 ****        -4.9442   0.7671  -2.6506 H              1 S1                 0.0000
     22 ****        -3.9244  -1.2737   0.3964 H              1 S1                 0.0000
     23 ****        -2.7416  -0.9065  -0.8550 H              1 S1                 0.0000
     24 ****        -2.5946  -0.1797   1.9210 H              1 S1                 0.0000
     25 ****        -0.4791  -0.4581   2.1863 H              1 S1                 0.0000
     26 ****         1.5316   1.1444   0.8676 H              1 S1                 0.0000
     27 ****         1.7676  -0.0884   2.0852 H              1 S1                 0.0000
     28 ****         1.4968  -1.8878   0.3510 H              1 S1                 0.0000
     29 ****         1.2400  -0.6801  -0.8830 H              1 S1                 0.0000
     30 ****         3.1212   1.0008  -1.4255 H              1 S1                 0.0000
     31 ****         5.5928   1.1298  -1.7828 H              1 S1                 0.0000
     32 ****         7.0772  -0.6420  -0.6745 H              1 S1                 0.0000
     33 ****         3.8169  -2.5298   1.0274 H              1 S1                 0.0000
     34 ****        -3.8362   1.7593   2.0479 H              1 S1                 0.0000
     35 ****        -2.6681   2.5616   0.9970 H              1 S1                 0.0000
     36 ****         6.0789  -2.2897   0.6101 H              1 S1                 0.0000
     37 ****        -1.5679   1.5192  -1.0647 LP             1 S1                 0.0000
     38 ****         0.1208   1.2823  -0.7616 LP             1 S1                 0.0000
     39 ****        -5.7065   2.5443  -1.0677 LP             1 S1                 0.0000
     40 ****        -4.9984   3.4529   0.2257 LP             1 S1                 0.0000
@<TRIPOS>BOND
    1    1    2 1     
    2    1   19 1     
    3    1   20 1     
    4    1   21 1     
    5    2   17 am    
    6    2    3 1     
    7    3    4 1     
    8    3   22 1     
    9    3   23 1     
   10    4    5 1     
   11    4   16 1     
   12    4   24 1     
   13    5    6 2     
   14    5    7 am    
   15    7    8 1     
   16    7   25 1     
   17    8    9 1     
   18    8   26 1     
   19    8   27 1     
   20    9   10 1     
   21    9   28 1     
   22    9   29 1     
   23   10   15 ar    
   24   10   11 ar    
   25   11   12 ar    
   26   11   30 1     
   27   12   13 ar    
   28   12   31 1     
   29   13   14 ar    
   30   13   32 1     
   31   14   15 ar    
   32   14   36 1     
   33   15   33 1     
   34   16   17 1     
   35   16   34 1     
   36   16   35 1     
   37   17   18 2     
   38    6   37 1     
   39    6   38 1     
   40   18   39 1     
   41   18   40 1     
@<TRIPOS>SUBSTRUCTURE
      1 S1             1
@<TRIPOS>SET
LONE_PAIRS      STATIC     ATOMS    <user>   **** ""
4 37 38 39 40
DONOR_HYDROGENS      STATIC     ATOMS    <user>   **** ""
2 25 36
ATOM$BLUE        STATIC     ATOMS    COLORGROUP SYSTEM
4 37 38 39 40
ATOM$RED        STATIC     ATOMS    COLORGROUP SYSTEM
2 25 36
