AV-unprocessed.smi:1956|AV-procd|sdf|7903|dock4
  -GOLD-   2272010 63D 1   1.00000     0.00000
 Structure written by MMmdl.
 46 47  0  0  0  0  0  0  0  0  2 V2000
  152.3273  141.1949  158.6227 C   0  0  0  0  0  0  0  0  0  0  0  0
  152.8515  140.2246  157.7229 O   0  0  0  0  0  0  0  0  0  0  0  0
  152.0500  139.7910  156.6867 C   0  0  0  0  0  0  0  0  0  0  0  0
  152.5475  138.7983  155.8195 C   0  0  0  0  0  0  0  0  0  0  0  0
  151.7370  138.3518  154.7584 C   0  0  0  0  0  0  0  0  0  0  0  0
  150.4517  138.9209  154.5918 C   0  0  0  0  0  0  0  0  0  0  0  0
  149.5352  138.5439  153.5726 N   0  0  0  0  0  0  0  0  0  0  0  0
  148.3646  139.1189  153.2475 C   0  0  0  0  0  0  0  0  0  0  0  0
  147.8582  140.0811  153.8245 O   0  0  0  0  0  0  0  0  0  0  0  0
  147.7839  138.4960  152.2117 N   0  0  0  0  0  0  0  0  0  0  0  0
  146.5070  138.8815  151.6212 C   0  0  0  0  0  0  0  0  0  0  0  0
  145.8479  137.7014  150.8803 C   0  0  0  0  0  0  0  0  0  0  0  0
  146.1235  136.3936  151.5276 N   0  3  2  0  0  0  0  0  0  0  0  0
  145.4664  135.2691  150.8117 C   0  0  0  0  0  0  0  0  0  0  0  0
  145.8776  133.9143  151.4084 C   0  0  0  0  0  0  0  0  0  0  0  0
  145.5658  133.8586  152.9086 C   0  0  0  0  0  0  0  0  0  0  0  0
  146.2286  135.0415  153.6340 C   0  0  2  0  0  0  0  0  0  0  0  0
  145.9118  135.0255  155.1362 C   0  0  0  0  0  0  0  0  0  0  0  0
  145.8075  136.3743  152.9816 C   0  0  0  0  0  0  0  0  0  0  0  0
  150.0422  139.8974  155.5234 C   0  0  0  0  0  0  0  0  0  0  0  0
  150.8143  140.3305  156.5423 N   0  0  0  0  0  0  0  0  0  0  0  0
  153.0799  141.4331  159.3741 H   0  0  0  0  0  0  0  0  0  0  0  0
  151.4460  140.8205  159.1453 H   0  0  0  0  0  0  0  0  0  0  0  0
  152.0716  142.1211  158.1062 H   0  0  0  0  0  0  0  0  0  0  0  0
  153.5331  138.3820  155.9679 H   0  0  0  0  0  0  0  0  0  0  0  0
  152.1117  137.5772  154.1075 H   0  0  0  0  0  0  0  0  0  0  0  0
  149.7777  137.7070  153.0627 H   0  0  0  0  0  0  0  0  0  0  0  0
  148.2631  137.7097  151.7970 H   0  0  0  0  0  0  0  0  0  0  0  0
  145.8408  139.2686  152.3942 H   0  0  0  0  0  0  0  0  0  0  0  0
  146.7048  139.7078  150.9396 H   0  0  0  0  0  0  0  0  0  0  0  0
  144.7708  137.8519  150.7929 H   0  0  0  0  0  0  0  0  0  0  0  0
  146.2377  137.6758  149.8616 H   0  0  0  0  0  0  0  0  0  0  0  0
  144.3829  135.3892  150.8599 H   0  0  0  0  0  0  0  0  0  0  0  0
  145.7420  135.2900  149.7565 H   0  0  0  0  0  0  0  0  0  0  0  0
  145.3587  133.1068  150.8908 H   0  0  0  0  0  0  0  0  0  0  0  0
  146.9441  133.7503  151.2478 H   0  0  0  0  0  0  0  0  0  0  0  0
  144.4857  133.8853  153.0598 H   0  0  0  0  0  0  0  0  0  0  0  0
  145.9161  132.9134  153.3248 H   0  0  0  0  0  0  0  0  0  0  0  0
  147.3098  134.9412  153.5258 H   0  0  0  0  0  0  0  0  0  0  0  0
  144.8406  135.1206  155.3169 H   0  0  0  0  0  0  0  0  0  0  0  0
  146.4108  135.8463  155.6521 H   0  0  0  0  0  0  0  0  0  0  0  0
  146.2457  134.0957  155.5978 H   0  0  0  0  0  0  0  0  0  0  0  0
  146.3238  137.1892  153.4872 H   0  0  0  0  0  0  0  0  0  0  0  0
  144.7385  136.5433  153.1237 H   0  0  0  0  0  0  0  0  0  0  0  0
  149.0651  140.3521  155.4467 H   0  0  0  0  0  0  0  0  0  0  0  0
  147.1177  136.2375  151.4398 H   0  0  0  0  0  0  0  0  0  0  0  0
  1  2  1  0  0  0  0
  1 22  1  0  0  0  0
  1 23  1  0  0  0  0
  1 24  1  0  0  0  0
  2  3  1  0  0  0  0
  3 21  1  0  0  0  0
  3  4  2  0  0  0  0
  4  5  1  0  0  0  0
  4 25  1  0  0  0  0
  5  6  2  0  0  0  0
  5 26  1  0  0  0  0
  6  7  1  0  0  0  0
  6 20  1  0  0  0  0
  7  8  1  0  0  0  0
  7 27  1  0  0  0  0
  8  9  2  0  0  0  0
  8 10  1  0  0  0  0
 10 11  1  0  0  0  0
 10 28  1  0  0  0  0
 11 12  1  0  0  0  0
 11 29  1  0  0  0  0
 11 30  1  0  0  0  0
 12 13  1  0  0  0  0
 12 31  1  0  0  0  0
 12 32  1  0  0  0  0
 13 19  1  0  0  0  0
 13 14  1  0  0  0  0
 13 46  1  0  0  0  0
 14 15  1  0  0  0  0
 14 33  1  0  0  0  0
 14 34  1  0  0  0  0
 15 16  1  0  0  0  0
 15 35  1  0  0  0  0
 15 36  1  0  0  0  0
 16 17  1  0  0  0  0
 16 37  1  0  0  0  0
 16 38  1  0  0  0  0
 17 18  1  0  0  0  0
 17 19  1  0  0  0  0
 17 39  1  0  0  0  0
 18 40  1  0  0  0  0
 18 41  1  0  0  0  0
 18 42  1  0  0  0  0
 19 43  1  0  0  0  0
 19 44  1  0  0  0  0
 20 21  2  0  0  0  0
 20 45  1  0  0  0  0
M  CHG  1  13   1
M  END
> <s_m_source_file>
AV-unprocessed.smi

> <i_m_source_file_index>
1956

> <i_lp_mmshare_version>
43012

> <i_f3d_flags>
0

> <s_epik_input>
W0NIM11PYzFbY0hdW2NIXWMoW2NIXW4xKVtOSF1DKD1PKVtOSF1bQ0gyXVtDSDJdTjJbQ0gyXVtDSDJdW0NIMl1bQ0BASF0oW0NIM10pW0NIMl0y

> <s_epik_cmdline>
J2VwaWtfcHl0aG9uJywgJy1waCcsICc3LjAnLCAnLXRuJywgJzgnLCAnLW1hJywgJzIwMCcsICctbWV0YWxfYmluZGluZycsICctaW1hZScsICc8aW5maWxlLm1hZT4nLCAnLW9tYWUnLCAnPG91dGZpbGUubWFlPic=

> <r_lp_tautomer_probability>
1

> <r_epik_Ionization_Penalty>
0.00179545

> <r_epik_Ionization_Penalty_Charging>
0.00171832

> <r_epik_Ionization_Penalty_Neutral>
7.7124e-05

> <r_epik_State_Penalty>
0.0011618

> <r_epik_Charging_Adjusted_Penalty>
0.00288012

> <i_epik_Tot_Q>
1

> <i_epik_Tot_abs_Q>
1

> <r_epik_Metal_State_Penalty>
-0

> <b_epik_Metal_Only>
0

> <s_lp_Force_Field>
OPLS_2005

> <r_lp_Energy>
19.732

> <b_lp_Chiralities_Consistent>
1

> <s_lp_Variant>
AV-unprocessed.smi:1956-4

> <Gold.Version>
5.8.1

> <Gold.Id.Protein>
6NUR|6NUR_protein|mol2

> <Gold.PLP.Fitness>
45.2894

> <Gold.PLP.PLP>
-31.4295

> <Gold.PLP.part.hbond>
-6.0000

> <Gold.PLP.part.metal>
0.0000

> <Gold.PLP.part.buried>
6.2929

> <Gold.PLP.part.nonpolar>
-32.8288

> <Gold.PLP.part.repulsive>
0.4007

> <Gold.PLP.ligand.clash>
0.0000

> <Gold.PLP.ligand.torsion>
0.3540

> <Gold.PLP.Chemscore.Hbond>
4.8400

> <Gold.PLP.Chemscore.CHOScore>
0.0000

> <Gold.PLP.Chemscore.Metal>
0.0000

> <Gold.Chemscore.Hbonds>
donor molecule, donor type, donor heavy atom, donor atom, acceptor molecule, acceptor atom, score
      L1  H     7    27       P1  7948  0.86
      L1  H    10    28       P1  7948  1.00
      L1  H    13    46       P1  7948  2.00
      P1  H  7997  8008       L1     2  0.96

> <Gold.PLP.Chemscore.Internal.Correction>
0.0479

> <Gold.Rescore>
     Score         DG    S(hbond)    S(metal)    S(lipo)     H(rot)  DE(clash)    DE(int)     intcor
     15.48     -21.02       3.11        0.00      81.46       1.71       3.78       1.76       ----

> <Gold.Chemscore.Fitness>
15.4807

> <Gold.Chemscore.DG>
-21.0236

> <Gold.Chemscore.ZeroCoef>
-5.4800

> <Gold.Chemscore.Hbond>
3.1113

> <Gold.Chemscore.Metal>
0.0000

> <Gold.Chemscore.Lipo>
81.4645

> <Gold.Chemscore.Internal_Hbond>
0.0000

> <Gold.Chemscore.DEClash>
3.7816

> <Gold.Chemscore.DEInternal>
1.7614

> <Gold.Chemscore.Rot>
1.7107

> <Gold.Chemscore.Internal.Correction>
   9.000000E+99

> <Gold.Chemscore.Hbonds>
donor molecule, donor type, donor heavy atom, donor atom, acceptor molecule, acceptor atom, score
      L1  H     7    27       P1  7948  0.44
      L1  H    10    28       P1  7948  0.96
      L1  H    13    46       P1  7948  1.00
      P1  H  7997  8008       L1     2  0.24

> <Gold.Chemscore.Hbond.Weighted>
-10.3917

> <Gold.Chemscore.Metal.Weighted>
-0.0000

> <Gold.Chemscore.Lipo.Weighted>
-9.5314

> <Gold.Chemscore.Internal_Hbond.Weighted>
0.0000

> <Gold.Chemscore.DEClash.Weighted>
3.7816

> <Gold.Chemscore.DEInternal.Weighted>
1.7614

> <Gold.Chemscore.Rot.Weighted>
4.3794

> <Gold.Chemscore.Internal.Correction.Weighted>
   9.000000E+99

> <Gold.Protein.RotatedTorsions>
[ 6907 6896 6895 6894 ] final  161.69 input  -60.11 | X-H torsion
[ 7974 7965 7964 7962 ] final  -77.05 input  175.53 | X-H torsion
[ 8008 7997 7996 7995 ] final  -78.34 input   59.86 | X-H torsion
[ 10167 10162 10161 10158 ] final -156.62 input  -65.29 | X-H torsion
[ 10718 10713 10712 10709 ] final   28.46 input   66.30 | X-H torsion
[ 10763 10752 10751 10750 ] final  111.03 input  -60.55 | X-H torsion
[ 11005 11000 10999 10996 ] final  -58.54 input  -57.11 | X-H torsion

> <Gold.Protein.ActiveResidues>
 VAL166  LYS551  ARG553  GLY616  TRP617  ASP618  TYR619  PRO620  LYS621  CYS622 
 ASP623  PHE694  ASN695  SER759  ASP760  ASP761  ALA762  ILE779  LEU786  VAL792 
 PHE793  MET794  SER795  GLU796  ALA797  LYS798  CYS799  TRP800  GLU811  SER814 

> <Gold.Protein.RotatedAtoms>
  151.9518  133.3668  159.4002 H   0  0  0  0  0  0  0  0  0  0  0  0  # atno 6907 bound_to 6896
  150.6979  134.4332  159.5267 H   0  0  0  0  0  0  0  0  0  0  0  0  # atno 6908 bound_to 6896
  152.2006  134.8591  160.0559 H   0  0  0  0  0  0  0  0  0  0  0  0  # atno 6909 bound_to 6896
  145.6048  140.9400  143.1221 H   0  0  0  0  0  0  0  0  0  0  0  0  # atno 7974 bound_to 7965
  154.5680  140.0696  156.8921 H   0  0  0  0  0  0  0  0  0  0  0  0  # atno 8008 bound_to 7997
  155.2687  140.3363  155.4249 H   0  0  0  0  0  0  0  0  0  0  0  0  # atno 8009 bound_to 7997
  156.2096  140.1754  156.7710 H   0  0  0  0  0  0  0  0  0  0  0  0  # atno 8010 bound_to 7997
  139.6835  143.9540  152.2349 H   0  0  0  0  0  0  0  0  0  0  0  0  # atno 10167 bound_to 10162
  157.2337  130.7036  149.6325 H   0  0  0  0  0  0  0  0  0  0  0  0  # atno 10718 bound_to 10713
  153.4575  135.3730  155.2319 H   0  0  0  0  0  0  0  0  0  0  0  0  # atno 10763 bound_to 10752
  154.8757  135.3900  154.3965 H   0  0  0  0  0  0  0  0  0  0  0  0  # atno 10764 bound_to 10752
  153.4533  135.7086  153.6159 H   0  0  0  0  0  0  0  0  0  0  0  0  # atno 10765 bound_to 10752
  141.1211  133.6613  156.4936 H   0  0  0  0  0  0  0  0  0  0  0  0  # atno 11005 bound_to 11000
  144.7295  139.7771  143.7352 LP  0  0  0  0  0  0  0  0  0  0  0  0  # atno 17320 bound_to 7965
  146.1549  139.4644  143.0025 LP  0  0  0  0  0  0  0  0  0  0  0  0  # atno 17321 bound_to 7965
  139.9337  144.6725  150.8337 LP  0  0  0  0  0  0  0  0  0  0  0  0  # atno 17342 bound_to 10162
  140.7660  143.3291  151.2449 LP  0  0  0  0  0  0  0  0  0  0  0  0  # atno 17343 bound_to 10162
  155.9674  130.4480  150.5603 LP  0  0  0  0  0  0  0  0  0  0  0  0  # atno 17370 bound_to 10713
  157.3451  131.0723  151.1757 LP  0  0  0  0  0  0  0  0  0  0  0  0  # atno 17371 bound_to 10713
  140.4503  134.6934  157.5036 LP  0  0  0  0  0  0  0  0  0  0  0  0  # atno 17394 bound_to 11000
  140.0170  134.6604  155.9295 LP  0  0  0  0  0  0  0  0  0  0  0  0  # atno 17395 bound_to 11000

$$$$
