#       Name:                AV-unprocessed.smi:1816
#       Creating user name   scv26
#       Creation time:       Fri Mar 27 09:03:09 2020


#       File generated by GOLD software.
#

@<TRIPOS>MOLECULE
AV-unprocessed.smi:1816
    39    40     1
SMALL
NO_CHARGES


@<TRIPOS>ATOM
      1 ****        -1.7986   1.5119  -0.0017 C.3            1 S1                 0.0000
      2 ****        -1.2598   0.1001   0.3241 C.3            1 S1                 0.0000
      3 ****         0.2840   0.0679   0.2336 C.3            1 S1                 0.0000
      4 ****         0.7571   0.4492  -1.0912 N.am           1 S1                 0.0000
      5 ****         2.0428   0.5654  -1.4466 C.2            1 S1                 0.0000
      6 ****         2.9302   0.3382  -0.6211 O.2            1 S1                 0.0000
      7 ****         2.2172   0.9384  -2.7340 N.pl3          1 S1                -1.0000
      8 ****         3.4570   1.0963  -3.2258 C.2            1 S1                 0.0000
      9 ****         4.0722   0.1662  -3.9652 N.2            1 S1                 0.0000
     10 ****         5.3524   0.5416  -4.3766 C.2            1 S1                 0.0000
     11 ****         5.7163   1.7909  -3.9488 C.2            1 S1                 0.0000
     12 ****         4.4551   2.5369  -3.0095 S.3            1 S1                 0.0000
     13 ****        -1.7158  -0.3544   1.6695 N.4            1 S1                 1.0000
     14 ****        -3.1718  -0.2715   1.9180 C.3            1 S1                 0.0000
     15 ****        -3.4270  -1.2113   3.0903 C.3            1 S1                 0.0000
     16 ****        -2.4654  -2.3627   2.8214 C.3            1 S1                 0.0000
     17 ****        -1.2999  -1.7291   2.0489 C.3            1 S1                 0.0000
     18 ****        -1.4625   1.8570  -0.9795 H              1 S1                 0.0000
     19 ****        -1.4639   2.2418   0.7360 H              1 S1                 0.0000
     20 ****        -2.8876   1.5392  -0.0296 H              1 S1                 0.0000
     21 ****        -1.6637  -0.5928  -0.4161 H              1 S1                 0.0000
     22 ****         0.7143   0.7413   0.9770 H              1 S1                 0.0000
     23 ****         0.6711  -0.9289   0.4471 H              1 S1                 0.0000
     24 ****         0.0600   0.6427  -1.7952 H              1 S1                 0.0000
     25 ****         5.9352  -0.1434  -4.9741 H              1 S1                 0.0000
     26 ****         6.6425   2.3156  -4.1279 H              1 S1                 0.0000
     27 ****        -3.4932   0.7474   2.1360 H              1 S1                 0.0000
     28 ****        -3.7164  -0.6228   1.0398 H              1 S1                 0.0000
     29 ****        -3.1629  -0.7172   4.0266 H              1 S1                 0.0000
     30 ****        -4.4667  -1.5328   3.1594 H              1 S1                 0.0000
     31 ****        -2.1424  -2.8575   3.7378 H              1 S1                 0.0000
     32 ****        -2.9552  -3.1107   2.1964 H              1 S1                 0.0000
     33 ****        -1.0693  -2.3379   1.1733 H              1 S1                 0.0000
     34 ****        -0.3998  -1.6747   2.6621 H              1 S1                 0.0000
     35 ****        -1.2871   0.2609   2.3462 H              1 S1                 0.0000
     36 ****         2.6888   0.0679   0.3109 LP             1 S1                 0.0000
     37 ****         3.8913   0.4241  -0.8837 LP             1 S1                 0.0000
     38 ****         1.4229   1.0968  -3.3205 LP             1 S1                 0.0000
     39 ****         3.6557  -0.7121  -4.2002 LP             1 S1                 0.0000
@<TRIPOS>BOND
    1    1    2 1     
    2    1   18 1     
    3    1   19 1     
    4    1   20 1     
    5    2    3 1     
    6    2   13 1     
    7    2   21 1     
    8    3    4 1     
    9    3   22 1     
   10    3   23 1     
   11    4    5 am    
   12    4   24 1     
   13    5    6 2     
   14    5    7 1     
   15    7    8 1     
   16    8   12 1     
   17    8    9 2     
   18    9   10 1     
   19   10   11 2     
   20   10   25 1     
   21   11   12 1     
   22   11   26 1     
   23   13   17 1     
   24   13   14 1     
   25   13   35 1     
   26   14   15 1     
   27   14   27 1     
   28   14   28 1     
   29   15   16 1     
   30   15   29 1     
   31   15   30 1     
   32   16   17 1     
   33   16   31 1     
   34   16   32 1     
   35   17   33 1     
   36   17   34 1     
   37    6   36 1     
   38    6   37 1     
   39    7   38 1     
   40    9   39 1     
@<TRIPOS>SUBSTRUCTURE
      1 S1             1
@<TRIPOS>SET
LONE_PAIRS      STATIC     ATOMS    <user>   **** ""
4 36 37 38 39
DONOR_HYDROGENS      STATIC     ATOMS    <user>   **** ""
2 24 35
ATOM$BLUE        STATIC     ATOMS    COLORGROUP SYSTEM
4 36 37 38 39
ATOM$RED        STATIC     ATOMS    COLORGROUP SYSTEM
2 24 35
