#       Name:                AV-unprocessed.smi:1872
#       Creating user name   scv26
#       Creation time:       Fri Mar 27 09:32:26 2020


#       File generated by GOLD software.
#

@<TRIPOS>MOLECULE
AV-unprocessed.smi:1872
    44    46     1
SMALL
NO_CHARGES


@<TRIPOS>ATOM
      1 ****        -1.4065   1.8637   3.0194 C.3            1 S1                 0.0000
      2 ****        -1.5686   2.3330   1.6126 C.2            1 S1                 0.0000
      3 ****        -2.0020   3.5644   1.2221 N.pl3          1 S1                 1.0000
      4 ****        -2.0268   3.6361  -0.1714 C.ar           1 S1                 0.0000
      5 ****        -2.3928   4.6740  -1.0229 C.ar           1 S1                 0.0000
      6 ****        -2.3005   4.4196  -2.4069 C.ar           1 S1                 0.0000
      7 ****        -1.8566   3.1739  -2.8961 C.ar           1 S1                 0.0000
      8 ****        -1.4882   2.1294  -2.0230 C.ar           1 S1                 0.0000
      9 ****        -1.5850   2.3873  -0.6554 C.ar           1 S1                 0.0000
     10 ****        -1.3149   1.6153   0.4816 N.pl3          1 S1                 0.0000
     11 ****        -0.8298   0.2341   0.3314 C.3            1 S1                 0.0000
     12 ****         0.7057   0.1239   0.4143 C.3            1 S1                 0.0000
     13 ****         1.3064   0.9093  -0.5972 O.3            1 S1                 0.0000
     14 ****         1.1554  -1.3274   0.3589 C.ar           1 S1                 0.0000
     15 ****         1.5072  -2.0023   1.5462 C.ar           1 S1                 0.0000
     16 ****         1.9132  -3.3498   1.5030 C.ar           1 S1                 0.0000
     17 ****         1.9798  -4.0408   0.2765 C.ar           1 S1                 0.0000
     18 ****         2.3698  -5.3605   0.3017 O.3            1 S1                 0.0000
     19 ****         3.0205  -5.8832  -0.7716 C.3            1 S1                 0.0000
     20 ****         3.8667  -6.8592  -0.3629 F              1 S1                 0.0000
     21 ****         2.1374  -6.4423  -1.6349 F              1 S1                 0.0000
     22 ****         1.6130  -3.3661  -0.9127 C.ar           1 S1                 0.0000
     23 ****         1.2060  -2.0188  -0.8704 C.ar           1 S1                 0.0000
     24 ****        -1.6847   2.6506   3.7207 H              1 S1                 0.0000
     25 ****        -0.3700   1.5826   3.2063 H              1 S1                 0.0000
     26 ****        -2.0412   0.9962   3.2016 H              1 S1                 0.0000
     27 ****        -2.7315   5.6297  -0.6502 H              1 S1                 0.0000
     28 ****        -2.5739   5.1957  -3.1071 H              1 S1                 0.0000
     29 ****        -1.7961   3.0159  -3.9631 H              1 S1                 0.0000
     30 ****        -1.1441   1.1821  -2.4104 H              1 S1                 0.0000
     31 ****        -1.2847  -0.3533   1.1299 H              1 S1                 0.0000
     32 ****        -1.2092  -0.1833  -0.6014 H              1 S1                 0.0000
     33 ****         1.0345   0.5440   1.3657 H              1 S1                 0.0000
     34 ****         2.2429   0.8947  -0.4696 H              1 S1                 0.0000
     35 ****         1.4643  -1.4909   2.4968 H              1 S1                 0.0000
     36 ****         2.1780  -3.8573   2.4192 H              1 S1                 0.0000
     37 ****         3.6098  -5.1284  -1.2930 H              1 S1                 0.0000
     38 ****         1.6321  -3.8734  -1.8657 H              1 S1                 0.0000
     39 ****         0.9267  -1.5196  -1.7868 H              1 S1                 0.0000
     40 ****        -2.2619   4.3018   1.8646 H              1 S1                 0.0000
     41 ****         0.9720   1.8499  -0.5377 LP             1 S1                 0.0000
     42 ****         1.0820   0.5321  -1.4957 LP             1 S1                 0.0000
     43 ****         1.5428  -5.9065   0.4356 LP             1 S1                 0.0000
     44 ****         2.9736  -5.4712   1.0911 LP             1 S1                 0.0000
@<TRIPOS>BOND
    1    1    2 1     
    2    1   24 1     
    3    1   25 1     
    4    1   26 1     
    5    2   10 1     
    6    2    3 2     
    7    3    4 1     
    8    3   40 1     
    9    4    9 ar    
   10    4    5 ar    
   11    5    6 ar    
   12    5   27 1     
   13    6    7 ar    
   14    6   28 1     
   15    7    8 ar    
   16    7   29 1     
   17    8    9 ar    
   18    8   30 1     
   19    9   10 1     
   20   10   11 1     
   21   11   12 1     
   22   11   31 1     
   23   11   32 1     
   24   12   13 1     
   25   12   14 1     
   26   12   33 1     
   27   13   34 1     
   28   14   23 ar    
   29   14   15 ar    
   30   15   16 ar    
   31   15   35 1     
   32   16   17 ar    
   33   16   36 1     
   34   17   18 1     
   35   17   22 ar    
   36   18   19 1     
   37   19   20 1     
   38   19   21 1     
   39   19   37 1     
   40   22   23 ar    
   41   22   38 1     
   42   23   39 1     
   43   13   41 1     
   44   13   42 1     
   45   18   43 1     
   46   18   44 1     
@<TRIPOS>SUBSTRUCTURE
      1 S1             1
@<TRIPOS>SET
LONE_PAIRS      STATIC     ATOMS    <user>   **** ""
4 41 42 43 44
DONOR_HYDROGENS      STATIC     ATOMS    <user>   **** ""
2 40 34
ATOM$BLUE        STATIC     ATOMS    COLORGROUP SYSTEM
4 41 42 43 44
ATOM$RED        STATIC     ATOMS    COLORGROUP SYSTEM
2 40 34
