AV-unprocessed.smi:1324|AV-procd|sdf|5471|dock10
  -GOLD-   22720 5 43D 1   1.00000     0.00000
 Structure written by MMmdl.
 42 43  0  0  0  0  0  0  0  0  2 V2000
  147.6320  135.9233  160.6368 C   0  0  0  0  0  0  0  0  0  0  0  0
  148.3448  136.5733  159.4704 C   0  0  0  0  0  0  0  0  0  0  0  0
  147.6568  137.0363  158.4973 N   0  0  0  0  0  0  0  0  0  0  0  0
  148.3132  137.6445  157.4140 C   0  0  0  0  0  0  0  0  0  0  0  0
  147.4175  138.1709  156.3064 C   0  0  0  0  0  0  0  0  0  0  0  0
  149.6728  137.7482  157.3809 C   0  0  0  0  0  0  0  0  0  0  0  0
  150.4362  138.4048  156.2300 C   0  0  0  0  0  0  0  0  0  0  0  0
  151.3713  139.5585  156.6026 C   0  0  0  0  0  0  0  0  0  0  0  0
  152.4960  139.6446  156.1087 O   0  0  0  0  0  0  0  0  0  0  0  0
  150.8840  140.4453  157.4845 N   0  0  0  0  0  0  0  0  0  0  0  0
  151.5901  141.6238  157.9837 C   0  0  0  0  0  0  0  0  0  0  0  0
  151.9051  141.4264  159.4849 C   0  0  0  0  0  0  0  0  0  0  0  0
  152.2952  142.6772  160.2932 C   0  0  0  0  0  0  0  0  0  0  0  0
  153.1303  143.7260  159.5425 C   0  0  0  0  0  0  0  0  0  0  0  0
  152.2605  144.7158  158.7499 C   0  0  0  0  0  0  0  0  0  0  0  0
  151.6400  144.1427  157.4675 C   0  0  0  0  0  0  0  0  0  0  0  0
  150.7680  142.8885  157.6606 C   0  0  0  0  0  0  0  0  0  0  0  0
  150.4294  137.1934  158.5174 C   0  0  0  0  0  0  0  0  0  0  0  0
  151.6589  137.2433  158.5285 O   0  0  0  0  0  0  0  0  0  0  0  0
  149.7189  136.6289  159.5353 N   0  5  0  0  0  0  0  0  0  0  0  0
  146.5904  135.7119  160.3917 H   0  0  0  0  0  0  0  0  0  0  0  0
  147.6544  136.5829  161.5045 H   0  0  0  0  0  0  0  0  0  0  0  0
  148.1153  134.9826  160.9038 H   0  0  0  0  0  0  0  0  0  0  0  0
  147.4889  139.2569  156.2428 H   0  0  0  0  0  0  0  0  0  0  0  0
  146.3732  137.9133  156.4874 H   0  0  0  0  0  0  0  0  0  0  0  0
  147.7040  137.7455  155.3444 H   0  0  0  0  0  0  0  0  0  0  0  0
  151.0349  137.6423  155.7320 H   0  0  0  0  0  0  0  0  0  0  0  0
  149.7412  138.7526  155.4648 H   0  0  0  0  0  0  0  0  0  0  0  0
  149.9506  140.2918  157.8379 H   0  0  0  0  0  0  0  0  0  0  0  0
  152.5331  141.6971  157.4386 H   0  0  0  0  0  0  0  0  0  0  0  0
  151.0512  140.9649  159.9834 H   0  0  0  0  0  0  0  0  0  0  0  0
  152.7134  140.6982  159.5651 H   0  0  0  0  0  0  0  0  0  0  0  0
  151.3944  143.1491  160.6873 H   0  0  0  0  0  0  0  0  0  0  0  0
  152.8500  142.3466  161.1722 H   0  0  0  0  0  0  0  0  0  0  0  0
  153.6913  144.2992  160.2817 H   0  0  0  0  0  0  0  0  0  0  0  0
  153.8769  143.2530  158.9034 H   0  0  0  0  0  0  0  0  0  0  0  0
  151.4746  145.1143  159.3925 H   0  0  0  0  0  0  0  0  0  0  0  0
  152.8756  145.5727  158.4736 H   0  0  0  0  0  0  0  0  0  0  0  0
  151.0284  144.9221  157.0116 H   0  0  0  0  0  0  0  0  0  0  0  0
  152.4286  143.9314  156.7442 H   0  0  0  0  0  0  0  0  0  0  0  0
  150.2312  142.7310  156.7238 H   0  0  0  0  0  0  0  0  0  0  0  0
  150.0004  143.0583  158.4165 H   0  0  0  0  0  0  0  0  0  0  0  0
  1  2  1  0  0  0  0
  1 21  1  0  0  0  0
  1 22  1  0  0  0  0
  1 23  1  0  0  0  0
  2 20  1  0  0  0  0
  2  3  2  0  0  0  0
  3  4  1  0  0  0  0
  4  5  1  0  0  0  0
  4  6  2  0  0  0  0
  5 24  1  0  0  0  0
  5 25  1  0  0  0  0
  5 26  1  0  0  0  0
  6  7  1  0  0  0  0
  6 18  1  0  0  0  0
  7  8  1  0  0  0  0
  7 27  1  0  0  0  0
  7 28  1  0  0  0  0
  8  9  2  0  0  0  0
  8 10  1  0  0  0  0
 10 11  1  0  0  0  0
 10 29  1  0  0  0  0
 11 17  1  0  0  0  0
 11 12  1  0  0  0  0
 11 30  1  0  0  0  0
 12 13  1  0  0  0  0
 12 31  1  0  0  0  0
 12 32  1  0  0  0  0
 13 14  1  0  0  0  0
 13 33  1  0  0  0  0
 13 34  1  0  0  0  0
 14 15  1  0  0  0  0
 14 35  1  0  0  0  0
 14 36  1  0  0  0  0
 15 16  1  0  0  0  0
 15 37  1  0  0  0  0
 15 38  1  0  0  0  0
 16 17  1  0  0  0  0
 16 39  1  0  0  0  0
 16 40  1  0  0  0  0
 17 41  1  0  0  0  0
 17 42  1  0  0  0  0
 18 19  2  0  0  0  0
 18 20  1  0  0  0  0
M  CHG  1  20  -1
M  END
> <s_m_source_file>
AV-unprocessed.smi

> <i_m_source_file_index>
1324

> <i_lp_mmshare_version>
43012

> <i_f3d_flags>
0

> <s_epik_input>
W0NIM11jMW5jKFtDSDNdKWMoYyg9TylbbkhdMSlbQ0gyXUMoPU8pW05IXVtDSF0yW0NIMl1bQ0gyXVtDSDJdW0NIMl1bQ0gyXVtDSDJdMg==

> <s_epik_cmdline>
J2VwaWtfcHl0aG9uJywgJy1waCcsICc3LjAnLCAnLXRuJywgJzgnLCAnLW1hJywgJzIwMCcsICctbWV0YWxfYmluZGluZycsICctaW1hZScsICc8aW5maWxlLm1hZT4nLCAnLW9tYWUnLCAnPG91dGZpbGUubWFlPic=

> <r_lp_tautomer_probability>
0.839158

> <r_epik_Ionization_Penalty>
6.62804

> <r_epik_Ionization_Penalty_Charging>
7.40585e-08

> <r_epik_Ionization_Penalty_Neutral>
6.62804

> <r_epik_State_Penalty>
4.44437

> <r_epik_Charging_Adjusted_Penalty>
4.44437

> <i_epik_Tot_Q>
-1

> <i_epik_Tot_abs_Q>
1

> <r_epik_Metal_State_Penalty>
0.804717

> <b_epik_Metal_Only>
1

> <s_lp_Force_Field>
OPLS_2005

> <r_lp_Energy>
20.4911

> <b_lp_Chiralities_Consistent>
1

> <s_lp_Variant>
AV-unprocessed.smi:1324-3

> <Gold.Version>
5.8.1

> <Gold.Id.Protein>
6NUR|6NUR_protein|mol2

> <Gold.PLP.Fitness>
42.5224

> <Gold.PLP.PLP>
-34.0386

> <Gold.PLP.part.hbond>
-2.0000

> <Gold.PLP.part.metal>
0.0000

> <Gold.PLP.part.buried>
-4.9626

> <Gold.PLP.part.nonpolar>
-27.2895

> <Gold.PLP.part.repulsive>
0.0484

> <Gold.PLP.ligand.clash>
0.0000

> <Gold.PLP.ligand.torsion>
0.2677

> <Gold.PLP.Chemscore.Hbond>
3.0000

> <Gold.PLP.Chemscore.CHOScore>
0.0000

> <Gold.PLP.Chemscore.Metal>
0.0000

> <Gold.Chemscore.Hbonds>
donor molecule, donor type, donor heavy atom, donor atom, acceptor molecule, acceptor atom, score
      P1  H  6896  6909       L1    20  1.55
      P1  H  7997  8010       L1     9  1.00

> <Gold.PLP.Chemscore.Internal.Correction>
0.0193

> <Gold.Rescore>
     Score         DG    S(hbond)    S(metal)    S(lipo)     H(rot)  DE(clash)    DE(int)     intcor
     18.51     -18.78       1.94        0.00      89.97       1.45       0.01       0.26       ----

> <Gold.Chemscore.Fitness>
18.5106

> <Gold.Chemscore.DG>
-18.7772

> <Gold.Chemscore.ZeroCoef>
-5.4800

> <Gold.Chemscore.Hbond>
1.9372

> <Gold.Chemscore.Metal>
0.0000

> <Gold.Chemscore.Lipo>
89.9687

> <Gold.Chemscore.Internal_Hbond>
0.0000

> <Gold.Chemscore.DEClash>
0.0093

> <Gold.Chemscore.DEInternal>
0.2573

> <Gold.Chemscore.Rot>
1.4450

> <Gold.Chemscore.Internal.Correction>
   9.000000E+99

> <Gold.Chemscore.Hbonds>
donor molecule, donor type, donor heavy atom, donor atom, acceptor molecule, acceptor atom, score
      P1  H  6896  6909       L1    20  0.15
      P1  H  7997  8010       L1     9  0.92

> <Gold.Chemscore.Hbond.Weighted>
-6.4701

> <Gold.Chemscore.Metal.Weighted>
-0.0000

> <Gold.Chemscore.Lipo.Weighted>
-10.5263

> <Gold.Chemscore.Internal_Hbond.Weighted>
0.0000

> <Gold.Chemscore.DEClash.Weighted>
0.0093

> <Gold.Chemscore.DEInternal.Weighted>
0.2573

> <Gold.Chemscore.Rot.Weighted>
3.6992

> <Gold.Chemscore.Internal.Correction.Weighted>
   9.000000E+99

> <Gold.Protein.RotatedTorsions>
[ 6907 6896 6895 6894 ] final   70.84 input  -60.11 | X-H torsion
[ 7974 7965 7964 7962 ] final  132.44 input  175.53 | X-H torsion
[ 8008 7997 7996 7995 ] final   99.41 input   59.86 | X-H torsion
[ 10167 10162 10161 10158 ] final  -90.01 input  -65.29 | X-H torsion
[ 10718 10713 10712 10709 ] final    3.97 input   66.30 | X-H torsion
[ 10763 10752 10751 10750 ] final   78.98 input  -60.55 | X-H torsion
[ 11005 11000 10999 10996 ] final   36.32 input  -57.11 | X-H torsion

> <Gold.Protein.ActiveResidues>
 VAL166  LYS551  ARG553  GLY616  TRP617  ASP618  TYR619  PRO620  LYS621  CYS622 
 ASP623  PHE694  ASN695  SER759  ASP760  ASP761  ALA762  ILE779  LEU786  VAL792 
 PHE793  MET794  SER795  GLU796  ALA797  LYS798  CYS799  TRP800  GLU811  SER814 

> <Gold.Protein.RotatedAtoms>
  152.4774  134.4808  159.9664 H   0  0  0  0  0  0  0  0  0  0  0  0  # atno 6907 bound_to 6896
  151.4821  133.3538  159.2848 H   0  0  0  0  0  0  0  0  0  0  0  0  # atno 6908 bound_to 6896
  150.8822  134.8241  159.7294 H   0  0  0  0  0  0  0  0  0  0  0  0  # atno 6909 bound_to 6896
  144.9968  139.4352  143.5312 H   0  0  0  0  0  0  0  0  0  0  0  0  # atno 7974 bound_to 7965
  156.1102  140.3229  155.8063 H   0  0  0  0  0  0  0  0  0  0  0  0  # atno 8008 bound_to 7997
  155.4685  140.0545  157.2999 H   0  0  0  0  0  0  0  0  0  0  0  0  # atno 8009 bound_to 7997
  154.4755  140.2030  155.9903 H   0  0  0  0  0  0  0  0  0  0  0  0  # atno 8010 bound_to 7997
  140.3592  143.2851  151.9635 H   0  0  0  0  0  0  0  0  0  0  0  0  # atno 10167 bound_to 10162
  156.8857  130.5669  149.5651 H   0  0  0  0  0  0  0  0  0  0  0  0  # atno 10718 bound_to 10713
  153.0916  135.4857  154.8701 H   0  0  0  0  0  0  0  0  0  0  0  0  # atno 10763 bound_to 10752
  154.7276  135.3053  154.8947 H   0  0  0  0  0  0  0  0  0  0  0  0  # atno 10764 bound_to 10752
  153.9592  135.6814  153.4798 H   0  0  0  0  0  0  0  0  0  0  0  0  # atno 10765 bound_to 10752
  140.2338  134.3496  155.7953 H   0  0  0  0  0  0  0  0  0  0  0  0  # atno 11005 bound_to 11000
  146.3443  139.9332  142.8751 LP  0  0  0  0  0  0  0  0  0  0  0  0  # atno 17320 bound_to 7965
  145.2209  140.9934  143.4046 LP  0  0  0  0  0  0  0  0  0  0  0  0  # atno 17321 bound_to 7965
  139.4816  144.6008  151.7609 LP  0  0  0  0  0  0  0  0  0  0  0  0  # atno 17342 bound_to 10162
  140.5144  144.0976  150.6004 LP  0  0  0  0  0  0  0  0  0  0  0  0  # atno 17343 bound_to 10162
  156.0655  130.5699  150.9279 LP  0  0  0  0  0  0  0  0  0  0  0  0  # atno 17370 bound_to 10713
  157.6114  131.0936  150.8788 LP  0  0  0  0  0  0  0  0  0  0  0  0  # atno 17371 bound_to 10713
  141.2216  133.7260  156.8774 LP  0  0  0  0  0  0  0  0  0  0  0  0  # atno 17394 bound_to 11000
  140.1723  134.9091  157.2849 LP  0  0  0  0  0  0  0  0  0  0  0  0  # atno 17395 bound_to 11000

$$$$
