AV-unprocessed.smi:1207|AV-procd|sdf|5059|dock6
  -GOLD-   22720 4 93D 1   1.00000     0.00000
 Structure written by MMmdl.
 53 55  0  0  0  0  0  0  0  0  3 V2000
  152.5592  144.6309  160.7978 C   0  0  0  0  0  0  0  0  0  0  0  0
  152.2571  143.4557  159.8835 C   0  0  0  0  0  0  0  0  0  0  0  0
  151.5066  143.6908  158.7093 C   0  0  0  0  0  0  0  0  0  0  0  0
  151.2467  142.5965  157.8932 C   0  0  0  0  0  0  0  0  0  0  0  0
  150.5522  142.4998  156.6853 N   0  3  0  0  0  0  0  0  0  0  0  0
  150.5642  141.2075  156.2559 C   0  0  0  0  0  0  0  0  0  0  0  0
  151.2452  140.4749  157.1794 N   0  0  0  0  0  0  0  0  0  0  0  0
  151.5561  139.0400  157.2058 C   0  0  0  0  0  0  0  0  0  0  0  0
  150.8388  138.2784  158.3395 C   0  0  2  0  0  0  0  0  0  0  0  0
  151.8128  137.9108  159.2943 O   0  0  0  0  0  0  0  0  0  0  0  0
  150.0963  137.0080  157.8697 C   0  0  0  0  0  0  0  0  0  0  0  0
  148.8364  136.7951  158.6262 N   0  3  2  0  0  0  0  0  0  0  0  0
  147.7813  137.7622  158.2438 C   0  0  0  0  0  0  0  0  0  0  0  0
  149.0430  136.7245  160.0961 C   0  0  0  0  0  0  0  0  0  0  0  0
  148.0074  135.8459  160.7472 C   0  0  0  0  0  0  0  0  0  0  0  0
  147.2652  136.0747  161.9430 C   0  0  0  0  0  0  0  0  0  0  0  0
  147.3117  137.2492  162.8781 C   0  0  0  0  0  0  0  0  0  0  0  0
  146.4410  135.0759  162.2087 N   0  0  0  0  0  0  0  0  0  0  0  0
  146.6230  134.1426  161.1839 O   0  0  0  0  0  0  0  0  0  0  0  0
  147.5609  134.6226  160.3295 C   0  0  0  0  0  0  0  0  0  0  0  0
  147.9053  133.7654  159.1582 C   0  0  0  0  0  0  0  0  0  0  0  0
  151.7028  141.3025  158.2107 C   0  0  0  0  0  0  0  0  0  0  0  0
  152.4494  141.0544  159.3599 C   0  0  0  0  0  0  0  0  0  0  0  0
  152.7232  142.1544  160.2040 C   0  0  0  0  0  0  0  0  0  0  0  0
  153.5310  141.9139  161.4680 C   0  0  0  0  0  0  0  0  0  0  0  0
  152.1368  145.5580  160.4092 H   0  0  0  0  0  0  0  0  0  0  0  0
  153.6358  144.7720  160.8963 H   0  0  0  0  0  0  0  0  0  0  0  0
  152.1388  144.4633  161.7899 H   0  0  0  0  0  0  0  0  0  0  0  0
  151.1525  144.6798  158.4572 H   0  0  0  0  0  0  0  0  0  0  0  0
  150.1132  140.8330  155.3480 H   0  0  0  0  0  0  0  0  0  0  0  0
  151.2709  138.6296  156.2360 H   0  0  0  0  0  0  0  0  0  0  0  0
  152.6390  138.9299  157.2843 H   0  0  0  0  0  0  0  0  0  0  0  0
  150.1439  138.9562  158.8329 H   0  0  0  0  0  0  0  0  0  0  0  0
  152.1544  138.6939  159.6996 H   0  0  0  0  0  0  0  0  0  0  0  0
  149.8599  137.0551  156.8060 H   0  0  0  0  0  0  0  0  0  0  0  0
  150.7624  136.1523  157.9923 H   0  0  0  0  0  0  0  0  0  0  0  0
  148.0655  138.7794  158.5164 H   0  0  0  0  0  0  0  0  0  0  0  0
  146.8367  137.5275  158.7341 H   0  0  0  0  0  0  0  0  0  0  0  0
  147.6015  137.7335  157.1687 H   0  0  0  0  0  0  0  0  0  0  0  0
  150.0352  136.3295  160.3131 H   0  0  0  0  0  0  0  0  0  0  0  0
  149.0430  137.7324  160.5130 H   0  0  0  0  0  0  0  0  0  0  0  0
  147.8722  138.0809  162.4526 H   0  0  0  0  0  0  0  0  0  0  0  0
  147.7870  136.9783  163.8211 H   0  0  0  0  0  0  0  0  0  0  0  0
  146.3086  137.6125  163.1036 H   0  0  0  0  0  0  0  0  0  0  0  0
  147.8656  134.3405  158.2332 H   0  0  0  0  0  0  0  0  0  0  0  0
  147.2116  132.9294  159.0640 H   0  0  0  0  0  0  0  0  0  0  0  0
  148.9114  133.3591  159.2608 H   0  0  0  0  0  0  0  0  0  0  0  0
  152.8094  140.0653  159.6017 H   0  0  0  0  0  0  0  0  0  0  0  0
  153.8285  140.8689  161.5594 H   0  0  0  0  0  0  0  0  0  0  0  0
  152.9454  142.1721  162.3508 H   0  0  0  0  0  0  0  0  0  0  0  0
  154.4382  142.5184  161.4647 H   0  0  0  0  0  0  0  0  0  0  0  0
  148.5006  135.8872  158.3368 H   0  0  0  0  0  0  0  0  0  0  0  0
  150.1102  143.2600  156.1839 H   0  0  0  0  0  0  0  0  0  0  0  0
  1  2  1  0  0  0  0
  1 26  1  0  0  0  0
  1 27  1  0  0  0  0
  1 28  1  0  0  0  0
  2 24  1  0  0  0  0
  2  3  2  0  0  0  0
  3  4  1  0  0  0  0
  3 29  1  0  0  0  0
  4 22  2  0  0  0  0
  4  5  1  0  0  0  0
  5  6  2  0  0  0  0
  5 53  1  0  0  0  0
  6  7  1  0  0  0  0
  6 30  1  0  0  0  0
  7  8  1  0  0  0  0
  7 22  1  0  0  0  0
  8  9  1  0  0  0  0
  8 31  1  0  0  0  0
  8 32  1  0  0  0  0
  9 10  1  0  0  0  0
  9 11  1  0  0  0  0
  9 33  1  0  0  0  0
 10 34  1  0  0  0  0
 11 12  1  0  0  0  0
 11 35  1  0  0  0  0
 11 36  1  0  0  0  0
 12 13  1  0  0  0  0
 12 14  1  0  0  0  0
 12 52  1  0  0  0  0
 13 37  1  0  0  0  0
 13 38  1  0  0  0  0
 13 39  1  0  0  0  0
 14 15  1  0  0  0  0
 14 40  1  0  0  0  0
 14 41  1  0  0  0  0
 15 20  2  0  0  0  0
 15 16  1  0  0  0  0
 16 17  1  0  0  0  0
 16 18  2  0  0  0  0
 17 42  1  0  0  0  0
 17 43  1  0  0  0  0
 17 44  1  0  0  0  0
 18 19  1  0  0  0  0
 19 20  1  0  0  0  0
 20 21  1  0  0  0  0
 21 45  1  0  0  0  0
 21 46  1  0  0  0  0
 21 47  1  0  0  0  0
 22 23  1  0  0  0  0
 23 24  2  0  0  0  0
 23 48  1  0  0  0  0
 24 25  1  0  0  0  0
 25 49  1  0  0  0  0
 25 50  1  0  0  0  0
 25 51  1  0  0  0  0
M  CHG  1   5   1
M  CHG  1  12   1
M  END
> <s_m_source_file>
AV-unprocessed.smi

> <i_m_source_file_index>
1207

> <i_lp_mmshare_version>
43012

> <i_f3d_flags>
0

> <s_epik_input>
W0NIM11jKFtjSF0xKWMoW0NIM10pW2NIXWMoYzEyKW4oW2NIXW4yKVtDSDJdW0NASF0oW09IXSlbQ0gyXU4oW0NIM10pW0NIMl1jM2MoW0NIM10pbm9jM1tDSDNd

> <s_epik_cmdline>
J2VwaWtfcHl0aG9uJywgJy1waCcsICc3LjAnLCAnLXRuJywgJzgnLCAnLW1hJywgJzIwMCcsICctbWV0YWxfYmluZGluZycsICctaW1hZScsICc8aW5maWxlLm1hZT4nLCAnLW9tYWUnLCAnPG91dGZpbGUubWFlPic=

> <r_epik_Ionization_Penalty>
1.77463

> <r_epik_Ionization_Penalty_Charging>
1.77463

> <r_epik_Ionization_Penalty_Neutral>
3.70885e-06

> <r_epik_State_Penalty>
1.85225

> <r_epik_Charging_Adjusted_Penalty>
3.62688

> <i_epik_Tot_Q>
2

> <i_epik_Tot_abs_Q>
2

> <r_epik_Metal_State_Penalty>
1.92674

> <b_epik_Metal_Only>
0

> <s_lp_Force_Field>
OPLS_2005

> <r_lp_Energy>
20.2471

> <b_lp_Chiralities_Consistent>
1

> <s_lp_Variant>
AV-unprocessed.smi:1207-11

> <Gold.Version>
5.8.1

> <Gold.Id.Protein>
6NUR|6NUR_protein|mol2

> <Gold.PLP.Fitness>
49.5585

> <Gold.PLP.PLP>
-46.9781

> <Gold.PLP.part.hbond>
-1.0000

> <Gold.PLP.part.metal>
0.0000

> <Gold.PLP.part.buried>
-5.7531

> <Gold.PLP.part.nonpolar>
-40.4966

> <Gold.PLP.part.repulsive>
0.2007

> <Gold.PLP.ligand.clash>
0.0000

> <Gold.PLP.ligand.torsion>
1.7714

> <Gold.PLP.Chemscore.Hbond>
2.0000

> <Gold.PLP.Chemscore.CHOScore>
0.0000

> <Gold.PLP.Chemscore.Metal>
0.0000

> <Gold.Chemscore.Hbonds>
donor molecule, donor type, donor heavy atom, donor atom, acceptor molecule, acceptor atom, score
      L1  H     5    53       P1  8028  2.00

> <Gold.PLP.Chemscore.Internal.Correction>
0.1231

> <Gold.Rescore>
     Score         DG    S(hbond)    S(metal)    S(lipo)     H(rot)  DE(clash)    DE(int)     intcor
     16.21     -17.71       1.00        0.00     131.53       2.54       0.02       1.48       ----

> <Gold.Chemscore.Fitness>
16.2081

> <Gold.Chemscore.DG>
-17.7071

> <Gold.Chemscore.ZeroCoef>
-5.4800

> <Gold.Chemscore.Hbond>
0.9965

> <Gold.Chemscore.Metal>
0.0000

> <Gold.Chemscore.Lipo>
131.5285

> <Gold.Chemscore.Internal_Hbond>
0.0000

> <Gold.Chemscore.DEClash>
0.0159

> <Gold.Chemscore.DEInternal>
1.4831

> <Gold.Chemscore.Rot>
2.5351

> <Gold.Chemscore.Internal.Correction>
   9.000000E+99

> <Gold.Chemscore.Hbonds>
donor molecule, donor type, donor heavy atom, donor atom, acceptor molecule, acceptor atom, score
      L1  H     5    53       P1  8028  0.98

> <Gold.Chemscore.Hbond.Weighted>
-3.3283

> <Gold.Chemscore.Metal.Weighted>
-0.0000

> <Gold.Chemscore.Lipo.Weighted>
-15.3888

> <Gold.Chemscore.Internal_Hbond.Weighted>
0.0000

> <Gold.Chemscore.DEClash.Weighted>
0.0159

> <Gold.Chemscore.DEInternal.Weighted>
1.4831

> <Gold.Chemscore.Rot.Weighted>
6.4900

> <Gold.Chemscore.Internal.Correction.Weighted>
   9.000000E+99

> <Gold.Protein.RotatedTorsions>
[ 6907 6896 6895 6894 ] final  129.24 input  -60.11 | X-H torsion
[ 7974 7965 7964 7962 ] final -114.55 input  175.53 | X-H torsion
[ 8008 7997 7996 7995 ] final -131.09 input   59.86 | X-H torsion
[ 10167 10162 10161 10158 ] final   11.46 input  -65.29 | X-H torsion
[ 10718 10713 10712 10709 ] final -161.00 input   66.30 | X-H torsion
[ 10763 10752 10751 10750 ] final  -26.05 input  -60.55 | X-H torsion
[ 11005 11000 10999 10996 ] final   81.15 input  -57.11 | X-H torsion

> <Gold.Protein.ActiveResidues>
 VAL166  LYS551  ARG553  GLY616  TRP617  ASP618  TYR619  PRO620  LYS621  CYS622 
 ASP623  PHE694  ASN695  SER759  ASP760  ASP761  ALA762  ILE779  LEU786  VAL792 
 PHE793  MET794  SER795  GLU796  ALA797  LYS798  CYS799  TRP800  GLU811  SER814 

> <Gold.Protein.RotatedAtoms>
  152.3643  133.6336  159.6038 H   0  0  0  0  0  0  0  0  0  0  0  0  # atno 6907 bound_to 6896
  150.7623  133.9374  159.3454 H   0  0  0  0  0  0  0  0  0  0  0  0  # atno 6908 bound_to 6896
  151.7207  135.0896  160.0335 H   0  0  0  0  0  0  0  0  0  0  0  0  # atno 6909 bound_to 6896
  145.1188  140.8657  143.3826 H   0  0  0  0  0  0  0  0  0  0  0  0  # atno 7974 bound_to 7965
  155.3065  140.0455  157.3032 H   0  0  0  0  0  0  0  0  0  0  0  0  # atno 8008 bound_to 7997
  154.5457  140.2301  155.8534 H   0  0  0  0  0  0  0  0  0  0  0  0  # atno 8009 bound_to 7997
  156.1921  140.3048  155.9361 H   0  0  0  0  0  0  0  0  0  0  0  0  # atno 8010 bound_to 7997
  140.6130  143.8367  150.7087 H   0  0  0  0  0  0  0  0  0  0  0  0  # atno 10167 bound_to 10162
  156.5901  130.8766  151.2887 H   0  0  0  0  0  0  0  0  0  0  0  0  # atno 10718 bound_to 10713
  153.7097  135.6951  153.5040 H   0  0  0  0  0  0  0  0  0  0  0  0  # atno 10763 bound_to 10752
  153.2281  135.4347  155.0564 H   0  0  0  0  0  0  0  0  0  0  0  0  # atno 10764 bound_to 10752
  154.8318  135.3477  154.6634 H   0  0  0  0  0  0  0  0  0  0  0  0  # atno 10765 bound_to 10752
  139.9108  134.7975  156.2004 H   0  0  0  0  0  0  0  0  0  0  0  0  # atno 11005 bound_to 11000
  145.0763  139.2993  143.5806 LP  0  0  0  0  0  0  0  0  0  0  0  0  # atno 17320 bound_to 7965
  146.3522  140.0255  142.8655 LP  0  0  0  0  0  0  0  0  0  0  0  0  # atno 17321 bound_to 7965
  140.1940  143.4013  152.1842 LP  0  0  0  0  0  0  0  0  0  0  0  0  # atno 17342 bound_to 10162
  139.5376  144.7225  151.4840 LP  0  0  0  0  0  0  0  0  0  0  0  0  # atno 17343 bound_to 10162
  157.7306  130.9687  150.1839 LP  0  0  0  0  0  0  0  0  0  0  0  0  # atno 17370 bound_to 10713
  156.2557  130.3705  149.8184 LP  0  0  0  0  0  0  0  0  0  0  0  0  # atno 17371 bound_to 10713
  141.0528  133.6880  156.1804 LP  0  0  0  0  0  0  0  0  0  0  0  0  # atno 17394 bound_to 11000
  140.6783  134.4794  157.5588 LP  0  0  0  0  0  0  0  0  0  0  0  0  # atno 17395 bound_to 11000

$$$$
