AV-unprocessed.smi:1244|AV-procd|sdf|5230|dock9
  -GOLD-   22720 4333D 1   1.00000     0.00000
 Structure written by MMmdl.
 55 57  0  0  0  0  0  0  0  0  2 V2000
  148.1509  139.1794  155.6569 C   0  0  0  0  0  0  0  0  0  0  0  0
  149.2536  138.5386  156.5177 C   0  0  1  0  0  0  0  0  0  0  0  0
  149.0626  137.0216  156.7139 C   0  0  0  0  0  0  0  0  0  0  0  0
  149.3570  136.2681  155.5022 N   0  0  0  0  0  0  0  0  0  0  0  0
  149.1221  134.8347  155.6842 C   0  0  0  0  0  0  0  0  0  0  0  0
  149.5681  133.9472  154.5023 C   0  0  0  0  0  0  0  0  0  0  0  0
  148.7602  134.1948  153.3130 N   0  0  0  0  0  0  0  0  0  0  0  0
  147.8900  133.3272  152.7809 C   0  0  0  0  0  0  0  0  0  0  0  0
  147.8057  132.1436  153.1088 O   0  0  0  0  0  0  0  0  0  0  0  0
  147.0945  133.9310  151.8863 N   0  0  0  0  0  0  0  0  0  0  0  0
  145.9060  133.3849  151.3421 C   0  0  0  0  0  0  0  0  0  0  0  0
  145.8398  131.9993  151.0577 C   0  0  0  0  0  0  0  0  0  0  0  0
  144.6586  131.4514  150.5238 C   0  0  0  0  0  0  0  0  0  0  0  0
  143.5656  132.3018  150.2833 C   0  0  0  0  0  0  0  0  0  0  0  0
  143.6666  133.6190  150.5605 N   0  3  0  0  0  0  0  0  0  0  0  0
  144.7776  134.2107  151.0668 C   0  0  0  0  0  0  0  0  0  0  0  0
  144.7344  135.6024  151.3232 N   0  0  0  0  0  0  0  0  0  0  0  0
  144.1317  136.0872  152.5600 C   0  0  0  0  0  0  0  0  0  0  0  0
  144.6498  137.5129  152.7451 C   0  0  0  0  0  0  0  0  0  0  0  0
  146.0228  137.4698  152.0863 C   0  0  0  0  0  0  0  0  0  0  0  0
  145.8345  136.4842  150.9315 C   0  0  0  0  0  0  0  0  0  0  0  0
  150.7150  136.5722  155.0671 C   0  0  0  0  0  0  0  0  0  0  0  0
  150.9033  138.0795  154.8157 C   0  0  2  0  0  0  0  0  0  0  0  0
  152.3499  138.4276  154.4495 C   0  0  0  0  0  0  0  0  0  0  0  0
  150.5558  138.8072  155.9932 O   0  0  0  0  0  0  0  0  0  0  0  0
  147.1748  139.0671  156.1293 H   0  0  0  0  0  0  0  0  0  0  0  0
  148.0870  138.7213  154.6705 H   0  0  0  0  0  0  0  0  0  0  0  0
  148.3322  140.2454  155.5200 H   0  0  0  0  0  0  0  0  0  0  0  0
  149.2121  139.0138  157.4982 H   0  0  0  0  0  0  0  0  0  0  0  0
  149.7137  136.6804  157.5206 H   0  0  0  0  0  0  0  0  0  0  0  0
  148.0404  136.8234  157.0394 H   0  0  0  0  0  0  0  0  0  0  0  0
  149.5988  134.4905  156.6031 H   0  0  0  0  0  0  0  0  0  0  0  0
  148.0526  134.6737  155.8283 H   0  0  0  0  0  0  0  0  0  0  0  0
  150.6095  134.1487  154.2517 H   0  0  0  0  0  0  0  0  0  0  0  0
  149.5196  132.8930  154.7795 H   0  0  0  0  0  0  0  0  0  0  0  0
  148.7649  135.1398  152.9581 H   0  0  0  0  0  0  0  0  0  0  0  0
  147.2141  134.9279  151.7845 H   0  0  0  0  0  0  0  0  0  0  0  0
  146.6868  131.3560  151.2475 H   0  0  0  0  0  0  0  0  0  0  0  0
  144.5927  130.3955  150.3054 H   0  0  0  0  0  0  0  0  0  0  0  0
  142.6191  131.9720  149.8802 H   0  0  0  0  0  0  0  0  0  0  0  0
  143.0433  136.0919  152.5158 H   0  0  0  0  0  0  0  0  0  0  0  0
  144.4428  135.4515  153.3904 H   0  0  0  0  0  0  0  0  0  0  0  0
  144.0073  138.2142  152.2107 H   0  0  0  0  0  0  0  0  0  0  0  0
  144.6861  137.8192  153.7910 H   0  0  0  0  0  0  0  0  0  0  0  0
  146.3687  138.4494  151.7553 H   0  0  0  0  0  0  0  0  0  0  0  0
  146.7546  137.0749  152.7924 H   0  0  0  0  0  0  0  0  0  0  0  0
  146.7732  135.9764  150.7134 H   0  0  0  0  0  0  0  0  0  0  0  0
  145.5354  137.0157  150.0280 H   0  0  0  0  0  0  0  0  0  0  0  0
  151.4287  136.2304  155.8186 H   0  0  0  0  0  0  0  0  0  0  0  0
  150.9462  136.0328  154.1487 H   0  0  0  0  0  0  0  0  0  0  0  0
  150.2576  138.3929  153.9946 H   0  0  0  0  0  0  0  0  0  0  0  0
  152.6626  137.9059  153.5447 H   0  0  0  0  0  0  0  0  0  0  0  0
  153.0369  138.1515  155.2502 H   0  0  0  0  0  0  0  0  0  0  0  0
  152.4595  139.4975  154.2706 H   0  0  0  0  0  0  0  0  0  0  0  0
  142.8543  134.2076  150.3748 H   0  0  0  0  0  0  0  0  0  0  0  0
  1  2  1  0  0  0  0
  1 26  1  0  0  0  0
  1 27  1  0  0  0  0
  1 28  1  0  0  0  0
  2 25  1  0  0  0  0
  2  3  1  0  0  0  0
  2 29  1  0  0  0  0
  3  4  1  0  0  0  0
  3 30  1  0  0  0  0
  3 31  1  0  0  0  0
  4  5  1  0  0  0  0
  4 22  1  0  0  0  0
  5  6  1  0  0  0  0
  5 32  1  0  0  0  0
  5 33  1  0  0  0  0
  6  7  1  0  0  0  0
  6 34  1  0  0  0  0
  6 35  1  0  0  0  0
  7  8  1  0  0  0  0
  7 36  1  0  0  0  0
  8  9  2  0  0  0  0
  8 10  1  0  0  0  0
 10 11  1  0  0  0  0
 10 37  1  0  0  0  0
 11 16  1  0  0  0  0
 11 12  2  0  0  0  0
 12 13  1  0  0  0  0
 12 38  1  0  0  0  0
 13 14  2  0  0  0  0
 13 39  1  0  0  0  0
 14 15  1  0  0  0  0
 14 40  1  0  0  0  0
 15 16  2  0  0  0  0
 15 55  1  0  0  0  0
 16 17  1  0  0  0  0
 17 21  1  0  0  0  0
 17 18  1  0  0  0  0
 18 19  1  0  0  0  0
 18 41  1  0  0  0  0
 18 42  1  0  0  0  0
 19 20  1  0  0  0  0
 19 43  1  0  0  0  0
 19 44  1  0  0  0  0
 20 21  1  0  0  0  0
 20 45  1  0  0  0  0
 20 46  1  0  0  0  0
 21 47  1  0  0  0  0
 21 48  1  0  0  0  0
 22 23  1  0  0  0  0
 22 49  1  0  0  0  0
 22 50  1  0  0  0  0
 23 24  1  0  0  0  0
 23 25  1  0  0  0  0
 23 51  1  0  0  0  0
 24 52  1  0  0  0  0
 24 53  1  0  0  0  0
 24 54  1  0  0  0  0
M  CHG  1  15   1
M  END
> <s_m_source_file>
AV-unprocessed.smi

> <i_m_source_file_index>
1244

> <i_lp_mmshare_version>
43012

> <i_f3d_flags>
0

> <s_epik_input>
W0NIM11bQ0BASF0xW0NIMl1OKFtDSDJdW0NASF0oTzEpW0NIM10pW0NIMl1bQ0gyXVtOSF1DKD1PKVtOSF1jMltjSF1bY0hdW2NIXW5jMk4zW0NIMl1bQ0gyXVtDSDJdW0NIMl0z

> <s_epik_cmdline>
J2VwaWtfcHl0aG9uJywgJy1waCcsICc3LjAnLCAnLXRuJywgJzgnLCAnLW1hJywgJzIwMCcsICctbWV0YWxfYmluZGluZycsICctaW1hZScsICc8aW5maWxlLm1hZT4nLCAnLW9tYWUnLCAnPG91dGZpbGUubWFlPic=

> <r_epik_Ionization_Penalty>
1.38385

> <r_epik_Ionization_Penalty_Charging>
1.11784

> <r_epik_Ionization_Penalty_Neutral>
0.26601

> <r_epik_State_Penalty>
1.46794

> <r_epik_Charging_Adjusted_Penalty>
2.58578

> <i_epik_Tot_Q>
1

> <i_epik_Tot_abs_Q>
1

> <r_epik_Metal_State_Penalty>
1.54908

> <b_epik_Metal_Only>
0

> <s_lp_Force_Field>
OPLS_2005

> <r_lp_Energy>
60.8331

> <b_lp_Chiralities_Consistent>
1

> <s_lp_Variant>
AV-unprocessed.smi:1244-10

> <Gold.Version>
5.8.1

> <Gold.Id.Protein>
6NUR|6NUR_protein|mol2

> <Gold.PLP.Fitness>
46.9957

> <Gold.PLP.PLP>
-38.6330

> <Gold.PLP.part.hbond>
-2.9868

> <Gold.PLP.part.metal>
0.0000

> <Gold.PLP.part.buried>
-1.4166

> <Gold.PLP.part.nonpolar>
-34.7550

> <Gold.PLP.part.repulsive>
0.2500

> <Gold.PLP.ligand.clash>
0.0000

> <Gold.PLP.ligand.torsion>
1.4797

> <Gold.PLP.Chemscore.Hbond>
3.4357

> <Gold.PLP.Chemscore.CHOScore>
0.0000

> <Gold.PLP.Chemscore.Metal>
0.0000

> <Gold.Chemscore.Hbonds>
donor molecule, donor type, donor heavy atom, donor atom, acceptor molecule, acceptor atom, score
      L1  H     7    36       P1  7948  0.98
      L1  H    10    37       P1  7948  0.48
      L1  H    15    55       P1 10186  1.98

> <Gold.PLP.Chemscore.Internal.Correction>
1.0151

> <Gold.Rescore>
     Score         DG    S(hbond)    S(metal)    S(lipo)     H(rot)  DE(clash)    DE(int)     intcor
     15.10     -18.38       1.56        0.00      96.52       1.40       0.38       2.90       ----

> <Gold.Chemscore.Fitness>
15.1007

> <Gold.Chemscore.DG>
-18.3806

> <Gold.Chemscore.ZeroCoef>
-5.4800

> <Gold.Chemscore.Hbond>
1.5562

> <Gold.Chemscore.Metal>
0.0000

> <Gold.Chemscore.Lipo>
96.5198

> <Gold.Chemscore.Internal_Hbond>
0.0000

> <Gold.Chemscore.DEClash>
0.3788

> <Gold.Chemscore.DEInternal>
2.9010

> <Gold.Chemscore.Rot>
1.4023

> <Gold.Chemscore.Internal.Correction>
   9.000000E+99

> <Gold.Chemscore.Hbonds>
donor molecule, donor type, donor heavy atom, donor atom, acceptor molecule, acceptor atom, score
      L1  H     7    36       P1  7948  0.40
      L1  H    10    37       P1  7948  0.42
      L1  H    15    55       P1 10186  0.75

> <Gold.Chemscore.Hbond.Weighted>
-5.1977

> <Gold.Chemscore.Metal.Weighted>
-0.0000

> <Gold.Chemscore.Lipo.Weighted>
-11.2928

> <Gold.Chemscore.Internal_Hbond.Weighted>
0.0000

> <Gold.Chemscore.DEClash.Weighted>
0.3788

> <Gold.Chemscore.DEInternal.Weighted>
2.9010

> <Gold.Chemscore.Rot.Weighted>
3.5899

> <Gold.Chemscore.Internal.Correction.Weighted>
   9.000000E+99

> <Gold.Protein.RotatedTorsions>
[ 6907 6896 6895 6894 ] final  -50.74 input  -60.11 | X-H torsion
[ 7974 7965 7964 7962 ] final  -81.48 input  175.53 | X-H torsion
[ 8008 7997 7996 7995 ] final -107.41 input   59.86 | X-H torsion
[ 10167 10162 10161 10158 ] final  -74.90 input  -65.29 | X-H torsion
[ 10718 10713 10712 10709 ] final  -88.00 input   66.30 | X-H torsion
[ 10763 10752 10751 10750 ] final  -36.42 input  -60.55 | X-H torsion
[ 11005 11000 10999 10996 ] final   39.20 input  -57.11 | X-H torsion

> <Gold.Protein.ActiveResidues>
 VAL166  LYS551  ARG553  GLY616  TRP617  ASP618  TYR619  PRO620  LYS621  CYS622 
 ASP623  PHE694  ASN695  SER759  ASP760  ASP761  ALA762  ILE779  LEU786  VAL792 
 PHE793  MET794  SER795  GLU796  ALA797  LYS798  CYS799  TRP800  GLU811  SER814 

> <Gold.Protein.RotatedAtoms>
  150.8678  134.8045  159.7131 H   0  0  0  0  0  0  0  0  0  0  0  0  # atno 6907 bound_to 6896
  152.4693  134.4995  159.9730 H   0  0  0  0  0  0  0  0  0  0  0  0  # atno 6908 bound_to 6896
  151.5089  133.3450  159.2917 H   0  0  0  0  0  0  0  0  0  0  0  0  # atno 6909 bound_to 6896
  145.5460  140.9503  143.1525 H   0  0  0  0  0  0  0  0  0  0  0  0  # atno 7974 bound_to 7965
  154.9290  140.0405  157.2038 H   0  0  0  0  0  0  0  0  0  0  0  0  # atno 8008 bound_to 7997
  154.8179  140.2879  155.5785 H   0  0  0  0  0  0  0  0  0  0  0  0  # atno 8009 bound_to 7997
  156.2977  140.2524  156.3081 H   0  0  0  0  0  0  0  0  0  0  0  0  # atno 8010 bound_to 7997
  140.4988  143.2365  151.7787 H   0  0  0  0  0  0  0  0  0  0  0  0  # atno 10167 bound_to 10162
  155.9984  130.4820  150.4952 H   0  0  0  0  0  0  0  0  0  0  0  0  # atno 10718 bound_to 10713
  153.8794  135.6823  153.4768 H   0  0  0  0  0  0  0  0  0  0  0  0  # atno 10763 bound_to 10752
  153.1242  135.4726  154.9243 H   0  0  0  0  0  0  0  0  0  0  0  0  # atno 10764 bound_to 10752
  154.7676  135.3229  154.8207 H   0  0  0  0  0  0  0  0  0  0  0  0  # atno 10765 bound_to 10752
  140.2052  134.3822  155.8076 H   0  0  0  0  0  0  0  0  0  0  0  0  # atno 11005 bound_to 11000
  144.7553  139.7090  143.7256 LP  0  0  0  0  0  0  0  0  0  0  0  0  # atno 17320 bound_to 7965
  146.1949  139.5209  142.9781 LP  0  0  0  0  0  0  0  0  0  0  0  0  # atno 17321 bound_to 7965
  139.4867  144.4550  151.9608 LP  0  0  0  0  0  0  0  0  0  0  0  0  # atno 17342 bound_to 10162
  140.3639  144.2939  150.5929 LP  0  0  0  0  0  0  0  0  0  0  0  0  # atno 17343 bound_to 10162
  157.2943  131.0632  151.2112 LP  0  0  0  0  0  0  0  0  0  0  0  0  # atno 17370 bound_to 10713
  157.3114  130.6892  149.6218 LP  0  0  0  0  0  0  0  0  0  0  0  0  # atno 17371 bound_to 10713
  141.2227  133.7114  156.8324 LP  0  0  0  0  0  0  0  0  0  0  0  0  # atno 17394 bound_to 11000
  140.2011  134.8896  157.3170 LP  0  0  0  0  0  0  0  0  0  0  0  0  # atno 17395 bound_to 11000

$$$$
