AV-unprocessed.smi:2154|AV-procd|sdf|8776|dock6
  -GOLD-   2272011553D 1   1.00000     0.00000
 Structure written by MMmdl.
 31 32  0  0  0  0  0  0  0  0  2 V2000
  153.0730  142.6983  159.9818 C   0  0  0  0  0  0  0  0  0  0  0  0
  153.0383  143.9031  159.0630 C   0  0  2  0  0  0  0  0  0  0  0  0
  152.2066  145.1143  159.4140 C   0  0  0  0  0  0  0  0  0  0  0  0
  151.8204  144.2555  158.2314 C   0  0  2  0  0  0  0  0  0  0  0  0
  150.5583  143.4098  158.2553 C   0  0  0  0  0  0  0  0  0  0  0  0
  150.2285  142.7643  156.9918 N   0  0  0  0  0  0  0  0  0  0  0  0
  150.6307  141.5376  156.6281 C   0  0  0  0  0  0  0  0  0  0  0  0
  151.3196  140.8125  157.3474 O   0  0  0  0  0  0  0  0  0  0  0  0
  150.1531  141.0519  155.2527 C   0  0  0  0  0  0  0  0  0  0  0  0
  150.4120  139.6209  155.0261 N   0  0  0  0  0  0  0  0  0  0  0  0
  149.3026  138.7624  154.9303 C   0  0  0  0  0  0  0  0  0  0  0  0
  149.4440  137.4387  154.7269 C   0  0  0  0  0  0  0  0  0  0  0  0
  150.7927  136.8992  154.6051 C   0  0  0  0  0  0  0  0  0  0  0  0
  150.9406  135.6936  154.4144 O   0  0  0  0  0  0  0  0  0  0  0  0
  151.8374  137.7722  154.7100 N   0  5  0  0  0  0  0  0  0  0  0  0
  151.6783  139.1160  154.9195 C   0  0  0  0  0  0  0  0  0  0  0  0
  152.6350  139.8859  155.0135 O   0  0  0  0  0  0  0  0  0  0  0  0
  152.1442  142.6022  160.5439 H   0  0  0  0  0  0  0  0  0  0  0  0
  153.8926  142.7976  160.6935 H   0  0  0  0  0  0  0  0  0  0  0  0
  153.2259  141.7886  159.4014 H   0  0  0  0  0  0  0  0  0  0  0  0
  153.9961  144.1036  158.5867 H   0  0  0  0  0  0  0  0  0  0  0  0
  151.5802  145.0607  160.3026 H   0  0  0  0  0  0  0  0  0  0  0  0
  152.6291  146.0948  159.2038 H   0  0  0  0  0  0  0  0  0  0  0  0
  152.0457  144.6614  157.2468 H   0  0  0  0  0  0  0  0  0  0  0  0
  150.6900  142.6247  159.0001 H   0  0  0  0  0  0  0  0  0  0  0  0
  149.7104  144.0102  158.5882 H   0  0  0  0  0  0  0  0  0  0  0  0
  149.6625  143.2901  156.3418 H   0  0  0  0  0  0  0  0  0  0  0  0
  149.0861  141.2629  155.1715 H   0  0  0  0  0  0  0  0  0  0  0  0
  150.6227  141.6462  154.4664 H   0  0  0  0  0  0  0  0  0  0  0  0
  148.3402  139.2407  155.0380 H   0  0  0  0  0  0  0  0  0  0  0  0
  148.5812  136.7925  154.6588 H   0  0  0  0  0  0  0  0  0  0  0  0
  1  2  1  0  0  0  0
  1 18  1  0  0  0  0
  1 19  1  0  0  0  0
  1 20  1  0  0  0  0
  2  4  1  0  0  0  0
  2  3  1  0  0  0  0
  2 21  1  0  0  0  0
  3  4  1  0  0  0  0
  3 22  1  0  0  0  0
  3 23  1  0  0  0  0
  4  5  1  0  0  0  0
  4 24  1  0  0  0  0
  5  6  1  0  0  0  0
  5 25  1  0  0  0  0
  5 26  1  0  0  0  0
  6  7  1  0  0  0  0
  6 27  1  0  0  0  0
  7  8  2  0  0  0  0
  7  9  1  0  0  0  0
  9 10  1  0  0  0  0
  9 28  1  0  0  0  0
  9 29  1  0  0  0  0
 10 16  1  0  0  0  0
 10 11  1  0  0  0  0
 11 12  2  0  0  0  0
 11 30  1  0  0  0  0
 12 13  1  0  0  0  0
 12 31  1  0  0  0  0
 13 14  2  0  0  0  0
 13 15  1  0  0  0  0
 15 16  1  0  0  0  0
 16 17  2  0  0  0  0
M  CHG  1  15  -1
M  END
> <s_m_source_file>
AV-unprocessed.smi

> <i_m_source_file_index>
2154

> <i_lp_mmshare_version>
43012

> <i_f3d_flags>
0

> <s_epik_input>
W0NIM11bQ0BASF0xW0NIMl1bQ0BIXTFbQ0gyXVtOSF1DKD1PKVtDSDJdbjJbY0hdW2NIXWMoPU8pW25IXWMyPU8=

> <s_epik_cmdline>
J2VwaWtfcHl0aG9uJywgJy1waCcsICc3LjAnLCAnLXRuJywgJzgnLCAnLW1hJywgJzIwMCcsICctbWV0YWxfYmluZGluZycsICctaW1hZScsICc8aW5maWxlLm1hZT4nLCAnLW9tYWUnLCAnPG91dGZpbGUubWFlPic=

> <r_lp_tautomer_probability>
0.999537

> <r_epik_Ionization_Penalty>
3.12283

> <r_epik_Ionization_Penalty_Charging>
2.83566e-08

> <r_epik_Ionization_Penalty_Neutral>
3.12283

> <r_epik_State_Penalty>
3.12192

> <r_epik_Charging_Adjusted_Penalty>
3.12192

> <i_epik_Tot_Q>
-1

> <i_epik_Tot_abs_Q>
1

> <r_epik_Metal_State_Penalty>
0.463748

> <b_epik_Metal_Only>
1

> <s_lp_Force_Field>
OPLS_2005

> <r_lp_Energy>
24.9188

> <b_lp_Chiralities_Consistent>
1

> <s_lp_Variant>
AV-unprocessed.smi:2154-7

> <Gold.Version>
5.8.1

> <Gold.Id.Protein>
6NUR|6NUR_protein|mol2

> <Gold.PLP.Fitness>
46.5364

> <Gold.PLP.PLP>
-37.9732

> <Gold.PLP.part.hbond>
-4.1898

> <Gold.PLP.part.metal>
0.0000

> <Gold.PLP.part.buried>
-3.1106

> <Gold.PLP.part.nonpolar>
-30.2435

> <Gold.PLP.part.repulsive>
0.3077

> <Gold.PLP.ligand.clash>
0.0000

> <Gold.PLP.ligand.torsion>
0.7110

> <Gold.PLP.Chemscore.Hbond>
3.1485

> <Gold.PLP.Chemscore.CHOScore>
0.0000

> <Gold.PLP.Chemscore.Metal>
0.0000

> <Gold.Chemscore.Hbonds>
donor molecule, donor type, donor heavy atom, donor atom, acceptor molecule, acceptor atom, score
      L1  H     6    27       P1  8028  1.00
      P1  H  7989  7998       L1    17  0.11
      P1  H  7997  8010       L1    17  0.98
      P1  H 10752 10763       L1    14  0.96

> <Gold.PLP.Chemscore.Internal.Correction>
0.5397

> <Gold.Rescore>
     Score         DG    S(hbond)    S(metal)    S(lipo)     H(rot)  DE(clash)    DE(int)     intcor
     16.94     -18.86       2.92        0.00      73.88       1.96       1.18       0.74       ----

> <Gold.Chemscore.Fitness>
16.9377

> <Gold.Chemscore.DG>
-18.8582

> <Gold.Chemscore.ZeroCoef>
-5.4800

> <Gold.Chemscore.Hbond>
2.9204

> <Gold.Chemscore.Metal>
0.0000

> <Gold.Chemscore.Lipo>
73.8795

> <Gold.Chemscore.Internal_Hbond>
0.0000

> <Gold.Chemscore.DEClash>
1.1832

> <Gold.Chemscore.DEInternal>
0.7372

> <Gold.Chemscore.Rot>
1.9609

> <Gold.Chemscore.Internal.Correction>
   9.000000E+99

> <Gold.Chemscore.Hbonds>
donor molecule, donor type, donor heavy atom, donor atom, acceptor molecule, acceptor atom, score
      L1  H     6    27       P1  8028  0.99
      P1  H  7997  8010       L1    17  0.91
      P1  H 10752 10763       L1    14  0.22

> <Gold.Chemscore.Hbond.Weighted>
-9.7543

> <Gold.Chemscore.Metal.Weighted>
-0.0000

> <Gold.Chemscore.Lipo.Weighted>
-8.6439

> <Gold.Chemscore.Internal_Hbond.Weighted>
0.0000

> <Gold.Chemscore.DEClash.Weighted>
1.1832

> <Gold.Chemscore.DEInternal.Weighted>
0.7372

> <Gold.Chemscore.Rot.Weighted>
5.0200

> <Gold.Chemscore.Internal.Correction.Weighted>
   9.000000E+99

> <Gold.Protein.RotatedTorsions>
[ 6907 6896 6895 6894 ] final  -84.46 input  -60.11 | X-H torsion
[ 7974 7965 7964 7962 ] final   -3.76 input  175.53 | X-H torsion
[ 8008 7997 7996 7995 ] final   97.49 input   59.86 | X-H torsion
[ 10167 10162 10161 10158 ] final  122.35 input  -65.29 | X-H torsion
[ 10718 10713 10712 10709 ] final  122.33 input   66.30 | X-H torsion
[ 10763 10752 10751 10750 ] final   65.71 input  -60.55 | X-H torsion
[ 11005 11000 10999 10996 ] final  156.74 input  -57.11 | X-H torsion

> <Gold.Protein.ActiveResidues>
 VAL166  LYS551  ARG553  GLY616  TRP617  ASP618  TYR619  PRO620  LYS621  CYS622 
 ASP623  PHE694  ASN695  SER759  ASP760  ASP761  ALA762  ILE779  LEU786  VAL792 
 PHE793  MET794  SER795  GLU796  ALA797  LYS798  CYS799  TRP800  GLU811  SER814 

> <Gold.Protein.RotatedAtoms>
  150.6876  134.3354  159.4844 H   0  0  0  0  0  0  0  0  0  0  0  0  # atno 6907 bound_to 6896
  152.1214  134.9200  160.0572 H   0  0  0  0  0  0  0  0  0  0  0  0  # atno 6908 bound_to 6896
  152.0405  133.3940  159.4371 H   0  0  0  0  0  0  0  0  0  0  0  0  # atno 6909 bound_to 6896
  146.2384  140.1770  142.8332 H   0  0  0  0  0  0  0  0  0  0  0  0  # atno 7974 bound_to 7965
  156.0907  140.3257  155.7812 H   0  0  0  0  0  0  0  0  0  0  0  0  # atno 8008 bound_to 7997
  155.5002  140.0568  157.2957 H   0  0  0  0  0  0  0  0  0  0  0  0  # atno 8009 bound_to 7997
  154.4636  140.1978  156.0195 H   0  0  0  0  0  0  0  0  0  0  0  0  # atno 8010 bound_to 7997
  139.5864  144.7008  151.3398 H   0  0  0  0  0  0  0  0  0  0  0  0  # atno 10167 bound_to 10162
  157.5750  131.1080  150.8296 H   0  0  0  0  0  0  0  0  0  0  0  0  # atno 10718 bound_to 10713
  153.0108  135.5347  154.6709 H   0  0  0  0  0  0  0  0  0  0  0  0  # atno 10763 bound_to 10752
  154.5894  135.2857  155.0653 H   0  0  0  0  0  0  0  0  0  0  0  0  # atno 10764 bound_to 10752
  154.1752  135.6525  153.5072 H   0  0  0  0  0  0  0  0  0  0  0  0  # atno 10765 bound_to 10752
  140.1703  134.8547  157.2682 H   0  0  0  0  0  0  0  0  0  0  0  0  # atno 11005 bound_to 11000
  144.9965  140.8594  143.5308 LP  0  0  0  0  0  0  0  0  0  0  0  0  # atno 17320 bound_to 7965
  145.1783  139.2365  143.5305 LP  0  0  0  0  0  0  0  0  0  0  0  0  # atno 17321 bound_to 7965
  140.7135  143.7328  150.7611 LP  0  0  0  0  0  0  0  0  0  0  0  0  # atno 17342 bound_to 10162
  140.0873  143.4911  152.2498 LP  0  0  0  0  0  0  0  0  0  0  0  0  # atno 17343 bound_to 10162
  156.8757  130.5162  149.5294 LP  0  0  0  0  0  0  0  0  0  0  0  0  # atno 17370 bound_to 10713
  156.0795  130.5809  150.9536 LP  0  0  0  0  0  0  0  0  0  0  0  0  # atno 17371 bound_to 10713
  140.2385  134.3824  155.7491 LP  0  0  0  0  0  0  0  0  0  0  0  0  # atno 17394 bound_to 11000
  141.2217  133.7252  156.8752 LP  0  0  0  0  0  0  0  0  0  0  0  0  # atno 17395 bound_to 11000

$$$$
