#       Name:                AV-unprocessed.smi:72
#       Creating user name   scv26
#       Creation time:       Thu Mar 26 17:01:37 2020


#       File generated by GOLD software.
#

@<TRIPOS>MOLECULE
AV-unprocessed.smi:72
    41    42     1
SMALL
NO_CHARGES


@<TRIPOS>ATOM
      1 ****        -4.9536  -0.2921  -0.2764 N.pl3          1 S1                 0.0000
      2 ****        -3.6198  -0.6428  -0.2648 C.2            1 S1                 0.0000
      3 ****        -2.6871   0.3752  -0.3528 N.pl3          1 S1                 1.0000
      4 ****        -1.3586   0.2032  -0.3590 C.2            1 S1                 0.0000
      5 ****        -0.8705  -1.0167  -0.2757 N.am           1 S1                 0.0000
      6 ****         0.6187  -1.2438  -0.2746 C.3            1 S1                 0.0000
      7 ****         1.1904  -0.2849  -1.1115 O.3            1 S1                 0.0000
      8 ****         2.3274   0.2897  -0.4767 C.3            1 S1                 0.0000
      9 ****         2.6636   1.6649  -1.0806 C.3            1 S1                 0.0000
     10 ****         3.8381   2.1820  -0.4931 O.3            1 S1                 0.0000
     11 ****         1.9795   0.2486   1.0179 C.3            1 S1                 0.0000
     12 ****         1.1644   1.3514   1.3802 O.3            1 S1                 0.0000
     13 ****         1.2397  -1.0794   1.1286 C.3            1 S1                 0.0000
     14 ****         0.3349  -1.1160   2.2194 O.3            1 S1                 0.0000
     15 ****        -1.7483  -2.1265  -0.1714 C.2            1 S1                 0.0000
     16 ****        -1.3046  -3.2695  -0.0721 O.2            1 S1                 0.0000
     17 ****        -3.1226  -1.8456  -0.1787 N.2            1 S1                 0.0000
     18 ****         0.7915  -2.2305  -0.7064 H              1 S1                 0.0000
     19 ****         3.1632  -0.3896  -0.6559 H              1 S1                 0.0000
     20 ****         2.8729   0.2649   1.6432 H              1 S1                 0.0000
     21 ****         1.9652  -1.8846   1.2519 H              1 S1                 0.0000
     22 ****        -5.7026  -0.9677  -0.2164 H              1 S1                 0.0000
     23 ****        -5.2882   0.6585  -0.3421 H              1 S1                 0.0000
     24 ****        -0.7073   1.0644  -0.4332 H              1 S1                 0.0000
     25 ****         2.8311   1.5669  -2.1534 H              1 S1                 0.0000
     26 ****         1.8449   2.3731  -0.9520 H              1 S1                 0.0000
     27 ****         4.0518   3.0006  -0.9149 H              1 S1                 0.0000
     28 ****         1.6848   2.1383   1.3145 H              1 S1                 0.0000
     29 ****        -0.1604  -0.3110   2.2235 H              1 S1                 0.0000
     30 ****        -3.0383   1.3200  -0.4169 H              1 S1                 0.0000
     31 ****         0.5194   0.4313  -1.3033 LP             1 S1                 0.0000
     32 ****         1.4711  -0.7168  -1.9687 LP             1 S1                 0.0000
     33 ****         4.5895   1.5337  -0.6158 LP             1 S1                 0.0000
     34 ****         3.6866   2.3357   0.4833 LP             1 S1                 0.0000
     35 ****         0.8395   1.2380   2.3191 LP             1 S1                 0.0000
     36 ****         0.3812   1.4110   0.7613 LP             1 S1                 0.0000
     37 ****         0.8425  -1.2046   3.0764 LP             1 S1                 0.0000
     38 ****        -0.2855  -1.8937   2.1176 LP             1 S1                 0.0000
     39 ****        -0.3165  -3.4234  -0.0643 LP             1 S1                 0.0000
     40 ****        -1.9320  -4.0448   0.0008 LP             1 S1                 0.0000
     41 ****        -3.7595  -2.6138  -0.1140 LP             1 S1                 0.0000
@<TRIPOS>BOND
    1    1    2 1     
    2    1   22 1     
    3    1   23 1     
    4    2   17 2     
    5    2    3 1     
    6    3    4 2     
    7    3   30 1     
    8    4    5 1     
    9    4   24 1     
   10    5    6 1     
   11    5   15 am    
   12    6   18 1     
   13    6   13 1     
   14    6    7 1     
   15    7    8 1     
   16    8   19 1     
   17    8    9 1     
   18    8   11 1     
   19    9   10 1     
   20    9   25 1     
   21    9   26 1     
   22   10   27 1     
   23   11   20 1     
   24   11   12 1     
   25   11   13 1     
   26   12   28 1     
   27   13   21 1     
   28   13   14 1     
   29   14   29 1     
   30   15   16 2     
   31   15   17 1     
   32    7   31 1     
   33    7   32 1     
   34   10   33 1     
   35   10   34 1     
   36   12   35 1     
   37   12   36 1     
   38   14   37 1     
   39   14   38 1     
   40   16   39 1     
   41   16   40 1     
   42   17   41 1     
@<TRIPOS>SUBSTRUCTURE
      1 S1             1
@<TRIPOS>SET
LONE_PAIRS      STATIC     ATOMS    <user>   **** ""
11 31 32 33 34 35 36 37 38 39 40 41
DONOR_HYDROGENS      STATIC     ATOMS    <user>   **** ""
6 22 23 30 27 28 29
ATOM$BLUE        STATIC     ATOMS    COLORGROUP SYSTEM
11 31 32 33 34 35 36 37 38 39 40 41
ATOM$RED        STATIC     ATOMS    COLORGROUP SYSTEM
6 22 23 30 27 28 29
