#       Name:                AV-unprocessed.smi:417
#       Creating user name   scv26
#       Creation time:       Thu Mar 26 22:48:27 2020


#       File generated by GOLD software.
#

@<TRIPOS>MOLECULE
AV-unprocessed.smi:417
    43    44     1
SMALL
NO_CHARGES


@<TRIPOS>ATOM
      1 ****        -4.9878  -1.9888   2.2469 C.3            1 S1                 0.0000
      2 ****        -4.5504  -1.5602   0.8364 C.3            1 S1                 0.0000
      3 ****        -5.1806  -2.4602  -0.2397 C.3            1 S1                 0.0000
      4 ****        -3.0199  -1.5612   0.7167 C.2            1 S1                 0.0000
      5 ****        -2.3986  -2.6135   0.8709 O.2            1 S1                 0.0000
      6 ****        -2.4511  -0.3715   0.4440 N.am           1 S1                 0.0000
      7 ****        -1.0748  -0.0753   0.2555 C.ar           1 S1                 0.0000
      8 ****        -0.7858   1.2765  -0.0266 C.ar           1 S1                 0.0000
      9 ****         0.5482   1.6712  -0.2423 C.ar           1 S1                 0.0000
     10 ****         1.5812   0.7057  -0.1768 C.ar           1 S1                 0.0000
     11 ****         2.9405   1.0244  -0.3870 N.3            1 S1                 0.0000
     12 ****         3.3199   2.4338  -0.4288 C.3            1 S1                 0.0000
     13 ****         4.8500   2.5801  -0.3663 C.3            1 S1                 0.0000
     14 ****         5.4474   1.8190  -1.4103 O.3            1 S1                 0.0000
     15 ****         5.1581   0.4307  -1.2835 C.3            1 S1                 0.0000
     16 ****         3.6389   0.2036  -1.3737 C.3            1 S1                 0.0000
     17 ****         1.1897  -0.6201   0.1205 C.ar           1 S1                 0.0000
     18 ****        -0.0881  -1.0001   0.3290 N.ar           1 S1                 0.0000
     19 ****        -4.5263  -1.3650   3.0133 H              1 S1                 0.0000
     20 ****        -4.7185  -3.0254   2.4535 H              1 S1                 0.0000
     21 ****        -6.0683  -1.8999   2.3619 H              1 S1                 0.0000
     22 ****        -4.9081  -0.5424   0.6718 H              1 S1                 0.0000
     23 ****        -4.8738  -2.1555  -1.2411 H              1 S1                 0.0000
     24 ****        -6.2690  -2.4086  -0.2023 H              1 S1                 0.0000
     25 ****        -4.8960  -3.5049  -0.1073 H              1 S1                 0.0000
     26 ****        -3.0807   0.4121   0.3515 H              1 S1                 0.0000
     27 ****        -1.5771   2.0099  -0.0834 H              1 S1                 0.0000
     28 ****         0.7508   2.7076  -0.4665 H              1 S1                 0.0000
     29 ****         2.9419   2.8833  -1.3481 H              1 S1                 0.0000
     30 ****         2.8730   2.9699   0.4093 H              1 S1                 0.0000
     31 ****         5.1316   3.6266  -0.4838 H              1 S1                 0.0000
     32 ****         5.2333   2.2538   0.6020 H              1 S1                 0.0000
     33 ****         5.6660  -0.1117  -2.0810 H              1 S1                 0.0000
     34 ****         5.5523   0.0507  -0.3396 H              1 S1                 0.0000
     35 ****         3.4314  -0.8570  -1.2381 H              1 S1                 0.0000
     36 ****         3.2817   0.4714  -2.3690 H              1 S1                 0.0000
     37 ****         1.9202  -1.4100   0.2121 H              1 S1                 0.0000
     38 ****        -2.8912  -3.4600   1.0727 LP             1 S1                 0.0000
     39 ****        -1.4016  -2.6213   0.7943 LP             1 S1                 0.0000
     40 ****         3.3006   0.7399   0.5015 LP             1 S1                 0.0000
     41 ****         6.4386   1.9475  -1.3783 LP             1 S1                 0.0000
     42 ****         5.0973   2.1438  -2.2889 LP             1 S1                 0.0000
     43 ****        -0.3043  -1.9543   0.5356 LP             1 S1                 0.0000
@<TRIPOS>BOND
    1    1    2 1     
    2    1   19 1     
    3    1   20 1     
    4    1   21 1     
    5    2    3 1     
    6    2    4 1     
    7    2   22 1     
    8    3   23 1     
    9    3   24 1     
   10    3   25 1     
   11    4    5 2     
   12    4    6 am    
   13    6    7 1     
   14    6   26 1     
   15    7   18 ar    
   16    7    8 ar    
   17    8    9 ar    
   18    8   27 1     
   19    9   10 ar    
   20    9   28 1     
   21   10   11 1     
   22   10   17 ar    
   23   11   16 1     
   24   11   12 1     
   25   12   13 1     
   26   12   29 1     
   27   12   30 1     
   28   13   14 1     
   29   13   31 1     
   30   13   32 1     
   31   14   15 1     
   32   15   16 1     
   33   15   33 1     
   34   15   34 1     
   35   16   35 1     
   36   16   36 1     
   37   17   18 ar    
   38   17   37 1     
   39    5   38 1     
   40    5   39 1     
   41   11   40 1     
   42   14   41 1     
   43   14   42 1     
   44   18   43 1     
@<TRIPOS>SUBSTRUCTURE
      1 S1             1
@<TRIPOS>SET
LONE_PAIRS      STATIC     ATOMS    <user>   **** ""
6 38 39 40 41 42 43
DONOR_HYDROGENS      STATIC     ATOMS    <user>   **** ""
1 26
ATOM$BLUE        STATIC     ATOMS    COLORGROUP SYSTEM
6 38 39 40 41 42 43
ATOM$RED        STATIC     ATOMS    COLORGROUP SYSTEM
1 26
