AV-unprocessed.smi:2580|AV-procd|sdf|10127|dock3
  -GOLD-   2272014143D 1   1.00000     0.00000
 Structure written by MMmdl.
 29 30  0  0  0  0  0  0  0  0  1 V2000
  151.2290  137.7836  154.1701 C   0  0  0  0  0  0  0  0  0  0  0  0
  150.3538  138.8279  154.8817 C   0  0  2  0  0  0  0  0  0  0  0  0
  149.1115  139.2093  154.1025 C   0  0  0  0  0  0  0  0  0  0  0  0
  148.7176  140.5277  154.7588 C   0  0  0  0  0  0  0  0  0  0  0  0
  149.9381  141.1340  155.1728 O   0  0  0  0  0  0  0  0  0  0  0  0
  151.0169  140.2014  155.0775 C   0  0  1  0  0  0  0  0  0  0  0  0
  151.9247  140.3209  156.3117 C   0  0  0  0  0  0  0  0  0  0  0  0
  152.9091  139.5898  156.4247 O   0  0  0  0  0  0  0  0  0  0  0  0
  151.5718  141.2630  157.2065 N   0  0  0  0  0  0  0  0  0  0  0  0
  152.2044  141.6084  158.4321 C   0  0  0  0  0  0  0  0  0  0  0  0
  152.8816  140.7115  159.1931 N   0  0  0  0  0  0  0  0  0  0  0  0
  153.4552  141.1181  160.3446 C   0  0  0  0  0  0  0  0  0  0  0  0
  153.3900  142.4434  160.8097 C   0  0  0  0  0  0  0  0  0  0  0  0
  152.6929  143.3841  160.0316 C   0  0  0  0  0  0  0  0  0  0  0  0
  152.0915  142.9656  158.8279 C   0  0  0  0  0  0  0  0  0  0  0  0
  151.2328  144.1216  157.8686 Cl  0  0  0  0  0  0  0  0  0  0  0  0
  151.5622  138.1409  153.1954 H   0  0  0  0  0  0  0  0  0  0  0  0
  150.6766  136.8568  154.0134 H   0  0  0  0  0  0  0  0  0  0  0  0
  152.1160  137.5415  154.7553 H   0  0  0  0  0  0  0  0  0  0  0  0
  150.0433  138.4306  155.8501 H   0  0  0  0  0  0  0  0  0  0  0  0
  149.3557  139.3755  153.0521 H   0  0  0  0  0  0  0  0  0  0  0  0
  148.3239  138.4570  154.1551 H   0  0  0  0  0  0  0  0  0  0  0  0
  148.1568  141.1777  154.0865 H   0  0  0  0  0  0  0  0  0  0  0  0
  148.1055  140.3441  155.6426 H   0  0  0  0  0  0  0  0  0  0  0  0
  151.5964  140.4620  154.1905 H   0  0  0  0  0  0  0  0  0  0  0  0
  150.7383  141.7894  156.9868 H   0  0  0  0  0  0  0  0  0  0  0  0
  153.9815  140.3639  160.9109 H   0  0  0  0  0  0  0  0  0  0  0  0
  153.8623  142.7299  161.7378 H   0  0  0  0  0  0  0  0  0  0  0  0
  152.6205  144.4125  160.3536 H   0  0  0  0  0  0  0  0  0  0  0  0
  1  2  1  0  0  0  0
  1 17  1  0  0  0  0
  1 18  1  0  0  0  0
  1 19  1  0  0  0  0
  2  6  1  0  0  0  0
  2  3  1  0  0  0  0
  2 20  1  0  0  0  0
  3  4  1  0  0  0  0
  3 21  1  0  0  0  0
  3 22  1  0  0  0  0
  4  5  1  0  0  0  0
  4 23  1  0  0  0  0
  4 24  1  0  0  0  0
  5  6  1  0  0  0  0
  6  7  1  0  0  0  0
  6 25  1  0  0  0  0
  7  8  2  0  0  0  0
  7  9  1  0  0  0  0
  9 10  1  0  0  0  0
  9 26  1  0  0  0  0
 10 15  1  0  0  0  0
 10 11  2  0  0  0  0
 11 12  1  0  0  0  0
 12 13  2  0  0  0  0
 12 27  1  0  0  0  0
 13 14  1  0  0  0  0
 13 28  1  0  0  0  0
 14 15  2  0  0  0  0
 14 29  1  0  0  0  0
 15 16  1  0  0  0  0
M  END
> <s_m_source_file>
AV-unprocessed.smi

> <i_m_source_file_index>
2580

> <i_lp_mmshare_version>
43012

> <i_f3d_flags>
0

> <s_epik_input>
W0NIM11bQ0BASF0xW0NIMl1bQ0gyXU9bQ0BIXTFDKD1PKVtOSF1jMm5bY0hdW2NIXVtjSF1jMkNs

> <s_epik_cmdline>
J2VwaWtfcHl0aG9uJywgJy1waCcsICc3LjAnLCAnLXRuJywgJzgnLCAnLW1hJywgJzIwMCcsICctbWV0YWxfYmluZGluZycsICctaW1hZScsICc8aW5maWxlLm1hZT4nLCAnLW9tYWUnLCAnPG91dGZpbGUubWFlPic=

> <r_lp_tautomer_probability>
1

> <r_epik_Ionization_Penalty>
4.32497e-05

> <r_epik_Ionization_Penalty_Charging>
0

> <r_epik_Ionization_Penalty_Neutral>
4.32497e-05

> <r_epik_State_Penalty>
-0

> <r_epik_Charging_Adjusted_Penalty>
0

> <i_epik_Tot_Q>
0

> <i_epik_Tot_abs_Q>
0

> <r_epik_Metal_State_Penalty>
-0

> <b_epik_Metal_Only>
0

> <s_lp_Force_Field>
OPLS_2005

> <r_lp_Energy>
21.1187

> <b_lp_Chiralities_Consistent>
1

> <s_lp_Variant>
AV-unprocessed.smi:2580-1

> <Gold.Version>
5.8.1

> <Gold.Id.Protein>
6NUR|6NUR_protein|mol2

> <Gold.PLP.Fitness>
38.9827

> <Gold.PLP.PLP>
-36.3780

> <Gold.PLP.part.hbond>
-2.0000

> <Gold.PLP.part.metal>
0.0000

> <Gold.PLP.part.buried>
-0.3651

> <Gold.PLP.part.nonpolar>
-33.7086

> <Gold.PLP.part.repulsive>
0.2021

> <Gold.PLP.ligand.clash>
0.0000

> <Gold.PLP.ligand.torsion>
0.1989

> <Gold.PLP.Chemscore.Hbond>
1.0000

> <Gold.PLP.Chemscore.CHOScore>
0.0000

> <Gold.PLP.Chemscore.Metal>
0.0000

> <Gold.Chemscore.Hbonds>
donor molecule, donor type, donor heavy atom, donor atom, acceptor molecule, acceptor atom, score
      P1  H  7997  8008       L1     8  1.00

> <Gold.PLP.Chemscore.Internal.Correction>
0.0025

> <Gold.Rescore>
     Score         DG    S(hbond)    S(metal)    S(lipo)     H(rot)  DE(clash)    DE(int)     intcor
     14.69     -16.01       0.96        0.00      84.61       1.00       0.00       1.32       ----

> <Gold.Chemscore.Fitness>
14.6886

> <Gold.Chemscore.DG>
-16.0132

> <Gold.Chemscore.ZeroCoef>
-5.4800

> <Gold.Chemscore.Hbond>
0.9564

> <Gold.Chemscore.Metal>
0.0000

> <Gold.Chemscore.Lipo>
84.6064

> <Gold.Chemscore.Internal_Hbond>
0.0000

> <Gold.Chemscore.DEClash>
0.0021

> <Gold.Chemscore.DEInternal>
1.3224

> <Gold.Chemscore.Rot>
1.0000

> <Gold.Chemscore.Internal.Correction>
   9.000000E+99

> <Gold.Chemscore.Hbonds>
donor molecule, donor type, donor heavy atom, donor atom, acceptor molecule, acceptor atom, score
      P1  H  7997  8008       L1     8  0.94

> <Gold.Chemscore.Hbond.Weighted>
-3.1943

> <Gold.Chemscore.Metal.Weighted>
-0.0000

> <Gold.Chemscore.Lipo.Weighted>
-9.8990

> <Gold.Chemscore.Internal_Hbond.Weighted>
0.0000

> <Gold.Chemscore.DEClash.Weighted>
0.0021

> <Gold.Chemscore.DEInternal.Weighted>
1.3224

> <Gold.Chemscore.Rot.Weighted>
2.5600

> <Gold.Chemscore.Internal.Correction.Weighted>
   9.000000E+99

> <Gold.Protein.RotatedTorsions>
[ 6907 6896 6895 6894 ] final  -41.77 input  -60.11 | X-H torsion
[ 7974 7965 7964 7962 ] final  -11.70 input  175.53 | X-H torsion
[ 8008 7997 7996 7995 ] final  -31.84 input   59.86 | X-H torsion
[ 10167 10162 10161 10158 ] final -123.89 input  -65.29 | X-H torsion
[ 10718 10713 10712 10709 ] final  142.35 input   66.30 | X-H torsion
[ 10763 10752 10751 10750 ] final   79.31 input  -60.55 | X-H torsion
[ 11005 11000 10999 10996 ] final   90.99 input  -57.11 | X-H torsion

> <Gold.Protein.ActiveResidues>
 VAL166  LYS551  ARG553  GLY616  TRP617  ASP618  TYR619  PRO620  LYS621  CYS622 
 ASP623  PHE694  ASN695  SER759  ASP760  ASP761  ALA762  ILE779  LEU786  VAL792 
 PHE793  MET794  SER795  GLU796  ALA797  LYS798  CYS799  TRP800  GLU811  SER814 

> <Gold.Protein.RotatedAtoms>
  150.9629  134.9014  159.7740 H   0  0  0  0  0  0  0  0  0  0  0  0  # atno 6907 bound_to 6896
  152.5162  134.3648  159.9307 H   0  0  0  0  0  0  0  0  0  0  0  0  # atno 6908 bound_to 6896
  151.3660  133.3831  159.2729 H   0  0  0  0  0  0  0  0  0  0  0  0  # atno 6909 bound_to 6896
  146.2178  140.2949  142.8371 H   0  0  0  0  0  0  0  0  0  0  0  0  # atno 7974 bound_to 7965
  154.4200  140.1753  156.1632 H   0  0  0  0  0  0  0  0  0  0  0  0  # atno 8008 bound_to 7997
  155.9821  140.3376  155.6649 H   0  0  0  0  0  0  0  0  0  0  0  0  # atno 8009 bound_to 7997
  155.6486  140.0688  157.2585 H   0  0  0  0  0  0  0  0  0  0  0  0  # atno 8010 bound_to 7997
  139.9986  143.5564  152.2312 H   0  0  0  0  0  0  0  0  0  0  0  0  # atno 10167 bound_to 10162
  157.3816  131.0993  151.0733 H   0  0  0  0  0  0  0  0  0  0  0  0  # atno 10718 bound_to 10713
  153.0943  135.4844  154.8748 H   0  0  0  0  0  0  0  0  0  0  0  0  # atno 10763 bound_to 10752
  154.7306  135.3059  154.8901 H   0  0  0  0  0  0  0  0  0  0  0  0  # atno 10764 bound_to 10752
  153.9537  135.6820  153.4797 H   0  0  0  0  0  0  0  0  0  0  0  0  # atno 10765 bound_to 10752
  139.8846  134.8647  156.3364 H   0  0  0  0  0  0  0  0  0  0  0  0  # atno 11005 bound_to 11000
  144.9099  140.7745  143.5814 LP  0  0  0  0  0  0  0  0  0  0  0  0  # atno 17320 bound_to 7965
  145.2879  139.1894  143.4756 LP  0  0  0  0  0  0  0  0  0  0  0  0  # atno 17321 bound_to 7965
  139.6288  144.7641  151.2581 LP  0  0  0  0  0  0  0  0  0  0  0  0  # atno 17342 bound_to 10162
  140.7427  143.6517  150.8243 LP  0  0  0  0  0  0  0  0  0  0  0  0  # atno 17343 bound_to 10162
  157.1800  130.6305  149.5668 LP  0  0  0  0  0  0  0  0  0  0  0  0  # atno 17370 bound_to 10713
  155.9777  130.4757  150.6610 LP  0  0  0  0  0  0  0  0  0  0  0  0  # atno 17371 bound_to 10713
  140.9688  133.7340  156.0505 LP  0  0  0  0  0  0  0  0  0  0  0  0  # atno 17394 bound_to 11000
  140.7896  134.3632  157.5468 LP  0  0  0  0  0  0  0  0  0  0  0  0  # atno 17395 bound_to 11000

$$$$
