AV-unprocessed.smi:1420|AV-procd|sdf|5786|dock3
  -GOLD-   22720 5433D 1   1.00000     0.00000
 Structure written by MMmdl.
 38 39  0  0  0  0  0  0  0  0  1 V2000
  150.3450  134.7079  156.5732 C   0  0  0  0  0  0  0  0  0  0  0  0
  149.8355  133.8826  155.3629 C   0  0  2  0  0  0  0  0  0  0  0  0
  148.3692  134.3020  155.0500 C   0  0  0  0  0  0  0  0  0  0  0  0
  148.0525  134.2515  153.6265 N   0  0  0  0  0  0  0  0  0  0  0  0
  147.4159  133.2425  153.0127 C   0  0  0  0  0  0  0  0  0  0  0  0
  146.9567  132.2661  153.6053 O   0  0  0  0  0  0  0  0  0  0  0  0
  147.3052  133.3377  151.4914 C   0  0  0  0  0  0  0  0  0  0  0  0
  145.9943  132.8996  151.0475 N   0  0  0  0  0  0  0  0  0  0  0  0
  145.6683  131.7706  150.3251 C   0  0  0  0  0  0  0  0  0  0  0  0
  144.3178  131.7917  150.1256 C   0  0  0  0  0  0  0  0  0  0  0  0
  143.8991  132.9892  150.7704 C   0  0  0  0  0  0  0  0  0  0  0  0
  144.9041  133.6499  151.3225 N   0  0  0  0  0  0  0  0  0  0  0  0
  149.9959  132.4222  155.5534 N   0  0  0  0  0  0  0  0  0  0  0  0
  151.3543  132.0530  155.9685 C   0  0  0  0  0  0  0  0  0  0  0  0
  151.5356  130.5351  156.1396 C   0  0  0  0  0  0  0  0  0  0  0  0
  151.2027  129.8743  154.9268 O   0  0  0  0  0  0  0  0  0  0  0  0
  149.8659  130.1405  154.5261 C   0  0  0  0  0  0  0  0  0  0  0  0
  149.6692  131.6556  154.3449 C   0  0  0  0  0  0  0  0  0  0  0  0
  150.1851  135.7781  156.4467 H   0  0  0  0  0  0  0  0  0  0  0  0
  151.4184  134.6017  156.7227 H   0  0  0  0  0  0  0  0  0  0  0  0
  149.8434  134.4083  157.4938 H   0  0  0  0  0  0  0  0  0  0  0  0
  150.4433  134.1744  154.5048 H   0  0  0  0  0  0  0  0  0  0  0  0
  147.6420  133.6712  155.5593 H   0  0  0  0  0  0  0  0  0  0  0  0
  148.1927  135.3194  155.4005 H   0  0  0  0  0  0  0  0  0  0  0  0
  148.3968  135.0105  153.0560 H   0  0  0  0  0  0  0  0  0  0  0  0
  147.4607  134.3681  151.1693 H   0  0  0  0  0  0  0  0  0  0  0  0
  148.0755  132.7305  151.0129 H   0  0  0  0  0  0  0  0  0  0  0  0
  146.4172  131.0570  150.0139 H   0  0  0  0  0  0  0  0  0  0  0  0
  143.7205  131.0637  149.5973 H   0  0  0  0  0  0  0  0  0  0  0  0
  142.9019  133.3954  150.8526 H   0  0  0  0  0  0  0  0  0  0  0  0
  152.0781  132.4250  155.2416 H   0  0  0  0  0  0  0  0  0  0  0  0
  151.6008  132.5105  156.9251 H   0  0  0  0  0  0  0  0  0  0  0  0
  152.5689  130.3040  156.3988 H   0  0  0  0  0  0  0  0  0  0  0  0
  150.9104  130.1604  156.9516 H   0  0  0  0  0  0  0  0  0  0  0  0
  149.6645  129.6179  153.5907 H   0  0  0  0  0  0  0  0  0  0  0  0
  149.1698  129.7468  155.2683 H   0  0  0  0  0  0  0  0  0  0  0  0
  148.6301  131.8053  154.0600 H   0  0  0  0  0  0  0  0  0  0  0  0
  150.2805  132.0025  153.5103 H   0  0  0  0  0  0  0  0  0  0  0  0
  1  2  1  0  0  0  0
  1 19  1  0  0  0  0
  1 20  1  0  0  0  0
  1 21  1  0  0  0  0
  2  3  1  0  0  0  0
  2 13  1  0  0  0  0
  2 22  1  0  0  0  0
  3  4  1  0  0  0  0
  3 23  1  0  0  0  0
  3 24  1  0  0  0  0
  4  5  1  0  0  0  0
  4 25  1  0  0  0  0
  5  6  2  0  0  0  0
  5  7  1  0  0  0  0
  7  8  1  0  0  0  0
  7 26  1  0  0  0  0
  7 27  1  0  0  0  0
  8 12  1  0  0  0  0
  8  9  1  0  0  0  0
  9 10  2  0  0  0  0
  9 28  1  0  0  0  0
 10 11  1  0  0  0  0
 10 29  1  0  0  0  0
 11 12  2  0  0  0  0
 11 30  1  0  0  0  0
 13 18  1  0  0  0  0
 13 14  1  0  0  0  0
 14 15  1  0  0  0  0
 14 31  1  0  0  0  0
 14 32  1  0  0  0  0
 15 16  1  0  0  0  0
 15 33  1  0  0  0  0
 15 34  1  0  0  0  0
 16 17  1  0  0  0  0
 17 18  1  0  0  0  0
 17 35  1  0  0  0  0
 17 36  1  0  0  0  0
 18 37  1  0  0  0  0
 18 38  1  0  0  0  0
M  END
> <s_m_source_file>
AV-unprocessed.smi

> <i_m_source_file_index>
1420

> <i_lp_mmshare_version>
43012

> <i_f3d_flags>
0

> <s_epik_input>
W0NIMl0xW0NIMl1PW0NIMl1bQ0gyXU4xW0NASF0oW0NIM10pW0NIMl1bTkhdQyg9TylbQ0gyXW4yW2NIXVtjSF1bY0hdbjI=

> <s_epik_cmdline>
J2VwaWtfcHl0aG9uJywgJy1waCcsICc3LjAnLCAnLXRuJywgJzgnLCAnLW1hJywgJzIwMCcsICctbWV0YWxfYmluZGluZycsICctaW1hZScsICc8aW5maWxlLm1hZT4nLCAnLW9tYWUnLCAnPG91dGZpbGUubWFlPic=

> <r_lp_tautomer_probability>
1

> <r_epik_Ionization_Penalty>
0.196927

> <r_epik_Ionization_Penalty_Charging>
0

> <r_epik_Ionization_Penalty_Neutral>
0.196927

> <r_epik_State_Penalty>
0.186684

> <r_epik_Charging_Adjusted_Penalty>
0.186684

> <i_epik_Tot_Q>
0

> <i_epik_Tot_abs_Q>
0

> <r_epik_Metal_State_Penalty>
0.186682

> <b_epik_Metal_Only>
0

> <s_lp_Force_Field>
OPLS_2005

> <r_lp_Energy>
27.7246

> <b_lp_Chiralities_Consistent>
1

> <s_lp_Variant>
AV-unprocessed.smi:1420-1

> <Gold.Version>
5.8.1

> <Gold.Id.Protein>
6NUR|6NUR_protein|mol2

> <Gold.PLP.Fitness>
36.3841

> <Gold.PLP.PLP>
-29.4240

> <Gold.PLP.part.hbond>
-1.0000

> <Gold.PLP.part.metal>
0.0000

> <Gold.PLP.part.buried>
-4.1661

> <Gold.PLP.part.nonpolar>
-24.3919

> <Gold.PLP.part.repulsive>
0.2697

> <Gold.PLP.ligand.clash>
0.0000

> <Gold.PLP.ligand.torsion>
0.9238

> <Gold.PLP.Chemscore.Hbond>
1.0000

> <Gold.PLP.Chemscore.CHOScore>
1.9135

> <Gold.PLP.Chemscore.Metal>
0.0000

> <Gold.Chemscore.Hbonds>
donor molecule, donor type, donor heavy atom, donor atom, acceptor molecule, acceptor atom, score
      L1  H     4    25       P1  7948  1.00
      L1  C     9    28       P1 10747  0.91
      L1  C    11    30       P1 10186  1.00

> <Gold.PLP.Chemscore.Internal.Correction>
0.0671

> <Gold.Rescore>
     Score         DG    S(hbond)    S(metal)    S(lipo)     H(rot)  DE(clash)    DE(int)     intcor
     11.13     -12.13       0.94        0.00      70.74       1.87       0.04       0.96       ----

> <Gold.Chemscore.Fitness>
11.1310

> <Gold.Chemscore.DG>
-12.1279

> <Gold.Chemscore.ZeroCoef>
-5.4800

> <Gold.Chemscore.Hbond>
0.9434

> <Gold.Chemscore.Metal>
0.0000

> <Gold.Chemscore.Lipo>
70.7360

> <Gold.Chemscore.Internal_Hbond>
0.0000

> <Gold.Chemscore.DEClash>
0.0360

> <Gold.Chemscore.DEInternal>
0.9610

> <Gold.Chemscore.Rot>
1.8669

> <Gold.Chemscore.Internal.Correction>
   9.000000E+99

> <Gold.Chemscore.Hbonds>
donor molecule, donor type, donor heavy atom, donor atom, acceptor molecule, acceptor atom, score
      L1  H     4    25       P1  7948  0.78

> <Gold.Chemscore.Hbond.Weighted>
-3.1510

> <Gold.Chemscore.Metal.Weighted>
-0.0000

> <Gold.Chemscore.Lipo.Weighted>
-8.2761

> <Gold.Chemscore.Internal_Hbond.Weighted>
0.0000

> <Gold.Chemscore.DEClash.Weighted>
0.0360

> <Gold.Chemscore.DEInternal.Weighted>
0.9610

> <Gold.Chemscore.Rot.Weighted>
4.7792

> <Gold.Chemscore.Internal.Correction.Weighted>
   9.000000E+99

> <Gold.Protein.RotatedTorsions>
[ 6907 6896 6895 6894 ] final   11.35 input  -60.11 | X-H torsion
[ 7974 7965 7964 7962 ] final  -74.88 input  175.53 | X-H torsion
[ 8008 7997 7996 7995 ] final   68.14 input   59.86 | X-H torsion
[ 10167 10162 10161 10158 ] final  120.67 input  -65.29 | X-H torsion
[ 10718 10713 10712 10709 ] final -133.17 input   66.30 | X-H torsion
[ 10763 10752 10751 10750 ] final -175.68 input  -60.55 | X-H torsion
[ 11005 11000 10999 10996 ] final  -98.67 input  -57.11 | X-H torsion

> <Gold.Protein.ActiveResidues>
 VAL166  LYS551  ARG553  GLY616  TRP617  ASP618  TYR619  PRO620  LYS621  CYS622 
 ASP623  PHE694  ASN695  SER759  ASP760  ASP761  ALA762  ILE779  LEU786  VAL792 
 PHE793  MET794  SER795  GLU796  ALA797  LYS798  CYS799  TRP800  GLU811  SER814 

> <Gold.Protein.RotatedAtoms>
  151.7530  135.0828  160.0333 H   0  0  0  0  0  0  0  0  0  0  0  0  # atno 6907 bound_to 6896
  152.3404  133.6056  159.5881 H   0  0  0  0  0  0  0  0  0  0  0  0  # atno 6908 bound_to 6896
  150.7476  133.9647  159.3568 H   0  0  0  0  0  0  0  0  0  0  0  0  # atno 6909 bound_to 6896
  145.6333  140.9332  143.1075 H   0  0  0  0  0  0  0  0  0  0  0  0  # atno 7974 bound_to 7965
  155.7037  140.3495  155.4944 H   0  0  0  0  0  0  0  0  0  0  0  0  # atno 8008 bound_to 7997
  155.9418  140.1103  157.1071 H   0  0  0  0  0  0  0  0  0  0  0  0  # atno 8009 bound_to 7997
  154.4104  140.1211  156.4923 H   0  0  0  0  0  0  0  0  0  0  0  0  # atno 8010 bound_to 7997
  139.5967  144.7044  151.3159 H   0  0  0  0  0  0  0  0  0  0  0  0  # atno 10167 bound_to 10162
  156.2422  130.7102  151.0968 H   0  0  0  0  0  0  0  0  0  0  0  0  # atno 10718 bound_to 10713
  154.5815  135.2836  155.0728 H   0  0  0  0  0  0  0  0  0  0  0  0  # atno 10763 bound_to 10752
  154.2062  135.6416  153.5105 H   0  0  0  0  0  0  0  0  0  0  0  0  # atno 10764 bound_to 10752
  153.0090  135.5481  154.6470 H   0  0  0  0  0  0  0  0  0  0  0  0  # atno 10765 bound_to 10752
  141.1336  133.8263  157.0870 H   0  0  0  0  0  0  0  0  0  0  0  0  # atno 11005 bound_to 11000
  144.7185  139.8111  143.7390 LP  0  0  0  0  0  0  0  0  0  0  0  0  # atno 17320 bound_to 7965
  146.1339  139.4381  143.0151 LP  0  0  0  0  0  0  0  0  0  0  0  0  # atno 17321 bound_to 7965
  140.7217  143.7116  150.7765 LP  0  0  0  0  0  0  0  0  0  0  0  0  # atno 17342 bound_to 10162
  140.0683  143.5086  152.2592 LP  0  0  0  0  0  0  0  0  0  0  0  0  # atno 17343 bound_to 10162
  157.7180  131.0698  150.6251 LP  0  0  0  0  0  0  0  0  0  0  0  0  # atno 17370 bound_to 10713
  156.6325  130.4436  149.5781 LP  0  0  0  0  0  0  0  0  0  0  0  0  # atno 17371 bound_to 10713
  140.0416  134.9851  157.0972 LP  0  0  0  0  0  0  0  0  0  0  0  0  # atno 17394 bound_to 11000
  140.4127  134.1964  155.7163 LP  0  0  0  0  0  0  0  0  0  0  0  0  # atno 17395 bound_to 11000

$$$$
