AV-unprocessed.smi:54|AV-procd|sdf|560|dock5
  -GOLD-   2262016463D 1   1.00000     0.00000
 Structure written by MMmdl.
 43 45  0  0  0  0  0  0  0  0  2 V2000
  152.2504  143.3164  161.2308 C   0  0  0  0  0  0  0  0  0  0  0  0
  153.1112  143.2972  159.9570 C   0  0  0  0  0  0  0  0  0  0  0  0
  152.3847  143.9716  158.7816 C   0  0  0  0  0  0  0  0  0  0  0  0
  153.5148  141.8608  159.5953 C   0  0  0  0  0  0  0  0  0  0  0  0
  154.5823  141.4123  160.0189 O   0  0  0  0  0  0  0  0  0  0  0  0
  152.6405  141.1986  158.8061 N   0  0  0  0  0  0  0  0  0  0  0  0
  152.7271  139.9023  158.2865 C   0  0  0  0  0  0  0  0  0  0  0  0
  151.6019  139.4854  157.7601 N   0  0  0  0  0  0  0  0  0  0  0  0
  151.6885  138.2010  157.2588 C   0  0  0  0  0  0  0  0  0  0  0  0
  152.7765  137.3713  157.2759 C   0  0  0  0  0  0  0  0  0  0  0  0
  152.4931  136.1481  156.6810 N   0  0  0  0  0  0  0  0  0  0  0  0
  151.2191  136.3007  156.3242 C   0  0  0  0  0  0  0  0  0  0  0  0
  150.6681  137.4922  156.6288 N   0  0  0  0  0  0  0  0  0  0  0  0
  149.2630  137.9162  156.3366 C   0  0  1  0  0  0  0  0  0  0  0  0
  149.1152  139.2415  156.7494 O   0  0  0  0  0  0  0  0  0  0  0  0
  148.4747  140.0037  155.7334 C   0  0  1  0  0  0  0  0  0  0  0  0
  148.8944  141.4764  155.8684 C   0  0  0  0  0  0  0  0  0  0  0  0
  148.3507  142.2498  154.8196 O   0  0  0  0  0  0  0  0  0  0  0  0
  148.9205  139.3234  154.4366 C   0  0  2  0  0  0  0  0  0  0  0  0
  148.0486  139.5827  153.3521 O   0  0  0  0  0  0  0  0  0  0  0  0
  148.9774  137.8483  154.8274 C   0  0  2  0  0  0  0  0  0  0  0  0
  147.7559  137.1752  154.5804 O   0  0  0  0  0  0  0  0  0  0  0  0
  154.0133  137.8986  157.8995 C   0  0  0  0  0  0  0  0  0  0  0  0
  155.0144  137.1860  157.9391 O   0  0  0  0  0  0  0  0  0  0  0  0
  153.9263  139.1706  158.3916 N   0  5  0  0  0  0  0  0  0  0  0  0
  148.6410  137.2484  156.9347 H   0  0  0  0  0  0  0  0  0  0  0  0
  147.3971  139.8932  155.8702 H   0  0  0  0  0  0  0  0  0  0  0  0
  149.9197  139.6629  154.1641 H   0  0  0  0  0  0  0  0  0  0  0  0
  149.7740  137.3214  154.2997 H   0  0  0  0  0  0  0  0  0  0  0  0
  152.7618  142.8287  162.0616 H   0  0  0  0  0  0  0  0  0  0  0  0
  151.2983  142.8061  161.0797 H   0  0  0  0  0  0  0  0  0  0  0  0
  152.0316  144.3395  161.5372 H   0  0  0  0  0  0  0  0  0  0  0  0
  154.0184  143.8693  160.1597 H   0  0  0  0  0  0  0  0  0  0  0  0
  152.9922  143.9508  157.8760 H   0  0  0  0  0  0  0  0  0  0  0  0
  152.1678  145.0163  159.0053 H   0  0  0  0  0  0  0  0  0  0  0  0
  151.4376  143.4786  158.5587 H   0  0  0  0  0  0  0  0  0  0  0  0
  151.8506  141.7466  158.4997 H   0  0  0  0  0  0  0  0  0  0  0  0
  150.6682  135.5197  155.8211 H   0  0  0  0  0  0  0  0  0  0  0  0
  148.5307  141.8813  156.8129 H   0  0  0  0  0  0  0  0  0  0  0  0
  149.9802  141.5767  155.8731 H   0  0  0  0  0  0  0  0  0  0  0  0
  148.5323  143.1607  154.9941 H   0  0  0  0  0  0  0  0  0  0  0  0
  148.5515  139.5442  152.5526 H   0  0  0  0  0  0  0  0  0  0  0  0
  147.8157  136.7482  153.7394 H   0  0  0  0  0  0  0  0  0  0  0  0
  1  2  1  0  0  0  0
  1 30  1  0  0  0  0
  1 31  1  0  0  0  0
  1 32  1  0  0  0  0
  2  3  1  0  0  0  0
  2  4  1  0  0  0  0
  2 33  1  0  0  0  0
  3 34  1  0  0  0  0
  3 35  1  0  0  0  0
  3 36  1  0  0  0  0
  4  5  2  0  0  0  0
  4  6  1  0  0  0  0
  6 37  1  0  0  0  0
  6  7  1  0  0  0  0
  7 25  1  0  0  0  0
  7  8  2  0  0  0  0
  8  9  1  0  0  0  0
  9 13  1  0  0  0  0
  9 10  2  0  0  0  0
 10 11  1  0  0  0  0
 10 23  1  0  0  0  0
 11 12  2  0  0  0  0
 12 13  1  0  0  0  0
 12 38  1  0  0  0  0
 13 14  1  0  0  0  0
 14 26  1  0  0  0  0
 14 21  1  0  0  0  0
 14 15  1  0  0  0  0
 15 16  1  0  0  0  0
 16 27  1  0  0  0  0
 16 17  1  0  0  0  0
 16 19  1  0  0  0  0
 17 18  1  0  0  0  0
 17 39  1  0  0  0  0
 17 40  1  0  0  0  0
 18 41  1  0  0  0  0
 19 28  1  0  0  0  0
 19 20  1  0  0  0  0
 19 21  1  0  0  0  0
 20 42  1  0  0  0  0
 21 29  1  0  0  0  0
 21 22  1  0  0  0  0
 22 43  1  0  0  0  0
 23 24  2  0  0  0  0
 23 25  1  0  0  0  0
M  CHG  1  25  -1
M  END
> <s_m_source_file>
AV-unprocessed.smi

> <i_m_source_file_index>
54

> <i_lp_mmshare_version>
43012

> <i_f3d_flags>
0

> <s_epik_input>
W0NIM11bQ0hdKFtDSDNdKUMoPU8pW05IXWMobjEpW25IXWMoPU8pYyhjMTIpbltjSF1uMltDQEBIXTNPW0NASF0oW0NIMl1bT0hdKVtDQEBIXShbT0hdKVtDQEhdM1tPSF0=

> <s_epik_cmdline>
J2VwaWtfcHl0aG9uJywgJy1waCcsICc3LjAnLCAnLXRuJywgJzgnLCAnLW1hJywgJzIwMCcsICctbWV0YWxfYmluZGluZycsICctaW1hZScsICc8aW5maWxlLm1hZT4nLCAnLW9tYWUnLCAnPG91dGZpbGUubWFlPic=

> <r_lp_tautomer_probability>
0.85571

> <r_epik_Ionization_Penalty>
1.75936

> <r_epik_Ionization_Penalty_Charging>
4.55893e-11

> <r_epik_Ionization_Penalty_Neutral>
1.75936

> <r_epik_State_Penalty>
1.72072

> <r_epik_Charging_Adjusted_Penalty>
1.72072

> <i_epik_Tot_Q>
-1

> <i_epik_Tot_abs_Q>
1

> <r_epik_Metal_State_Penalty>
0.400338

> <b_epik_Metal_Only>
1

> <s_epik_Chemistry_Notes>
This compound contains an acetal/aminal-like group ( X-CH(R)-Y where X, Y are N, S, or O) that may be acid/base labile, releasing an aldehyde.

> <s_lp_Force_Field>
OPLS_2005

> <r_lp_Energy>
61.5682

> <b_lp_Chiralities_Consistent>
1

> <s_lp_Variant>
AV-unprocessed.smi:54-32

> <Gold.Version>
5.8.1

> <Gold.Id.Protein>
6NUR|6NUR_protein|mol2

> <Gold.PLP.Fitness>
48.9486

> <Gold.PLP.PLP>
-32.4234

> <Gold.PLP.part.hbond>
-5.3661

> <Gold.PLP.part.metal>
0.0000

> <Gold.PLP.part.buried>
-4.9848

> <Gold.PLP.part.nonpolar>
-22.2840

> <Gold.PLP.part.repulsive>
0.0984

> <Gold.PLP.ligand.clash>
0.0000

> <Gold.PLP.ligand.torsion>
0.7545

> <Gold.PLP.Chemscore.Hbond>
6.0000

> <Gold.PLP.Chemscore.CHOScore>
0.0000

> <Gold.PLP.Chemscore.Metal>
0.0000

> <Gold.Chemscore.Hbonds>
donor molecule, donor type, donor heavy atom, donor atom, acceptor molecule, acceptor atom, score
      L1  H    18    41       P1  8028  1.00
      L1  H    20    42       P1  7957  1.00
      L1  H    22    43       P1  7948  0.44
      P1  H  7997  8008       L1    25  2.00
      P1  H 10752 10764       L1    11  1.00

> <Gold.PLP.Chemscore.Internal.Correction>
0.0343

> <Gold.Rescore>
     Score         DG    S(hbond)    S(metal)    S(lipo)     H(rot)  DE(clash)    DE(int)     intcor
     12.40     -15.42       3.94        0.00      60.41       4.02       0.03       2.99       ----

> <Gold.Chemscore.Fitness>
12.4045

> <Gold.Chemscore.DG>
-15.4228

> <Gold.Chemscore.ZeroCoef>
-5.4800

> <Gold.Chemscore.Hbond>
3.9414

> <Gold.Chemscore.Metal>
0.0000

> <Gold.Chemscore.Lipo>
60.4094

> <Gold.Chemscore.Internal_Hbond>
0.0000

> <Gold.Chemscore.DEClash>
0.0270

> <Gold.Chemscore.DEInternal>
2.9913

> <Gold.Chemscore.Rot>
4.0192

> <Gold.Chemscore.Internal.Correction>
   9.000000E+99

> <Gold.Chemscore.Hbonds>
donor molecule, donor type, donor heavy atom, donor atom, acceptor molecule, acceptor atom, score
      L1  H    18    41       P1  8028  1.00
      L1  H    20    42       P1  7957  1.00
      L1  H    22    43       P1  7948  0.42
      P1  H  7997  8008       L1    25  0.10
      P1  H 10752 10764       L1    11  0.65

> <Gold.Chemscore.Hbond.Weighted>
-13.1642

> <Gold.Chemscore.Metal.Weighted>
-0.0000

> <Gold.Chemscore.Lipo.Weighted>
-7.0679

> <Gold.Chemscore.Internal_Hbond.Weighted>
0.0000

> <Gold.Chemscore.DEClash.Weighted>
0.0270

> <Gold.Chemscore.DEInternal.Weighted>
2.9913

> <Gold.Chemscore.Rot.Weighted>
10.2893

> <Gold.Chemscore.Internal.Correction.Weighted>
   9.000000E+99

> <Gold.Protein.RotatedTorsions>
[ 6907 6896 6895 6894 ] final   42.78 input  -60.11 | X-H torsion
[ 7974 7965 7964 7962 ] final   77.21 input  175.53 | X-H torsion
[ 8008 7997 7996 7995 ] final -114.85 input   59.86 | X-H torsion
[ 10167 10162 10161 10158 ] final   32.31 input  -65.29 | X-H torsion
[ 10718 10713 10712 10709 ] final  151.78 input   66.30 | X-H torsion
[ 10763 10752 10751 10750 ] final   -9.99 input  -60.55 | X-H torsion
[ 11005 11000 10999 10996 ] final  161.32 input  -57.11 | X-H torsion

> <Gold.Protein.ActiveResidues>
 VAL166  LYS551  ARG553  GLY616  TRP617  ASP618  TYR619  PRO620  LYS621  CYS622 
 ASP623  PHE694  ASN695  SER759  ASP760  ASP761  ALA762  ILE779  LEU786  VAL792 
 PHE793  MET794  SER795  GLU796  ALA797  LYS798  CYS799  TRP800  GLU811  SER814 

> <Gold.Protein.RotatedAtoms>
  152.2122  134.8491  160.0495 H   0  0  0  0  0  0  0  0  0  0  0  0  # atno 6907 bound_to 6896
  151.9305  133.3605  159.3937 H   0  0  0  0  0  0  0  0  0  0  0  0  # atno 6908 bound_to 6896
  150.6979  134.4467  159.5361 H   0  0  0  0  0  0  0  0  0  0  0  0  # atno 6909 bound_to 6896
  145.6929  139.2558  143.1749 H   0  0  0  0  0  0  0  0  0  0  0  0  # atno 7974 bound_to 7965
  155.0428  140.0392  157.2515 H   0  0  0  0  0  0  0  0  0  0  0  0  # atno 8008 bound_to 7997
  154.7202  140.2710  155.6524 H   0  0  0  0  0  0  0  0  0  0  0  0  # atno 8009 bound_to 7997
  156.2814  140.2704  156.1871 H   0  0  0  0  0  0  0  0  0  0  0  0  # atno 8010 bound_to 7997
  140.4510  144.1048  150.6192 H   0  0  0  0  0  0  0  0  0  0  0  0  # atno 10167 bound_to 10162
  157.2663  131.0808  151.1631 H   0  0  0  0  0  0  0  0  0  0  0  0  # atno 10718 bound_to 10713
  153.4628  135.7016  153.6040 H   0  0  0  0  0  0  0  0  0  0  0  0  # atno 10763 bound_to 10752
  153.4328  135.3798  155.2181 H   0  0  0  0  0  0  0  0  0  0  0  0  # atno 10764 bound_to 10752
  154.8727  135.3955  154.4055 H   0  0  0  0  0  0  0  0  0  0  0  0  # atno 10765 bound_to 10752
  140.2147  134.8241  157.3157 H   0  0  0  0  0  0  0  0  0  0  0  0  # atno 11005 bound_to 11000
  146.0866  140.7704  142.9616 LP  0  0  0  0  0  0  0  0  0  0  0  0  # atno 17320 bound_to 7965
  144.6991  140.3571  143.7171 LP  0  0  0  0  0  0  0  0  0  0  0  0  # atno 17321 bound_to 7965
  140.4207  143.2613  151.9718 LP  0  0  0  0  0  0  0  0  0  0  0  0  # atno 17342 bound_to 10162
  139.4796  144.5833  151.7896 LP  0  0  0  0  0  0  0  0  0  0  0  0  # atno 17343 bound_to 10162
  157.3121  130.6895  149.6221 LP  0  0  0  0  0  0  0  0  0  0  0  0  # atno 17370 bound_to 10713
  155.9663  130.4360  150.5117 LP  0  0  0  0  0  0  0  0  0  0  0  0  # atno 17371 bound_to 10713
  140.1914  134.4367  155.7714 LP  0  0  0  0  0  0  0  0  0  0  0  0  # atno 17394 bound_to 11000
  141.2225  133.7029  156.8032 LP  0  0  0  0  0  0  0  0  0  0  0  0  # atno 17395 bound_to 11000

$$$$
