AV-unprocessed.smi:1423|AV-procd|sdf|5797|dock2
  -GOLD-   22720 5443D 1   1.00000     0.00000
 Structure written by MMmdl.
 43 44  0  0  0  0  0  0  0  0  3 V2000
  152.0437  144.1106  159.9113 C   0  0  0  0  0  0  0  0  0  0  0  0
  150.9094  143.2511  159.8841 O   0  0  0  0  0  0  0  0  0  0  0  0
  150.5112  142.7305  158.6699 C   0  0  0  0  0  0  0  0  0  0  0  0
  151.4065  142.7917  157.5838 C   0  0  0  0  0  0  0  0  0  0  0  0
  151.0078  142.2650  156.3404 C   0  0  0  0  0  0  0  0  0  0  0  0
  149.7221  141.6833  156.2236 C   0  0  0  0  0  0  0  0  0  0  0  0
  149.1894  141.1329  155.0254 N   0  0  0  0  0  0  0  0  0  0  0  0
  148.0994  140.3639  154.8590 C   0  0  0  0  0  0  0  0  0  0  0  0
  147.3226  140.0217  155.7499 O   0  0  0  0  0  0  0  0  0  0  0  0
  147.9456  140.0145  153.5736 N   0  0  0  0  0  0  0  0  0  0  0  0
  146.8674  139.1784  153.0532 C   0  0  2  0  0  0  0  0  0  0  0  0
  146.8592  137.8036  153.7463 C   0  0  0  0  0  0  0  0  0  0  0  0
  145.7966  136.8773  153.1326 C   0  0  0  0  0  0  0  0  0  0  0  0
  145.9997  136.7265  151.6671 N   0  3  1  0  0  0  0  0  0  0  0  0
  145.0877  135.7317  151.0470 C   0  0  0  0  0  0  0  0  0  0  0  0
  145.5650  134.3036  151.3332 C   0  0  0  0  0  0  0  0  0  0  0  0
  145.8314  133.6151  150.2047 N   0  5  0  0  0  0  0  0  0  0  0  0
  145.6635  133.9164  152.4952 O   0  0  0  0  0  0  0  0  0  0  0  0
  145.9697  138.0374  150.9714 C   0  0  0  0  0  0  0  0  0  0  0  0
  147.0370  138.9895  151.5370 C   0  0  0  0  0  0  0  0  0  0  0  0
  148.8991  141.6808  157.3692 C   0  0  0  0  0  0  0  0  0  0  0  0
  149.2747  142.1845  158.5636 N   0  0  0  0  0  0  0  0  0  0  0  0
  152.2267  144.4333  160.9360 H   0  0  0  0  0  0  0  0  0  0  0  0
  151.8820  145.0044  159.3071 H   0  0  0  0  0  0  0  0  0  0  0  0
  152.9411  143.5984  159.5610 H   0  0  0  0  0  0  0  0  0  0  0  0
  152.3821  143.2400  157.7008 H   0  0  0  0  0  0  0  0  0  0  0  0
  151.6904  142.3322  155.5083 H   0  0  0  0  0  0  0  0  0  0  0  0
  149.6859  141.3824  154.1825 H   0  0  0  0  0  0  0  0  0  0  0  0
  148.6284  140.3444  152.9069 H   0  0  0  0  0  0  0  0  0  0  0  0
  145.9105  139.6734  153.2307 H   0  0  0  0  0  0  0  0  0  0  0  0
  147.8409  137.3358  153.6558 H   0  0  0  0  0  0  0  0  0  0  0  0
  146.6696  137.9196  154.8139 H   0  0  0  0  0  0  0  0  0  0  0  0
  145.8473  135.9044  153.6221 H   0  0  0  0  0  0  0  0  0  0  0  0
  144.7984  137.2740  153.3238 H   0  0  0  0  0  0  0  0  0  0  0  0
  144.0666  135.8768  151.4033 H   0  0  0  0  0  0  0  0  0  0  0  0
  145.0606  135.8626  149.9638 H   0  0  0  0  0  0  0  0  0  0  0  0
  145.8127  134.1148  149.3071 H   0  0  0  0  0  0  0  0  0  0  0  0
  146.1503  137.8922  149.9056 H   0  0  0  0  0  0  0  0  0  0  0  0
  144.9770  138.4799  151.0687 H   0  0  0  0  0  0  0  0  0  0  0  0
  146.9758  139.9532  151.0302 H   0  0  0  0  0  0  0  0  0  0  0  0
  148.0283  138.5880  151.3207 H   0  0  0  0  0  0  0  0  0  0  0  0
  147.9051  141.2593  157.3286 H   0  0  0  0  0  0  0  0  0  0  0  0
  146.9290  136.3521  151.5329 H   0  0  0  0  0  0  0  0  0  0  0  0
  1  2  1  0  0  0  0
  1 23  1  0  0  0  0
  1 24  1  0  0  0  0
  1 25  1  0  0  0  0
  2  3  1  0  0  0  0
  3 22  1  0  0  0  0
  3  4  2  0  0  0  0
  4  5  1  0  0  0  0
  4 26  1  0  0  0  0
  5  6  2  0  0  0  0
  5 27  1  0  0  0  0
  6  7  1  0  0  0  0
  6 21  1  0  0  0  0
  7  8  1  0  0  0  0
  7 28  1  0  0  0  0
  8  9  2  0  0  0  0
  8 10  1  0  0  0  0
 10 11  1  0  0  0  0
 10 29  1  0  0  0  0
 11 20  1  0  0  0  0
 11 12  1  0  0  0  0
 11 30  1  0  0  0  0
 12 13  1  0  0  0  0
 12 31  1  0  0  0  0
 12 32  1  0  0  0  0
 13 14  1  0  0  0  0
 13 33  1  0  0  0  0
 13 34  1  0  0  0  0
 14 15  1  0  0  0  0
 14 19  1  0  0  0  0
 14 43  1  0  0  0  0
 15 16  1  0  0  0  0
 15 35  1  0  0  0  0
 15 36  1  0  0  0  0
 16 17  1  0  0  0  0
 16 18  2  0  0  0  0
 17 37  1  0  0  0  0
 19 20  1  0  0  0  0
 19 38  1  0  0  0  0
 19 39  1  0  0  0  0
 20 40  1  0  0  0  0
 20 41  1  0  0  0  0
 21 22  2  0  0  0  0
 21 42  1  0  0  0  0
M  CHG  1  14   1
M  CHG  1  17  -1
M  END
> <s_m_source_file>
AV-unprocessed.smi

> <i_m_source_file_index>
1423

> <i_lp_mmshare_version>
43012

> <i_f3d_flags>
0

> <s_epik_input>
W0NIM11PYzFbY0hdW2NIXWMoW2NIXW4xKVtOSF1DKD1PKVtOSF1bQ0hdMltDSDJdW0NIMl1OKFtDSDJdW0NIMl0yKVtDSDJdQyg9TylbTkgyXQ==

> <s_epik_cmdline>
J2VwaWtfcHl0aG9uJywgJy1waCcsICc3LjAnLCAnLXRuJywgJzgnLCAnLW1hJywgJzIwMCcsICctbWV0YWxfYmluZGluZycsICctaW1hZScsICc8aW5maWxlLm1hZT4nLCAnLW9tYWUnLCAnPG91dGZpbGUubWFlPic=

> <r_lp_tautomer_probability>
1

> <r_epik_Ionization_Penalty>
5.72888

> <r_epik_Ionization_Penalty_Charging>
5.7288

> <r_epik_Ionization_Penalty_Neutral>
7.8452e-05

> <r_epik_State_Penalty>
6.54882

> <r_epik_Charging_Adjusted_Penalty>
12.2776

> <i_epik_Tot_Q>
0

> <i_epik_Tot_abs_Q>
2

> <r_epik_Metal_State_Penalty>
2.51301

> <b_epik_Metal_Only>
1

> <s_lp_Force_Field>
OPLS_2005

> <r_lp_Energy>
10.9641

> <b_lp_Chiralities_Consistent>
1

> <s_lp_Variant>
AV-unprocessed.smi:1423-4

> <Gold.Version>
5.8.1

> <Gold.Id.Protein>
6NUR|6NUR_protein|mol2

> <Gold.PLP.Fitness>
41.9605

> <Gold.PLP.PLP>
-30.9623

> <Gold.PLP.part.hbond>
-4.2471

> <Gold.PLP.part.metal>
0.0000

> <Gold.PLP.part.buried>
2.8075

> <Gold.PLP.part.nonpolar>
-29.4109

> <Gold.PLP.part.repulsive>
0.4861

> <Gold.PLP.ligand.clash>
0.0000

> <Gold.PLP.ligand.torsion>
0.4577

> <Gold.PLP.Chemscore.Hbond>
3.9600

> <Gold.PLP.Chemscore.CHOScore>
0.0000

> <Gold.PLP.Chemscore.Metal>
0.0000

> <Gold.Chemscore.Hbonds>
donor molecule, donor type, donor heavy atom, donor atom, acceptor molecule, acceptor atom, score
      L1  H    10    29       P1  7957  0.96
      L1  H    14    43       P1  7948  2.00
      L1  H    17    37       P1  7921  1.00

> <Gold.PLP.Chemscore.Internal.Correction>
0.0337

> <Gold.Rescore>
     Score         DG    S(hbond)    S(metal)    S(lipo)     H(rot)  DE(clash)    DE(int)     intcor
     13.00     -18.17       2.61        0.00      83.92       2.29       3.24       1.92       ----

> <Gold.Chemscore.Fitness>
13.0031

> <Gold.Chemscore.DG>
-18.1663

> <Gold.Chemscore.ZeroCoef>
-5.4800

> <Gold.Chemscore.Hbond>
2.6133

> <Gold.Chemscore.Metal>
0.0000

> <Gold.Chemscore.Lipo>
83.9199

> <Gold.Chemscore.Internal_Hbond>
0.0000

> <Gold.Chemscore.DEClash>
3.2407

> <Gold.Chemscore.DEInternal>
1.9225

> <Gold.Chemscore.Rot>
2.2894

> <Gold.Chemscore.Internal.Correction>
   9.000000E+99

> <Gold.Chemscore.Hbonds>
donor molecule, donor type, donor heavy atom, donor atom, acceptor molecule, acceptor atom, score
      L1  H    10    29       P1  7957  0.87
      L1  H    14    43       P1  7948  0.93
      L1  H    17    37       P1  7921  0.45

> <Gold.Chemscore.Hbond.Weighted>
-8.7285

> <Gold.Chemscore.Metal.Weighted>
-0.0000

> <Gold.Chemscore.Lipo.Weighted>
-9.8186

> <Gold.Chemscore.Internal_Hbond.Weighted>
0.0000

> <Gold.Chemscore.DEClash.Weighted>
3.2407

> <Gold.Chemscore.DEInternal.Weighted>
1.9225

> <Gold.Chemscore.Rot.Weighted>
5.8608

> <Gold.Chemscore.Internal.Correction.Weighted>
   9.000000E+99

> <Gold.Protein.RotatedTorsions>
[ 6907 6896 6895 6894 ] final   16.07 input  -60.11 | X-H torsion
[ 7974 7965 7964 7962 ] final  121.40 input  175.53 | X-H torsion
[ 8008 7997 7996 7995 ] final -127.15 input   59.86 | X-H torsion
[ 10167 10162 10161 10158 ] final  -94.50 input  -65.29 | X-H torsion
[ 10718 10713 10712 10709 ] final  -23.59 input   66.30 | X-H torsion
[ 10763 10752 10751 10750 ] final -133.41 input  -60.55 | X-H torsion
[ 11005 11000 10999 10996 ] final  121.58 input  -57.11 | X-H torsion

> <Gold.Protein.ActiveResidues>
 VAL166  LYS551  ARG553  GLY616  TRP617  ASP618  TYR619  PRO620  LYS621  CYS622 
 ASP623  PHE694  ASN695  SER759  ASP760  ASP761  ALA762  ILE779  LEU786  VAL792 
 PHE793  MET794  SER795  GLU796  ALA797  LYS798  CYS799  TRP800  GLU811  SER814 

> <Gold.Protein.RotatedAtoms>
  151.8281  135.0630  160.0433 H   0  0  0  0  0  0  0  0  0  0  0  0  # atno 6907 bound_to 6896
  152.2901  133.5548  159.5560 H   0  0  0  0  0  0  0  0  0  0  0  0  # atno 6908 bound_to 6896
  150.7226  134.0357  159.3790 H   0  0  0  0  0  0  0  0  0  0  0  0  # atno 6909 bound_to 6896
  145.1198  139.3397  143.4720 H   0  0  0  0  0  0  0  0  0  0  0  0  # atno 7974 bound_to 7965
  155.2415  140.0429  157.2975 H   0  0  0  0  0  0  0  0  0  0  0  0  # atno 8008 bound_to 7997
  154.5825  140.2404  155.8003 H   0  0  0  0  0  0  0  0  0  0  0  0  # atno 8009 bound_to 7997
  156.2203  140.2972  155.9945 H   0  0  0  0  0  0  0  0  0  0  0  0  # atno 8010 bound_to 7997
  140.3138  143.3089  152.0120 H   0  0  0  0  0  0  0  0  0  0  0  0  # atno 10167 bound_to 10162
  156.4890  130.4562  149.6766 H   0  0  0  0  0  0  0  0  0  0  0  0  # atno 10718 bound_to 10713
  154.8733  135.3767  154.4568 H   0  0  0  0  0  0  0  0  0  0  0  0  # atno 10763 bound_to 10752
  153.5240  135.7028  153.5722 H   0  0  0  0  0  0  0  0  0  0  0  0  # atno 10764 bound_to 10752
  153.3956  135.3961  155.1918 H   0  0  0  0  0  0  0  0  0  0  0  0  # atno 10765 bound_to 10752
  139.9232  134.9639  156.7980 H   0  0  0  0  0  0  0  0  0  0  0  0  # atno 11005 bound_to 11000
  146.3521  140.1152  142.8602 LP  0  0  0  0  0  0  0  0  0  0  0  0  # atno 17320 bound_to 7965
  145.0753  140.9184  143.4857 LP  0  0  0  0  0  0  0  0  0  0  0  0  # atno 17321 bound_to 7965
  139.4888  144.6364  151.6967 LP  0  0  0  0  0  0  0  0  0  0  0  0  # atno 17342 bound_to 10162
  140.5544  144.0372  150.6141 LP  0  0  0  0  0  0  0  0  0  0  0  0  # atno 17343 bound_to 10162
  156.3445  130.7399  151.2350 LP  0  0  0  0  0  0  0  0  0  0  0  0  # atno 17370 bound_to 10713
  157.7475  131.0394  150.4550 LP  0  0  0  0  0  0  0  0  0  0  0  0  # atno 17371 bound_to 10713
  140.6413  133.9816  155.7709 LP  0  0  0  0  0  0  0  0  0  0  0  0  # atno 17394 bound_to 11000
  141.0769  134.0121  157.3444 LP  0  0  0  0  0  0  0  0  0  0  0  0  # atno 17395 bound_to 11000

$$$$
