AV-unprocessed.smi:157|AV-procd|sdf|1299|dock3
  -GOLD-   2262018583D 1   1.00000     0.00000
 Structure written by MMmdl.
 35 37  0  0  0  0  0  0  0  0  1 V2000
  151.1738  136.2766  154.3154 O   0  0  0  0  0  0  0  0  0  0  0  0
  150.5790  137.5273  154.5898 C   0  0  0  0  0  0  0  0  0  0  0  0
  151.6352  138.6480  154.4737 C   0  0  1  0  0  0  0  0  0  0  0  0
  150.9413  139.8998  154.4898 O   0  0  0  0  0  0  0  0  0  0  0  0
  151.1411  140.5702  155.7009 C   0  0  1  0  0  0  0  0  0  0  0  0
  149.8168  141.0078  156.2456 N   0  0  0  0  0  0  0  0  0  0  0  0
  149.5009  141.1934  157.5346 C   0  0  0  0  0  0  0  0  0  0  0  0
  148.2595  141.5979  157.7431 N   0  0  0  0  0  0  0  0  0  0  0  0
  147.7124  141.6777  156.4638 C   0  0  0  0  0  0  0  0  0  0  0  0
  148.6614  141.3118  155.5201 C   0  0  0  0  0  0  0  0  0  0  0  0
  148.7079  141.2092  154.1428 N   0  0  0  0  0  0  0  0  0  0  0  0
  147.5846  141.1415  153.5002 C   0  0  0  0  0  0  0  0  0  0  0  0
  146.2805  141.2503  153.9619 N   0  0  0  0  0  0  0  0  0  0  0  0
  145.8336  142.3166  154.8417 C   0  0  0  0  0  0  0  0  0  0  0  0
  146.2963  142.1465  156.2939 C   0  0  1  0  0  0  0  0  0  0  0  0
  145.4684  141.1996  156.9375 O   0  0  0  0  0  0  0  0  0  0  0  0
  151.8076  139.5820  156.6519 C   0  0  0  0  0  0  0  0  0  0  0  0
  152.6029  138.7582  155.6657 C   0  0  1  0  0  0  0  0  0  0  0  0
  153.0115  137.5222  156.2162 O   0  0  0  0  0  0  0  0  0  0  0  0
  152.1997  138.5337  153.5470 H   0  0  0  0  0  0  0  0  0  0  0  0
  151.7157  141.4822  155.5345 H   0  0  0  0  0  0  0  0  0  0  0  0
  146.1554  143.0943  156.8142 H   0  0  0  0  0  0  0  0  0  0  0  0
  153.4897  139.3172  155.3630 H   0  0  0  0  0  0  0  0  0  0  0  0
  150.9763  136.0393  153.4224 H   0  0  0  0  0  0  0  0  0  0  0  0
  149.7321  137.6970  153.9250 H   0  0  0  0  0  0  0  0  0  0  0  0
  150.1836  137.4663  155.6035 H   0  0  0  0  0  0  0  0  0  0  0  0
  150.1971  141.0323  158.3443 H   0  0  0  0  0  0  0  0  0  0  0  0
  147.6140  140.9813  152.4215 H   0  0  0  0  0  0  0  0  0  0  0  0
  145.5305  140.9293  153.3667 H   0  0  0  0  0  0  0  0  0  0  0  0
  146.2404  143.2502  154.4503 H   0  0  0  0  0  0  0  0  0  0  0  0
  144.7487  142.4118  154.7888 H   0  0  0  0  0  0  0  0  0  0  0  0
  145.7960  141.0701  157.8146 H   0  0  0  0  0  0  0  0  0  0  0  0
  152.4141  140.0951  157.3988 H   0  0  0  0  0  0  0  0  0  0  0  0
  151.0497  138.9773  157.1534 H   0  0  0  0  0  0  0  0  0  0  0  0
  152.2412  137.0405  156.4768 H   0  0  0  0  0  0  0  0  0  0  0  0
  1  2  1  0  0  0  0
  1 24  1  0  0  0  0
  2  3  1  0  0  0  0
  2 25  1  0  0  0  0
  2 26  1  0  0  0  0
  3 20  1  0  0  0  0
  3 18  1  0  0  0  0
  3  4  1  0  0  0  0
  4  5  1  0  0  0  0
  5 21  1  0  0  0  0
  5  6  1  0  0  0  0
  5 17  1  0  0  0  0
  6 10  1  0  0  0  0
  6  7  1  0  0  0  0
  7  8  2  0  0  0  0
  7 27  1  0  0  0  0
  8  9  1  0  0  0  0
  9 15  1  0  0  0  0
  9 10  2  0  0  0  0
 10 11  1  0  0  0  0
 11 12  2  0  0  0  0
 12 13  1  0  0  0  0
 12 28  1  0  0  0  0
 13 14  1  0  0  0  0
 13 29  1  0  0  0  0
 14 15  1  0  0  0  0
 14 30  1  0  0  0  0
 14 31  1  0  0  0  0
 15 22  1  0  0  0  0
 15 16  1  0  0  0  0
 16 32  1  0  0  0  0
 17 18  1  0  0  0  0
 17 33  1  0  0  0  0
 17 34  1  0  0  0  0
 18 23  1  0  0  0  0
 18 19  1  0  0  0  0
 19 35  1  0  0  0  0
M  END
> <s_m_source_file>
AV-unprocessed.smi

> <i_m_source_file_index>
157

> <i_lp_mmshare_version>
43012

> <i_f3d_flags>
0

> <s_epik_input>
W09IXVtDSDJdW0NASF0xT1tDQEhdKFtDSDJdW0NAQEhdMVtPSF0pbihbY0hdbjIpYyhjMjMpTj1bQ0hdW05IXVtDSDJdW0NASF0zW09IXQ==

> <s_epik_cmdline>
J2VwaWtfcHl0aG9uJywgJy1waCcsICc3LjAnLCAnLXRuJywgJzgnLCAnLW1hJywgJzIwMCcsICctbWV0YWxfYmluZGluZycsICctaW1hZScsICc8aW5maWxlLm1hZT4nLCAnLW9tYWUnLCAnPG91dGZpbGUubWFlPic=

> <r_lp_tautomer_probability>
1

> <r_epik_Ionization_Penalty>
0.0357149

> <r_epik_Ionization_Penalty_Charging>
0.0355056

> <r_epik_Ionization_Penalty_Neutral>
0.000209255

> <r_epik_State_Penalty>
0.0296046

> <r_epik_Charging_Adjusted_Penalty>
0.0651102

> <i_epik_Tot_Q>
0

> <i_epik_Tot_abs_Q>
0

> <r_epik_Metal_State_Penalty>
3.03559e-05

> <b_epik_Metal_Only>
0

> <s_epik_Chemistry_Notes>
This compound has an imine and may undergo hydrolysis. This compound contains an acetal/aminal-like group ( X-CH(R)-Y where X, Y are N, S, or O) that may be acid/base labile, releasing an aldehyde.

> <s_lp_Force_Field>
OPLS_2005

> <r_lp_Energy>
47.2619

> <b_lp_Chiralities_Consistent>
1

> <s_lp_Variant>
AV-unprocessed.smi:157-9

> <Gold.Version>
5.8.1

> <Gold.Id.Protein>
6NUR|6NUR_protein|mol2

> <Gold.PLP.Fitness>
43.0651

> <Gold.PLP.PLP>
-30.2401

> <Gold.PLP.part.hbond>
-5.0452

> <Gold.PLP.part.metal>
0.0000

> <Gold.PLP.part.buried>
-4.8800

> <Gold.PLP.part.nonpolar>
-21.3535

> <Gold.PLP.part.repulsive>
0.3462

> <Gold.PLP.ligand.clash>
0.0000

> <Gold.PLP.ligand.torsion>
0.8254

> <Gold.PLP.Chemscore.Hbond>
3.9100

> <Gold.PLP.Chemscore.CHOScore>
0.9105

> <Gold.PLP.Chemscore.Metal>
0.0000

> <Gold.Chemscore.Hbonds>
donor molecule, donor type, donor heavy atom, donor atom, acceptor molecule, acceptor atom, score
      L1  H     1    24       P1  7949  0.85
      L1  H    13    29       P1 10175  0.84
      P1  H  7989  7998       L1     4  1.00
      P1  H 10752 10764       L1     1  1.00
      L1  C    12    28       P1  7957  0.91

> <Gold.PLP.Chemscore.Internal.Correction>
0.0144

> <Gold.Rescore>
     Score         DG    S(hbond)    S(metal)    S(lipo)     H(rot)  DE(clash)    DE(int)     intcor
      6.35      -9.36       2.60        0.00      38.41       3.64       0.51       2.50       ----

> <Gold.Chemscore.Fitness>
6.3533

> <Gold.Chemscore.DG>
-9.3639

> <Gold.Chemscore.ZeroCoef>
-5.4800

> <Gold.Chemscore.Hbond>
2.6045

> <Gold.Chemscore.Metal>
0.0000

> <Gold.Chemscore.Lipo>
38.4069

> <Gold.Chemscore.Internal_Hbond>
0.0000

> <Gold.Chemscore.DEClash>
0.5131

> <Gold.Chemscore.DEInternal>
2.4975

> <Gold.Chemscore.Rot>
3.6362

> <Gold.Chemscore.Internal.Correction>
   9.000000E+99

> <Gold.Chemscore.Hbonds>
donor molecule, donor type, donor heavy atom, donor atom, acceptor molecule, acceptor atom, score
      L1  H     1    24       P1  7949  0.14
      L1  H    13    29       P1 10175  0.54
      P1  H  7989  7998       L1     4  0.20
      P1  H 10752 10764       L1     1  0.26

> <Gold.Chemscore.Hbond.Weighted>
-8.6990

> <Gold.Chemscore.Metal.Weighted>
-0.0000

> <Gold.Chemscore.Lipo.Weighted>
-4.4936

> <Gold.Chemscore.Internal_Hbond.Weighted>
0.0000

> <Gold.Chemscore.DEClash.Weighted>
0.5131

> <Gold.Chemscore.DEInternal.Weighted>
2.4975

> <Gold.Chemscore.Rot.Weighted>
9.3087

> <Gold.Chemscore.Internal.Correction.Weighted>
   9.000000E+99

> <Gold.Protein.RotatedTorsions>
[ 6907 6896 6895 6894 ] final -102.10 input  -60.11 | X-H torsion
[ 7974 7965 7964 7962 ] final  141.73 input  175.53 | X-H torsion
[ 8008 7997 7996 7995 ] final  147.29 input   59.86 | X-H torsion
[ 10167 10162 10161 10158 ] final  -94.88 input  -65.29 | X-H torsion
[ 10718 10713 10712 10709 ] final -167.04 input   66.30 | X-H torsion
[ 10763 10752 10751 10750 ] final  -66.51 input  -60.55 | X-H torsion
[ 11005 11000 10999 10996 ] final   -7.99 input  -57.11 | X-H torsion

> <Gold.Protein.ActiveResidues>
 VAL166  LYS551  ARG553  GLY616  TRP617  ASP618  TYR619  PRO620  LYS621  CYS622 
 ASP623  PHE694  ASN695  SER759  ASP760  ASP761  ALA762  ILE779  LEU786  VAL792 
 PHE793  MET794  SER795  GLU796  ALA797  LYS798  CYS799  TRP800  GLU811  SER814 

> <Gold.Protein.RotatedAtoms>
  150.7182  134.0633  159.3838 H   0  0  0  0  0  0  0  0  0  0  0  0  # atno 6907 bound_to 6896
  151.8613  135.0521  160.0479 H   0  0  0  0  0  0  0  0  0  0  0  0  # atno 6908 bound_to 6896
  152.2715  133.5351  159.5478 H   0  0  0  0  0  0  0  0  0  0  0  0  # atno 6909 bound_to 6896
  144.9070  139.5345  143.5727 H   0  0  0  0  0  0  0  0  0  0  0  0  # atno 7974 bound_to 7965
  156.2829  140.2159  156.5514 H   0  0  0  0  0  0  0  0  0  0  0  0  # atno 8008 bound_to 7997
  154.7288  140.0497  157.0730 H   0  0  0  0  0  0  0  0  0  0  0  0  # atno 8009 bound_to 7997
  155.0381  140.3142  155.4737 H   0  0  0  0  0  0  0  0  0  0  0  0  # atno 8010 bound_to 7997
  140.3098  143.3111  152.0160 H   0  0  0  0  0  0  0  0  0  0  0  0  # atno 10167 bound_to 10162
  156.6766  130.9105  151.3051 H   0  0  0  0  0  0  0  0  0  0  0  0  # atno 10718 bound_to 10713
  154.3609  135.6116  153.5690 H   0  0  0  0  0  0  0  0  0  0  0  0  # atno 10763 bound_to 10752
  152.9793  135.5815  154.4634 H   0  0  0  0  0  0  0  0  0  0  0  0  # atno 10764 bound_to 10752
  154.4372  135.2849  155.1850 H   0  0  0  0  0  0  0  0  0  0  0  0  # atno 10765 bound_to 10752
  140.7187  133.8847  155.8804 H   0  0  0  0  0  0  0  0  0  0  0  0  # atno 11005 bound_to 11000
  146.3139  139.7845  142.8999 LP  0  0  0  0  0  0  0  0  0  0  0  0  # atno 17320 bound_to 7965
  145.3519  141.0309  143.3334 LP  0  0  0  0  0  0  0  0  0  0  0  0  # atno 17321 bound_to 7965
  139.4896  144.6393  151.6911 LP  0  0  0  0  0  0  0  0  0  0  0  0  # atno 17342 bound_to 10162
  140.5578  144.0319  150.6155 LP  0  0  0  0  0  0  0  0  0  0  0  0  # atno 17343 bound_to 10162
  157.7058  130.9384  150.0928 LP  0  0  0  0  0  0  0  0  0  0  0  0  # atno 17370 bound_to 10713
  156.1899  130.3654  149.8924 LP  0  0  0  0  0  0  0  0  0  0  0  0  # atno 17371 bound_to 10713
  141.0022  134.1134  157.4305 LP  0  0  0  0  0  0  0  0  0  0  0  0  # atno 17394 bound_to 11000
  139.8853  135.0071  156.6429 LP  0  0  0  0  0  0  0  0  0  0  0  0  # atno 17395 bound_to 11000

$$$$
