AV-unprocessed.smi:3289|AV-procd|sdf|12608|dock9
  -GOLD-   2272018533D 1   1.00000     0.00000
 Structure written by MMmdl.
 40 41  0  0  0  0  0  0  0  0  2 V2000
  145.2812  142.3807  155.7791 C   0  0  0  0  0  0  0  0  0  0  0  0
  146.3063  142.6474  154.6651 C   0  0  0  0  0  0  0  0  0  0  0  0
  145.7121  143.5237  153.5536 C   0  0  0  0  0  0  0  0  0  0  0  0
  146.8816  141.3753  154.1044 C   0  0  0  0  0  0  0  0  0  0  0  0
  146.1897  140.4412  153.4389 N   0  3  0  0  0  0  0  0  0  0  0  0
  147.0136  139.4277  153.0343 C   0  0  0  0  0  0  0  0  0  0  0  0
  148.2728  139.7642  153.4542 C   0  0  0  0  0  0  0  0  0  0  0  0
  148.1666  140.9709  154.0989 N   0  0  0  0  0  0  0  0  0  0  0  0
  149.2761  141.7184  154.7095 C   0  0  0  0  0  0  0  0  0  0  0  0
  149.4632  141.3355  156.1789 C   0  0  0  0  0  0  0  0  0  0  0  0
  148.8489  140.3780  156.6491 O   0  0  0  0  0  0  0  0  0  0  0  0
  150.2871  142.1135  156.8971 N   0  0  0  0  0  0  0  0  0  0  0  0
  150.5102  142.0104  158.3348 C   0  0  0  0  0  0  0  0  0  0  0  0
  151.5189  143.0654  158.8212 C   0  0  1  0  0  0  0  0  0  0  0  0
  151.4127  144.4287  158.1416 C   0  0  0  0  0  0  0  0  0  0  0  0
  152.1344  145.3226  159.1270 C   0  0  0  0  0  0  0  0  0  0  0  0
  151.8434  144.6609  160.4771 C   0  0  0  0  0  0  0  0  0  0  0  0
  151.2947  143.3768  160.1881 O   0  0  0  0  0  0  0  0  0  0  0  0
  145.7171  141.7863  156.5824 H   0  0  0  0  0  0  0  0  0  0  0  0
  144.4090  141.8451  155.4030 H   0  0  0  0  0  0  0  0  0  0  0  0
  144.9297  143.3149  156.2179 H   0  0  0  0  0  0  0  0  0  0  0  0
  147.1364  143.1863  155.1187 H   0  0  0  0  0  0  0  0  0  0  0  0
  146.4607  143.7687  152.7997 H   0  0  0  0  0  0  0  0  0  0  0  0
  145.3319  144.4635  153.9555 H   0  0  0  0  0  0  0  0  0  0  0  0
  144.8867  143.0192  153.0503 H   0  0  0  0  0  0  0  0  0  0  0  0
  146.6524  138.5678  152.4892 H   0  0  0  0  0  0  0  0  0  0  0  0
  149.2154  139.2477  153.3432 H   0  0  0  0  0  0  0  0  0  0  0  0
  150.1881  141.4882  154.1575 H   0  0  0  0  0  0  0  0  0  0  0  0
  149.0906  142.7869  154.5910 H   0  0  0  0  0  0  0  0  0  0  0  0
  150.7602  142.8683  156.4217 H   0  0  0  0  0  0  0  0  0  0  0  0
  149.5722  142.0888  158.8868 H   0  0  0  0  0  0  0  0  0  0  0  0
  150.9015  141.0135  158.5381 H   0  0  0  0  0  0  0  0  0  0  0  0
  152.5370  142.6839  158.7236 H   0  0  0  0  0  0  0  0  0  0  0  0
  151.8544  144.4486  157.1455 H   0  0  0  0  0  0  0  0  0  0  0  0
  150.3678  144.7318  158.0589 H   0  0  0  0  0  0  0  0  0  0  0  0
  153.2066  145.3053  158.9274 H   0  0  0  0  0  0  0  0  0  0  0  0
  151.7984  146.3590  159.0808 H   0  0  0  0  0  0  0  0  0  0  0  0
  152.7528  144.5617  161.0705 H   0  0  0  0  0  0  0  0  0  0  0  0
  151.1217  145.2359  161.0578 H   0  0  0  0  0  0  0  0  0  0  0  0
  145.1933  140.4815  153.2652 H   0  0  0  0  0  0  0  0  0  0  0  0
  1  2  1  0  0  0  0
  1 19  1  0  0  0  0
  1 20  1  0  0  0  0
  1 21  1  0  0  0  0
  2  3  1  0  0  0  0
  2  4  1  0  0  0  0
  2 22  1  0  0  0  0
  3 23  1  0  0  0  0
  3 24  1  0  0  0  0
  3 25  1  0  0  0  0
  4  8  1  0  0  0  0
  4  5  2  0  0  0  0
  5  6  1  0  0  0  0
  5 40  1  0  0  0  0
  6  7  2  0  0  0  0
  6 26  1  0  0  0  0
  7  8  1  0  0  0  0
  7 27  1  0  0  0  0
  8  9  1  0  0  0  0
  9 10  1  0  0  0  0
  9 28  1  0  0  0  0
  9 29  1  0  0  0  0
 10 11  2  0  0  0  0
 10 12  1  0  0  0  0
 12 13  1  0  0  0  0
 12 30  1  0  0  0  0
 13 14  1  0  0  0  0
 13 31  1  0  0  0  0
 13 32  1  0  0  0  0
 14 18  1  0  0  0  0
 14 15  1  0  0  0  0
 14 33  1  0  0  0  0
 15 16  1  0  0  0  0
 15 34  1  0  0  0  0
 15 35  1  0  0  0  0
 16 17  1  0  0  0  0
 16 36  1  0  0  0  0
 16 37  1  0  0  0  0
 17 18  1  0  0  0  0
 17 38  1  0  0  0  0
 17 39  1  0  0  0  0
M  CHG  1   5   1
M  END
> <s_m_source_file>
AV-unprocessed.smi

> <i_m_source_file_index>
3289

> <i_lp_mmshare_version>
43012

> <i_f3d_flags>
0

> <s_epik_input>
W0NIM11bQ0hdKFtDSDNdKWMxbltjSF1bY0hdbjFbQ0gyXUMoPU8pW05IXVtDSDJdW0NAQEhdMltDSDJdW0NIMl1bQ0gyXU8y

> <s_epik_cmdline>
J2VwaWtfcHl0aG9uJywgJy1waCcsICc3LjAnLCAnLXRuJywgJzgnLCAnLW1hJywgJzIwMCcsICctbWV0YWxfYmluZGluZycsICctaW1hZScsICc8aW5maWxlLm1hZT4nLCAnLW9tYWUnLCAnPG91dGZpbGUubWFlPic=

> <r_lp_tautomer_probability>
1

> <r_epik_Ionization_Penalty>
0.274547

> <r_epik_Ionization_Penalty_Charging>
0

> <r_epik_Ionization_Penalty_Neutral>
0.274547

> <r_epik_State_Penalty>
0.266843

> <r_epik_Charging_Adjusted_Penalty>
0.266843

> <i_epik_Tot_Q>
1

> <i_epik_Tot_abs_Q>
1

> <r_epik_Metal_State_Penalty>
0.55046

> <b_epik_Metal_Only>
0

> <s_lp_Force_Field>
OPLS_2005

> <r_lp_Energy>
22.2551

> <b_lp_Chiralities_Consistent>
1

> <s_lp_Variant>
AV-unprocessed.smi:3289-2

> <Gold.Version>
5.8.1

> <Gold.Id.Protein>
6NUR|6NUR_protein|mol2

> <Gold.PLP.Fitness>
45.4682

> <Gold.PLP.PLP>
-40.0999

> <Gold.PLP.part.hbond>
-1.5905

> <Gold.PLP.part.metal>
0.0000

> <Gold.PLP.part.buried>
-1.5626

> <Gold.PLP.part.nonpolar>
-36.6799

> <Gold.PLP.part.repulsive>
0.1104

> <Gold.PLP.ligand.clash>
0.0000

> <Gold.PLP.ligand.torsion>
0.7637

> <Gold.PLP.Chemscore.Hbond>
2.0000

> <Gold.PLP.Chemscore.CHOScore>
0.2763

> <Gold.PLP.Chemscore.Metal>
0.0000

> <Gold.Chemscore.Hbonds>
donor molecule, donor type, donor heavy atom, donor atom, acceptor molecule, acceptor atom, score
      L1  H     5    40       P1 10175  2.00
      L1  C     7    27       P1  7957  0.30

> <Gold.PLP.Chemscore.Internal.Correction>
0.0668

> <Gold.Rescore>
     Score         DG    S(hbond)    S(metal)    S(lipo)     H(rot)  DE(clash)    DE(int)     intcor
     14.24     -14.96       0.98        0.00      92.05       1.78       0.07       0.65       ----

> <Gold.Chemscore.Fitness>
14.2371

> <Gold.Chemscore.DG>
-14.9558

> <Gold.Chemscore.ZeroCoef>
-5.4800

> <Gold.Chemscore.Hbond>
0.9797

> <Gold.Chemscore.Metal>
0.0000

> <Gold.Chemscore.Lipo>
92.0478

> <Gold.Chemscore.Internal_Hbond>
0.0000

> <Gold.Chemscore.DEClash>
0.0678

> <Gold.Chemscore.DEInternal>
0.6508

> <Gold.Chemscore.Rot>
1.7835

> <Gold.Chemscore.Internal.Correction>
   9.000000E+99

> <Gold.Chemscore.Hbonds>
donor molecule, donor type, donor heavy atom, donor atom, acceptor molecule, acceptor atom, score
      L1  H     5    40       P1 10175  0.97

> <Gold.Chemscore.Hbond.Weighted>
-3.2720

> <Gold.Chemscore.Metal.Weighted>
-0.0000

> <Gold.Chemscore.Lipo.Weighted>
-10.7696

> <Gold.Chemscore.Internal_Hbond.Weighted>
0.0000

> <Gold.Chemscore.DEClash.Weighted>
0.0678

> <Gold.Chemscore.DEInternal.Weighted>
0.6508

> <Gold.Chemscore.Rot.Weighted>
4.5659

> <Gold.Chemscore.Internal.Correction.Weighted>
   9.000000E+99

> <Gold.Protein.RotatedTorsions>
[ 6907 6896 6895 6894 ] final  -24.26 input  -60.11 | X-H torsion
[ 7974 7965 7964 7962 ] final  119.38 input  175.53 | X-H torsion
[ 8008 7997 7996 7995 ] final  -96.31 input   59.86 | X-H torsion
[ 10167 10162 10161 10158 ] final  -96.87 input  -65.29 | X-H torsion
[ 10718 10713 10712 10709 ] final  -88.49 input   66.30 | X-H torsion
[ 10763 10752 10751 10750 ] final   31.64 input  -60.55 | X-H torsion
[ 11005 11000 10999 10996 ] final  -15.80 input  -57.11 | X-H torsion

> <Gold.Protein.ActiveResidues>
 VAL166  LYS551  ARG553  GLY616  TRP617  ASP618  TYR619  PRO620  LYS621  CYS622 
 ASP623  PHE694  ASN695  SER759  ASP760  ASP761  ALA762  ILE779  LEU786  VAL792 
 PHE793  MET794  SER795  GLU796  ALA797  LYS798  CYS799  TRP800  GLU811  SER814 

> <Gold.Protein.RotatedAtoms>
  151.1921  135.0407  159.8836 H   0  0  0  0  0  0  0  0  0  0  0  0  # atno 6907 bound_to 6896
  152.5438  134.0944  159.8301 H   0  0  0  0  0  0  0  0  0  0  0  0  # atno 6908 bound_to 6896
  151.1074  133.5151  159.2639 H   0  0  0  0  0  0  0  0  0  0  0  0  # atno 6909 bound_to 6896
  145.1438  139.3252  143.4602 H   0  0  0  0  0  0  0  0  0  0  0  0  # atno 7974 bound_to 7965
  154.7727  140.0472  157.1064 H   0  0  0  0  0  0  0  0  0  0  0  0  # atno 8008 bound_to 7997
  154.9800  140.3100  155.4931 H   0  0  0  0  0  0  0  0  0  0  0  0  # atno 8009 bound_to 7997
  156.2924  140.2237  156.4898 H   0  0  0  0  0  0  0  0  0  0  0  0  # atno 8010 bound_to 7997
  140.2893  143.3232  152.0362 H   0  0  0  0  0  0  0  0  0  0  0  0  # atno 10167 bound_to 10162
  155.9983  130.4837  150.5027 H   0  0  0  0  0  0  0  0  0  0  0  0  # atno 10718 bound_to 10713
  153.0305  135.6434  154.1230 H   0  0  0  0  0  0  0  0  0  0  0  0  # atno 10763 bound_to 10752
  154.0953  135.2863  155.3264 H   0  0  0  0  0  0  0  0  0  0  0  0  # atno 10764 bound_to 10752
  154.6436  135.5451  153.7882 H   0  0  0  0  0  0  0  0  0  0  0  0  # atno 10765 bound_to 10752
  140.8003  133.8219  155.9463 H   0  0  0  0  0  0  0  0  0  0  0  0  # atno 11005 bound_to 11000
  146.3502  140.1486  142.8593 LP  0  0  0  0  0  0  0  0  0  0  0  0  # atno 17320 bound_to 7965
  145.0504  140.9013  143.4999 LP  0  0  0  0  0  0  0  0  0  0  0  0  # atno 17321 bound_to 7965
  139.4942  144.6536  151.6621 LP  0  0  0  0  0  0  0  0  0  0  0  0  # atno 17342 bound_to 10162
  140.5746  144.0050  150.6235 LP  0  0  0  0  0  0  0  0  0  0  0  0  # atno 17343 bound_to 10162
  157.3009  131.0645  151.2069 LP  0  0  0  0  0  0  0  0  0  0  0  0  # atno 17370 bound_to 10713
  157.3048  130.6861  149.6183 LP  0  0  0  0  0  0  0  0  0  0  0  0  # atno 17371 bound_to 10713
  140.9301  134.2032  157.4869 LP  0  0  0  0  0  0  0  0  0  0  0  0  # atno 17394 bound_to 11000
  139.8722  134.9829  156.5177 LP  0  0  0  0  0  0  0  0  0  0  0  0  # atno 17395 bound_to 11000

$$$$
