AV-unprocessed.smi:919|AV-procd|sdf|4165|dock5
  -GOLD-   22720 2 73D 1   1.00000     0.00000
 Structure written by MMmdl.
 43 45  0  0  0  0  0  0  0  0  1 V2000
  152.9204  138.4848  154.6302 C   0  0  0  0  0  0  0  0  0  0  0  0
  152.0620  139.4139  155.4396 C   0  0  0  0  0  0  0  0  0  0  0  0
  152.5441  139.9250  156.5600 N   0  0  0  0  0  0  0  0  0  0  0  0
  151.5344  140.7445  157.0743 O   0  0  0  0  0  0  0  0  0  0  0  0
  150.4717  140.6950  156.2314 C   0  0  0  0  0  0  0  0  0  0  0  0
  149.2814  141.5151  156.5981 C   0  0  0  0  0  0  0  0  0  0  0  0
  150.7373  139.8673  155.1763 C   0  0  0  0  0  0  0  0  0  0  0  0
  149.8455  139.5288  154.0128 C   0  0  0  0  0  0  0  0  0  0  0  0
  148.4700  139.0364  154.4883 C   0  0  0  0  0  0  0  0  0  0  0  0
  147.9952  137.9162  153.6861 N   0  0  0  0  0  0  0  0  0  0  0  0
  146.7346  137.4507  153.6819 C   0  0  0  0  0  0  0  0  0  0  0  0
  145.8353  137.9229  154.3748 O   0  0  0  0  0  0  0  0  0  0  0  0
  146.5203  136.4184  152.8474 N   0  0  0  0  0  0  0  0  0  0  0  0
  145.2674  135.6948  152.6150 C   0  0  1  0  0  0  0  0  0  0  0  0
  144.8917  135.7000  151.1165 C   0  0  0  0  0  0  0  0  0  0  0  0
  144.8005  134.2016  150.7730 C   0  0  1  0  0  0  0  0  0  0  0  0
  146.2134  133.5872  150.7597 C   0  0  0  0  0  0  0  0  0  0  0  0
  146.5730  133.5264  152.2561 C   0  0  0  0  0  0  0  0  0  0  0  0
  145.3426  134.1764  152.9247 C   0  0  2  0  0  0  0  0  0  0  0  0
  144.2165  133.6262  152.0559 C   0  0  0  0  0  0  0  0  0  0  0  0
  152.3503  138.0007  153.8377 H   0  0  0  0  0  0  0  0  0  0  0  0
  153.3479  137.6996  155.2543 H   0  0  0  0  0  0  0  0  0  0  0  0
  153.7443  139.0240  154.1622 H   0  0  0  0  0  0  0  0  0  0  0  0
  148.9671  142.1336  155.7570 H   0  0  0  0  0  0  0  0  0  0  0  0
  149.4996  142.1744  157.4385 H   0  0  0  0  0  0  0  0  0  0  0  0
  148.4442  140.8755  156.8771 H   0  0  0  0  0  0  0  0  0  0  0  0
  149.7160  140.3927  153.3604 H   0  0  0  0  0  0  0  0  0  0  0  0
  150.3110  138.7627  153.3915 H   0  0  0  0  0  0  0  0  0  0  0  0
  148.5083  138.7507  155.5412 H   0  0  0  0  0  0  0  0  0  0  0  0
  147.7391  139.8421  154.4125 H   0  0  0  0  0  0  0  0  0  0  0  0
  148.6684  137.4683  153.0818 H   0  0  0  0  0  0  0  0  0  0  0  0
  147.3142  136.1038  152.3085 H   0  0  0  0  0  0  0  0  0  0  0  0
  144.4607  136.1585  153.1860 H   0  0  0  0  0  0  0  0  0  0  0  0
  143.9267  136.1870  150.9695 H   0  0  0  0  0  0  0  0  0  0  0  0
  145.6184  136.2174  150.4884 H   0  0  0  0  0  0  0  0  0  0  0  0
  144.2249  133.9950  149.8703 H   0  0  0  0  0  0  0  0  0  0  0  0
  146.2013  132.5855  150.3281 H   0  0  0  0  0  0  0  0  0  0  0  0
  146.9189  134.1905  150.1871 H   0  0  0  0  0  0  0  0  0  0  0  0
  146.6750  132.4892  152.5778 H   0  0  0  0  0  0  0  0  0  0  0  0
  147.5131  134.0283  152.4848 H   0  0  0  0  0  0  0  0  0  0  0  0
  145.2513  133.9408  153.9853 H   0  0  0  0  0  0  0  0  0  0  0  0
  143.2361  134.0351  152.3068 H   0  0  0  0  0  0  0  0  0  0  0  0
  144.1599  132.5362  152.0557 H   0  0  0  0  0  0  0  0  0  0  0  0
  1  2  1  0  0  0  0
  1 21  1  0  0  0  0
  1 22  1  0  0  0  0
  1 23  1  0  0  0  0
  2  7  1  0  0  0  0
  2  3  2  0  0  0  0
  3  4  1  0  0  0  0
  4  5  1  0  0  0  0
  5  6  1  0  0  0  0
  5  7  2  0  0  0  0
  6 24  1  0  0  0  0
  6 25  1  0  0  0  0
  6 26  1  0  0  0  0
  7  8  1  0  0  0  0
  8  9  1  0  0  0  0
  8 27  1  0  0  0  0
  8 28  1  0  0  0  0
  9 10  1  0  0  0  0
  9 29  1  0  0  0  0
  9 30  1  0  0  0  0
 10 11  1  0  0  0  0
 10 31  1  0  0  0  0
 11 12  2  0  0  0  0
 11 13  1  0  0  0  0
 13 14  1  0  0  0  0
 13 32  1  0  0  0  0
 14 19  1  0  0  0  0
 14 15  1  0  0  0  0
 14 33  1  0  0  0  0
 15 16  1  0  0  0  0
 15 34  1  0  0  0  0
 15 35  1  0  0  0  0
 16 20  1  0  0  0  0
 16 17  1  0  0  0  0
 16 36  1  0  0  0  0
 17 18  1  0  0  0  0
 17 37  1  0  0  0  0
 17 38  1  0  0  0  0
 18 19  1  0  0  0  0
 18 39  1  0  0  0  0
 18 40  1  0  0  0  0
 19 20  1  0  0  0  0
 19 41  1  0  0  0  0
 20 42  1  0  0  0  0
 20 43  1  0  0  0  0
M  END
> <s_m_source_file>
AV-unprocessed.smi

> <i_m_source_file_index>
919

> <i_lp_mmshare_version>
43012

> <i_f3d_flags>
0

> <s_epik_input>
W0NIM11jMW5vYyhbQ0gzXSljMVtDSDJdW0NIMl1bTkhdQyg9TylbTkhdW0NASF0oW0NIMl1bQ0BASF0yMylbQ0BASF0oW0NIMl0zKVtDSDJdW0NIMl0y

> <s_epik_cmdline>
J2VwaWtfcHl0aG9uJywgJy1waCcsICc3LjAnLCAnLXRuJywgJzgnLCAnLW1hJywgJzIwMCcsICctbWV0YWxfYmluZGluZycsICctaW1hZScsICc8aW5maWxlLm1hZT4nLCAnLW9tYWUnLCAnPG91dGZpbGUubWFlPic=

> <r_lp_tautomer_probability>
1

> <r_epik_Ionization_Penalty>
6.40771e-05

> <r_epik_Ionization_Penalty_Charging>
0

> <r_epik_Ionization_Penalty_Neutral>
6.40771e-05

> <r_epik_State_Penalty>
-0

> <r_epik_Charging_Adjusted_Penalty>
0

> <i_epik_Tot_Q>
0

> <i_epik_Tot_abs_Q>
0

> <r_epik_Metal_State_Penalty>
-0

> <b_epik_Metal_Only>
0

> <s_lp_Force_Field>
OPLS_2005

> <r_lp_Energy>
47.6346

> <b_lp_Chiralities_Consistent>
1

> <s_lp_Variant>
AV-unprocessed.smi:919-2

> <Gold.Version>
5.8.1

> <Gold.Id.Protein>
6NUR|6NUR_protein|mol2

> <Gold.PLP.Fitness>
39.9449

> <Gold.PLP.PLP>
-31.9213

> <Gold.PLP.part.hbond>
-3.0000

> <Gold.PLP.part.metal>
0.0000

> <Gold.PLP.part.buried>
-2.0509

> <Gold.PLP.part.nonpolar>
-27.3723

> <Gold.PLP.part.repulsive>
0.1179

> <Gold.PLP.ligand.clash>
0.0000

> <Gold.PLP.ligand.torsion>
0.4372

> <Gold.PLP.Chemscore.Hbond>
2.9600

> <Gold.PLP.Chemscore.CHOScore>
0.0000

> <Gold.PLP.Chemscore.Metal>
0.0000

> <Gold.Chemscore.Hbonds>
donor molecule, donor type, donor heavy atom, donor atom, acceptor molecule, acceptor atom, score
      L1  H    10    31       P1  7948  0.96
      L1  H    13    32       P1  7948  1.00
      P1  H  7997  8009       L1     3  1.00

> <Gold.PLP.Chemscore.Internal.Correction>
0.0181

> <Gold.Rescore>
     Score         DG    S(hbond)    S(metal)    S(lipo)     H(rot)  DE(clash)    DE(int)     intcor
     19.73     -20.37       2.82        0.00      79.91       1.52       0.18       0.46       ----

> <Gold.Chemscore.Fitness>
19.7257

> <Gold.Chemscore.DG>
-20.3678

> <Gold.Chemscore.ZeroCoef>
-5.4800

> <Gold.Chemscore.Hbond>
2.8201

> <Gold.Chemscore.Metal>
0.0000

> <Gold.Chemscore.Lipo>
79.9133

> <Gold.Chemscore.Internal_Hbond>
0.0000

> <Gold.Chemscore.DEClash>
0.1789

> <Gold.Chemscore.DEInternal>
0.4633

> <Gold.Chemscore.Rot>
1.5161

> <Gold.Chemscore.Internal.Correction>
   9.000000E+99

> <Gold.Chemscore.Hbonds>
donor molecule, donor type, donor heavy atom, donor atom, acceptor molecule, acceptor atom, score
      L1  H    10    31       P1  7948  0.92
      L1  H    13    32       P1  7948  0.96
      P1  H  7997  8009       L1     3  0.70

> <Gold.Chemscore.Hbond.Weighted>
-9.4192

> <Gold.Chemscore.Metal.Weighted>
-0.0000

> <Gold.Chemscore.Lipo.Weighted>
-9.3499

> <Gold.Chemscore.Internal_Hbond.Weighted>
0.0000

> <Gold.Chemscore.DEClash.Weighted>
0.1789

> <Gold.Chemscore.DEInternal.Weighted>
0.4633

> <Gold.Chemscore.Rot.Weighted>
3.8813

> <Gold.Chemscore.Internal.Correction.Weighted>
   9.000000E+99

> <Gold.Protein.RotatedTorsions>
[ 6907 6896 6895 6894 ] final   11.76 input  -60.11 | X-H torsion
[ 7974 7965 7964 7962 ] final   26.48 input  175.53 | X-H torsion
[ 8008 7997 7996 7995 ] final -165.67 input   59.86 | X-H torsion
[ 10167 10162 10161 10158 ] final  104.23 input  -65.29 | X-H torsion
[ 10718 10713 10712 10709 ] final  -80.42 input   66.30 | X-H torsion
[ 10763 10752 10751 10750 ] final  -26.94 input  -60.55 | X-H torsion
[ 11005 11000 10999 10996 ] final  -65.59 input  -57.11 | X-H torsion

> <Gold.Protein.ActiveResidues>
 VAL166  LYS551  ARG553  GLY616  TRP617  ASP618  TYR619  PRO620  LYS621  CYS622 
 ASP623  PHE694  ASN695  SER759  ASP760  ASP761  ALA762  ILE779  LEU786  VAL792 
 PHE793  MET794  SER795  GLU796  ALA797  LYS798  CYS799  TRP800  GLU811  SER814 

> <Gold.Protein.RotatedAtoms>
  151.7595  135.0813  160.0343 H   0  0  0  0  0  0  0  0  0  0  0  0  # atno 6907 bound_to 6896
  152.3362  133.6010  159.5853 H   0  0  0  0  0  0  0  0  0  0  0  0  # atno 6908 bound_to 6896
  150.7452  133.9708  159.3587 H   0  0  0  0  0  0  0  0  0  0  0  0  # atno 6909 bound_to 6896
  146.1835  139.7322  142.8883 H   0  0  0  0  0  0  0  0  0  0  0  0  # atno 7974 bound_to 7965
  155.8531  140.0966  157.1662 H   0  0  0  0  0  0  0  0  0  0  0  0  # atno 8008 bound_to 7997
  154.3986  140.1379  156.3930 H   0  0  0  0  0  0  0  0  0  0  0  0  # atno 8009 bound_to 7997
  155.7939  140.3455  155.5367 H   0  0  0  0  0  0  0  0  0  0  0  0  # atno 8010 bound_to 7997
  139.7195  144.7061  151.0896 H   0  0  0  0  0  0  0  0  0  0  0  0  # atno 10167 bound_to 10162
  156.0070  130.4574  150.3798 H   0  0  0  0  0  0  0  0  0  0  0  0  # atno 10718 bound_to 10713
  153.7240  135.6943  153.5005 H   0  0  0  0  0  0  0  0  0  0  0  0  # atno 10763 bound_to 10752
  153.2183  135.4378  155.0459 H   0  0  0  0  0  0  0  0  0  0  0  0  # atno 10764 bound_to 10752
  154.8275  135.3454  154.6773 H   0  0  0  0  0  0  0  0  0  0  0  0  # atno 10765 bound_to 10752
  141.1458  133.6684  156.6009 H   0  0  0  0  0  0  0  0  0  0  0  0  # atno 11005 bound_to 11000
  145.4007  141.0384  143.3072 LP  0  0  0  0  0  0  0  0  0  0  0  0  # atno 17320 bound_to 7965
  144.8356  139.5556  143.6924 LP  0  0  0  0  0  0  0  0  0  0  0  0  # atno 17321 bound_to 7965
  140.7751  143.5185  150.9565 LP  0  0  0  0  0  0  0  0  0  0  0  0  # atno 17342 bound_to 10162
  139.8872  143.6998  152.3150 LP  0  0  0  0  0  0  0  0  0  0  0  0  # atno 17343 bound_to 10162
  157.1878  131.0408  151.2716 LP  0  0  0  0  0  0  0  0  0  0  0  0  # atno 17370 bound_to 10713
  157.4088  130.7374  149.6823 LP  0  0  0  0  0  0  0  0  0  0  0  0  # atno 17371 bound_to 10713
  140.3689  134.7623  157.4585 LP  0  0  0  0  0  0  0  0  0  0  0  0  # atno 17394 bound_to 11000
  140.0726  134.5841  155.8625 LP  0  0  0  0  0  0  0  0  0  0  0  0  # atno 17395 bound_to 11000

$$$$
