AV-unprocessed.smi:287|AV-procd|sdf|2196|dock3
  -GOLD-   2262022 03D 1   1.00000     0.00000
 Structure written by MMmdl.
 55 58  0  0  0  0  0  0  0  0  1 V2000
  150.9632  144.9201  159.7382 C   0  0  0  0  0  0  0  0  0  0  0  0
  151.1092  143.5504  159.1697 C   0  0  0  0  0  0  0  0  0  0  0  0
  151.7648  142.4245  159.5747 C   0  0  0  0  0  0  0  0  0  0  0  0
  151.5280  141.4166  158.5930 C   0  0  0  0  0  0  0  0  0  0  0  0
  152.0585  139.9894  158.6341 C   0  0  2  0  0  0  0  0  0  0  0  0
  153.0227  139.8132  159.8206 C   0  0  0  0  0  0  0  0  0  0  0  0
  152.8219  139.6523  157.4919 O   0  0  0  0  0  0  0  0  0  0  0  0
  150.9185  138.9499  158.7186 C   0  0  0  0  0  0  0  0  0  0  0  0
  151.3274  137.6223  158.2782 N   0  0  0  0  0  0  0  0  0  0  0  0
  151.0311  137.1755  157.0399 C   0  0  0  0  0  0  0  0  0  0  0  0
  151.3478  138.0190  156.0301 N   0  0  0  0  0  0  0  0  0  0  0  0
  151.0896  137.6770  154.7667 C   0  0  0  0  0  0  0  0  0  0  0  0
  150.5323  136.5574  154.3064 N   0  0  0  0  0  0  0  0  0  0  0  0
  150.2089  135.6922  155.3113 C   0  0  0  0  0  0  0  0  0  0  0  0
  150.4260  135.9277  156.7017 C   0  0  0  0  0  0  0  0  0  0  0  0
  149.9728  134.8340  157.4283 N   0  0  0  0  0  0  0  0  0  0  0  0
  149.5104  134.0153  156.5254 C   0  0  0  0  0  0  0  0  0  0  0  0
  149.6203  134.4397  155.2205 N   0  0  0  0  0  0  0  0  0  0  0  0
  149.1278  133.6880  154.0120 C   0  0  1  0  0  0  0  0  0  0  0  0
  149.6840  132.4126  154.0318 O   0  0  0  0  0  0  0  0  0  0  0  0
  148.7781  131.5042  154.6412 C   0  0  2  0  0  0  0  0  0  0  0  0
  149.0943  130.0715  154.1859 C   0  0  0  0  0  0  0  0  0  0  0  0
  148.5577  129.8415  152.9004 O   0  0  0  0  0  0  0  0  0  0  0  0
  147.4092  132.0103  154.1590 C   0  0  1  0  0  0  0  0  0  0  0  0
  146.4183  131.7534  155.1334 O   0  0  0  0  0  0  0  0  0  0  0  0
  147.5993  133.5178  153.9587 C   0  0  2  0  0  0  0  0  0  0  0  0
  147.0863  133.9077  152.7004 O   0  0  0  0  0  0  0  0  0  0  0  0
  150.7254  142.0223  157.6556 C   0  0  0  0  0  0  0  0  0  0  0  0
  150.0885  141.5678  156.3837 C   0  0  0  0  0  0  0  0  0  0  0  0
  150.4701  143.3163  157.9963 O   0  0  0  0  0  0  0  0  0  0  0  0
  149.5270  134.2590  153.1725 H   0  0  0  0  0  0  0  0  0  0  0  0
  148.8588  131.5835  155.7254 H   0  0  0  0  0  0  0  0  0  0  0  0
  147.1387  131.5242  153.2198 H   0  0  0  0  0  0  0  0  0  0  0  0
  147.1146  134.1250  154.7225 H   0  0  0  0  0  0  0  0  0  0  0  0
  151.3916  144.9739  160.7393 H   0  0  0  0  0  0  0  0  0  0  0  0
  149.9120  145.2013  159.8054 H   0  0  0  0  0  0  0  0  0  0  0  0
  151.4718  145.6540  159.1127 H   0  0  0  0  0  0  0  0  0  0  0  0
  152.3494  142.3320  160.4781 H   0  0  0  0  0  0  0  0  0  0  0  0
  152.5229  139.9983  160.7722 H   0  0  0  0  0  0  0  0  0  0  0  0
  153.8650  140.5032  159.7533 H   0  0  0  0  0  0  0  0  0  0  0  0
  153.4275  138.8011  159.8598 H   0  0  0  0  0  0  0  0  0  0  0  0
  152.3000  139.0927  156.9375 H   0  0  0  0  0  0  0  0  0  0  0  0
  150.5057  138.9080  159.7276 H   0  0  0  0  0  0  0  0  0  0  0  0
  150.1121  139.2701  158.0573 H   0  0  0  0  0  0  0  0  0  0  0  0
  151.8979  137.1036  158.9303 H   0  0  0  0  0  0  0  0  0  0  0  0
  151.3680  138.4030  154.0175 H   0  0  0  0  0  0  0  0  0  0  0  0
  149.0679  133.0665  156.7919 H   0  0  0  0  0  0  0  0  0  0  0  0
  150.1734  129.9306  154.1185 H   0  0  0  0  0  0  0  0  0  0  0  0
  148.7140  129.3353  154.8947 H   0  0  0  0  0  0  0  0  0  0  0  0
  149.1896  130.1203  152.2556 H   0  0  0  0  0  0  0  0  0  0  0  0
  145.6568  131.3998  154.6997 H   0  0  0  0  0  0  0  0  0  0  0  0
  147.7510  134.4027  152.2461 H   0  0  0  0  0  0  0  0  0  0  0  0
  150.8453  141.2831  155.6528 H   0  0  0  0  0  0  0  0  0  0  0  0
  149.4770  142.3560  155.9434 H   0  0  0  0  0  0  0  0  0  0  0  0
  149.4456  140.7054  156.5611 H   0  0  0  0  0  0  0  0  0  0  0  0
  1  2  1  0  0  0  0
  1 35  1  0  0  0  0
  1 36  1  0  0  0  0
  1 37  1  0  0  0  0
  2 30  1  0  0  0  0
  2  3  2  0  0  0  0
  3  4  1  0  0  0  0
  3 38  1  0  0  0  0
  4  5  1  0  0  0  0
  4 28  2  0  0  0  0
  5  6  1  0  0  0  0
  5  7  1  0  0  0  0
  5  8  1  0  0  0  0
  6 39  1  0  0  0  0
  6 40  1  0  0  0  0
  6 41  1  0  0  0  0
  7 42  1  0  0  0  0
  8  9  1  0  0  0  0
  8 43  1  0  0  0  0
  8 44  1  0  0  0  0
  9 10  1  0  0  0  0
  9 45  1  0  0  0  0
 10 15  1  0  0  0  0
 10 11  2  0  0  0  0
 11 12  1  0  0  0  0
 12 13  2  0  0  0  0
 12 46  1  0  0  0  0
 13 14  1  0  0  0  0
 14 18  1  0  0  0  0
 14 15  2  0  0  0  0
 15 16  1  0  0  0  0
 16 17  2  0  0  0  0
 17 18  1  0  0  0  0
 17 47  1  0  0  0  0
 18 19  1  0  0  0  0
 19 31  1  0  0  0  0
 19 26  1  0  0  0  0
 19 20  1  0  0  0  0
 20 21  1  0  0  0  0
 21 32  1  0  0  0  0
 21 22  1  0  0  0  0
 21 24  1  0  0  0  0
 22 23  1  0  0  0  0
 22 48  1  0  0  0  0
 22 49  1  0  0  0  0
 23 50  1  0  0  0  0
 24 33  1  0  0  0  0
 24 25  1  0  0  0  0
 24 26  1  0  0  0  0
 25 51  1  0  0  0  0
 26 34  1  0  0  0  0
 26 27  1  0  0  0  0
 27 52  1  0  0  0  0
 28 29  1  0  0  0  0
 28 30  1  0  0  0  0
 29 53  1  0  0  0  0
 29 54  1  0  0  0  0
 29 55  1  0  0  0  0
M  END
> <s_m_source_file>
AV-unprocessed.smi

> <i_m_source_file_index>
287

> <i_lp_mmshare_version>
43012

> <i_f3d_flags>
0

> <s_epik_input>
W0NIM11jMVtjSF1jKGMobzEpW0NIM10pW0NAQF0oW0NIM10pKFtPSF0pW0NIMl1bTkhdYyhuW2NIXW4yKWMoYzIzKW5bY0hdbjNbQ0BASF00T1tDQEhdKFtDSDJdW09IXSlbQ0BASF0oW09IXSlbQ0BIXTRbT0hd

> <s_epik_cmdline>
J2VwaWtfcHl0aG9uJywgJy1waCcsICc3LjAnLCAnLXRuJywgJzgnLCAnLW1hJywgJzIwMCcsICctbWV0YWxfYmluZGluZycsICctaW1hZScsICc8aW5maWxlLm1hZT4nLCAnLW9tYWUnLCAnPG91dGZpbGUubWFlPic=

> <r_lp_tautomer_probability>
1

> <r_epik_Ionization_Penalty>
0.000992612

> <r_epik_Ionization_Penalty_Charging>
0

> <r_epik_Ionization_Penalty_Neutral>
0.000992612

> <r_epik_State_Penalty>
-0

> <r_epik_Charging_Adjusted_Penalty>
0

> <i_epik_Tot_Q>
0

> <i_epik_Tot_abs_Q>
0

> <r_epik_Metal_State_Penalty>
-0

> <b_epik_Metal_Only>
0

> <s_epik_Chemistry_Notes>
This compound contains an acetal/aminal-like group ( X-CH(R)-Y where X, Y are N, S, or O) that may be acid/base labile, releasing an aldehyde.

> <s_lp_Force_Field>
OPLS_2005

> <r_lp_Energy>
37.3025

> <b_lp_Chiralities_Consistent>
1

> <s_lp_Variant>
AV-unprocessed.smi:287-20

> <Gold.Version>
5.8.1

> <Gold.Id.Protein>
6NUR|6NUR_protein|mol2

> <Gold.PLP.Fitness>
52.4042

> <Gold.PLP.PLP>
-44.2322

> <Gold.PLP.part.hbond>
-4.2527

> <Gold.PLP.part.metal>
0.0000

> <Gold.PLP.part.buried>
-8.0561

> <Gold.PLP.part.nonpolar>
-33.5288

> <Gold.PLP.part.repulsive>
0.8106

> <Gold.PLP.ligand.clash>
0.0000

> <Gold.PLP.ligand.torsion>
1.2642

> <Gold.PLP.Chemscore.Hbond>
3.5360

> <Gold.PLP.Chemscore.CHOScore>
0.0000

> <Gold.PLP.Chemscore.Metal>
0.0000

> <Gold.Chemscore.Hbonds>
donor molecule, donor type, donor heavy atom, donor atom, acceptor molecule, acceptor atom, score
      L1  H    23    50       P1 10747  0.30
      L1  H    27    52       P1  7948  0.65
      P1  H  6896  6908       L1    16  0.55
      P1  H  7997  8010       L1     7  1.00

> <Gold.PLP.Chemscore.Internal.Correction>
0.0924

> <Gold.Rescore>
     Score         DG    S(hbond)    S(metal)    S(lipo)     H(rot)  DE(clash)    DE(int)     intcor
     11.05     -15.72       4.08        0.00      86.32       5.27       0.17       4.49       ----

> <Gold.Chemscore.Fitness>
11.0514

> <Gold.Chemscore.DG>
-15.7177

> <Gold.Chemscore.ZeroCoef>
-5.4800

> <Gold.Chemscore.Hbond>
4.0786

> <Gold.Chemscore.Metal>
0.0000

> <Gold.Chemscore.Lipo>
86.3165

> <Gold.Chemscore.Internal_Hbond>
0.0000

> <Gold.Chemscore.DEClash>
0.1729

> <Gold.Chemscore.DEInternal>
4.4934

> <Gold.Chemscore.Rot>
5.2672

> <Gold.Chemscore.Internal.Correction>
   9.000000E+99

> <Gold.Chemscore.Hbonds>
donor molecule, donor type, donor heavy atom, donor atom, acceptor molecule, acceptor atom, score
      L1  H    23    50       P1 10747  0.01
      L1  H    27    52       P1  7948  0.28
      P1  H  6896  6908       L1    16  0.52
      P1  H  7997  8010       L1     7  0.91

> <Gold.Chemscore.Hbond.Weighted>
-13.6225

> <Gold.Chemscore.Metal.Weighted>
-0.0000

> <Gold.Chemscore.Lipo.Weighted>
-10.0990

> <Gold.Chemscore.Internal_Hbond.Weighted>
0.0000

> <Gold.Chemscore.DEClash.Weighted>
0.1729

> <Gold.Chemscore.DEInternal.Weighted>
4.4934

> <Gold.Chemscore.Rot.Weighted>
13.4839

> <Gold.Chemscore.Internal.Correction.Weighted>
   9.000000E+99

> <Gold.Protein.RotatedTorsions>
[ 6907 6896 6895 6894 ] final  138.18 input  -60.11 | X-H torsion
[ 7974 7965 7964 7962 ] final -163.83 input  175.53 | X-H torsion
[ 8008 7997 7996 7995 ] final   46.23 input   59.86 | X-H torsion
[ 10167 10162 10161 10158 ] final -151.20 input  -65.29 | X-H torsion
[ 10718 10713 10712 10709 ] final -155.08 input   66.30 | X-H torsion
[ 10763 10752 10751 10750 ] final    7.64 input  -60.55 | X-H torsion
[ 11005 11000 10999 10996 ] final   61.52 input  -57.11 | X-H torsion

> <Gold.Protein.ActiveResidues>
 VAL166  LYS551  ARG553  GLY616  TRP617  ASP618  TYR619  PRO620  LYS621  CYS622 
 ASP623  PHE694  ASN695  SER759  ASP760  ASP761  ALA762  ILE779  LEU786  VAL792 
 PHE793  MET794  SER795  GLU796  ALA797  LYS798  CYS799  TRP800  GLU811  SER814 

> <Gold.Protein.RotatedAtoms>
  152.2696  133.5370  159.5430 H   0  0  0  0  0  0  0  0  0  0  0  0  # atno 6907 bound_to 6896
  150.7154  134.0716  159.3875 H   0  0  0  0  0  0  0  0  0  0  0  0  # atno 6908 bound_to 6896
  151.8631  135.0517  160.0522 H   0  0  0  0  0  0  0  0  0  0  0  0  # atno 6909 bound_to 6896
  144.7314  140.3050  143.6198 H   0  0  0  0  0  0  0  0  0  0  0  0  # atno 7974 bound_to 7965
  155.3490  140.3412  155.4239 H   0  0  0  0  0  0  0  0  0  0  0  0  # atno 8008 bound_to 7997
  156.1774  140.1652  156.8373 H   0  0  0  0  0  0  0  0  0  0  0  0  # atno 8009 bound_to 7997
  154.5296  140.0748  156.8304 H   0  0  0  0  0  0  0  0  0  0  0  0  # atno 8010 bound_to 7997
  139.7288  143.8841  152.2528 H   0  0  0  0  0  0  0  0  0  0  0  0  # atno 10167 bound_to 10162
  156.5079  130.8421  151.2635 H   0  0  0  0  0  0  0  0  0  0  0  0  # atno 10718 bound_to 10713
  153.2340  135.6896  153.7858 H   0  0  0  0  0  0  0  0  0  0  0  0  # atno 10763 bound_to 10752
  153.7012  135.3297  155.3226 H   0  0  0  0  0  0  0  0  0  0  0  0  # atno 10764 bound_to 10752
  154.8326  135.4568  154.1236 H   0  0  0  0  0  0  0  0  0  0  0  0  # atno 10765 bound_to 10752
  140.0155  134.6231  155.9716 H   0  0  0  0  0  0  0  0  0  0  0  0  # atno 11005 bound_to 11000
  145.7722  139.1861  143.2205 LP  0  0  0  0  0  0  0  0  0  0  0  0  # atno 17320 bound_to 7965
  146.0901  140.7665  142.9599 LP  0  0  0  0  0  0  0  0  0  0  0  0  # atno 17321 bound_to 7965
  139.8758  144.7044  150.8934 LP  0  0  0  0  0  0  0  0  0  0  0  0  # atno 17342 bound_to 10162
  140.7767  143.3701  151.1666 LP  0  0  0  0  0  0  0  0  0  0  0  0  # atno 17343 bound_to 10162
  157.7454  130.9959  150.2762 LP  0  0  0  0  0  0  0  0  0  0  0  0  # atno 17370 bound_to 10713
  156.3268  130.3794  149.7526 LP  0  0  0  0  0  0  0  0  0  0  0  0  # atno 17371 bound_to 10713
  141.1740  133.6539  156.4757 LP  0  0  0  0  0  0  0  0  0  0  0  0  # atno 17394 bound_to 11000
  140.4478  134.6956  157.5024 LP  0  0  0  0  0  0  0  0  0  0  0  0  # atno 17395 bound_to 11000

$$$$
