AV-unprocessed.smi:221|AV-procd|sdf|1696|dock4
  -GOLD-   2262020143D 1   1.00000     0.00000
 Structure written by MMmdl.
 50 53  0  0  0  0  0  0  0  0  1 V2000
  143.8732  134.0904  149.3351 N   0  0  0  0  0  0  0  0  0  0  0  0
  143.9759  133.2508  150.3708 C   0  0  0  0  0  0  0  0  0  0  0  0
  142.9995  132.6441  150.8054 O   0  0  0  0  0  0  0  0  0  0  0  0
  145.3562  133.0412  151.0244 C   0  0  2  0  0  0  0  0  0  0  0  0
  145.7099  131.5462  151.0947 C   0  0  0  0  0  0  0  0  0  0  0  0
  146.6922  131.4722  152.2566 C   0  0  2  0  0  0  0  0  0  0  0  0
  146.7786  130.2496  152.7799 F   0  0  0  0  0  0  0  0  0  0  0  0
  146.1406  132.4980  153.2428 C   0  0  0  0  0  0  0  0  0  0  0  0
  145.4562  133.4907  152.4212 N   0  0  0  0  0  0  0  0  0  0  0  0
  145.5505  134.8051  152.7610 C   0  0  0  0  0  0  0  0  0  0  0  0
  144.7746  135.7195  152.1205 N   0  0  0  0  0  0  0  0  0  0  0  0
  144.8485  137.0152  152.4366 C   0  0  0  0  0  0  0  0  0  0  0  0
  145.6157  137.6069  153.3532 N   0  0  0  0  0  0  0  0  0  0  0  0
  146.3897  136.6969  154.0100 C   0  0  0  0  0  0  0  0  0  0  0  0
  146.4189  135.2911  153.7817 C   0  0  0  0  0  0  0  0  0  0  0  0
  147.3187  134.6933  154.6577 N   0  0  0  0  0  0  0  0  0  0  0  0
  147.7994  135.6863  155.3542 C   0  0  0  0  0  0  0  0  0  0  0  0
  147.2931  136.9245  155.0334 N   0  0  0  0  0  0  0  0  0  0  0  0
  147.6504  138.1902  155.6500 C   0  0  0  0  0  0  0  0  0  0  0  0
  148.1527  139.2356  154.6214 C   0  0  2  0  0  0  0  0  0  0  0  0
  149.6794  139.1215  154.4023 C   0  0  0  0  0  0  0  0  0  0  0  0
  150.0495  137.8061  154.0452 O   0  0  0  0  0  0  0  0  0  0  0  0
  147.7259  140.6892  154.9662 C   0  0  1  0  0  0  0  0  0  0  0  0
  147.9363  141.7241  153.8597 C   0  0  0  0  0  0  0  0  0  0  0  0
  146.6469  142.5490  153.8659 C   0  0  0  0  0  0  0  0  0  0  0  0
  146.0500  142.2705  155.1230 O   0  0  0  0  0  0  0  0  0  0  0  0
  146.2632  140.8926  155.3776 C   0  0  0  0  0  0  0  0  0  0  0  0
  146.1141  133.5493  150.4253 H   0  0  0  0  0  0  0  0  0  0  0  0
  147.6897  131.7635  151.9240 H   0  0  0  0  0  0  0  0  0  0  0  0
  142.9763  134.2376  148.8953 H   0  0  0  0  0  0  0  0  0  0  0  0
  144.6932  134.5725  148.9966 H   0  0  0  0  0  0  0  0  0  0  0  0
  144.8267  130.9469  151.3251 H   0  0  0  0  0  0  0  0  0  0  0  0
  146.1357  131.1698  150.1638 H   0  0  0  0  0  0  0  0  0  0  0  0
  145.4102  132.0407  153.9114 H   0  0  0  0  0  0  0  0  0  0  0  0
  146.9434  132.9189  153.8500 H   0  0  0  0  0  0  0  0  0  0  0  0
  144.1998  137.6711  151.8749 H   0  0  0  0  0  0  0  0  0  0  0  0
  148.5374  135.5423  156.1301 H   0  0  0  0  0  0  0  0  0  0  0  0
  146.7722  138.5499  156.1846 H   0  0  0  0  0  0  0  0  0  0  0  0
  148.4105  137.9983  156.4072 H   0  0  0  0  0  0  0  0  0  0  0  0
  147.6778  138.9946  153.6688 H   0  0  0  0  0  0  0  0  0  0  0  0
  150.0146  139.8148  153.6306 H   0  0  0  0  0  0  0  0  0  0  0  0
  150.2274  139.3699  155.3106 H   0  0  0  0  0  0  0  0  0  0  0  0
  149.4552  137.4970  153.3783 H   0  0  0  0  0  0  0  0  0  0  0  0
  148.3329  141.0329  155.8050 H   0  0  0  0  0  0  0  0  0  0  0  0
  148.7966  142.3517  154.0966 H   0  0  0  0  0  0  0  0  0  0  0  0
  148.1184  141.2900  152.8770 H   0  0  0  0  0  0  0  0  0  0  0  0
  146.8291  143.6162  153.7367 H   0  0  0  0  0  0  0  0  0  0  0  0
  145.9764  142.2186  153.0706 H   0  0  0  0  0  0  0  0  0  0  0  0
  145.5708  140.3140  154.7664 H   0  0  0  0  0  0  0  0  0  0  0  0
  146.0830  140.6470  156.4246 H   0  0  0  0  0  0  0  0  0  0  0  0
  1  2  1  0  0  0  0
  1 30  1  0  0  0  0
  1 31  1  0  0  0  0
  2  3  2  0  0  0  0
  2  4  1  0  0  0  0
  4 28  1  0  0  0  0
  4  9  1  0  0  0  0
  4  5  1  0  0  0  0
  5  6  1  0  0  0  0
  5 32  1  0  0  0  0
  5 33  1  0  0  0  0
  6 29  1  0  0  0  0
  6  7  1  0  0  0  0
  6  8  1  0  0  0  0
  8  9  1  0  0  0  0
  8 34  1  0  0  0  0
  8 35  1  0  0  0  0
  9 10  1  0  0  0  0
 10 15  1  0  0  0  0
 10 11  2  0  0  0  0
 11 12  1  0  0  0  0
 12 13  2  0  0  0  0
 12 36  1  0  0  0  0
 13 14  1  0  0  0  0
 14 18  1  0  0  0  0
 14 15  2  0  0  0  0
 15 16  1  0  0  0  0
 16 17  2  0  0  0  0
 17 18  1  0  0  0  0
 17 37  1  0  0  0  0
 18 19  1  0  0  0  0
 19 20  1  0  0  0  0
 19 38  1  0  0  0  0
 19 39  1  0  0  0  0
 20 21  1  0  0  0  0
 20 23  1  0  0  0  0
 20 40  1  0  0  0  0
 21 22  1  0  0  0  0
 21 41  1  0  0  0  0
 21 42  1  0  0  0  0
 22 43  1  0  0  0  0
 23 27  1  0  0  0  0
 23 24  1  0  0  0  0
 23 44  1  0  0  0  0
 24 25  1  0  0  0  0
 24 45  1  0  0  0  0
 24 46  1  0  0  0  0
 25 26  1  0  0  0  0
 25 47  1  0  0  0  0
 25 48  1  0  0  0  0
 26 27  1  0  0  0  0
 27 49  1  0  0  0  0
 27 50  1  0  0  0  0
M  END
> <s_m_source_file>
AV-unprocessed.smi

> <i_m_source_file_index>
221

> <i_lp_mmshare_version>
43012

> <i_f3d_flags>
0

> <s_epik_input>
W05IMl1DKD1PKVtDQEBIXTFbQ0gyXVtDQEBIXShGKVtDSDJdTjFjKG5bY0hdbjIpYyhjMjMpbltjSF1uM1tDSDJdW0NASF0oW0NIMl1bT0hdKVtDQEBIXTRbQ0gyXVtDSDJdT1tDSDJdNA==

> <s_epik_cmdline>
J2VwaWtfcHl0aG9uJywgJy1waCcsICc3LjAnLCAnLXRuJywgJzgnLCAnLW1hJywgJzIwMCcsICctbWV0YWxfYmluZGluZycsICctaW1hZScsICc8aW5maWxlLm1hZT4nLCAnLW9tYWUnLCAnPG91dGZpbGUubWFlPic=

> <r_lp_tautomer_probability>
1

> <r_epik_Ionization_Penalty>
0.000818822

> <r_epik_Ionization_Penalty_Charging>
0

> <r_epik_Ionization_Penalty_Neutral>
0.000818822

> <r_epik_State_Penalty>
0.000440551

> <r_epik_Charging_Adjusted_Penalty>
0.000440551

> <i_epik_Tot_Q>
0

> <i_epik_Tot_abs_Q>
0

> <r_epik_Metal_State_Penalty>
-0

> <b_epik_Metal_Only>
0

> <s_lp_Force_Field>
OPLS_2005

> <r_lp_Energy>
49.7935

> <b_lp_Chiralities_Consistent>
1

> <s_lp_Variant>
AV-unprocessed.smi:221-11

> <Gold.Version>
5.8.1

> <Gold.Id.Protein>
6NUR|6NUR_protein|mol2

> <Gold.PLP.Fitness>
41.5023

> <Gold.PLP.PLP>
-31.4510

> <Gold.PLP.part.hbond>
-3.0000

> <Gold.PLP.part.metal>
0.0000

> <Gold.PLP.part.buried>
-6.0589

> <Gold.PLP.part.nonpolar>
-24.2151

> <Gold.PLP.part.repulsive>
2.0091

> <Gold.PLP.ligand.clash>
0.0000

> <Gold.PLP.ligand.torsion>
0.9608

> <Gold.PLP.Chemscore.Hbond>
2.7454

> <Gold.PLP.Chemscore.CHOScore>
1.1331

> <Gold.PLP.Chemscore.Metal>
0.0000

> <Gold.Chemscore.Hbonds>
donor molecule, donor type, donor heavy atom, donor atom, acceptor molecule, acceptor atom, score
      L1  H     1    30       P1 10186  0.66
      L1  H     1    31       P1  7921  1.00
      L1  H    22    43       P1  7948  1.00
      L1  C    12    36       P1 10171  1.00
      L1  C    12    36       P1 10175  0.13

> <Gold.PLP.Chemscore.Internal.Correction>
0.3373

> <Gold.Rescore>
     Score         DG    S(hbond)    S(metal)    S(lipo)     H(rot)  DE(clash)    DE(int)     intcor
      9.20     -12.62       2.50        0.00      61.98       3.31       1.19       2.23       ----

> <Gold.Chemscore.Fitness>
9.1973

> <Gold.Chemscore.DG>
-12.6194

> <Gold.Chemscore.ZeroCoef>
-5.4800

> <Gold.Chemscore.Hbond>
2.5027

> <Gold.Chemscore.Metal>
0.0000

> <Gold.Chemscore.Lipo>
61.9775

> <Gold.Chemscore.Internal_Hbond>
0.0000

> <Gold.Chemscore.DEClash>
1.1941

> <Gold.Chemscore.DEInternal>
2.2280

> <Gold.Chemscore.Rot>
3.3089

> <Gold.Chemscore.Internal.Correction>
   9.000000E+99

> <Gold.Chemscore.Hbonds>
donor molecule, donor type, donor heavy atom, donor atom, acceptor molecule, acceptor atom, score
      L1  H     1    30       P1 10186  0.64
      L1  H     1    31       P1  7921  0.91
      L1  H    22    43       P1  7948  0.84

> <Gold.Chemscore.Hbond.Weighted>
-8.3589

> <Gold.Chemscore.Metal.Weighted>
-0.0000

> <Gold.Chemscore.Lipo.Weighted>
-7.2514

> <Gold.Chemscore.Internal_Hbond.Weighted>
0.0000

> <Gold.Chemscore.DEClash.Weighted>
1.1941

> <Gold.Chemscore.DEInternal.Weighted>
2.2280

> <Gold.Chemscore.Rot.Weighted>
8.4709

> <Gold.Chemscore.Internal.Correction.Weighted>
   9.000000E+99

> <Gold.Protein.RotatedTorsions>
[ 6907 6896 6895 6894 ] final  -92.84 input  -60.11 | X-H torsion
[ 7974 7965 7964 7962 ] final   55.10 input  175.53 | X-H torsion
[ 8008 7997 7996 7995 ] final   55.00 input   59.86 | X-H torsion
[ 10167 10162 10161 10158 ] final -135.18 input  -65.29 | X-H torsion
[ 10718 10713 10712 10709 ] final -101.94 input   66.30 | X-H torsion
[ 10763 10752 10751 10750 ] final  179.00 input  -60.55 | X-H torsion
[ 11005 11000 10999 10996 ] final  -82.27 input  -57.11 | X-H torsion

> <Gold.Protein.ActiveResidues>
 VAL166  LYS551  ARG553  GLY616  TRP617  ASP618  TYR619  PRO620  LYS621  CYS622 
 ASP623  PHE694  ASN695  SER759  ASP760  ASP761  ALA762  ILE779  LEU786  VAL792 
 PHE793  MET794  SER795  GLU796  ALA797  LYS798  CYS799  TRP800  GLU811  SER814 

> <Gold.Protein.RotatedAtoms>
  150.6912  134.2060  159.4340 H   0  0  0  0  0  0  0  0  0  0  0  0  # atno 6907 bound_to 6896
  152.0024  134.9918  160.0575 H   0  0  0  0  0  0  0  0  0  0  0  0  # atno 6908 bound_to 6896
  152.1566  133.4520  159.4877 H   0  0  0  0  0  0  0  0  0  0  0  0  # atno 6909 bound_to 6896
  145.9540  139.3998  143.0289 H   0  0  0  0  0  0  0  0  0  0  0  0  # atno 7974 bound_to 7965
  155.4939  140.3472  155.4359 H   0  0  0  0  0  0  0  0  0  0  0  0  # atno 8008 bound_to 7997
  156.0959  140.1422  156.9560 H   0  0  0  0  0  0  0  0  0  0  0  0  # atno 8009 bound_to 7997
  154.4663  140.0916  156.7006 H   0  0  0  0  0  0  0  0  0  0  0  0  # atno 8010 bound_to 7997
  139.8804  143.6846  152.2628 H   0  0  0  0  0  0  0  0  0  0  0  0  # atno 10167 bound_to 10162
  156.0211  130.5397  150.7036 H   0  0  0  0  0  0  0  0  0  0  0  0  # atno 10718 bound_to 10713
  154.5150  135.2790  155.1310 H   0  0  0  0  0  0  0  0  0  0  0  0  # atno 10763 bound_to 10752
  154.2890  135.6270  153.5381 H   0  0  0  0  0  0  0  0  0  0  0  0  # atno 10764 bound_to 10752
  152.9926  135.5669  154.5625 H   0  0  0  0  0  0  0  0  0  0  0  0  # atno 10765 bound_to 10752
  141.1664  133.7236  156.8547 H   0  0  0  0  0  0  0  0  0  0  0  0  # atno 11005 bound_to 11000
  145.8132  140.9715  143.0938 LP  0  0  0  0  0  0  0  0  0  0  0  0  # atno 17320 bound_to 7965
  144.6801  139.9947  143.7484 LP  0  0  0  0  0  0  0  0  0  0  0  0  # atno 17321 bound_to 7965
  139.7201  144.7604  151.0970 LP  0  0  0  0  0  0  0  0  0  0  0  0  # atno 17342 bound_to 10162
  140.7745  143.5219  150.9526 LP  0  0  0  0  0  0  0  0  0  0  0  0  # atno 17343 bound_to 10162
  157.4691  131.0891  151.0662 LP  0  0  0  0  0  0  0  0  0  0  0  0  # atno 17370 bound_to 10713
  157.1128  130.6029  149.5486 LP  0  0  0  0  0  0  0  0  0  0  0  0  # atno 17371 bound_to 10713
  140.1891  134.8978  157.3039 LP  0  0  0  0  0  0  0  0  0  0  0  0  # atno 17394 bound_to 11000
  140.2310  134.3909  155.7522 LP  0  0  0  0  0  0  0  0  0  0  0  0  # atno 17395 bound_to 11000

$$$$
