AV-unprocessed.smi:1607|AV-procd|sdf|6464|dock5
  -GOLD-   22720 7123D 1   1.00000     0.00000
 Structure written by MMmdl.
 39 40  0  0  0  0  0  0  0  0  2 V2000
  150.0625  144.9535  159.5623 C   0  0  0  0  0  0  0  0  0  0  0  0
  151.4490  144.7700  158.9205 C   0  0  1  0  0  0  0  0  0  0  0  0
  152.5634  144.5452  159.9595 C   0  0  0  0  0  0  0  0  0  0  0  0
  152.4938  143.1319  160.5553 C   0  0  0  0  0  0  0  0  0  0  0  0
  152.4797  142.0655  159.4485 C   0  0  0  0  0  0  0  0  0  0  0  0
  151.3649  142.2985  158.4945 N   0  3  2  0  0  0  0  0  0  0  0  0
  151.2279  141.1972  157.5083 C   0  0  0  0  0  0  0  0  0  0  0  0
  150.0251  141.4001  156.5661 C   0  0  0  0  0  0  0  0  0  0  0  0
  149.7342  140.1952  155.7977 N   0  0  0  0  0  0  0  0  0  0  0  0
  150.6254  139.5311  155.0454 C   0  0  0  0  0  0  0  0  0  0  0  0
  151.7960  139.8887  154.9150 O   0  0  0  0  0  0  0  0  0  0  0  0
  150.1212  138.2747  154.3319 C   0  0  0  0  0  0  0  0  0  0  0  0
  150.6717  137.0730  154.9311 N   0  0  0  0  0  0  0  0  0  0  0  0
  150.3069  135.7935  154.8258 C   0  0  0  0  0  0  0  0  0  0  0  0
  151.0844  135.0019  155.5485 N   0  0  0  0  0  0  0  0  0  0  0  0
  151.9807  135.8847  156.1274 N   0  0  0  0  0  0  0  0  0  0  0  0
  151.7412  137.1148  155.7643 N   0  0  0  0  0  0  0  0  0  0  0  0
  151.4577  143.6444  157.8657 C   0  0  0  0  0  0  0  0  0  0  0  0
  149.7353  144.0579  160.0904 H   0  0  0  0  0  0  0  0  0  0  0  0
  149.3099  145.1825  158.8072 H   0  0  0  0  0  0  0  0  0  0  0  0
  150.0678  145.7769  160.2771 H   0  0  0  0  0  0  0  0  0  0  0  0
  151.6727  145.7041  158.4033 H   0  0  0  0  0  0  0  0  0  0  0  0
  153.5334  144.6804  159.4791 H   0  0  0  0  0  0  0  0  0  0  0  0
  152.5079  145.2939  160.7506 H   0  0  0  0  0  0  0  0  0  0  0  0
  153.3445  142.9673  161.2173 H   0  0  0  0  0  0  0  0  0  0  0  0
  151.6022  143.0317  161.1749 H   0  0  0  0  0  0  0  0  0  0  0  0
  153.4283  142.0669  158.9091 H   0  0  0  0  0  0  0  0  0  0  0  0
  152.3769  141.0813  159.9073 H   0  0  0  0  0  0  0  0  0  0  0  0
  152.1536  141.0895  156.9409 H   0  0  0  0  0  0  0  0  0  0  0  0
  151.0868  140.2584  158.0458 H   0  0  0  0  0  0  0  0  0  0  0  0
  149.1423  141.7019  157.1327 H   0  0  0  0  0  0  0  0  0  0  0  0
  150.2206  142.1978  155.8506 H   0  0  0  0  0  0  0  0  0  0  0  0
  148.7926  139.8334  155.8509 H   0  0  0  0  0  0  0  0  0  0  0  0
  149.0324  138.2146  154.3710 H   0  0  0  0  0  0  0  0  0  0  0  0
  150.4039  138.3171  153.2790 H   0  0  0  0  0  0  0  0  0  0  0  0
  149.4782  135.4455  154.2268 H   0  0  0  0  0  0  0  0  0  0  0  0
  150.6357  143.8019  157.1682 H   0  0  0  0  0  0  0  0  0  0  0  0
  152.3752  143.6987  157.2773 H   0  0  0  0  0  0  0  0  0  0  0  0
  150.5196  142.2897  159.0476 H   0  0  0  0  0  0  0  0  0  0  0  0
  1  2  1  0  0  0  0
  1 19  1  0  0  0  0
  1 20  1  0  0  0  0
  1 21  1  0  0  0  0
  2 18  1  0  0  0  0
  2  3  1  0  0  0  0
  2 22  1  0  0  0  0
  3  4  1  0  0  0  0
  3 23  1  0  0  0  0
  3 24  1  0  0  0  0
  4  5  1  0  0  0  0
  4 25  1  0  0  0  0
  4 26  1  0  0  0  0
  5  6  1  0  0  0  0
  5 27  1  0  0  0  0
  5 28  1  0  0  0  0
  6  7  1  0  0  0  0
  6 18  1  0  0  0  0
  6 39  1  0  0  0  0
  7  8  1  0  0  0  0
  7 29  1  0  0  0  0
  7 30  1  0  0  0  0
  8  9  1  0  0  0  0
  8 31  1  0  0  0  0
  8 32  1  0  0  0  0
  9 10  1  0  0  0  0
  9 33  1  0  0  0  0
 10 11  2  0  0  0  0
 10 12  1  0  0  0  0
 12 13  1  0  0  0  0
 12 34  1  0  0  0  0
 12 35  1  0  0  0  0
 13 17  1  0  0  0  0
 13 14  1  0  0  0  0
 14 15  2  0  0  0  0
 14 36  1  0  0  0  0
 15 16  1  0  0  0  0
 16 17  2  0  0  0  0
 18 37  1  0  0  0  0
 18 38  1  0  0  0  0
M  CHG  1   6   1
M  END
> <s_m_source_file>
AV-unprocessed.smi

> <i_m_source_file_index>
1607

> <i_lp_mmshare_version>
43012

> <i_f3d_flags>
0

> <s_epik_input>
W0NIM11bQ0BASF0xW0NIMl1bQ0gyXVtDSDJdTihbQ0gyXTEpW0NIMl1bQ0gyXVtOSF1DKD1PKVtDSDJdbjJbY0hdbm5uMg==

> <s_epik_cmdline>
J2VwaWtfcHl0aG9uJywgJy1waCcsICc3LjAnLCAnLXRuJywgJzgnLCAnLW1hJywgJzIwMCcsICctbWV0YWxfYmluZGluZycsICctaW1hZScsICc8aW5maWxlLm1hZT4nLCAnLW9tYWUnLCAnPG91dGZpbGUubWFlPic=

> <r_lp_tautomer_probability>
1

> <r_epik_Ionization_Penalty>
0.00268321

> <r_epik_Ionization_Penalty_Charging>
0.00267875

> <r_epik_Ionization_Penalty_Neutral>
4.46125e-06

> <r_epik_State_Penalty>
0.00186642

> <r_epik_Charging_Adjusted_Penalty>
0.00454517

> <i_epik_Tot_Q>
1

> <i_epik_Tot_abs_Q>
1

> <r_epik_Metal_State_Penalty>
-0

> <b_epik_Metal_Only>
0

> <s_lp_Force_Field>
OPLS_2005

> <r_lp_Energy>
22.4706

> <b_lp_Chiralities_Consistent>
1

> <s_lp_Variant>
AV-unprocessed.smi:1607-2

> <Gold.Version>
5.8.1

> <Gold.Id.Protein>
6NUR|6NUR_protein|mol2

> <Gold.PLP.Fitness>
42.9074

> <Gold.PLP.PLP>
-35.2336

> <Gold.PLP.part.hbond>
-3.4230

> <Gold.PLP.part.metal>
0.0000

> <Gold.PLP.part.buried>
-5.7241

> <Gold.PLP.part.nonpolar>
-28.0904

> <Gold.PLP.part.repulsive>
0.2803

> <Gold.PLP.ligand.clash>
0.0000

> <Gold.PLP.ligand.torsion>
0.3809

> <Gold.PLP.Chemscore.Hbond>
1.9040

> <Gold.PLP.Chemscore.CHOScore>
0.8900

> <Gold.PLP.Chemscore.Metal>
0.0000

> <Gold.Chemscore.Hbonds>
donor molecule, donor type, donor heavy atom, donor atom, acceptor molecule, acceptor atom, score
      P1  H  7989  7998       L1    11  0.99
      P1  H 10752 10763       L1    16  0.87
      L1  C    14    36       P1  7948  0.89

> <Gold.PLP.Chemscore.Internal.Correction>
0.0535

> <Gold.Rescore>
     Score         DG    S(hbond)    S(metal)    S(lipo)     H(rot)  DE(clash)    DE(int)     intcor
     12.14     -13.77       1.68        0.00      81.81       2.69       0.11       1.51       ----

> <Gold.Chemscore.Fitness>
12.1423

> <Gold.Chemscore.DG>
-13.7665

> <Gold.Chemscore.ZeroCoef>
-5.4800

> <Gold.Chemscore.Hbond>
1.6796

> <Gold.Chemscore.Metal>
0.0000

> <Gold.Chemscore.Lipo>
81.8058

> <Gold.Chemscore.Internal_Hbond>
0.0000

> <Gold.Chemscore.DEClash>
0.1103

> <Gold.Chemscore.DEInternal>
1.5139

> <Gold.Chemscore.Rot>
2.6932

> <Gold.Chemscore.Internal.Correction>
   9.000000E+99

> <Gold.Chemscore.Hbonds>
donor molecule, donor type, donor heavy atom, donor atom, acceptor molecule, acceptor atom, score
      P1  H  7989  7998       L1    11  0.24
      P1  H 10752 10763       L1    16  0.11

> <Gold.Chemscore.Hbond.Weighted>
-5.6098

> <Gold.Chemscore.Metal.Weighted>
-0.0000

> <Gold.Chemscore.Lipo.Weighted>
-9.5713

> <Gold.Chemscore.Internal_Hbond.Weighted>
0.0000

> <Gold.Chemscore.DEClash.Weighted>
0.1103

> <Gold.Chemscore.DEInternal.Weighted>
1.5139

> <Gold.Chemscore.Rot.Weighted>
6.8945

> <Gold.Chemscore.Internal.Correction.Weighted>
   9.000000E+99

> <Gold.Protein.RotatedTorsions>
[ 6907 6896 6895 6894 ] final   44.90 input  -60.11 | X-H torsion
[ 7974 7965 7964 7962 ] final  -39.82 input  175.53 | X-H torsion
[ 8008 7997 7996 7995 ] final   17.14 input   59.86 | X-H torsion
[ 10167 10162 10161 10158 ] final  174.22 input  -65.29 | X-H torsion
[ 10718 10713 10712 10709 ] final -120.65 input   66.30 | X-H torsion
[ 10763 10752 10751 10750 ] final  112.96 input  -60.55 | X-H torsion
[ 11005 11000 10999 10996 ] final   44.15 input  -57.11 | X-H torsion

> <Gold.Protein.ActiveResidues>
 VAL166  LYS551  ARG553  GLY616  TRP617  ASP618  TYR619  PRO620  LYS621  CYS622 
 ASP623  PHE694  ASN695  SER759  ASP760  ASP761  ALA762  ILE779  LEU786  VAL792 
 PHE793  MET794  SER795  GLU796  ALA797  LYS798  CYS799  TRP800  GLU811  SER814 

> <Gold.Protein.RotatedAtoms>
  152.2381  134.8256  160.0464 H   0  0  0  0  0  0  0  0  0  0  0  0  # atno 6907 bound_to 6896
  151.8981  133.3526  159.3829 H   0  0  0  0  0  0  0  0  0  0  0  0  # atno 6908 bound_to 6896
  150.7045  134.4782  159.5502 H   0  0  0  0  0  0  0  0  0  0  0  0  # atno 6909 bound_to 6896
  146.0362  140.6668  142.9109 H   0  0  0  0  0  0  0  0  0  0  0  0  # atno 7974 bound_to 7965
  154.8870  140.2981  155.5392 H   0  0  0  0  0  0  0  0  0  0  0  0  # atno 8008 bound_to 7997
  156.3021  140.2431  156.3815 H   0  0  0  0  0  0  0  0  0  0  0  0  # atno 8009 bound_to 7997
  154.8657  140.0403  157.1682 H   0  0  0  0  0  0  0  0  0  0  0  0  # atno 8010 bound_to 7997
  139.5134  144.3172  152.0237 H   0  0  0  0  0  0  0  0  0  0  0  0  # atno 10167 bound_to 10162
  156.1275  130.6370  150.9567 H   0  0  0  0  0  0  0  0  0  0  0  0  # atno 10718 bound_to 10713
  153.4855  135.3670  155.2464 H   0  0  0  0  0  0  0  0  0  0  0  0  # atno 10763 bound_to 10752
  154.8754  135.3964  154.3650 H   0  0  0  0  0  0  0  0  0  0  0  0  # atno 10764 bound_to 10752
  153.4261  135.7081  153.6327 H   0  0  0  0  0  0  0  0  0  0  0  0  # atno 10765 bound_to 10752
  140.1579  134.4379  155.8337 H   0  0  0  0  0  0  0  0  0  0  0  0  # atno 11005 bound_to 11000
  144.7053  140.3824  143.7123 LP  0  0  0  0  0  0  0  0  0  0  0  0  # atno 17320 bound_to 7965
  145.6960  139.1650  143.2620 LP  0  0  0  0  0  0  0  0  0  0  0  0  # atno 17321 bound_to 7965
  140.2614  144.4063  150.6184 LP  0  0  0  0  0  0  0  0  0  0  0  0  # atno 17342 bound_to 10162
  140.6154  143.2172  151.6802 LP  0  0  0  0  0  0  0  0  0  0  0  0  # atno 17343 bound_to 10162
  157.6455  131.0904  150.8161 LP  0  0  0  0  0  0  0  0  0  0  0  0  # atno 17370 bound_to 10713
  156.8250  130.4996  149.5338 LP  0  0  0  0  0  0  0  0  0  0  0  0  # atno 17371 bound_to 10713
  141.2206  133.6900  156.7540 LP  0  0  0  0  0  0  0  0  0  0  0  0  # atno 17394 bound_to 11000
  140.2526  134.8529  157.3682 LP  0  0  0  0  0  0  0  0  0  0  0  0  # atno 17395 bound_to 11000

$$$$
