#       Name:                AV-unprocessed.smi:2252
#       Creating user name   scv26
#       Creation time:       Fri Mar 27 12:31:59 2020


#       File generated by GOLD software.
#

@<TRIPOS>MOLECULE
AV-unprocessed.smi:2252
    48    50     1
SMALL
NO_CHARGES


@<TRIPOS>ATOM
      1 ****        -3.9745   1.3556  -1.8064 C.3            1 S1                 0.0000
      2 ****        -4.5992   0.6663  -0.6934 N.pl3          1 S1                 0.0000
      3 ****        -5.9622   0.4688  -0.5160 C.2            1 S1                 0.0000
      4 ****        -6.1091  -0.2332   0.6561 C.2            1 S1                 0.0000
      5 ****        -4.8564  -0.4744   1.2101 N.2            1 S1                 0.0000
      6 ****        -3.9984   0.0917   0.3667 C.2            1 S1                 0.0000
      7 ****        -2.5131   0.0635   0.5477 C.3            1 S1                 0.0000
      8 ****        -1.8724  -1.1940  -0.0621 C.3            1 S1                 0.0000
      9 ****        -0.4264  -1.1950   0.1186 N.am           1 S1                 0.0000
     10 ****         0.4417  -0.5021  -0.6351 C.2            1 S1                 0.0000
     11 ****         0.0950   0.2103  -1.5782 O.2            1 S1                 0.0000
     12 ****         1.9274  -0.6045  -0.2450 C.3            1 S1                 0.0000
     13 ****         2.7799  -0.9089  -1.4968 C.3            1 S1                 0.0000
     14 ****         2.5555  -2.1761  -2.2977 C.3            1 S1                 0.0000
     15 ****         3.8114  -2.0173  -1.4845 C.3            1 S1                 0.0000
     16 ****         2.4224   0.6128   0.4453 N.3            1 S1                 0.0000
     17 ****         1.6348   1.0429   1.6000 C.3            1 S1                 0.0000
     18 ****         2.5374   2.0558   2.3057 C.3            1 S1                 0.0000
     19 ****         3.9526   1.6834   1.8748 C.3            1 S1                 0.0000
     20 ****         3.7746   0.4612   0.9745 C.3            1 S1                 0.0000
     21 ****        -4.7174   1.5892  -2.5697 H              1 S1                 0.0000
     22 ****        -3.2030   0.7252  -2.2495 H              1 S1                 0.0000
     23 ****        -3.5227   2.2843  -1.4571 H              1 S1                 0.0000
     24 ****        -6.6957   0.8311  -1.2213 H              1 S1                 0.0000
     25 ****        -7.0109  -0.5820   1.1375 H              1 S1                 0.0000
     26 ****        -2.0797   0.9657   0.1150 H              1 S1                 0.0000
     27 ****        -2.2946   0.1075   1.6154 H              1 S1                 0.0000
     28 ****        -2.2770  -2.0871   0.4147 H              1 S1                 0.0000
     29 ****        -2.1143  -1.2724  -1.1234 H              1 S1                 0.0000
     30 ****        -0.0598  -1.7501   0.8782 H              1 S1                 0.0000
     31 ****         2.0172  -1.4477   0.4433 H              1 S1                 0.0000
     32 ****         3.0239  -0.0282  -2.0890 H              1 S1                 0.0000
     33 ****         1.8132  -2.8851  -1.9360 H              1 S1                 0.0000
     34 ****         2.6440  -2.1062  -3.3797 H              1 S1                 0.0000
     35 ****         4.7409  -1.8406  -2.0217 H              1 S1                 0.0000
     36 ****         3.9037  -2.6142  -0.5793 H              1 S1                 0.0000
     37 ****         0.6774   1.4821   1.3171 H              1 S1                 0.0000
     38 ****         1.4410   0.1936   2.2581 H              1 S1                 0.0000
     39 ****         2.3023   3.0703   1.9810 H              1 S1                 0.0000
     40 ****         2.4115   2.0163   3.3881 H              1 S1                 0.0000
     41 ****         4.4011   2.5055   1.3155 H              1 S1                 0.0000
     42 ****         4.6010   1.4661   2.7242 H              1 S1                 0.0000
     43 ****         3.8501  -0.4527   1.5670 H              1 S1                 0.0000
     44 ****         4.5274   0.4206   0.1867 H              1 S1                 0.0000
     45 ****        -4.6472  -0.9651   2.0559 LP             1 S1                 0.0000
     46 ****        -0.8736   0.2926  -1.8130 LP             1 S1                 0.0000
     47 ****         0.7821   0.7065  -2.1090 LP             1 S1                 0.0000
     48 ****         2.3644   1.2875  -0.2906 LP             1 S1                 0.0000
@<TRIPOS>BOND
    1    1    2 1     
    2    1   21 1     
    3    1   22 1     
    4    1   23 1     
    5    2    6 1     
    6    2    3 1     
    7    3    4 2     
    8    3   24 1     
    9    4    5 1     
   10    4   25 1     
   11    5    6 2     
   12    6    7 1     
   13    7    8 1     
   14    7   26 1     
   15    7   27 1     
   16    8    9 1     
   17    8   28 1     
   18    8   29 1     
   19    9   10 am    
   20    9   30 1     
   21   10   11 2     
   22   10   12 1     
   23   12   13 1     
   24   12   16 1     
   25   12   31 1     
   26   13   15 1     
   27   13   14 1     
   28   13   32 1     
   29   14   15 1     
   30   14   33 1     
   31   14   34 1     
   32   15   35 1     
   33   15   36 1     
   34   16   20 1     
   35   16   17 1     
   36   17   18 1     
   37   17   37 1     
   38   17   38 1     
   39   18   19 1     
   40   18   39 1     
   41   18   40 1     
   42   19   20 1     
   43   19   41 1     
   44   19   42 1     
   45   20   43 1     
   46   20   44 1     
   47    5   45 1     
   48   11   46 1     
   49   11   47 1     
   50   16   48 1     
@<TRIPOS>SUBSTRUCTURE
      1 S1             1
@<TRIPOS>SET
LONE_PAIRS      STATIC     ATOMS    <user>   **** ""
4 45 46 47 48
DONOR_HYDROGENS      STATIC     ATOMS    <user>   **** ""
1 30
ATOM$BLUE        STATIC     ATOMS    COLORGROUP SYSTEM
4 45 46 47 48
ATOM$RED        STATIC     ATOMS    COLORGROUP SYSTEM
1 30
