#       Name:                AV-unprocessed.smi:2492
#       Creating user name   scv26
#       Creation time:       Fri Mar 27 13:44:18 2020


#       File generated by GOLD software.
#

@<TRIPOS>MOLECULE
AV-unprocessed.smi:2492
    39    40     1
SMALL
NO_CHARGES


@<TRIPOS>ATOM
      1 ****        -2.9618  -3.2695  -2.8681 C.3            1 S1                 0.0000
      2 ****        -3.9297  -2.8535  -1.3936 S.3            1 S1                 0.0000
      3 ****        -2.6149  -2.2169  -0.3152 C.3            1 S1                 0.0000
      4 ****        -3.0997  -1.9648   1.1101 C.3            1 S1                 0.0000
      5 ****        -2.0652  -1.0032   1.6964 C.3            1 S1                 0.0000
      6 ****        -1.5338  -0.1764   0.5097 C.3            1 S1                 0.0000
      7 ****        -0.0722  -0.1529   0.5047 N.am           1 S1                 0.0000
      8 ****         0.6938   0.9460   0.4412 C.2            1 S1                 0.0000
      9 ****         0.2445   2.0904   0.3742 O.2            1 S1                 0.0000
     10 ****         1.9994   0.6285   0.4586 N.am           1 S1                 0.0000
     11 ****         3.1068   1.5139   0.4426 C.2            1 S1                 0.0000
     12 ****         3.0586   2.8458   0.4119 N.2            1 S1                 0.0000
     13 ****         4.3852   3.1507   0.4187 C.2            1 S1                 0.0000
     14 ****         4.8865   4.5543   0.3942 C.3            1 S1                 0.0000
     15 ****         5.2192   2.1173   0.4500 N.2            1 S1                 0.0000
     16 ****         4.3615   1.0073   0.4670 O.3            1 S1                 0.0000
     17 ****        -2.0727  -0.8559  -0.7627 C.3            1 S1                 0.0000
     18 ****        -3.6100  -3.6997  -3.6316 H              1 S1                 0.0000
     19 ****        -2.1876  -3.9966  -2.6229 H              1 S1                 0.0000
     20 ****        -2.4875  -2.3793  -3.2812 H              1 S1                 0.0000
     21 ****        -1.7989  -2.9406  -0.2854 H              1 S1                 0.0000
     22 ****        -4.0771  -1.4800   1.0923 H              1 S1                 0.0000
     23 ****        -3.1938  -2.8832   1.6905 H              1 S1                 0.0000
     24 ****        -2.4928  -0.3732   2.4771 H              1 S1                 0.0000
     25 ****        -1.2619  -1.5824   2.1548 H              1 S1                 0.0000
     26 ****        -1.9416   0.8346   0.5665 H              1 S1                 0.0000
     27 ****         0.3911  -1.0483   0.5553 H              1 S1                 0.0000
     28 ****         2.2282  -0.3535   0.5010 H              1 S1                 0.0000
     29 ****         5.9769   4.5802   0.3875 H              1 S1                 0.0000
     30 ****         4.5341   5.0947   1.2730 H              1 S1                 0.0000
     31 ****         4.5239   5.0677  -0.4966 H              1 S1                 0.0000
     32 ****        -1.3231  -0.9511  -1.5495 H              1 S1                 0.0000
     33 ****        -2.8849  -0.2517  -1.1697 H              1 S1                 0.0000
     34 ****        -0.7443   2.2396   0.3648 LP             1 S1                 0.0000
     35 ****         0.8683   2.8707   0.3291 LP             1 S1                 0.0000
     36 ****         2.2652   3.4542   0.3899 LP             1 S1                 0.0000
     37 ****         6.2191   2.1280   0.4592 LP             1 S1                 0.0000
     38 ****         4.5206   0.4314  -0.3348 LP             1 S1                 0.0000
     39 ****         4.5041   0.4691   1.2976 LP             1 S1                 0.0000
@<TRIPOS>BOND
    1    1    2 1     
    2    1   18 1     
    3    1   19 1     
    4    1   20 1     
    5    2    3 1     
    6    3   17 1     
    7    3    4 1     
    8    3   21 1     
    9    4    5 1     
   10    4   22 1     
   11    4   23 1     
   12    5    6 1     
   13    5   24 1     
   14    5   25 1     
   15    6    7 1     
   16    6   17 1     
   17    6   26 1     
   18    7    8 am    
   19    7   27 1     
   20    8    9 2     
   21    8   10 am    
   22   10   11 1     
   23   10   28 1     
   24   11   16 1     
   25   11   12 2     
   26   12   13 1     
   27   13   14 1     
   28   13   15 2     
   29   14   29 1     
   30   14   30 1     
   31   14   31 1     
   32   15   16 1     
   33   17   32 1     
   34   17   33 1     
   35    9   34 1     
   36    9   35 1     
   37   12   36 1     
   38   15   37 1     
   39   16   38 1     
   40   16   39 1     
@<TRIPOS>SUBSTRUCTURE
      1 S1             1
@<TRIPOS>SET
LONE_PAIRS      STATIC     ATOMS    <user>   **** ""
6 34 35 36 37 38 39
DONOR_HYDROGENS      STATIC     ATOMS    <user>   **** ""
2 27 28
ATOM$BLUE        STATIC     ATOMS    COLORGROUP SYSTEM
6 34 35 36 37 38 39
ATOM$RED        STATIC     ATOMS    COLORGROUP SYSTEM
2 27 28
