AV-unprocessed.smi:1041|AV-procd|sdf|4531|dock6
  -GOLD-   22720 2553D 1   1.00000     0.00000
 Structure written by MMmdl.
 53 54  0  0  0  0  0  0  0  0  2 V2000
  144.6251  131.5274  150.7575 C   0  0  0  0  0  0  0  0  0  0  0  0
  144.1781  132.8707  150.8201 O   0  0  0  0  0  0  0  0  0  0  0  0
  145.1041  133.7795  150.2482 C   0  0  0  0  0  0  0  0  0  0  0  0
  144.3546  135.0509  149.8206 C   0  0  0  0  0  0  0  0  0  0  0  0
  144.5903  136.1920  150.7417 N   0  3  2  0  0  0  0  0  0  0  0  0
  146.0000  136.6607  150.6987 C   0  0  0  0  0  0  0  0  0  0  0  0
  146.2071  137.9141  151.5704 C   0  0  0  0  0  0  0  0  0  0  0  0
  145.7541  137.6945  153.0256 C   0  0  2  0  0  0  0  0  0  0  0  0
  146.7432  136.8047  153.8152 C   0  0  0  0  0  0  0  0  0  0  0  0
  148.0860  137.3742  153.8347 N   0  0  0  0  0  0  0  0  0  0  0  0
  148.4822  138.4110  154.5893 C   0  0  0  0  0  0  0  0  0  0  0  0
  147.7648  138.9616  155.4240 O   0  0  0  0  0  0  0  0  0  0  0  0
  149.8924  138.9362  154.3248 C   0  0  0  0  0  0  0  0  0  0  0  0
  150.3105  140.0982  155.2229 C   0  0  0  0  0  0  0  0  0  0  0  0
  149.6805  141.3006  155.2243 C   0  0  0  0  0  0  0  0  0  0  0  0
  148.4813  141.6437  154.3580 C   0  0  0  0  0  0  0  0  0  0  0  0
  150.1075  142.3308  156.0439 N   0  0  0  0  0  0  0  0  0  0  0  0
  151.2062  142.1018  156.8554 C   0  0  0  0  0  0  0  0  0  0  0  0
  151.5936  143.2923  157.7057 C   0  0  0  0  0  0  0  0  0  0  0  0
  151.8759  140.9915  156.9213 N   0  0  0  0  0  0  0  0  0  0  0  0
  151.4793  139.9127  156.1151 C   0  0  0  0  0  0  0  0  0  0  0  0
  152.0990  138.8503  156.1491 O   0  0  0  0  0  0  0  0  0  0  0  0
  144.2994  137.1796  153.0127 C   0  0  0  0  0  0  0  0  0  0  0  0
  144.1406  135.9276  152.1343 C   0  0  0  0  0  0  0  0  0  0  0  0
  149.6059  143.2070  156.0195 H   0  0  0  0  0  0  0  0  0  0  0  0
  143.8765  130.8711  151.2012 H   0  0  0  0  0  0  0  0  0  0  0  0
  145.5571  131.3959  151.3090 H   0  0  0  0  0  0  0  0  0  0  0  0
  144.7808  131.2104  149.7256 H   0  0  0  0  0  0  0  0  0  0  0  0
  145.9106  134.0015  150.9472 H   0  0  0  0  0  0  0  0  0  0  0  0
  145.5633  133.3224  149.3703 H   0  0  0  0  0  0  0  0  0  0  0  0
  144.6366  135.3367  148.8062 H   0  0  0  0  0  0  0  0  0  0  0  0
  143.2895  134.8173  149.7880 H   0  0  0  0  0  0  0  0  0  0  0  0
  146.6629  135.8556  151.0175 H   0  0  0  0  0  0  0  0  0  0  0  0
  146.2727  136.8988  149.6699 H   0  0  0  0  0  0  0  0  0  0  0  0
  147.2530  138.2216  151.5413 H   0  0  0  0  0  0  0  0  0  0  0  0
  145.6390  138.7403  151.1403 H   0  0  0  0  0  0  0  0  0  0  0  0
  145.7500  138.6682  153.5178 H   0  0  0  0  0  0  0  0  0  0  0  0
  146.3837  136.6195  154.8277 H   0  0  0  0  0  0  0  0  0  0  0  0
  146.8104  135.8252  153.3406 H   0  0  0  0  0  0  0  0  0  0  0  0
  148.7502  136.9905  153.1776 H   0  0  0  0  0  0  0  0  0  0  0  0
  150.5875  138.1061  154.4502 H   0  0  0  0  0  0  0  0  0  0  0  0
  149.9911  139.2203  153.2759 H   0  0  0  0  0  0  0  0  0  0  0  0
  147.6373  140.9987  154.6031 H   0  0  0  0  0  0  0  0  0  0  0  0
  148.7217  141.5138  153.3030 H   0  0  0  0  0  0  0  0  0  0  0  0
  148.1640  142.6773  154.5023 H   0  0  0  0  0  0  0  0  0  0  0  0
  152.5766  143.1466  158.1550 H   0  0  0  0  0  0  0  0  0  0  0  0
  150.8689  143.4353  158.5076 H   0  0  0  0  0  0  0  0  0  0  0  0
  151.6280  144.2006  157.1030 H   0  0  0  0  0  0  0  0  0  0  0  0
  143.9423  136.9783  154.0225 H   0  0  0  0  0  0  0  0  0  0  0  0
  143.6485  137.9648  152.6259 H   0  0  0  0  0  0  0  0  0  0  0  0
  143.0935  135.6291  152.1446 H   0  0  0  0  0  0  0  0  0  0  0  0
  144.7060  135.0938  152.5524 H   0  0  0  0  0  0  0  0  0  0  0  0
  144.0311  136.9577  150.3926 H   0  0  0  0  0  0  0  0  0  0  0  0
  1  2  1  0  0  0  0
  1 26  1  0  0  0  0
  1 27  1  0  0  0  0
  1 28  1  0  0  0  0
  2  3  1  0  0  0  0
  3  4  1  0  0  0  0
  3 29  1  0  0  0  0
  3 30  1  0  0  0  0
  4  5  1  0  0  0  0
  4 31  1  0  0  0  0
  4 32  1  0  0  0  0
  5 24  1  0  0  0  0
  5  6  1  0  0  0  0
  5 53  1  0  0  0  0
  6  7  1  0  0  0  0
  6 33  1  0  0  0  0
  6 34  1  0  0  0  0
  7  8  1  0  0  0  0
  7 35  1  0  0  0  0
  7 36  1  0  0  0  0
  8  9  1  0  0  0  0
  8 23  1  0  0  0  0
  8 37  1  0  0  0  0
  9 10  1  0  0  0  0
  9 38  1  0  0  0  0
  9 39  1  0  0  0  0
 10 11  1  0  0  0  0
 10 40  1  0  0  0  0
 11 12  2  0  0  0  0
 11 13  1  0  0  0  0
 13 41  1  0  0  0  0
 13 42  1  0  0  0  0
 13 14  1  0  0  0  0
 14 21  1  0  0  0  0
 14 15  2  0  0  0  0
 15 16  1  0  0  0  0
 15 17  1  0  0  0  0
 16 43  1  0  0  0  0
 16 44  1  0  0  0  0
 16 45  1  0  0  0  0
 17 25  1  0  0  0  0
 17 18  1  0  0  0  0
 18 19  1  0  0  0  0
 18 20  2  0  0  0  0
 19 46  1  0  0  0  0
 19 47  1  0  0  0  0
 19 48  1  0  0  0  0
 20 21  1  0  0  0  0
 21 22  2  0  0  0  0
 23 24  1  0  0  0  0
 23 49  1  0  0  0  0
 23 50  1  0  0  0  0
 24 51  1  0  0  0  0
 24 52  1  0  0  0  0
M  CHG  1   5   1
M  END
> <s_m_source_file>
AV-unprocessed.smi

> <i_m_source_file_index>
1041

> <i_lp_mmshare_version>
43012

> <i_f3d_flags>
0

> <s_epik_input>
W0NIM11PW0NIMl1bQ0gyXU4xW0NIMl1bQ0gyXVtDSF0oW0NIMl1bQ0gyXTEpW0NIMl1bTkhdQyg9TylbQ0gyXWMyYyhbQ0gzXSluYyhbQ0gzXSlbbkhdYzI9Tw==

> <s_epik_cmdline>
J2VwaWtfcHl0aG9uJywgJy1waCcsICc3LjAnLCAnLXRuJywgJzgnLCAnLW1hJywgJzIwMCcsICctbWV0YWxfYmluZGluZycsICctaW1hZScsICc8aW5maWxlLm1hZT4nLCAnLW9tYWUnLCAnPG91dGZpbGUubWFlPic=

> <r_lp_tautomer_probability>
0.156392

> <r_epik_Ionization_Penalty>
0.0240251

> <r_epik_Ionization_Penalty_Charging>
0.0239146

> <r_epik_Ionization_Penalty_Neutral>
0.000110474

> <r_epik_State_Penalty>
1.15942

> <r_epik_Charging_Adjusted_Penalty>
1.18333

> <i_epik_Tot_Q>
1

> <i_epik_Tot_abs_Q>
1

> <r_epik_Metal_State_Penalty>
1.33297

> <b_epik_Metal_Only>
0

> <s_lp_Force_Field>
OPLS_2005

> <r_lp_Energy>
25.6342

> <b_lp_Chiralities_Consistent>
1

> <s_lp_Variant>
AV-unprocessed.smi:1041-4

> <Gold.Version>
5.8.1

> <Gold.Id.Protein>
6NUR|6NUR_protein|mol2

> <Gold.PLP.Fitness>
46.6650

> <Gold.PLP.PLP>
-38.6511

> <Gold.PLP.part.hbond>
-3.0000

> <Gold.PLP.part.metal>
0.0000

> <Gold.PLP.part.buried>
1.0970

> <Gold.PLP.part.nonpolar>
-37.9584

> <Gold.PLP.part.repulsive>
0.3800

> <Gold.PLP.ligand.clash>
0.0000

> <Gold.PLP.ligand.torsion>
0.5692

> <Gold.PLP.Chemscore.Hbond>
3.0000

> <Gold.PLP.Chemscore.CHOScore>
0.0000

> <Gold.PLP.Chemscore.Metal>
0.0000

> <Gold.Chemscore.Hbonds>
donor molecule, donor type, donor heavy atom, donor atom, acceptor molecule, acceptor atom, score
      L1  H     5    53       P1 10171  1.00
      L1  H    10    40       P1  7948  0.94
      L1  H    17    25       P1  8028  1.00

> <Gold.PLP.Chemscore.Internal.Correction>
0.1523

> <Gold.Rescore>
     Score         DG    S(hbond)    S(metal)    S(lipo)     H(rot)  DE(clash)    DE(int)     intcor
     18.76     -19.63       2.95        0.00      89.86       2.43       0.14       0.74       ----

> <Gold.Chemscore.Fitness>
18.7556

> <Gold.Chemscore.DG>
-19.6299

> <Gold.Chemscore.ZeroCoef>
-5.4800

> <Gold.Chemscore.Hbond>
2.9506

> <Gold.Chemscore.Metal>
0.0000

> <Gold.Chemscore.Lipo>
89.8584

> <Gold.Chemscore.Internal_Hbond>
0.0000

> <Gold.Chemscore.DEClash>
0.1369

> <Gold.Chemscore.DEInternal>
0.7373

> <Gold.Chemscore.Rot>
2.4291

> <Gold.Chemscore.Internal.Correction>
   9.000000E+99

> <Gold.Chemscore.Hbonds>
donor molecule, donor type, donor heavy atom, donor atom, acceptor molecule, acceptor atom, score
      L1  H     5    53       P1 10171  0.96
      L1  H    10    40       P1  7948  0.85
      L1  H    17    25       P1  8028  1.00

> <Gold.Chemscore.Hbond.Weighted>
-9.8550

> <Gold.Chemscore.Metal.Weighted>
-0.0000

> <Gold.Chemscore.Lipo.Weighted>
-10.5134

> <Gold.Chemscore.Internal_Hbond.Weighted>
0.0000

> <Gold.Chemscore.DEClash.Weighted>
0.1369

> <Gold.Chemscore.DEInternal.Weighted>
0.7373

> <Gold.Chemscore.Rot.Weighted>
6.2186

> <Gold.Chemscore.Internal.Correction.Weighted>
   9.000000E+99

> <Gold.Protein.RotatedTorsions>
[ 6907 6896 6895 6894 ] final  -28.35 input  -60.11 | X-H torsion
[ 7974 7965 7964 7962 ] final  -77.22 input  175.53 | X-H torsion
[ 8008 7997 7996 7995 ] final  -69.83 input   59.86 | X-H torsion
[ 10167 10162 10161 10158 ] final   73.78 input  -65.29 | X-H torsion
[ 10718 10713 10712 10709 ] final -112.20 input   66.30 | X-H torsion
[ 10763 10752 10751 10750 ] final   28.04 input  -60.55 | X-H torsion
[ 11005 11000 10999 10996 ] final -147.05 input  -57.11 | X-H torsion

> <Gold.Protein.ActiveResidues>
 VAL166  LYS551  ARG553  GLY616  TRP617  ASP618  TYR619  PRO620  LYS621  CYS622 
 ASP623  PHE694  ASN695  SER759  ASP760  ASP761  ALA762  ILE779  LEU786  VAL792 
 PHE793  MET794  SER795  GLU796  ALA797  LYS798  CYS799  TRP800  GLU811  SER814 

> <Gold.Protein.RotatedAtoms>
  151.1342  135.0146  159.8596 H   0  0  0  0  0  0  0  0  0  0  0  0  # atno 6907 bound_to 6896
  152.5451  134.1574  159.8554 H   0  0  0  0  0  0  0  0  0  0  0  0  # atno 6908 bound_to 6896
  151.1644  133.4779  159.2627 H   0  0  0  0  0  0  0  0  0  0  0  0  # atno 6909 bound_to 6896
  145.6026  140.9405  143.1232 H   0  0  0  0  0  0  0  0  0  0  0  0  # atno 7974 bound_to 7965
  154.4967  140.0846  156.7712 H   0  0  0  0  0  0  0  0  0  0  0  0  # atno 8008 bound_to 7997
  155.4099  140.3441  155.4244 H   0  0  0  0  0  0  0  0  0  0  0  0  # atno 8009 bound_to 7997
  156.1403  140.1527  156.8918 H   0  0  0  0  0  0  0  0  0  0  0  0  # atno 8010 bound_to 7997
  140.0208  144.5542  150.7584 H   0  0  0  0  0  0  0  0  0  0  0  0  # atno 10167 bound_to 10162
  156.0692  130.5907  150.8477 H   0  0  0  0  0  0  0  0  0  0  0  0  # atno 10718 bound_to 10713
  153.0517  135.6522  154.0678 H   0  0  0  0  0  0  0  0  0  0  0  0  # atno 10763 bound_to 10752
  154.0365  135.2907  155.3363 H   0  0  0  0  0  0  0  0  0  0  0  0  # atno 10764 bound_to 10752
  154.6809  135.5320  153.8328 H   0  0  0  0  0  0  0  0  0  0  0  0  # atno 10765 bound_to 10752
  140.7756  134.3138  157.5061 H   0  0  0  0  0  0  0  0  0  0  0  0  # atno 11005 bound_to 11000
  144.7303  139.7746  143.7349 LP  0  0  0  0  0  0  0  0  0  0  0  0  # atno 17320 bound_to 7965
  146.1565  139.4664  143.0016 LP  0  0  0  0  0  0  0  0  0  0  0  0  # atno 17321 bound_to 7965
  140.7343  143.2727  151.3836 LP  0  0  0  0  0  0  0  0  0  0  0  0  # atno 17342 bound_to 10162
  139.6141  144.1038  152.2328 LP  0  0  0  0  0  0  0  0  0  0  0  0  # atno 17343 bound_to 10162
  157.5752  131.0946  150.9357 LP  0  0  0  0  0  0  0  0  0  0  0  0  # atno 17370 bound_to 10713
  156.9564  130.5439  149.5284 LP  0  0  0  0  0  0  0  0  0  0  0  0  # atno 17371 bound_to 10713
  139.8749  134.9287  156.3459 LP  0  0  0  0  0  0  0  0  0  0  0  0  # atno 17394 bound_to 11000
  140.9532  133.7437  156.0299 LP  0  0  0  0  0  0  0  0  0  0  0  0  # atno 17395 bound_to 11000

$$$$
