AV-unprocessed.smi:1033|AV-procd|sdf|4507|dock10
  -GOLD-   22720 2513D 1   1.00000     0.00000
 Structure written by MMmdl.
 57 59  0  0  0  0  0  0  0  0  3 V2000
  153.2832  142.5536  160.4465 C   0  0  0  0  0  0  0  0  0  0  0  0
  152.4667  142.2010  159.2154 C   0  0  0  0  0  0  0  0  0  0  0  0
  152.5883  140.9084  158.6577 C   0  0  0  0  0  0  0  0  0  0  0  0
  151.8499  140.5420  157.5115 C   0  0  0  0  0  0  0  0  0  0  0  0
  151.8135  139.3499  156.8087 N   0  0  0  0  0  0  0  0  0  0  0  0
  150.9427  139.6326  155.8449 C   0  0  0  0  0  0  0  0  0  0  0  0
  150.3961  140.8639  155.8498 N   0  0  0  0  0  0  0  0  0  0  0  0
  149.4201  141.3932  154.9148 C   0  0  0  0  0  0  0  0  0  0  0  0
  148.1773  140.4905  154.7818 C   0  0  1  0  0  0  0  0  0  0  0  0
  147.5818  140.3812  156.0584 O   0  0  0  0  0  0  0  0  0  0  0  0
  147.1253  141.0254  153.7851 C   0  0  0  0  0  0  0  0  0  0  0  0
  146.4666  139.9358  153.0200 N   0  3  2  0  0  0  0  0  0  0  0  0
  146.3847  138.6538  153.7663 C   0  0  0  0  0  0  0  0  0  0  0  0
  145.6188  137.5906  152.9592 C   0  0  0  0  0  0  0  0  0  0  0  0
  146.2293  137.3872  151.6222 N   0  3  1  0  0  0  0  0  0  0  0  0
  145.5692  136.2971  150.8578 C   0  0  0  0  0  0  0  0  0  0  0  0
  145.5838  134.9533  151.6127 C   0  0  2  0  0  0  0  0  0  0  0  0
  144.4201  134.8356  152.6053 C   0  0  0  0  0  0  0  0  0  0  0  0
  146.7933  134.8425  152.3352 O   0  0  0  0  0  0  0  0  0  0  0  0
  146.3128  138.6693  150.8763 C   0  0  0  0  0  0  0  0  0  0  0  0
  147.0783  139.7328  151.6838 C   0  0  0  0  0  0  0  0  0  0  0  0
  150.9777  141.5111  156.9348 C   0  0  0  0  0  0  0  0  0  0  0  0
  150.8491  142.8011  157.4796 C   0  0  0  0  0  0  0  0  0  0  0  0
  151.5941  143.1505  158.6253 C   0  0  0  0  0  0  0  0  0  0  0  0
  151.4489  144.5459  159.2064 C   0  0  0  0  0  0  0  0  0  0  0  0
  153.9213  141.7241  160.7527 H   0  0  0  0  0  0  0  0  0  0  0  0
  152.6274  142.7977  161.2825 H   0  0  0  0  0  0  0  0  0  0  0  0
  153.9254  143.4117  160.2467 H   0  0  0  0  0  0  0  0  0  0  0  0
  153.2543  140.1854  159.1057 H   0  0  0  0  0  0  0  0  0  0  0  0
  150.6789  138.8978  155.0980 H   0  0  0  0  0  0  0  0  0  0  0  0
  149.1317  142.3898  155.2522 H   0  0  0  0  0  0  0  0  0  0  0  0
  149.9038  141.5193  153.9448 H   0  0  0  0  0  0  0  0  0  0  0  0
  148.5062  139.4960  154.4839 H   0  0  0  0  0  0  0  0  0  0  0  0
  146.6906  140.6929  156.0060 H   0  0  0  0  0  0  0  0  0  0  0  0
  146.3786  141.5915  154.3445 H   0  0  0  0  0  0  0  0  0  0  0  0
  147.5692  141.7278  153.0785 H   0  0  0  0  0  0  0  0  0  0  0  0
  147.3917  138.2966  153.9890 H   0  0  0  0  0  0  0  0  0  0  0  0
  145.8853  138.8000  154.7234 H   0  0  0  0  0  0  0  0  0  0  0  0
  145.6208  136.6504  153.5122 H   0  0  0  0  0  0  0  0  0  0  0  0
  144.5753  137.8879  152.8414 H   0  0  0  0  0  0  0  0  0  0  0  0
  144.5314  136.5665  150.6540 H   0  0  0  0  0  0  0  0  0  0  0  0
  146.0522  136.1958  149.8845 H   0  0  0  0  0  0  0  0  0  0  0  0
  145.5250  134.1182  150.9158 H   0  0  0  0  0  0  0  0  0  0  0  0
  143.4603  134.8860  152.0902 H   0  0  0  0  0  0  0  0  0  0  0  0
  144.4426  135.6369  153.3449 H   0  0  0  0  0  0  0  0  0  0  0  0
  144.4544  133.8867  153.1419 H   0  0  0  0  0  0  0  0  0  0  0  0
  147.4429  135.3959  151.9277 H   0  0  0  0  0  0  0  0  0  0  0  0
  146.8141  138.5229  149.9202 H   0  0  0  0  0  0  0  0  0  0  0  0
  145.3064  139.0267  150.6520 H   0  0  0  0  0  0  0  0  0  0  0  0
  147.0757  140.6732  151.1310 H   0  0  0  0  0  0  0  0  0  0  0  0
  148.1218  139.4360  151.8024 H   0  0  0  0  0  0  0  0  0  0  0  0
  150.1859  143.5176  157.0179 H   0  0  0  0  0  0  0  0  0  0  0  0
  150.7190  145.1355  158.6508 H   0  0  0  0  0  0  0  0  0  0  0  0
  152.4019  145.0744  159.1710 H   0  0  0  0  0  0  0  0  0  0  0  0
  151.1179  144.4959  160.2439 H   0  0  0  0  0  0  0  0  0  0  0  0
  147.1765  137.0758  151.7872 H   0  0  0  0  0  0  0  0  0  0  0  0
  145.5189  140.2455  152.8547 H   0  0  0  0  0  0  0  0  0  0  0  0
  1  2  1  0  0  0  0
  1 26  1  0  0  0  0
  1 27  1  0  0  0  0
  1 28  1  0  0  0  0
  2 24  1  0  0  0  0
  2  3  2  0  0  0  0
  3  4  1  0  0  0  0
  3 29  1  0  0  0  0
  4 22  2  0  0  0  0
  4  5  1  0  0  0  0
  5  6  2  0  0  0  0
  6  7  1  0  0  0  0
  6 30  1  0  0  0  0
  7  8  1  0  0  0  0
  7 22  1  0  0  0  0
  8  9  1  0  0  0  0
  8 31  1  0  0  0  0
  8 32  1  0  0  0  0
  9 10  1  0  0  0  0
  9 11  1  0  0  0  0
  9 33  1  0  0  0  0
 10 34  1  0  0  0  0
 11 12  1  0  0  0  0
 11 35  1  0  0  0  0
 11 36  1  0  0  0  0
 12 21  1  0  0  0  0
 12 13  1  0  0  0  0
 12 57  1  0  0  0  0
 13 14  1  0  0  0  0
 13 37  1  0  0  0  0
 13 38  1  0  0  0  0
 14 15  1  0  0  0  0
 14 39  1  0  0  0  0
 14 40  1  0  0  0  0
 15 16  1  0  0  0  0
 15 20  1  0  0  0  0
 15 56  1  0  0  0  0
 16 17  1  0  0  0  0
 16 41  1  0  0  0  0
 16 42  1  0  0  0  0
 17 18  1  0  0  0  0
 17 19  1  0  0  0  0
 17 43  1  0  0  0  0
 18 44  1  0  0  0  0
 18 45  1  0  0  0  0
 18 46  1  0  0  0  0
 19 47  1  0  0  0  0
 20 21  1  0  0  0  0
 20 48  1  0  0  0  0
 20 49  1  0  0  0  0
 21 50  1  0  0  0  0
 21 51  1  0  0  0  0
 22 23  1  0  0  0  0
 23 24  2  0  0  0  0
 23 52  1  0  0  0  0
 24 25  1  0  0  0  0
 25 53  1  0  0  0  0
 25 54  1  0  0  0  0
 25 55  1  0  0  0  0
M  CHG  1  12   1
M  CHG  1  15   1
M  END
> <s_m_source_file>
AV-unprocessed.smi

> <i_m_source_file_index>
1033

> <i_lp_mmshare_version>
43012

> <i_f3d_flags>
0

> <s_epik_input>
W0NIM11jKFtjSF0xKWMoW0NIM10pW2NIXWMoYzEyKW4oW2NIXW4yKVtDSDJdW0NASF0oW09IXSlbQ0gyXU4zW0NIMl1bQ0gyXU4oW0NIMl1bQ0gyXTMpW0NIMl1bQ0BIXShbQ0gzXSlbT0hd

> <s_epik_cmdline>
J2VwaWtfcHl0aG9uJywgJy1waCcsICc3LjAnLCAnLXRuJywgJzgnLCAnLW1hJywgJzIwMCcsICctbWV0YWxfYmluZGluZycsICctaW1hZScsICc8aW5maWxlLm1hZT4nLCAnLW9tYWUnLCAnPG91dGZpbGUubWFlPic=

> <r_epik_Ionization_Penalty>
3.16016

> <r_epik_Ionization_Penalty_Charging>
3.07679

> <r_epik_Ionization_Penalty_Neutral>
0.083365

> <r_epik_State_Penalty>
2.09701

> <r_epik_Charging_Adjusted_Penalty>
5.1738

> <i_epik_Tot_Q>
2

> <i_epik_Tot_abs_Q>
2

> <r_epik_Metal_State_Penalty>
2.02534

> <b_epik_Metal_Only>
0

> <s_lp_Force_Field>
OPLS_2005

> <r_lp_Energy>
25.863

> <b_lp_Chiralities_Consistent>
1

> <s_lp_Variant>
AV-unprocessed.smi:1033-18

> <Gold.Version>
5.8.1

> <Gold.Id.Protein>
6NUR|6NUR_protein|mol2

> <Gold.PLP.Fitness>
60.7452

> <Gold.PLP.PLP>
-48.1631

> <Gold.PLP.part.hbond>
-3.2987

> <Gold.PLP.part.metal>
0.0000

> <Gold.PLP.part.buried>
3.0125

> <Gold.PLP.part.nonpolar>
-48.5885

> <Gold.PLP.part.repulsive>
0.0689

> <Gold.PLP.ligand.clash>
0.0000

> <Gold.PLP.ligand.torsion>
1.2687

> <Gold.PLP.Chemscore.Hbond>
5.0000

> <Gold.PLP.Chemscore.CHOScore>
0.0000

> <Gold.PLP.Chemscore.Metal>
0.0000

> <Gold.Chemscore.Hbonds>
donor molecule, donor type, donor heavy atom, donor atom, acceptor molecule, acceptor atom, score
      L1  H    12    57       P1 10175  2.00
      L1  H    15    56       P1  7948  2.00
      L1  H    19    47       P1  7948  1.00

> <Gold.PLP.Chemscore.Internal.Correction>
0.1194

> <Gold.Rescore>
     Score         DG    S(hbond)    S(metal)    S(lipo)     H(rot)  DE(clash)    DE(int)     intcor
     19.92     -24.57       2.96        0.00     147.45       3.14       3.24       1.42       ----

> <Gold.Chemscore.Fitness>
19.9164

> <Gold.Chemscore.DG>
-24.5706

> <Gold.Chemscore.ZeroCoef>
-5.4800

> <Gold.Chemscore.Hbond>
2.9558

> <Gold.Chemscore.Metal>
0.0000

> <Gold.Chemscore.Lipo>
147.4474

> <Gold.Chemscore.Internal_Hbond>
0.0000

> <Gold.Chemscore.DEClash>
3.2389

> <Gold.Chemscore.DEInternal>
1.4153

> <Gold.Chemscore.Rot>
3.1380

> <Gold.Chemscore.Internal.Correction>
   9.000000E+99

> <Gold.Chemscore.Hbonds>
donor molecule, donor type, donor heavy atom, donor atom, acceptor molecule, acceptor atom, score
      L1  H    12    57       P1 10175  0.94
      L1  H    15    56       P1  7948  0.99
      L1  H    19    47       P1  7948  0.97

> <Gold.Chemscore.Hbond.Weighted>
-9.8725

> <Gold.Chemscore.Metal.Weighted>
-0.0000

> <Gold.Chemscore.Lipo.Weighted>
-17.2513

> <Gold.Chemscore.Internal_Hbond.Weighted>
0.0000

> <Gold.Chemscore.DEClash.Weighted>
3.2389

> <Gold.Chemscore.DEInternal.Weighted>
1.4153

> <Gold.Chemscore.Rot.Weighted>
8.0332

> <Gold.Chemscore.Internal.Correction.Weighted>
   9.000000E+99

> <Gold.Protein.RotatedTorsions>
[ 6907 6896 6895 6894 ] final  -96.24 input  -60.11 | X-H torsion
[ 7974 7965 7964 7962 ] final -129.24 input  175.53 | X-H torsion
[ 8008 7997 7996 7995 ] final -163.30 input   59.86 | X-H torsion
[ 10167 10162 10161 10158 ] final -106.28 input  -65.29 | X-H torsion
[ 10718 10713 10712 10709 ] final   31.63 input   66.30 | X-H torsion
[ 10763 10752 10751 10750 ] final  -64.83 input  -60.55 | X-H torsion
[ 11005 11000 10999 10996 ] final -151.59 input  -57.11 | X-H torsion

> <Gold.Protein.ActiveResidues>
 VAL166  LYS551  ARG553  GLY616  TRP617  ASP618  TYR619  PRO620  LYS621  CYS622 
 ASP623  PHE694  ASN695  SER759  ASP760  ASP761  ALA762  ILE779  LEU786  VAL792 
 PHE793  MET794  SER795  GLU796  ALA797  LYS798  CYS799  TRP800  GLU811  SER814 

> <Gold.Protein.RotatedAtoms>
  150.6983  134.1534  159.4148 H   0  0  0  0  0  0  0  0  0  0  0  0  # atno 6907 bound_to 6896
  151.9516  135.0164  160.0551 H   0  0  0  0  0  0  0  0  0  0  0  0  # atno 6908 bound_to 6896
  152.2005  133.4803  159.5093 H   0  0  0  0  0  0  0  0  0  0  0  0  # atno 6909 bound_to 6896
  144.9591  140.7427  143.4740 H   0  0  0  0  0  0  0  0  0  0  0  0  # atno 7974 bound_to 7965
  155.8193  140.0917  157.1858 H   0  0  0  0  0  0  0  0  0  0  0  0  # atno 8008 bound_to 7997
  154.3979  140.1440  156.3541 H   0  0  0  0  0  0  0  0  0  0  0  0  # atno 8009 bound_to 7997
  155.8283  140.3443  155.5559 H   0  0  0  0  0  0  0  0  0  0  0  0  # atno 8010 bound_to 7997
  140.1895  143.3903  152.1218 H   0  0  0  0  0  0  0  0  0  0  0  0  # atno 10167 bound_to 10162
  157.2750  130.7226  149.6525 H   0  0  0  0  0  0  0  0  0  0  0  0  # atno 10718 bound_to 10713
  154.3360  135.6167  153.5573 H   0  0  0  0  0  0  0  0  0  0  0  0  # atno 10763 bound_to 10752
  152.9808  135.5758  154.4908 H   0  0  0  0  0  0  0  0  0  0  0  0  # atno 10764 bound_to 10752
  154.4603  135.2855  155.1695 H   0  0  0  0  0  0  0  0  0  0  0  0  # atno 10765 bound_to 10752
  140.7279  134.3654  157.5172 H   0  0  0  0  0  0  0  0  0  0  0  0  # atno 11005 bound_to 11000
  145.2727  139.1948  143.4833 LP  0  0  0  0  0  0  0  0  0  0  0  0  # atno 17320 bound_to 7965
  146.3347  140.2676  142.8604 LP  0  0  0  0  0  0  0  0  0  0  0  0  # atno 17321 bound_to 7965
  139.5262  144.7105  151.5221 LP  0  0  0  0  0  0  0  0  0  0  0  0  # atno 17342 bound_to 10162
  140.6465  143.8783  150.6743 LP  0  0  0  0  0  0  0  0  0  0  0  0  # atno 17343 bound_to 10162
  155.9663  130.4356  150.5097 LP  0  0  0  0  0  0  0  0  0  0  0  0  # atno 17370 bound_to 10713
  157.3029  131.0649  151.2055 LP  0  0  0  0  0  0  0  0  0  0  0  0  # atno 17371 bound_to 10713
  139.8833  134.8999  156.2776 LP  0  0  0  0  0  0  0  0  0  0  0  0  # atno 17394 bound_to 11000
  140.9947  133.7187  156.0867 LP  0  0  0  0  0  0  0  0  0  0  0  0  # atno 17395 bound_to 11000

$$$$
