#       Name:                AV-unprocessed.smi:2104
#       Creating user name   scv26
#       Creation time:       Fri Mar 27 11:31:55 2020


#       File generated by GOLD software.
#

@<TRIPOS>MOLECULE
AV-unprocessed.smi:2104
    50    51     1
SMALL
NO_CHARGES


@<TRIPOS>ATOM
      1 ****        -6.6083   3.6893  -0.5115 C.3            1 S1                 0.0000
      2 ****        -5.6625   2.6709  -1.0494 C.2            1 S1                 0.0000
      3 ****        -4.4118   2.2751  -0.6695 C.2            1 S1                 0.0000
      4 ****        -4.0940   1.2561  -1.6082 C.2            1 S1                 0.0000
      5 ****        -2.9474   0.5607  -1.6541 N.pl3          1 S1                -1.0000
      6 ****        -2.7914  -0.5475  -0.8932 C.2            1 S1                 0.0000
      7 ****        -3.6374  -1.0495  -0.1497 O.2            1 S1                 0.0000
      8 ****        -1.5782  -1.1052  -0.9959 N.am           1 S1                 0.0000
      9 ****        -1.1213  -2.2816  -0.2660 C.3            1 S1                 0.0000
     10 ****         0.4077  -2.3722  -0.3044 C.3            1 S1                 0.0000
     11 ****         0.9414  -1.2609   0.4002 O.3            1 S1                 0.0000
     12 ****         2.3570  -1.1463   0.3517 C.3            1 S1                 0.0000
     13 ****         2.9862  -2.0424   1.4389 C.3            1 S1                 0.0000
     14 ****         4.5057  -1.8388   1.5296 C.3            1 S1                 0.0000
     15 ****         4.8503  -0.3621   1.7686 C.3            1 S1                 0.0000
     16 ****         4.2367   0.5301   0.6790 C.3            1 S1                 0.0000
     17 ****         2.7099   0.3410   0.5787 C.3            1 S1                 0.0000
     18 ****         2.1212   1.2382  -0.5230 C.3            1 S1                 0.0000
     19 ****        -5.0591   1.0637  -2.4920 N.2            1 S1                 0.0000
     20 ****        -6.0723   1.9620  -2.1355 O.3            1 S1                 0.0000
     21 ****        -6.0714   4.5788  -0.1815 H              1 S1                 0.0000
     22 ****        -7.1586   3.2903   0.3404 H              1 S1                 0.0000
     23 ****        -7.3303   3.9933  -1.2696 H              1 S1                 0.0000
     24 ****        -3.8192   2.6493   0.1516 H              1 S1                 0.0000
     25 ****        -0.9125  -0.6614  -1.6112 H              1 S1                 0.0000
     26 ****        -1.4630  -2.2473   0.7697 H              1 S1                 0.0000
     27 ****        -1.5601  -3.1695  -0.7223 H              1 S1                 0.0000
     28 ****         0.7347  -3.3043   0.1568 H              1 S1                 0.0000
     29 ****         0.7553  -2.3775  -1.3388 H              1 S1                 0.0000
     30 ****         2.7298  -1.4430  -0.6308 H              1 S1                 0.0000
     31 ****         2.5325  -1.8168   2.4048 H              1 S1                 0.0000
     32 ****         2.7753  -3.0925   1.2374 H              1 S1                 0.0000
     33 ****         4.9161  -2.4512   2.3330 H              1 S1                 0.0000
     34 ****         4.9768  -2.1807   0.6073 H              1 S1                 0.0000
     35 ****         4.4807  -0.0524   2.7471 H              1 S1                 0.0000
     36 ****         5.9325  -0.2313   1.7907 H              1 S1                 0.0000
     37 ****         4.4697   1.5744   0.8901 H              1 S1                 0.0000
     38 ****         4.7006   0.2992  -0.2810 H              1 S1                 0.0000
     39 ****         2.2714   0.6523   1.5281 H              1 S1                 0.0000
     40 ****         2.5061   0.9639  -1.5055 H              1 S1                 0.0000
     41 ****         2.3666   2.2860  -0.3493 H              1 S1                 0.0000
     42 ****         1.0340   1.1613  -0.5602 H              1 S1                 0.0000
     43 ****        -2.2054   0.8624  -2.2528 LP             1 S1                 0.0000
     44 ****        -4.5424  -0.6320  -0.0683 LP             1 S1                 0.0000
     45 ****        -3.4185  -1.8742   0.3718 LP             1 S1                 0.0000
     46 ****         0.6688  -1.3408   1.3590 LP             1 S1                 0.0000
     47 ****         0.5487  -0.4280   0.0103 LP             1 S1                 0.0000
     48 ****        -5.0641   0.4148  -3.2529 LP             1 S1                 0.0000
     49 ****        -6.2525   2.5855  -2.8963 LP             1 S1                 0.0000
     50 ****        -6.9066   1.4576  -1.9132 LP             1 S1                 0.0000
@<TRIPOS>BOND
    1    1    2 1     
    2    1   21 1     
    3    1   22 1     
    4    1   23 1     
    5    2   20 1     
    6    2    3 2     
    7    3    4 1     
    8    3   24 1     
    9    4    5 1     
   10    4   19 2     
   11    5    6 1     
   12    6    7 2     
   13    6    8 am    
   14    8    9 1     
   15    8   25 1     
   16    9   10 1     
   17    9   26 1     
   18    9   27 1     
   19   10   11 1     
   20   10   28 1     
   21   10   29 1     
   22   11   12 1     
   23   12   17 1     
   24   12   13 1     
   25   12   30 1     
   26   13   14 1     
   27   13   31 1     
   28   13   32 1     
   29   14   15 1     
   30   14   33 1     
   31   14   34 1     
   32   15   16 1     
   33   15   35 1     
   34   15   36 1     
   35   16   17 1     
   36   16   37 1     
   37   16   38 1     
   38   17   18 1     
   39   17   39 1     
   40   18   40 1     
   41   18   41 1     
   42   18   42 1     
   43   19   20 1     
   44    5   43 1     
   45    7   44 1     
   46    7   45 1     
   47   11   46 1     
   48   11   47 1     
   49   19   48 1     
   50   20   49 1     
   51   20   50 1     
@<TRIPOS>SUBSTRUCTURE
      1 S1             1
@<TRIPOS>SET
LONE_PAIRS      STATIC     ATOMS    <user>   **** ""
8 43 44 45 46 47 48 49 50
DONOR_HYDROGENS      STATIC     ATOMS    <user>   **** ""
1 25
ATOM$BLUE        STATIC     ATOMS    COLORGROUP SYSTEM
8 43 44 45 46 47 48 49 50
ATOM$RED        STATIC     ATOMS    COLORGROUP SYSTEM
1 25
