AV-unprocessed.smi:3282|AV-procd|sdf|12561|dock9
  -GOLD-   2272018483D 1   1.00000     0.00000
 Structure written by MMmdl.
 34 35  0  0  0  0  0  0  0  0  1 V2000
  153.8400  142.2583  163.2000 C   0  0  0  0  0  0  0  0  0  0  0  0
  153.2716  143.1202  162.0611 C   0  0  0  0  0  0  0  0  0  0  0  0
  152.7350  142.3030  160.8739 C   0  0  0  0  0  0  0  0  0  0  0  0
  152.7174  141.0726  160.9336 O   0  0  0  0  0  0  0  0  0  0  0  0
  152.2953  142.9713  159.7872 N   0  0  0  0  0  0  0  0  0  0  0  0
  152.2665  144.4244  159.6337 C   0  0  0  0  0  0  0  0  0  0  0  0
  151.5035  144.6952  158.3369 C   0  0  0  0  0  0  0  0  0  0  0  0
  151.6473  143.4077  157.5260 C   0  0  2  0  0  0  0  0  0  0  0  0
  150.5023  143.1614  156.6554 N   0  0  0  0  0  0  0  0  0  0  0  0
  150.2647  142.0094  156.0120 C   0  0  0  0  0  0  0  0  0  0  0  0
  151.0043  141.0273  156.0823 O   0  0  0  0  0  0  0  0  0  0  0  0
  149.1311  142.0753  155.2939 N   0  0  0  0  0  0  0  0  0  0  0  0
  148.5491  141.0518  154.5043 C   0  0  0  0  0  0  0  0  0  0  0  0
  148.9877  139.7982  154.3786 N   0  0  0  0  0  0  0  0  0  0  0  0
  148.0853  139.1970  153.5131 C   0  0  0  0  0  0  0  0  0  0  0  0
  147.1437  140.1300  153.1614 C   0  0  0  0  0  0  0  0  0  0  0  0
  147.4261  141.3156  153.7852 O   0  0  0  0  0  0  0  0  0  0  0  0
  151.7865  142.3113  158.5874 C   0  0  0  0  0  0  0  0  0  0  0  0
  154.2116  142.8871  164.0093 H   0  0  0  0  0  0  0  0  0  0  0  0
  154.6705  141.6405  162.8560 H   0  0  0  0  0  0  0  0  0  0  0  0
  153.0793  141.5993  163.6197 H   0  0  0  0  0  0  0  0  0  0  0  0
  152.4657  143.7423  162.4515 H   0  0  0  0  0  0  0  0  0  0  0  0
  154.0517  143.7943  161.7057 H   0  0  0  0  0  0  0  0  0  0  0  0
  151.7878  144.9206  160.4790 H   0  0  0  0  0  0  0  0  0  0  0  0
  153.2895  144.7949  159.5548 H   0  0  0  0  0  0  0  0  0  0  0  0
  150.4535  144.8755  158.5728 H   0  0  0  0  0  0  0  0  0  0  0  0
  151.8769  145.5707  157.8048 H   0  0  0  0  0  0  0  0  0  0  0  0
  152.5690  143.4494  156.9423 H   0  0  0  0  0  0  0  0  0  0  0  0
  149.8438  143.9183  156.5427 H   0  0  0  0  0  0  0  0  0  0  0  0
  148.6247  142.9479  155.3205 H   0  0  0  0  0  0  0  0  0  0  0  0
  148.1816  138.1623  153.2189 H   0  0  0  0  0  0  0  0  0  0  0  0
  146.2713  140.1117  152.5250 H   0  0  0  0  0  0  0  0  0  0  0  0
  152.4509  141.5156  158.2462 H   0  0  0  0  0  0  0  0  0  0  0  0
  150.8201  141.8630  158.8254 H   0  0  0  0  0  0  0  0  0  0  0  0
  1  2  1  0  0  0  0
  1 19  1  0  0  0  0
  1 20  1  0  0  0  0
  1 21  1  0  0  0  0
  2  3  1  0  0  0  0
  2 22  1  0  0  0  0
  2 23  1  0  0  0  0
  3  4  2  0  0  0  0
  3  5  1  0  0  0  0
  5 18  1  0  0  0  0
  5  6  1  0  0  0  0
  6  7  1  0  0  0  0
  6 24  1  0  0  0  0
  6 25  1  0  0  0  0
  7  8  1  0  0  0  0
  7 26  1  0  0  0  0
  7 27  1  0  0  0  0
  8  9  1  0  0  0  0
  8 18  1  0  0  0  0
  8 28  1  0  0  0  0
  9 10  1  0  0  0  0
  9 29  1  0  0  0  0
 10 11  2  0  0  0  0
 10 12  1  0  0  0  0
 12 13  1  0  0  0  0
 12 30  1  0  0  0  0
 13 17  1  0  0  0  0
 13 14  2  0  0  0  0
 14 15  1  0  0  0  0
 15 16  2  0  0  0  0
 15 31  1  0  0  0  0
 16 17  1  0  0  0  0
 16 32  1  0  0  0  0
 18 33  1  0  0  0  0
 18 34  1  0  0  0  0
M  END
> <s_m_source_file>
AV-unprocessed.smi

> <i_m_source_file_index>
3282

> <i_lp_mmshare_version>
43012

> <i_f3d_flags>
0

> <s_epik_input>
W0NIM11bQ0gyXUMoPU8pTjFbQ0gyXVtDSDJdW0NASF0oW0NIMl0xKVtOSF1DKD1PKVtOSF1jMm5bY0hdW2NIXW8y

> <s_epik_cmdline>
J2VwaWtfcHl0aG9uJywgJy1waCcsICc3LjAnLCAnLXRuJywgJzgnLCAnLW1hJywgJzIwMCcsICctbWV0YWxfYmluZGluZycsICctaW1hZScsICc8aW5maWxlLm1hZT4nLCAnLW9tYWUnLCAnPG91dGZpbGUubWFlPic=

> <r_lp_tautomer_probability>
0.785861

> <r_epik_Ionization_Penalty>
4.35681e-05

> <r_epik_Ionization_Penalty_Charging>
0

> <r_epik_Ionization_Penalty_Neutral>
4.35681e-05

> <r_epik_State_Penalty>
0.0212547

> <r_epik_Charging_Adjusted_Penalty>
0.0212547

> <i_epik_Tot_Q>
0

> <i_epik_Tot_abs_Q>
0

> <r_epik_Metal_State_Penalty>
0.00779955

> <b_epik_Metal_Only>
0

> <s_lp_Force_Field>
OPLS_2005

> <r_lp_Energy>
25.4049

> <b_lp_Chiralities_Consistent>
1

> <s_lp_Variant>
AV-unprocessed.smi:3282-2

> <Gold.Version>
5.8.1

> <Gold.Id.Protein>
6NUR|6NUR_protein|mol2

> <Gold.PLP.Fitness>
46.1998

> <Gold.PLP.PLP>
-35.0028

> <Gold.PLP.part.hbond>
-1.7828

> <Gold.PLP.part.metal>
0.0000

> <Gold.PLP.part.buried>
-2.4081

> <Gold.PLP.part.nonpolar>
-31.4123

> <Gold.PLP.part.repulsive>
0.5459

> <Gold.PLP.ligand.clash>
0.0000

> <Gold.PLP.ligand.torsion>
0.1160

> <Gold.PLP.Chemscore.Hbond>
1.8480

> <Gold.PLP.Chemscore.CHOScore>
1.9592

> <Gold.PLP.Chemscore.Metal>
0.0000

> <Gold.Chemscore.Hbonds>
donor molecule, donor type, donor heavy atom, donor atom, acceptor molecule, acceptor atom, score
      L1  H     9    29       P1  8028  0.98
      L1  H    12    30       P1  8028  0.83
      L1  C    15    31       P1  7948  1.00
      L1  C    16    32       P1 10175  0.81

> <Gold.PLP.Chemscore.Internal.Correction>
0.0072

> <Gold.Rescore>
     Score         DG    S(hbond)    S(metal)    S(lipo)     H(rot)  DE(clash)    DE(int)     intcor
     13.80     -18.06       1.91        0.00      81.99       1.32       1.68       2.58       ----

> <Gold.Chemscore.Fitness>
13.8029

> <Gold.Chemscore.DG>
-18.0632

> <Gold.Chemscore.ZeroCoef>
-5.4800

> <Gold.Chemscore.Hbond>
1.9069

> <Gold.Chemscore.Metal>
0.0000

> <Gold.Chemscore.Lipo>
81.9929

> <Gold.Chemscore.Internal_Hbond>
0.0000

> <Gold.Chemscore.DEClash>
1.6796

> <Gold.Chemscore.DEInternal>
2.5807

> <Gold.Chemscore.Rot>
1.3199

> <Gold.Chemscore.Internal.Correction>
   9.000000E+99

> <Gold.Chemscore.Hbonds>
donor molecule, donor type, donor heavy atom, donor atom, acceptor molecule, acceptor atom, score
      L1  H     9    29       P1  8028  0.87
      L1  H    12    30       P1  8028  0.83

> <Gold.Chemscore.Hbond.Weighted>
-6.3690

> <Gold.Chemscore.Metal.Weighted>
-0.0000

> <Gold.Chemscore.Lipo.Weighted>
-9.5932

> <Gold.Chemscore.Internal_Hbond.Weighted>
0.0000

> <Gold.Chemscore.DEClash.Weighted>
1.6796

> <Gold.Chemscore.DEInternal.Weighted>
2.5807

> <Gold.Chemscore.Rot.Weighted>
3.3789

> <Gold.Chemscore.Internal.Correction.Weighted>
   9.000000E+99

> <Gold.Protein.RotatedTorsions>
[ 6907 6896 6895 6894 ] final   62.73 input  -60.11 | X-H torsion
[ 7974 7965 7964 7962 ] final  146.58 input  175.53 | X-H torsion
[ 8008 7997 7996 7995 ] final -174.06 input   59.86 | X-H torsion
[ 10167 10162 10161 10158 ] final  -29.89 input  -65.29 | X-H torsion
[ 10718 10713 10712 10709 ] final  -73.62 input   66.30 | X-H torsion
[ 10763 10752 10751 10750 ] final   51.52 input  -60.55 | X-H torsion
[ 11005 11000 10999 10996 ] final  -52.30 input  -57.11 | X-H torsion

> <Gold.Protein.ActiveResidues>
 VAL166  LYS551  ARG553  GLY616  TRP617  ASP618  TYR619  PRO620  LYS621  CYS622 
 ASP623  PHE694  ASN695  SER759  ASP760  ASP761  ALA762  ILE779  LEU786  VAL792 
 PHE793  MET794  SER795  GLU796  ALA797  LYS798  CYS799  TRP800  GLU811  SER814 

> <Gold.Protein.RotatedAtoms>
  152.4196  134.5979  159.9991 H   0  0  0  0  0  0  0  0  0  0  0  0  # atno 6907 bound_to 6896
  151.6133  133.3339  159.3080 H   0  0  0  0  0  0  0  0  0  0  0  0  # atno 6908 bound_to 6896
  150.8084  134.7262  159.6731 H   0  0  0  0  0  0  0  0  0  0  0  0  # atno 6909 bound_to 6896
  144.8659  139.5923  143.5909 H   0  0  0  0  0  0  0  0  0  0  0  0  # atno 7974 bound_to 7965
  155.9653  140.1152  157.0860 H   0  0  0  0  0  0  0  0  0  0  0  0  # atno 8008 bound_to 7997
  154.4142  140.1174  156.5301 H   0  0  0  0  0  0  0  0  0  0  0  0  # atno 8009 bound_to 7997
  155.6667  140.3473  155.4805 H   0  0  0  0  0  0  0  0  0  0  0  0  # atno 8010 bound_to 7997
  140.7255  143.3892  151.1460 H   0  0  0  0  0  0  0  0  0  0  0  0  # atno 10167 bound_to 10162
  156.0273  130.4398  150.2769 H   0  0  0  0  0  0  0  0  0  0  0  0  # atno 10718 bound_to 10713
  152.9785  135.5843  154.4430 H   0  0  0  0  0  0  0  0  0  0  0  0  # atno 10763 bound_to 10752
  154.4028  135.2769  155.2087 H   0  0  0  0  0  0  0  0  0  0  0  0  # atno 10764 bound_to 10752
  154.3911  135.6125  153.5898 H   0  0  0  0  0  0  0  0  0  0  0  0  # atno 10765 bound_to 10752
  141.0917  133.6631  156.4004 H   0  0  0  0  0  0  0  0  0  0  0  0  # atno 11005 bound_to 11000
  146.2895  139.7100  142.9171 LP  0  0  0  0  0  0  0  0  0  0  0  0  # atno 17320 bound_to 7965
  145.4222  141.0407  143.2957 LP  0  0  0  0  0  0  0  0  0  0  0  0  # atno 17321 bound_to 7965
  139.7494  143.8802  152.3072 LP  0  0  0  0  0  0  0  0  0  0  0  0  # atno 17342 bound_to 10162
  139.8650  144.7098  150.9054 LP  0  0  0  0  0  0  0  0  0  0  0  0  # atno 17343 bound_to 10162
  157.0872  131.0160  151.3135 LP  0  0  0  0  0  0  0  0  0  0  0  0  # atno 17370 bound_to 10713
  157.4882  130.7806  149.7481 LP  0  0  0  0  0  0  0  0  0  0  0  0  # atno 17371 bound_to 10713
  140.5236  134.6280  157.5326 LP  0  0  0  0  0  0  0  0  0  0  0  0  # atno 17394 bound_to 11000
  139.9744  134.7239  155.9978 LP  0  0  0  0  0  0  0  0  0  0  0  0  # atno 17395 bound_to 11000

$$$$
