AV-unprocessed.smi:2146|AV-procd|sdf|8739|dock4
  -GOLD-   2272011513D 1   1.00000     0.00000
 Structure written by MMmdl.
 44 45  0  0  0  0  0  0  0  0  1 V2000
  148.0022  141.2988  155.0254 C   0  0  0  0  0  0  0  0  0  0  0  0
  148.7541  140.4235  153.9893 C   0  0  1  0  0  0  0  0  0  0  0  0
  150.2184  140.2021  154.4670 C   0  0  0  0  0  0  0  0  0  0  0  0
  150.3246  139.9663  155.9051 N   0  0  0  0  0  0  0  0  0  0  0  0
  151.4625  139.7297  156.5762 C   0  0  0  0  0  0  0  0  0  0  0  0
  152.5717  139.7136  156.0410 O   0  0  0  0  0  0  0  0  0  0  0  0
  151.3106  139.4697  158.0813 C   0  0  0  0  0  0  0  0  0  0  0  0
  151.9713  140.4938  158.9068 N   0  0  0  0  0  0  0  0  0  0  0  0
  151.6111  141.8325  158.6577 C   0  0  0  0  0  0  0  0  0  0  0  0
  152.1268  142.8710  159.3421 C   0  0  0  0  0  0  0  0  0  0  0  0
  151.6626  144.2975  159.0937 C   0  0  0  0  0  0  0  0  0  0  0  0
  151.9899  144.7038  157.8668 F   0  0  0  0  0  0  0  0  0  0  0  0
  150.3380  144.3707  159.2164 F   0  0  0  0  0  0  0  0  0  0  0  0
  152.2073  145.1391  159.9731 F   0  0  0  0  0  0  0  0  0  0  0  0
  153.0723  142.5450  160.3918 C   0  0  0  0  0  0  0  0  0  0  0  0
  153.4172  141.2686  160.6525 C   0  0  0  0  0  0  0  0  0  0  0  0
  152.8567  140.1508  159.8898 C   0  0  0  0  0  0  0  0  0  0  0  0
  153.1619  138.9812  160.1229 O   0  0  0  0  0  0  0  0  0  0  0  0
  148.0442  139.1574  153.6883 N   0  0  0  0  0  0  0  0  0  0  0  0
  147.6501  138.4275  154.8994 C   0  0  0  0  0  0  0  0  0  0  0  0
  146.8897  137.1255  154.5936 C   0  0  0  0  0  0  0  0  0  0  0  0
  145.7444  137.4140  153.8043 O   0  0  0  0  0  0  0  0  0  0  0  0
  146.0892  138.0483  152.5809 C   0  0  0  0  0  0  0  0  0  0  0  0
  146.8425  139.3584  152.8701 C   0  0  0  0  0  0  0  0  0  0  0  0
  148.5283  142.2266  155.2454 H   0  0  0  0  0  0  0  0  0  0  0  0
  147.8672  140.7663  155.9673 H   0  0  0  0  0  0  0  0  0  0  0  0
  147.0221  141.6156  154.6728 H   0  0  0  0  0  0  0  0  0  0  0  0
  148.8075  141.0046  153.0671 H   0  0  0  0  0  0  0  0  0  0  0  0
  150.6813  139.3966  153.8945 H   0  0  0  0  0  0  0  0  0  0  0  0
  150.8253  141.0885  154.2914 H   0  0  0  0  0  0  0  0  0  0  0  0
  149.4606  139.9657  156.4278 H   0  0  0  0  0  0  0  0  0  0  0  0
  150.2478  139.3913  158.3149 H   0  0  0  0  0  0  0  0  0  0  0  0
  151.7268  138.4891  158.3199 H   0  0  0  0  0  0  0  0  0  0  0  0
  150.8723  141.9589  157.8792 H   0  0  0  0  0  0  0  0  0  0  0  0
  153.5139  143.3370  160.9783 H   0  0  0  0  0  0  0  0  0  0  0  0
  154.1244  141.0627  161.4426 H   0  0  0  0  0  0  0  0  0  0  0  0
  148.5251  138.1506  155.4842 H   0  0  0  0  0  0  0  0  0  0  0  0
  147.0334  139.0668  155.5330 H   0  0  0  0  0  0  0  0  0  0  0  0
  147.5332  136.4159  154.0711 H   0  0  0  0  0  0  0  0  0  0  0  0
  146.5714  136.6463  155.5196 H   0  0  0  0  0  0  0  0  0  0  0  0
  146.6986  137.3778  151.9729 H   0  0  0  0  0  0  0  0  0  0  0  0
  145.1787  138.2520  152.0172 H   0  0  0  0  0  0  0  0  0  0  0  0
  146.1705  140.0609  153.3653 H   0  0  0  0  0  0  0  0  0  0  0  0
  147.1011  139.7911  151.9057 H   0  0  0  0  0  0  0  0  0  0  0  0
  1  2  1  0  0  0  0
  1 25  1  0  0  0  0
  1 26  1  0  0  0  0
  1 27  1  0  0  0  0
  2  3  1  0  0  0  0
  2 19  1  0  0  0  0
  2 28  1  0  0  0  0
  3  4  1  0  0  0  0
  3 29  1  0  0  0  0
  3 30  1  0  0  0  0
  4  5  1  0  0  0  0
  4 31  1  0  0  0  0
  5  6  2  0  0  0  0
  5  7  1  0  0  0  0
  7  8  1  0  0  0  0
  7 32  1  0  0  0  0
  7 33  1  0  0  0  0
  8 17  1  0  0  0  0
  8  9  1  0  0  0  0
  9 10  2  0  0  0  0
  9 34  1  0  0  0  0
 10 11  1  0  0  0  0
 10 15  1  0  0  0  0
 11 12  1  0  0  0  0
 11 13  1  0  0  0  0
 11 14  1  0  0  0  0
 15 16  2  0  0  0  0
 15 35  1  0  0  0  0
 16 17  1  0  0  0  0
 16 36  1  0  0  0  0
 17 18  2  0  0  0  0
 19 24  1  0  0  0  0
 19 20  1  0  0  0  0
 20 21  1  0  0  0  0
 20 37  1  0  0  0  0
 20 38  1  0  0  0  0
 21 22  1  0  0  0  0
 21 39  1  0  0  0  0
 21 40  1  0  0  0  0
 22 23  1  0  0  0  0
 23 24  1  0  0  0  0
 23 41  1  0  0  0  0
 23 42  1  0  0  0  0
 24 43  1  0  0  0  0
 24 44  1  0  0  0  0
M  END
> <s_m_source_file>
AV-unprocessed.smi

> <i_m_source_file_index>
2146

> <i_lp_mmshare_version>
43012

> <i_f3d_flags>
0

> <s_epik_input>
W0NIMl0xW0NIMl1PW0NIMl1bQ0gyXU4xW0NASF0oW0NIM10pW0NIMl1bTkhdQyg9TylbQ0gyXW4yW2NIXWMoQyhGKShGKUYpW2NIXVtjSF1jMj1P

> <s_epik_cmdline>
J2VwaWtfcHl0aG9uJywgJy1waCcsICc3LjAnLCAnLXRuJywgJzgnLCAnLW1hJywgJzIwMCcsICctbWV0YWxfYmluZGluZycsICctaW1hZScsICc8aW5maWxlLm1hZT4nLCAnLW9tYWUnLCAnPG91dGZpbGUubWFlPic=

> <r_lp_tautomer_probability>
1

> <r_epik_Ionization_Penalty>
0.237382

> <r_epik_Ionization_Penalty_Charging>
1.80451e-08

> <r_epik_Ionization_Penalty_Neutral>
0.237382

> <r_epik_State_Penalty>
0.228245

> <r_epik_Charging_Adjusted_Penalty>
0.228245

> <i_epik_Tot_Q>
0

> <i_epik_Tot_abs_Q>
0

> <r_epik_Metal_State_Penalty>
0.22822

> <b_epik_Metal_Only>
0

> <s_lp_Force_Field>
OPLS_2005

> <r_lp_Energy>
40.9895

> <b_lp_Chiralities_Consistent>
1

> <s_lp_Variant>
AV-unprocessed.smi:2146-2

> <Gold.Version>
5.8.1

> <Gold.Id.Protein>
6NUR|6NUR_protein|mol2

> <Gold.PLP.Fitness>
48.0934

> <Gold.PLP.PLP>
-46.0876

> <Gold.PLP.part.hbond>
-1.0000

> <Gold.PLP.part.metal>
0.0000

> <Gold.PLP.part.buried>
-2.5739

> <Gold.PLP.part.nonpolar>
-42.8785

> <Gold.PLP.part.repulsive>
0.4620

> <Gold.PLP.ligand.clash>
0.0000

> <Gold.PLP.ligand.torsion>
0.5471

> <Gold.PLP.Chemscore.Hbond>
1.0000

> <Gold.PLP.Chemscore.CHOScore>
0.0000

> <Gold.PLP.Chemscore.Metal>
0.0000

> <Gold.Chemscore.Hbonds>
donor molecule, donor type, donor heavy atom, donor atom, acceptor molecule, acceptor atom, score
      P1  H  7997  8009       L1     6  1.00

> <Gold.PLP.Chemscore.Internal.Correction>
0.1000

> <Gold.Rescore>
     Score         DG    S(hbond)    S(metal)    S(lipo)     H(rot)  DE(clash)    DE(int)     intcor
     13.06     -13.83       1.00        0.00      88.95       2.10       0.21       0.56       ----

> <Gold.Chemscore.Fitness>
13.0618

> <Gold.Chemscore.DG>
-13.8293

> <Gold.Chemscore.ZeroCoef>
-5.4800

> <Gold.Chemscore.Hbond>
0.9964

> <Gold.Chemscore.Metal>
0.0000

> <Gold.Chemscore.Lipo>
88.9507

> <Gold.Chemscore.Internal_Hbond>
0.0000

> <Gold.Chemscore.DEClash>
0.2052

> <Gold.Chemscore.DEInternal>
0.5623

> <Gold.Chemscore.Rot>
2.1039

> <Gold.Chemscore.Internal.Correction>
   9.000000E+99

> <Gold.Chemscore.Hbonds>
donor molecule, donor type, donor heavy atom, donor atom, acceptor molecule, acceptor atom, score
      P1  H  7997  8009       L1     6  1.00

> <Gold.Chemscore.Hbond.Weighted>
-3.3281

> <Gold.Chemscore.Metal.Weighted>
-0.0000

> <Gold.Chemscore.Lipo.Weighted>
-10.4072

> <Gold.Chemscore.Internal_Hbond.Weighted>
0.0000

> <Gold.Chemscore.DEClash.Weighted>
0.2052

> <Gold.Chemscore.DEInternal.Weighted>
0.5623

> <Gold.Chemscore.Rot.Weighted>
5.3860

> <Gold.Chemscore.Internal.Correction.Weighted>
   9.000000E+99

> <Gold.Protein.RotatedTorsions>
[ 6907 6896 6895 6894 ] final  166.48 input  -60.11 | X-H torsion
[ 7974 7965 7964 7962 ] final -177.72 input  175.53 | X-H torsion
[ 8008 7997 7996 7995 ] final -147.56 input   59.86 | X-H torsion
[ 10167 10162 10161 10158 ] final  129.30 input  -65.29 | X-H torsion
[ 10718 10713 10712 10709 ] final  158.88 input   66.30 | X-H torsion
[ 10763 10752 10751 10750 ] final -119.89 input  -60.55 | X-H torsion
[ 11005 11000 10999 10996 ] final   20.98 input  -57.11 | X-H torsion

> <Gold.Protein.ActiveResidues>
 VAL166  LYS551  ARG553  GLY616  TRP617  ASP618  TYR619  PRO620  LYS621  CYS622 
 ASP623  PHE694  ASN695  SER759  ASP760  ASP761  ALA762  ILE779  LEU786  VAL792 
 PHE793  MET794  SER795  GLU796  ALA797  LYS798  CYS799  TRP800  GLU811  SER814 

> <Gold.Protein.RotatedAtoms>
  151.8782  133.3489  159.3757 H   0  0  0  0  0  0  0  0  0  0  0  0  # atno 6907 bound_to 6896
  150.7134  134.5045  159.5587 H   0  0  0  0  0  0  0  0  0  0  0  0  # atno 6908 bound_to 6896
  152.2591  134.8053  160.0484 H   0  0  0  0  0  0  0  0  0  0  0  0  # atno 6909 bound_to 6896
  144.7128  140.0976  143.6418 H   0  0  0  0  0  0  0  0  0  0  0  0  # atno 7974 bound_to 7965
  155.5775  140.0640  157.2791 H   0  0  0  0  0  0  0  0  0  0  0  0  # atno 8008 bound_to 7997
  154.4342  140.1858  156.0988 H   0  0  0  0  0  0  0  0  0  0  0  0  # atno 8009 bound_to 7997
  156.0330  140.3304  155.7164 H   0  0  0  0  0  0  0  0  0  0  0  0  # atno 8010 bound_to 7997
  139.5484  144.6793  151.4399 H   0  0  0  0  0  0  0  0  0  0  0  0  # atno 10167 bound_to 10162
  157.1719  131.0612  151.2178 H   0  0  0  0  0  0  0  0  0  0  0  0  # atno 10718 bound_to 10713
  154.8629  135.4222  154.2371 H   0  0  0  0  0  0  0  0  0  0  0  0  # atno 10763 bound_to 10752
  153.3344  135.6990  153.6926 H   0  0  0  0  0  0  0  0  0  0  0  0  # atno 10764 bound_to 10752
  153.5930  135.3551  155.2891 H   0  0  0  0  0  0  0  0  0  0  0  0  # atno 10765 bound_to 10752
  140.3966  134.1763  155.7663 H   0  0  0  0  0  0  0  0  0  0  0  0  # atno 11005 bound_to 11000
  145.9566  139.2771  143.1181 LP  0  0  0  0  0  0  0  0  0  0  0  0  # atno 17320 bound_to 7965
  145.9266  140.9078  143.0378 LP  0  0  0  0  0  0  0  0  0  0  0  0  # atno 17321 bound_to 7965
  140.6740  143.8231  150.7035 LP  0  0  0  0  0  0  0  0  0  0  0  0  # atno 17342 bound_to 10162
  140.1664  143.4232  152.2032 LP  0  0  0  0  0  0  0  0  0  0  0  0  # atno 17343 bound_to 10162
  157.4035  130.7346  149.6785 LP  0  0  0  0  0  0  0  0  0  0  0  0  # atno 17370 bound_to 10713
  155.9737  130.4114  150.3980 LP  0  0  0  0  0  0  0  0  0  0  0  0  # atno 17371 bound_to 10713
  141.1872  133.8286  157.1041 LP  0  0  0  0  0  0  0  0  0  0  0  0  # atno 17394 bound_to 11000
  140.0367  134.9874  157.0885 LP  0  0  0  0  0  0  0  0  0  0  0  0  # atno 17395 bound_to 11000

$$$$
