AV-unprocessed.smi:2208|AV-procd|sdf|8945|dock2
  -GOLD-   2272012163D 1   1.00000     0.00000
 Structure written by MMmdl.
 35 36  0  0  0  0  0  0  0  0  1 V2000
  148.5100  138.5301  154.3851 C   0  0  0  0  0  0  0  0  0  0  0  0
  147.5270  139.6583  154.5146 C   0  0  0  0  0  0  0  0  0  0  0  0
  146.2583  139.3777  154.7580 N   0  0  0  0  0  0  0  0  0  0  0  0
  145.5998  140.6084  154.8315 O   0  0  0  0  0  0  0  0  0  0  0  0
  146.5097  141.5946  154.6302 C   0  0  0  0  0  0  0  0  0  0  0  0
  145.9980  142.9940  154.6845 C   0  0  0  0  0  0  0  0  0  0  0  0
  147.7532  141.0631  154.4230 C   0  0  0  0  0  0  0  0  0  0  0  0
  149.0521  141.7907  154.1799 C   0  0  0  0  0  0  0  0  0  0  0  0
  150.0589  141.3885  155.2566 C   0  0  0  0  0  0  0  0  0  0  0  0
  150.7555  140.3854  155.1049 O   0  0  0  0  0  0  0  0  0  0  0  0
  150.1469  142.2011  156.3205 N   0  0  0  0  0  0  0  0  0  0  0  0
  151.1549  142.1087  157.3713 C   0  0  0  0  0  0  0  0  0  0  0  0
  151.0473  143.2664  158.3846 C   0  0  2  0  0  0  0  0  0  0  0  0
  151.9074  144.4991  158.0773 C   0  0  0  0  0  0  0  0  0  0  0  0
  152.1699  145.0504  159.4601 C   0  0  0  0  0  0  0  0  0  0  0  0
  152.3342  143.7701  160.2702 C   0  0  0  0  0  0  0  0  0  0  0  0
  151.4188  142.8431  159.6961 O   0  0  0  0  0  0  0  0  0  0  0  0
  149.5123  138.8930  154.1606 H   0  0  0  0  0  0  0  0  0  0  0  0
  148.2203  137.8479  153.5856 H   0  0  0  0  0  0  0  0  0  0  0  0
  148.5688  137.9543  155.3089 H   0  0  0  0  0  0  0  0  0  0  0  0
  145.2391  143.1008  155.4599 H   0  0  0  0  0  0  0  0  0  0  0  0
  145.5526  143.2790  153.7315 H   0  0  0  0  0  0  0  0  0  0  0  0
  146.8025  143.6958  154.9056 H   0  0  0  0  0  0  0  0  0  0  0  0
  149.4667  141.5681  153.1965 H   0  0  0  0  0  0  0  0  0  0  0  0
  148.9110  142.8720  154.2092 H   0  0  0  0  0  0  0  0  0  0  0  0
  149.5245  142.9950  156.3587 H   0  0  0  0  0  0  0  0  0  0  0  0
  151.0099  141.1600  157.8881 H   0  0  0  0  0  0  0  0  0  0  0  0
  152.1573  142.0723  156.9420 H   0  0  0  0  0  0  0  0  0  0  0  0
  150.0050  143.5816  158.4485 H   0  0  0  0  0  0  0  0  0  0  0  0
  152.8557  144.2251  157.6153 H   0  0  0  0  0  0  0  0  0  0  0  0
  151.4072  145.2120  157.4215 H   0  0  0  0  0  0  0  0  0  0  0  0
  153.0453  145.6988  159.5050 H   0  0  0  0  0  0  0  0  0  0  0  0
  151.3045  145.6129  159.8128 H   0  0  0  0  0  0  0  0  0  0  0  0
  153.3449  143.3772  160.1569 H   0  0  0  0  0  0  0  0  0  0  0  0
  152.1440  143.9165  161.3335 H   0  0  0  0  0  0  0  0  0  0  0  0
  1  2  1  0  0  0  0
  1 18  1  0  0  0  0
  1 19  1  0  0  0  0
  1 20  1  0  0  0  0
  2  7  1  0  0  0  0
  2  3  2  0  0  0  0
  3  4  1  0  0  0  0
  4  5  1  0  0  0  0
  5  6  1  0  0  0  0
  5  7  2  0  0  0  0
  6 21  1  0  0  0  0
  6 22  1  0  0  0  0
  6 23  1  0  0  0  0
  7  8  1  0  0  0  0
  8  9  1  0  0  0  0
  8 24  1  0  0  0  0
  8 25  1  0  0  0  0
  9 10  2  0  0  0  0
  9 11  1  0  0  0  0
 11 12  1  0  0  0  0
 11 26  1  0  0  0  0
 12 13  1  0  0  0  0
 12 27  1  0  0  0  0
 12 28  1  0  0  0  0
 13 17  1  0  0  0  0
 13 14  1  0  0  0  0
 13 29  1  0  0  0  0
 14 15  1  0  0  0  0
 14 30  1  0  0  0  0
 14 31  1  0  0  0  0
 15 16  1  0  0  0  0
 15 32  1  0  0  0  0
 15 33  1  0  0  0  0
 16 17  1  0  0  0  0
 16 34  1  0  0  0  0
 16 35  1  0  0  0  0
M  END
> <s_m_source_file>
AV-unprocessed.smi

> <i_m_source_file_index>
2208

> <i_lp_mmshare_version>
43012

> <i_f3d_flags>
0

> <s_epik_input>
W0NIM11jMW5vYyhbQ0gzXSljMVtDSDJdQyg9TylbTkhdW0NIMl1bQ0BASF0yW0NIMl1bQ0gyXVtDSDJdTzI=

> <s_epik_cmdline>
J2VwaWtfcHl0aG9uJywgJy1waCcsICc3LjAnLCAnLXRuJywgJzgnLCAnLW1hJywgJzIwMCcsICctbWV0YWxfYmluZGluZycsICctaW1hZScsICc8aW5maWxlLm1hZT4nLCAnLW9tYWUnLCAnPG91dGZpbGUubWFlPic=

> <r_lp_tautomer_probability>
1

> <r_epik_Ionization_Penalty>
3.13901e-08

> <r_epik_Ionization_Penalty_Charging>
0

> <r_epik_Ionization_Penalty_Neutral>
3.13901e-08

> <r_epik_State_Penalty>
-0

> <r_epik_Charging_Adjusted_Penalty>
0

> <i_epik_Tot_Q>
0

> <i_epik_Tot_abs_Q>
0

> <r_epik_Metal_State_Penalty>
-0

> <b_epik_Metal_Only>
0

> <s_lp_Force_Field>
OPLS_2005

> <r_lp_Energy>
11.1183

> <b_lp_Chiralities_Consistent>
1

> <s_lp_Variant>
AV-unprocessed.smi:2208-1

> <Gold.Version>
5.8.1

> <Gold.Id.Protein>
6NUR|6NUR_protein|mol2

> <Gold.PLP.Fitness>
38.0117

> <Gold.PLP.PLP>
-33.6220

> <Gold.PLP.part.hbond>
-2.0000

> <Gold.PLP.part.metal>
0.0000

> <Gold.PLP.part.buried>
-2.9801

> <Gold.PLP.part.nonpolar>
-28.6505

> <Gold.PLP.part.repulsive>
0.3264

> <Gold.PLP.ligand.clash>
0.0000

> <Gold.PLP.ligand.torsion>
0.8005

> <Gold.PLP.Chemscore.Hbond>
1.9920

> <Gold.PLP.Chemscore.CHOScore>
0.0000

> <Gold.PLP.Chemscore.Metal>
0.0000

> <Gold.Chemscore.Hbonds>
donor molecule, donor type, donor heavy atom, donor atom, acceptor molecule, acceptor atom, score
      L1  H    11    26       P1  8028  1.00
      P1  H  7989  7998       L1    10  0.95

> <Gold.PLP.Chemscore.Internal.Correction>
0.0148

> <Gold.Rescore>
     Score         DG    S(hbond)    S(metal)    S(lipo)     H(rot)  DE(clash)    DE(int)     intcor
     16.32     -17.25       1.62        0.00      88.42       1.56       0.17       0.76       ----

> <Gold.Chemscore.Fitness>
16.3154

> <Gold.Chemscore.DG>
-17.2466

> <Gold.Chemscore.ZeroCoef>
-5.4800

> <Gold.Chemscore.Hbond>
1.6176

> <Gold.Chemscore.Metal>
0.0000

> <Gold.Chemscore.Lipo>
88.4160

> <Gold.Chemscore.Internal_Hbond>
0.0000

> <Gold.Chemscore.DEClash>
0.1712

> <Gold.Chemscore.DEInternal>
0.7600

> <Gold.Chemscore.Rot>
1.5551

> <Gold.Chemscore.Internal.Correction>
   9.000000E+99

> <Gold.Chemscore.Hbonds>
donor molecule, donor type, donor heavy atom, donor atom, acceptor molecule, acceptor atom, score
      L1  H    11    26       P1  8028  0.94
      P1  H  7989  7998       L1    10  0.21

> <Gold.Chemscore.Hbond.Weighted>
-5.4028

> <Gold.Chemscore.Metal.Weighted>
-0.0000

> <Gold.Chemscore.Lipo.Weighted>
-10.3447

> <Gold.Chemscore.Internal_Hbond.Weighted>
0.0000

> <Gold.Chemscore.DEClash.Weighted>
0.1712

> <Gold.Chemscore.DEInternal.Weighted>
0.7600

> <Gold.Chemscore.Rot.Weighted>
3.9809

> <Gold.Chemscore.Internal.Correction.Weighted>
   9.000000E+99

> <Gold.Protein.RotatedTorsions>
[ 6907 6896 6895 6894 ] final  143.36 input  -60.11 | X-H torsion
[ 7974 7965 7964 7962 ] final -145.21 input  175.53 | X-H torsion
[ 8008 7997 7996 7995 ] final -101.30 input   59.86 | X-H torsion
[ 10167 10162 10161 10158 ] final  -37.37 input  -65.29 | X-H torsion
[ 10718 10713 10712 10709 ] final    4.97 input   66.30 | X-H torsion
[ 10763 10752 10751 10750 ] final   86.65 input  -60.55 | X-H torsion
[ 11005 11000 10999 10996 ] final  -66.65 input  -57.11 | X-H torsion

> <Gold.Protein.ActiveResidues>
 VAL166  LYS551  ARG553  GLY616  TRP617  ASP618  TYR619  PRO620  LYS621  CYS622 
 ASP623  PHE694  ASN695  SER759  ASP760  ASP761  ALA762  ILE779  LEU786  VAL792 
 PHE793  MET794  SER795  GLU796  ALA797  LYS798  CYS799  TRP800  GLU811  SER814 

> <Gold.Protein.RotatedAtoms>
  152.2073  133.4884  159.5090 H   0  0  0  0  0  0  0  0  0  0  0  0  # atno 6907 bound_to 6896
  150.6982  134.1513  159.4150 H   0  0  0  0  0  0  0  0  0  0  0  0  # atno 6908 bound_to 6896
  151.9432  135.0203  160.0588 H   0  0  0  0  0  0  0  0  0  0  0  0  # atno 6909 bound_to 6896
  144.8243  140.5613  143.5557 H   0  0  0  0  0  0  0  0  0  0  0  0  # atno 7974 bound_to 7965
  154.8407  140.0435  157.1539 H   0  0  0  0  0  0  0  0  0  0  0  0  # atno 8008 bound_to 7997
  154.9050  140.3005  155.5276 H   0  0  0  0  0  0  0  0  0  0  0  0  # atno 8009 bound_to 7997
  156.2992  140.2369  156.4083 H   0  0  0  0  0  0  0  0  0  0  0  0  # atno 8010 bound_to 7997
  140.7120  143.3346  151.2491 H   0  0  0  0  0  0  0  0  0  0  0  0  # atno 10167 bound_to 10162
  156.9005  130.5720  149.5648 H   0  0  0  0  0  0  0  0  0  0  0  0  # atno 10718 bound_to 10713
  153.1591  135.4572  154.9746 H   0  0  0  0  0  0  0  0  0  0  0  0  # atno 10763 bound_to 10752
  154.7884  135.3212  154.7837 H   0  0  0  0  0  0  0  0  0  0  0  0  # atno 10764 bound_to 10752
  153.8329  135.6937  153.4866 H   0  0  0  0  0  0  0  0  0  0  0  0  # atno 10765 bound_to 10752
  141.1487  133.6703  156.6171 H   0  0  0  0  0  0  0  0  0  0  0  0  # atno 11005 bound_to 11000
  145.5034  139.1482  143.3644 LP  0  0  0  0  0  0  0  0  0  0  0  0  # atno 17320 bound_to 7965
  146.2549  140.5174  142.8878 LP  0  0  0  0  0  0  0  0  0  0  0  0  # atno 17321 bound_to 7965
  139.6838  143.9809  152.2823 LP  0  0  0  0  0  0  0  0  0  0  0  0  # atno 17342 bound_to 10162
  139.9448  144.6658  150.8230 LP  0  0  0  0  0  0  0  0  0  0  0  0  # atno 17343 bound_to 10162
  156.0584  130.5641  150.9141 LP  0  0  0  0  0  0  0  0  0  0  0  0  # atno 17370 bound_to 10713
  157.6029  131.0940  150.8929 LP  0  0  0  0  0  0  0  0  0  0  0  0  # atno 17371 bound_to 10713
  140.3569  134.7721  157.4506 LP  0  0  0  0  0  0  0  0  0  0  0  0  # atno 17394 bound_to 11000
  140.0816  134.5723  155.8535 LP  0  0  0  0  0  0  0  0  0  0  0  0  # atno 17395 bound_to 11000

$$$$
