AV-unprocessed.smi:3017|AV-procd|sdf|11475|dock8
  -GOLD-   2272016413D 1   1.00000     0.00000
 Structure written by MMmdl.
 37 38  0  0  0  0  0  0  0  0  1 V2000
  146.3915  133.5559  151.0467 C   0  0  0  0  0  0  0  0  0  0  0  0
  146.0562  134.6559  152.0639 C   0  0  2  0  0  0  0  0  0  0  0  0
  145.0754  134.1505  153.1391 C   0  0  0  0  0  0  0  0  0  0  0  0
  144.7324  135.2529  154.1537 C   0  0  0  0  0  0  0  0  0  0  0  0
  144.1774  136.5032  153.4529 C   0  0  0  0  0  0  0  0  0  0  0  0
  145.1471  137.0288  152.3739 C   0  0  1  0  0  0  0  0  0  0  0  0
  146.3653  137.4835  152.9502 O   0  0  0  0  0  0  0  0  0  0  0  0
  146.7904  138.7681  152.5147 C   0  0  0  0  0  0  0  0  0  0  0  0
  147.9088  139.2612  153.4323 C   0  0  0  0  0  0  0  0  0  0  0  0
  147.7387  140.2861  154.0924 O   0  0  0  0  0  0  0  0  0  0  0  0
  149.0374  138.5268  153.4366 N   0  0  0  0  0  0  0  0  0  0  0  0
  150.2152  138.7307  154.2017 C   0  0  0  0  0  0  0  0  0  0  0  0
  151.0350  137.5919  154.3825 C   0  0  0  0  0  0  0  0  0  0  0  0
  152.1854  137.6262  155.0913 N   0  0  0  0  0  0  0  0  0  0  0  0
  152.5267  138.8158  155.6306 C   0  0  0  0  0  0  0  0  0  0  0  0
  151.7232  139.9607  155.4602 C   0  0  0  0  0  0  0  0  0  0  0  0
  150.5746  139.9196  154.7504 N   0  0  0  0  0  0  0  0  0  0  0  0
  145.4961  135.9147  151.3695 C   0  0  0  0  0  0  0  0  0  0  0  0
  145.5017  133.2286  150.5077 H   0  0  0  0  0  0  0  0  0  0  0  0
  146.8225  132.6838  151.5395 H   0  0  0  0  0  0  0  0  0  0  0  0
  147.1156  133.9091  150.3121 H   0  0  0  0  0  0  0  0  0  0  0  0
  146.9871  134.9309  152.5622 H   0  0  0  0  0  0  0  0  0  0  0  0
  144.1589  133.7965  152.6654 H   0  0  0  0  0  0  0  0  0  0  0  0
  145.5032  133.2943  153.6617 H   0  0  0  0  0  0  0  0  0  0  0  0
  144.0057  134.8789  154.8752 H   0  0  0  0  0  0  0  0  0  0  0  0
  145.6240  135.5174  154.7236 H   0  0  0  0  0  0  0  0  0  0  0  0
  143.2248  136.2541  152.9839 H   0  0  0  0  0  0  0  0  0  0  0  0
  143.9532  137.2747  154.1886 H   0  0  0  0  0  0  0  0  0  0  0  0
  144.6785  137.8474  151.8249 H   0  0  0  0  0  0  0  0  0  0  0  0
  147.1662  138.7188  151.4919 H   0  0  0  0  0  0  0  0  0  0  0  0
  145.9671  139.4822  152.5353 H   0  0  0  0  0  0  0  0  0  0  0  0
  149.0419  137.7164  152.8343 H   0  0  0  0  0  0  0  0  0  0  0  0
  150.7656  136.6373  153.9539 H   0  0  0  0  0  0  0  0  0  0  0  0
  153.4436  138.8549  156.1999 H   0  0  0  0  0  0  0  0  0  0  0  0
  152.0015  140.9098  155.8940 H   0  0  0  0  0  0  0  0  0  0  0  0
  146.2149  136.2915  150.6408 H   0  0  0  0  0  0  0  0  0  0  0  0
  144.6011  135.6492  150.8051 H   0  0  0  0  0  0  0  0  0  0  0  0
  1  2  1  0  0  0  0
  1 19  1  0  0  0  0
  1 20  1  0  0  0  0
  1 21  1  0  0  0  0
  2 18  1  0  0  0  0
  2  3  1  0  0  0  0
  2 22  1  0  0  0  0
  3  4  1  0  0  0  0
  3 23  1  0  0  0  0
  3 24  1  0  0  0  0
  4  5  1  0  0  0  0
  4 25  1  0  0  0  0
  4 26  1  0  0  0  0
  5  6  1  0  0  0  0
  5 27  1  0  0  0  0
  5 28  1  0  0  0  0
  6  7  1  0  0  0  0
  6 18  1  0  0  0  0
  6 29  1  0  0  0  0
  7  8  1  0  0  0  0
  8  9  1  0  0  0  0
  8 30  1  0  0  0  0
  8 31  1  0  0  0  0
  9 10  2  0  0  0  0
  9 11  1  0  0  0  0
 11 12  1  0  0  0  0
 11 32  1  0  0  0  0
 12 17  1  0  0  0  0
 12 13  2  0  0  0  0
 13 14  1  0  0  0  0
 13 33  1  0  0  0  0
 14 15  2  0  0  0  0
 15 16  1  0  0  0  0
 15 34  1  0  0  0  0
 16 17  2  0  0  0  0
 16 35  1  0  0  0  0
 18 36  1  0  0  0  0
 18 37  1  0  0  0  0
M  END
> <s_m_source_file>
AV-unprocessed.smi

> <i_m_source_file_index>
3017

> <i_lp_mmshare_version>
43012

> <i_f3d_flags>
0

> <s_epik_input>
W0NIM11bQ0BASF0xW0NIMl1bQ0gyXVtDSDJdW0NASF0oW0NIMl0xKU9bQ0gyXUMoPU8pW05IXWMyW2NIXW5bY0hdW2NIXW4y

> <s_epik_cmdline>
J2VwaWtfcHl0aG9uJywgJy1waCcsICc3LjAnLCAnLXRuJywgJzgnLCAnLW1hJywgJzIwMCcsICctbWV0YWxfYmluZGluZycsICctaW1hZScsICc8aW5maWxlLm1hZT4nLCAnLW9tYWUnLCAnPG91dGZpbGUubWFlPic=

> <r_lp_tautomer_probability>
1

> <r_epik_Ionization_Penalty>
2.89243e-06

> <r_epik_Ionization_Penalty_Charging>
0

> <r_epik_Ionization_Penalty_Neutral>
2.89243e-06

> <r_epik_State_Penalty>
-0

> <r_epik_Charging_Adjusted_Penalty>
0

> <i_epik_Tot_Q>
0

> <i_epik_Tot_abs_Q>
0

> <r_epik_Metal_State_Penalty>
-0

> <b_epik_Metal_Only>
0

> <s_lp_Force_Field>
OPLS_2005

> <r_lp_Energy>
20.5488

> <b_lp_Chiralities_Consistent>
1

> <s_lp_Variant>
AV-unprocessed.smi:3017-1

> <Gold.Version>
5.8.1

> <Gold.Id.Protein>
6NUR|6NUR_protein|mol2

> <Gold.PLP.Fitness>
37.6893

> <Gold.PLP.PLP>
-30.8847

> <Gold.PLP.part.hbond>
-3.9838

> <Gold.PLP.part.metal>
0.0000

> <Gold.PLP.part.buried>
-2.7193

> <Gold.PLP.part.nonpolar>
-25.3839

> <Gold.PLP.part.repulsive>
1.0471

> <Gold.PLP.ligand.clash>
0.0000

> <Gold.PLP.ligand.torsion>
0.8307

> <Gold.PLP.Chemscore.Hbond>
1.9206

> <Gold.PLP.Chemscore.CHOScore>
0.8985

> <Gold.PLP.Chemscore.Metal>
0.0000

> <Gold.Chemscore.Hbonds>
donor molecule, donor type, donor heavy atom, donor atom, acceptor molecule, acceptor atom, score
      L1  H    11    32       P1  7948  1.00
      P1  H  7989  7998       L1    17  0.10
      P1  H 10752 10763       L1    14  0.40
      L1  C    13    33       P1  7948  0.17
      L1  C    13    33       P1  7949  0.62

> <Gold.PLP.Chemscore.Internal.Correction>
0.0089

> <Gold.Rescore>
     Score         DG    S(hbond)    S(metal)    S(lipo)     H(rot)  DE(clash)    DE(int)     intcor
     12.23     -14.39       1.83        0.00      56.97       1.51       0.09       2.07       ----

> <Gold.Chemscore.Fitness>
12.2307

> <Gold.Chemscore.DG>
-14.3881

> <Gold.Chemscore.ZeroCoef>
-5.4800

> <Gold.Chemscore.Hbond>
1.8304

> <Gold.Chemscore.Metal>
0.0000

> <Gold.Chemscore.Lipo>
56.9679

> <Gold.Chemscore.Internal_Hbond>
0.0000

> <Gold.Chemscore.DEClash>
0.0870

> <Gold.Chemscore.DEInternal>
2.0704

> <Gold.Chemscore.Rot>
1.5119

> <Gold.Chemscore.Internal.Correction>
   9.000000E+99

> <Gold.Chemscore.Hbonds>
donor molecule, donor type, donor heavy atom, donor atom, acceptor molecule, acceptor atom, score
      L1  H    11    32       P1  7948  1.00
      P1  H 10752 10763       L1    14  0.10

> <Gold.Chemscore.Hbond.Weighted>
-6.1134

> <Gold.Chemscore.Metal.Weighted>
-0.0000

> <Gold.Chemscore.Lipo.Weighted>
-6.6652

> <Gold.Chemscore.Internal_Hbond.Weighted>
0.0000

> <Gold.Chemscore.DEClash.Weighted>
0.0870

> <Gold.Chemscore.DEInternal.Weighted>
2.0704

> <Gold.Chemscore.Rot.Weighted>
3.8706

> <Gold.Chemscore.Internal.Correction.Weighted>
   9.000000E+99

> <Gold.Protein.RotatedTorsions>
[ 6907 6896 6895 6894 ] final  -45.03 input  -60.11 | X-H torsion
[ 7974 7965 7964 7962 ] final  -53.07 input  175.53 | X-H torsion
[ 8008 7997 7996 7995 ] final   32.09 input   59.86 | X-H torsion
[ 10167 10162 10161 10158 ] final   17.44 input  -65.29 | X-H torsion
[ 10718 10713 10712 10709 ] final  113.34 input   66.30 | X-H torsion
[ 10763 10752 10751 10750 ] final   61.62 input  -60.55 | X-H torsion
[ 11005 11000 10999 10996 ] final   12.88 input  -57.11 | X-H torsion

> <Gold.Protein.ActiveResidues>
 VAL166  LYS551  ARG553  GLY616  TRP617  ASP618  TYR619  PRO620  LYS621  CYS622 
 ASP623  PHE694  ASN695  SER759  ASP760  ASP761  ALA762  ILE779  LEU786  VAL792 
 PHE793  MET794  SER795  GLU796  ALA797  LYS798  CYS799  TRP800  GLU811  SER814 

> <Gold.Protein.RotatedAtoms>
  150.9264  134.8680  159.7522 H   0  0  0  0  0  0  0  0  0  0  0  0  # atno 6907 bound_to 6896
  152.5017  134.4143  159.9469 H   0  0  0  0  0  0  0  0  0  0  0  0  # atno 6908 bound_to 6896
  151.4173  133.3669  159.2786 H   0  0  0  0  0  0  0  0  0  0  0  0  # atno 6909 bound_to 6896
  145.9010  140.7994  142.9743 H   0  0  0  0  0  0  0  0  0  0  0  0  # atno 7974 bound_to 7965
  155.1169  140.3244  155.4507 H   0  0  0  0  0  0  0  0  0  0  0  0  # atno 8008 bound_to 7997
  156.2674  140.2034  156.6240 H   0  0  0  0  0  0  0  0  0  0  0  0  # atno 8009 bound_to 7997
  154.6713  140.0536  157.0155 H   0  0  0  0  0  0  0  0  0  0  0  0  # atno 8010 bound_to 7997
  140.5726  143.9133  150.6725 H   0  0  0  0  0  0  0  0  0  0  0  0  # atno 10167 bound_to 10162
  157.6344  131.0982  150.7026 H   0  0  0  0  0  0  0  0  0  0  0  0  # atno 10718 bound_to 10713
  152.9956  135.5494  154.6063 H   0  0  0  0  0  0  0  0  0  0  0  0  # atno 10763 bound_to 10752
  154.5394  135.2819  155.1112 H   0  0  0  0  0  0  0  0  0  0  0  0  # atno 10764 bound_to 10752
  154.2395  135.6419  153.5255 H   0  0  0  0  0  0  0  0  0  0  0  0  # atno 10765 bound_to 10752
  140.4870  134.0878  155.7763 H   0  0  0  0  0  0  0  0  0  0  0  0  # atno 11005 bound_to 11000
  144.6736  140.1676  143.7417 LP  0  0  0  0  0  0  0  0  0  0  0  0  # atno 17320 bound_to 7965
  145.8791  139.2313  143.1616 LP  0  0  0  0  0  0  0  0  0  0  0  0  # atno 17321 bound_to 7965
  140.2612  143.3523  152.1321 LP  0  0  0  0  0  0  0  0  0  0  0  0  # atno 17342 bound_to 10162
  139.5125  144.6918  151.5738 LP  0  0  0  0  0  0  0  0  0  0  0  0  # atno 17343 bound_to 10162
  156.7360  130.4724  149.5488 LP  0  0  0  0  0  0  0  0  0  0  0  0  # atno 17370 bound_to 10713
  156.1571  130.6349  151.0671 LP  0  0  0  0  0  0  0  0  0  0  0  0  # atno 17371 bound_to 10713
  141.1503  133.8981  157.2114 LP  0  0  0  0  0  0  0  0  0  0  0  0  # atno 17394 bound_to 11000
  139.9792  135.0104  156.9707 LP  0  0  0  0  0  0  0  0  0  0  0  0  # atno 17395 bound_to 11000

$$$$
