AV-unprocessed.smi:3303|AV-procd|sdf|12684|dock7
  -GOLD-   2272019 23D 1   1.00000     0.00000
 Structure written by MMmdl.
 44 45  0  0  0  0  0  0  0  0  2 V2000
  151.2447  137.8616  154.9271 C   0  0  0  0  0  0  0  0  0  0  0  0
  150.4468  139.1002  154.4825 C   0  0  1  0  0  0  0  0  0  0  0  0
  148.9934  138.7553  154.1035 C   0  0  0  0  0  0  0  0  0  0  0  0
  148.2817  139.9459  153.5757 N   0  3  1  0  0  0  0  0  0  0  0  0
  146.9702  139.6115  152.9754 C   0  0  0  0  0  0  0  0  0  0  0  0
  148.2421  141.0872  154.5338 C   0  0  1  0  0  0  0  0  0  0  0  0
  147.2673  140.8735  155.7128 C   0  0  0  0  0  0  0  0  0  0  0  0
  149.6708  141.4658  154.9877 C   0  0  0  0  0  0  0  0  0  0  0  0
  150.5157  140.2707  155.4906 C   0  0  1  0  0  0  0  0  0  0  0  0
  150.1303  139.8321  156.8298 N   0  0  0  0  0  0  0  0  0  0  0  0
  150.1525  140.9179  157.7997 C   0  0  0  0  0  0  0  0  0  0  0  0
  151.5324  141.5883  157.7830 C   0  0  0  0  0  0  0  0  0  0  0  0
  151.5584  142.8564  158.6148 C   0  0  0  0  0  0  0  0  0  0  0  0
  152.3782  142.9495  159.7597 C   0  0  0  0  0  0  0  0  0  0  0  0
  152.3585  144.1455  160.5031 C   0  0  0  0  0  0  0  0  0  0  0  0
  151.5234  145.1959  160.0760 C   0  0  0  0  0  0  0  0  0  0  0  0
  150.7412  145.0026  158.9199 C   0  0  0  0  0  0  0  0  0  0  0  0
  150.7523  143.8598  158.2000 N   0  0  0  0  0  0  0  0  0  0  0  0
  150.7999  137.3847  155.8010 H   0  0  0  0  0  0  0  0  0  0  0  0
  152.2727  138.1255  155.1769 H   0  0  0  0  0  0  0  0  0  0  0  0
  151.2819  137.1161  154.1323 H   0  0  0  0  0  0  0  0  0  0  0  0
  150.9288  139.4545  153.5697 H   0  0  0  0  0  0  0  0  0  0  0  0
  148.9990  137.9797  153.3365 H   0  0  0  0  0  0  0  0  0  0  0  0
  148.4571  138.3403  154.9574 H   0  0  0  0  0  0  0  0  0  0  0  0
  146.3042  139.1461  153.7027 H   0  0  0  0  0  0  0  0  0  0  0  0
  147.0994  138.9143  152.1471 H   0  0  0  0  0  0  0  0  0  0  0  0
  146.4839  140.5050  152.5823 H   0  0  0  0  0  0  0  0  0  0  0  0
  147.8616  141.9446  153.9769 H   0  0  0  0  0  0  0  0  0  0  0  0
  147.3135  141.7125  156.4075 H   0  0  0  0  0  0  0  0  0  0  0  0
  147.4861  139.9703  156.2804 H   0  0  0  0  0  0  0  0  0  0  0  0
  146.2345  140.8045  155.3722 H   0  0  0  0  0  0  0  0  0  0  0  0
  150.1888  141.8883  154.1257 H   0  0  0  0  0  0  0  0  0  0  0  0
  149.6368  142.2765  155.7147 H   0  0  0  0  0  0  0  0  0  0  0  0
  151.5588  140.5862  155.5466 H   0  0  0  0  0  0  0  0  0  0  0  0
  150.7757  139.1187  157.1389 H   0  0  0  0  0  0  0  0  0  0  0  0
  149.3816  141.6486  157.5519 H   0  0  0  0  0  0  0  0  0  0  0  0
  149.9423  140.5439  158.8009 H   0  0  0  0  0  0  0  0  0  0  0  0
  152.2886  140.8981  158.1596 H   0  0  0  0  0  0  0  0  0  0  0  0
  151.8209  141.8321  156.7594 H   0  0  0  0  0  0  0  0  0  0  0  0
  153.0065  142.1253  160.0639 H   0  0  0  0  0  0  0  0  0  0  0  0
  152.9721  144.2546  161.3851 H   0  0  0  0  0  0  0  0  0  0  0  0
  151.4827  146.1272  160.6213 H   0  0  0  0  0  0  0  0  0  0  0  0
  150.0887  145.7863  158.5645 H   0  0  0  0  0  0  0  0  0  0  0  0
  148.8483  140.2715  152.8057 H   0  0  0  0  0  0  0  0  0  0  0  0
  1  2  1  0  0  0  0
  1 19  1  0  0  0  0
  1 20  1  0  0  0  0
  1 21  1  0  0  0  0
  2  9  1  0  0  0  0
  2  3  1  0  0  0  0
  2 22  1  0  0  0  0
  3  4  1  0  0  0  0
  3 23  1  0  0  0  0
  3 24  1  0  0  0  0
  4  5  1  0  0  0  0
  4  6  1  0  0  0  0
  4 44  1  0  0  0  0
  5 25  1  0  0  0  0
  5 26  1  0  0  0  0
  5 27  1  0  0  0  0
  6  7  1  0  0  0  0
  6  8  1  0  0  0  0
  6 28  1  0  0  0  0
  7 29  1  0  0  0  0
  7 30  1  0  0  0  0
  7 31  1  0  0  0  0
  8  9  1  0  0  0  0
  8 32  1  0  0  0  0
  8 33  1  0  0  0  0
  9 10  1  0  0  0  0
  9 34  1  0  0  0  0
 10 11  1  0  0  0  0
 10 35  1  0  0  0  0
 11 12  1  0  0  0  0
 11 36  1  0  0  0  0
 11 37  1  0  0  0  0
 12 13  1  0  0  0  0
 12 38  1  0  0  0  0
 12 39  1  0  0  0  0
 13 18  1  0  0  0  0
 13 14  2  0  0  0  0
 14 15  1  0  0  0  0
 14 40  1  0  0  0  0
 15 16  2  0  0  0  0
 15 41  1  0  0  0  0
 16 17  1  0  0  0  0
 16 42  1  0  0  0  0
 17 18  2  0  0  0  0
 17 43  1  0  0  0  0
M  CHG  1   4   1
M  END
> <s_m_source_file>
AV-unprocessed.smi

> <i_m_source_file_index>
3303

> <i_lp_mmshare_version>
43012

> <i_f3d_flags>
0

> <s_epik_input>
W0NIM11bQ0BASF0xW0NIMl1OKFtDSDNdKVtDQEBIXShbQ0gzXSlbQ0gyXVtDQEhdMVtOSF1bQ0gyXVtDSDJdYzJbY0hdW2NIXVtjSF1bY0hdbjI=

> <s_epik_cmdline>
J2VwaWtfcHl0aG9uJywgJy1waCcsICc3LjAnLCAnLXRuJywgJzgnLCAnLW1hJywgJzIwMCcsICctbWV0YWxfYmluZGluZycsICctaW1hZScsICc8aW5maWxlLm1hZT4nLCAnLW9tYWUnLCAnPG91dGZpbGUubWFlPic=

> <r_epik_Ionization_Penalty>
2.31085

> <r_epik_Ionization_Penalty_Charging>
0.000313057

> <r_epik_Ionization_Penalty_Neutral>
2.31054

> <r_epik_State_Penalty>
2.4087

> <r_epik_Charging_Adjusted_Penalty>
2.40902

> <i_epik_Tot_Q>
1

> <i_epik_Tot_abs_Q>
1

> <r_epik_Metal_State_Penalty>
2.30979

> <b_epik_Metal_Only>
0

> <s_lp_Force_Field>
OPLS_2005

> <r_lp_Energy>
26.6876

> <b_lp_Chiralities_Consistent>
1

> <s_lp_Variant>
AV-unprocessed.smi:3303-28

> <Gold.Version>
5.8.1

> <Gold.Id.Protein>
6NUR|6NUR_protein|mol2

> <Gold.PLP.Fitness>
45.0683

> <Gold.PLP.PLP>
-39.1646

> <Gold.PLP.part.hbond>
-1.0000

> <Gold.PLP.part.metal>
0.0000

> <Gold.PLP.part.buried>
-5.1894

> <Gold.PLP.part.nonpolar>
-34.7360

> <Gold.PLP.part.repulsive>
0.2584

> <Gold.PLP.ligand.clash>
0.0000

> <Gold.PLP.ligand.torsion>
0.0485

> <Gold.PLP.Chemscore.Hbond>
1.0000

> <Gold.PLP.Chemscore.CHOScore>
0.9963

> <Gold.PLP.Chemscore.Metal>
0.0000

> <Gold.Chemscore.Hbonds>
donor molecule, donor type, donor heavy atom, donor atom, acceptor molecule, acceptor atom, score
      L1  H     4    44       P1  7957  1.00
      L1  C    17    43       P1  8029  1.00

> <Gold.PLP.Chemscore.Internal.Correction>
0.0117

> <Gold.Rescore>
     Score         DG    S(hbond)    S(metal)    S(lipo)     H(rot)  DE(clash)    DE(int)     intcor
     19.41     -19.49       0.97        0.00     121.14       1.33       0.04       0.04       ----

> <Gold.Chemscore.Fitness>
19.4150

> <Gold.Chemscore.DG>
-19.4936

> <Gold.Chemscore.ZeroCoef>
-5.4800

> <Gold.Chemscore.Hbond>
0.9693

> <Gold.Chemscore.Metal>
0.0000

> <Gold.Chemscore.Lipo>
121.1443

> <Gold.Chemscore.Internal_Hbond>
0.0000

> <Gold.Chemscore.DEClash>
0.0431

> <Gold.Chemscore.DEInternal>
0.0355

> <Gold.Chemscore.Rot>
1.3272

> <Gold.Chemscore.Internal.Correction>
   9.000000E+99

> <Gold.Chemscore.Hbonds>
donor molecule, donor type, donor heavy atom, donor atom, acceptor molecule, acceptor atom, score
      L1  H     4    44       P1  7957  0.96

> <Gold.Chemscore.Hbond.Weighted>
-3.2373

> <Gold.Chemscore.Metal.Weighted>
-0.0000

> <Gold.Chemscore.Lipo.Weighted>
-14.1739

> <Gold.Chemscore.Internal_Hbond.Weighted>
0.0000

> <Gold.Chemscore.DEClash.Weighted>
0.0431

> <Gold.Chemscore.DEInternal.Weighted>
0.0355

> <Gold.Chemscore.Rot.Weighted>
3.3976

> <Gold.Chemscore.Internal.Correction.Weighted>
   9.000000E+99

> <Gold.Protein.RotatedTorsions>
[ 6907 6896 6895 6894 ] final -151.21 input  -60.11 | X-H torsion
[ 7974 7965 7964 7962 ] final  -26.79 input  175.53 | X-H torsion
[ 8008 7997 7996 7995 ] final    9.29 input   59.86 | X-H torsion
[ 10167 10162 10161 10158 ] final  112.91 input  -65.29 | X-H torsion
[ 10718 10713 10712 10709 ] final   -4.33 input   66.30 | X-H torsion
[ 10763 10752 10751 10750 ] final -108.16 input  -60.55 | X-H torsion
[ 11005 11000 10999 10996 ] final  -74.77 input  -57.11 | X-H torsion

> <Gold.Protein.ActiveResidues>
 VAL166  LYS551  ARG553  GLY616  TRP617  ASP618  TYR619  PRO620  LYS621  CYS622 
 ASP623  PHE694  ASN695  SER759  ASP760  ASP761  ALA762  ILE779  LEU786  VAL792 
 PHE793  MET794  SER795  GLU796  ALA797  LYS798  CYS799  TRP800  GLU811  SER814 

> <Gold.Protein.RotatedAtoms>
  151.2098  133.4562  159.2597 H   0  0  0  0  0  0  0  0  0  0  0  0  # atno 6907 bound_to 6896
  151.0988  134.9960  159.8448 H   0  0  0  0  0  0  0  0  0  0  0  0  # atno 6908 bound_to 6896
  152.5441  134.2026  159.8771 H   0  0  0  0  0  0  0  0  0  0  0  0  # atno 6909 bound_to 6896
  146.1401  140.5067  142.8655 H   0  0  0  0  0  0  0  0  0  0  0  0  # atno 7974 bound_to 7965
  154.7780  140.2814  155.6086 H   0  0  0  0  0  0  0  0  0  0  0  0  # atno 8008 bound_to 7997
  156.2945  140.2628  156.2527 H   0  0  0  0  0  0  0  0  0  0  0  0  # atno 8009 bound_to 7997
  154.9818  140.0374  157.2271 H   0  0  0  0  0  0  0  0  0  0  0  0  # atno 8010 bound_to 7997
  139.6501  144.7128  151.2066 H   0  0  0  0  0  0  0  0  0  0  0  0  # atno 10167 bound_to 10162
  156.7628  130.5275  149.5782 H   0  0  0  0  0  0  0  0  0  0  0  0  # atno 10718 bound_to 10713
  154.8119  135.4648  154.0538 H   0  0  0  0  0  0  0  0  0  0  0  0  # atno 10763 bound_to 10752
  153.1962  135.6862  153.8295 H   0  0  0  0  0  0  0  0  0  0  0  0  # atno 10764 bound_to 10752
  153.7796  135.3258  155.3341 H   0  0  0  0  0  0  0  0  0  0  0  0  # atno 10765 bound_to 10752
  141.1638  133.6923  156.7415 H   0  0  0  0  0  0  0  0  0  0  0  0  # atno 11005 bound_to 11000
  144.7783  140.5787  143.6623 LP  0  0  0  0  0  0  0  0  0  0  0  0  # atno 17320 bound_to 7965
  145.5065  139.1481  143.3628 LP  0  0  0  0  0  0  0  0  0  0  0  0  # atno 17321 bound_to 7965
  140.7533  143.6165  150.8554 LP  0  0  0  0  0  0  0  0  0  0  0  0  # atno 17342 bound_to 10162
  139.9812  143.5949  152.2942 LP  0  0  0  0  0  0  0  0  0  0  0  0  # atno 17343 bound_to 10162
  156.1328  130.6190  151.0357 LP  0  0  0  0  0  0  0  0  0  0  0  0  # atno 17370 bound_to 10713
  157.6727  131.0858  150.7573 LP  0  0  0  0  0  0  0  0  0  0  0  0  # atno 17371 bound_to 10713
  140.2671  134.8421  157.3813 LP  0  0  0  0  0  0  0  0  0  0  0  0  # atno 17394 bound_to 11000
  140.1556  134.4793  155.7930 LP  0  0  0  0  0  0  0  0  0  0  0  0  # atno 17395 bound_to 11000

$$$$
