AV-unprocessed.smi:109|AV-procd|sdf|1031|dock8
  -GOLD-   2262018 33D 1   1.00000     0.00000
 Structure written by MMmdl.
 58 61  0  0  0  0  0  0  0  0  1 V2000
  150.7463  143.5995  156.4932 O   0  0  0  0  0  0  0  0  0  0  0  0
  151.1855  143.4251  157.8229 C   0  0  0  0  0  0  0  0  0  0  0  0
  151.3724  141.9272  158.1201 C   0  0  0  0  0  0  0  0  0  0  0  0
  152.6612  141.5937  158.9113 C   0  0  2  0  0  0  0  0  0  0  0  0
  152.9523  140.1635  158.7872 N   0  0  0  0  0  0  0  0  0  0  0  0
  152.3700  139.3856  157.8467 C   0  0  0  0  0  0  0  0  0  0  0  0
  152.6869  139.5024  156.5310 N   0  0  0  0  0  0  0  0  0  0  0  0
  152.0911  138.7205  155.6265 C   0  0  0  0  0  0  0  0  0  0  0  0
  151.1678  137.7765  155.8198 N   0  0  0  0  0  0  0  0  0  0  0  0
  150.8442  137.6541  157.1397 C   0  0  0  0  0  0  0  0  0  0  0  0
  151.3980  138.4164  158.2057 C   0  0  0  0  0  0  0  0  0  0  0  0
  150.8337  138.0196  159.4108 N   0  0  0  0  0  0  0  0  0  0  0  0
  149.9970  137.0756  159.0718 C   0  0  0  0  0  0  0  0  0  0  0  0
  149.9371  136.7942  157.7249 N   0  0  0  0  0  0  0  0  0  0  0  0
  149.0811  135.7755  157.0444 C   0  0  2  0  0  0  0  0  0  0  0  0
  149.4581  134.5149  157.5064 O   0  0  0  0  0  0  0  0  0  0  0  0
  149.4896  133.5963  156.4207 C   0  0  2  0  0  0  0  0  0  0  0  0
  150.4282  132.4271  156.7562 C   0  0  0  0  0  0  0  0  0  0  0  0
  151.6216  132.9146  157.3314 O   0  0  0  0  0  0  0  0  0  0  0  0
  149.9859  134.4682  155.2660 C   0  0  1  0  0  0  0  0  0  0  0  0
  149.6942  133.9162  153.9956 O   0  0  0  0  0  0  0  0  0  0  0  0
  149.2936  135.8056  155.5216 C   0  0  1  0  0  0  0  0  0  0  0  0
  148.0546  135.9062  154.8434 O   0  0  0  0  0  0  0  0  0  0  0  0
  152.5843  141.9775  160.4174 C   0  0  0  0  0  0  0  0  0  0  0  0
  152.2516  143.4736  160.6470 C   0  0  0  0  0  0  0  0  0  0  0  0
  152.2244  143.8491  162.1381 C   0  0  0  0  0  0  0  0  0  0  0  0
  153.5462  143.4952  162.8300 C   0  0  0  0  0  0  0  0  0  0  0  0
  153.8708  142.0092  162.6402 C   0  0  0  0  0  0  0  0  0  0  0  0
  153.9087  141.6373  161.1498 C   0  0  0  0  0  0  0  0  0  0  0  0
  148.0621  136.0148  157.3527 H   0  0  0  0  0  0  0  0  0  0  0  0
  148.4758  133.2479  156.2112 H   0  0  0  0  0  0  0  0  0  0  0  0
  151.0649  134.6016  155.3444 H   0  0  0  0  0  0  0  0  0  0  0  0
  149.9226  136.6468  155.2263 H   0  0  0  0  0  0  0  0  0  0  0  0
  149.9243  144.0654  156.5071 H   0  0  0  0  0  0  0  0  0  0  0  0
  152.1179  143.9746  157.9531 H   0  0  0  0  0  0  0  0  0  0  0  0
  150.4496  143.8619  158.4986 H   0  0  0  0  0  0  0  0  0  0  0  0
  150.4983  141.6090  158.6856 H   0  0  0  0  0  0  0  0  0  0  0  0
  151.3572  141.3624  157.1869 H   0  0  0  0  0  0  0  0  0  0  0  0
  153.4697  142.1879  158.4861 H   0  0  0  0  0  0  0  0  0  0  0  0
  153.6430  139.8063  159.4318 H   0  0  0  0  0  0  0  0  0  0  0  0
  152.3977  138.8726  154.6022 H   0  0  0  0  0  0  0  0  0  0  0  0
  149.3928  136.5569  159.8019 H   0  0  0  0  0  0  0  0  0  0  0  0
  149.9601  131.7668  157.4867 H   0  0  0  0  0  0  0  0  0  0  0  0
  150.6473  131.8278  155.8720 H   0  0  0  0  0  0  0  0  0  0  0  0
  152.3500  132.6247  156.8037 H   0  0  0  0  0  0  0  0  0  0  0  0
  149.1570  134.5307  153.5192 H   0  0  0  0  0  0  0  0  0  0  0  0
  148.2275  136.0052  153.9195 H   0  0  0  0  0  0  0  0  0  0  0  0
  151.7880  141.3877  160.8746 H   0  0  0  0  0  0  0  0  0  0  0  0
  152.9818  144.0962  160.1282 H   0  0  0  0  0  0  0  0  0  0  0  0
  151.2774  143.7243  160.2305 H   0  0  0  0  0  0  0  0  0  0  0  0
  152.0234  144.9152  162.2475 H   0  0  0  0  0  0  0  0  0  0  0  0
  151.4028  143.3281  162.6312 H   0  0  0  0  0  0  0  0  0  0  0  0
  154.3522  144.1040  162.4181 H   0  0  0  0  0  0  0  0  0  0  0  0
  153.4884  143.7325  163.8926 H   0  0  0  0  0  0  0  0  0  0  0  0
  154.8295  141.7768  163.1049 H   0  0  0  0  0  0  0  0  0  0  0  0
  153.1234  141.4008  163.1509 H   0  0  0  0  0  0  0  0  0  0  0  0
  154.1331  140.5735  161.0716 H   0  0  0  0  0  0  0  0  0  0  0  0
  154.7371  142.1592  160.6683 H   0  0  0  0  0  0  0  0  0  0  0  0
  1  2  1  0  0  0  0
  1 34  1  0  0  0  0
  2  3  1  0  0  0  0
  2 35  1  0  0  0  0
  2 36  1  0  0  0  0
  3  4  1  0  0  0  0
  3 37  1  0  0  0  0
  3 38  1  0  0  0  0
  4  5  1  0  0  0  0
  4 24  1  0  0  0  0
  4 39  1  0  0  0  0
  5  6  1  0  0  0  0
  5 40  1  0  0  0  0
  6 11  1  0  0  0  0
  6  7  2  0  0  0  0
  7  8  1  0  0  0  0
  8  9  2  0  0  0  0
  8 41  1  0  0  0  0
  9 10  1  0  0  0  0
 10 14  1  0  0  0  0
 10 11  2  0  0  0  0
 11 12  1  0  0  0  0
 12 13  2  0  0  0  0
 13 14  1  0  0  0  0
 13 42  1  0  0  0  0
 14 15  1  0  0  0  0
 15 30  1  0  0  0  0
 15 22  1  0  0  0  0
 15 16  1  0  0  0  0
 16 17  1  0  0  0  0
 17 31  1  0  0  0  0
 17 18  1  0  0  0  0
 17 20  1  0  0  0  0
 18 19  1  0  0  0  0
 18 43  1  0  0  0  0
 18 44  1  0  0  0  0
 19 45  1  0  0  0  0
 20 32  1  0  0  0  0
 20 21  1  0  0  0  0
 20 22  1  0  0  0  0
 21 46  1  0  0  0  0
 22 33  1  0  0  0  0
 22 23  1  0  0  0  0
 23 47  1  0  0  0  0
 24 29  1  0  0  0  0
 24 25  1  0  0  0  0
 24 48  1  0  0  0  0
 25 26  1  0  0  0  0
 25 49  1  0  0  0  0
 25 50  1  0  0  0  0
 26 27  1  0  0  0  0
 26 51  1  0  0  0  0
 26 52  1  0  0  0  0
 27 28  1  0  0  0  0
 27 53  1  0  0  0  0
 27 54  1  0  0  0  0
 28 29  1  0  0  0  0
 28 55  1  0  0  0  0
 28 56  1  0  0  0  0
 29 57  1  0  0  0  0
 29 58  1  0  0  0  0
M  END
> <s_m_source_file>
AV-unprocessed.smi

> <i_m_source_file_index>
109

> <i_lp_mmshare_version>
43012

> <i_f3d_flags>
0

> <s_epik_input>
W0NIMl0xW0NIMl1bQ0gyXVtDSDJdW0NIMl1bQ0hdMVtDQEhdKFtDSDJdW0NIMl1bT0hdKVtOSF1jKG5bY0hdbjIpYyhjMjMpbltjSF1uM1tDQEBIXTRPW0NASF0oW0NIMl1bT0hdKVtDQEBIXShbT0hdKVtDQEhdNFtPSF0=

> <s_epik_cmdline>
J2VwaWtfcHl0aG9uJywgJy1waCcsICc3LjAnLCAnLXRuJywgJzgnLCAnLW1hJywgJzIwMCcsICctbWV0YWxfYmluZGluZycsICctaW1hZScsICc8aW5maWxlLm1hZT4nLCAnLW9tYWUnLCAnPG91dGZpbGUubWFlPic=

> <r_lp_tautomer_probability>
1

> <r_epik_Ionization_Penalty>
0.000793976

> <r_epik_Ionization_Penalty_Charging>
0

> <r_epik_Ionization_Penalty_Neutral>
0.000793976

> <r_epik_State_Penalty>
-0

> <r_epik_Charging_Adjusted_Penalty>
0

> <i_epik_Tot_Q>
0

> <i_epik_Tot_abs_Q>
0

> <r_epik_Metal_State_Penalty>
-0

> <b_epik_Metal_Only>
0

> <s_epik_Chemistry_Notes>
This compound contains an acetal/aminal-like group ( X-CH(R)-Y where X, Y are N, S, or O) that may be acid/base labile, releasing an aldehyde.

> <s_lp_Force_Field>
OPLS_2005

> <r_lp_Energy>
54.5538

> <b_lp_Chiralities_Consistent>
1

> <s_lp_Variant>
AV-unprocessed.smi:109-1

> <Gold.Version>
5.8.1

> <Gold.Id.Protein>
6NUR|6NUR_protein|mol2

> <Gold.PLP.Fitness>
55.2725

> <Gold.PLP.PLP>
-44.6440

> <Gold.PLP.part.hbond>
-5.4163

> <Gold.PLP.part.metal>
0.0000

> <Gold.PLP.part.buried>
-5.6741

> <Gold.PLP.part.nonpolar>
-35.1209

> <Gold.PLP.part.repulsive>
0.1293

> <Gold.PLP.ligand.clash>
0.7214

> <Gold.PLP.ligand.torsion>
1.4445

> <Gold.PLP.Chemscore.Hbond>
4.6800

> <Gold.PLP.Chemscore.CHOScore>
0.0000

> <Gold.PLP.Chemscore.Metal>
0.0000

> <Gold.Chemscore.Hbonds>
donor molecule, donor type, donor heavy atom, donor atom, acceptor molecule, acceptor atom, score
      L1  H     1    34       P1  8028  0.77
      L1  H    21    46       P1  7948  0.15
      L1  H    23    47       P1  7948  0.62
      P1  H  6896  6908       L1    19  0.88
      P1  H  7997  8008       L1     7  1.00

> <Gold.PLP.Chemscore.Internal.Correction>
0.1990

> <Gold.Rescore>
     Score         DG    S(hbond)    S(metal)    S(lipo)     H(rot)  DE(clash)    DE(int)     intcor
     12.67     -16.82       3.63        0.00     112.74       5.47       1.16       2.98       ----

> <Gold.Chemscore.Fitness>
12.6698

> <Gold.Chemscore.DG>
-16.8157

> <Gold.Chemscore.ZeroCoef>
-5.4800

> <Gold.Chemscore.Hbond>
3.6344

> <Gold.Chemscore.Metal>
0.0000

> <Gold.Chemscore.Lipo>
112.7374

> <Gold.Chemscore.Internal_Hbond>
0.0000

> <Gold.Chemscore.DEClash>
1.1614

> <Gold.Chemscore.DEInternal>
2.9846

> <Gold.Chemscore.Rot>
5.4662

> <Gold.Chemscore.Internal.Correction>
   9.000000E+99

> <Gold.Chemscore.Hbonds>
donor molecule, donor type, donor heavy atom, donor atom, acceptor molecule, acceptor atom, score
      L1  H     1    34       P1  8028  0.74
      L1  H    21    46       P1  7948  0.02
      L1  H    23    47       P1  7948  0.60
      P1  H  6896  6908       L1    19  0.73
      P1  H  7997  8008       L1     7  0.55

> <Gold.Chemscore.Hbond.Weighted>
-12.1390

> <Gold.Chemscore.Metal.Weighted>
-0.0000

> <Gold.Chemscore.Lipo.Weighted>
-13.1903

> <Gold.Chemscore.Internal_Hbond.Weighted>
0.0000

> <Gold.Chemscore.DEClash.Weighted>
1.1614

> <Gold.Chemscore.DEInternal.Weighted>
2.9846

> <Gold.Chemscore.Rot.Weighted>
13.9935

> <Gold.Chemscore.Internal.Correction.Weighted>
   9.000000E+99

> <Gold.Protein.RotatedTorsions>
[ 6907 6896 6895 6894 ] final   74.89 input  -60.11 | X-H torsion
[ 7974 7965 7964 7962 ] final  150.22 input  175.53 | X-H torsion
[ 8008 7997 7996 7995 ] final  -52.02 input   59.86 | X-H torsion
[ 10167 10162 10161 10158 ] final  -12.43 input  -65.29 | X-H torsion
[ 10718 10713 10712 10709 ] final   96.49 input   66.30 | X-H torsion
[ 10763 10752 10751 10750 ] final  155.80 input  -60.55 | X-H torsion
[ 11005 11000 10999 10996 ] final  116.51 input  -57.11 | X-H torsion

> <Gold.Protein.ActiveResidues>
 VAL166  LYS551  ARG553  GLY616  TRP617  ASP618  TYR619  PRO620  LYS621  CYS622 
 ASP623  PHE694  ASN695  SER759  ASP760  ASP761  ALA762  ILE779  LEU786  VAL792 
 PHE793  MET794  SER795  GLU796  ALA797  LYS798  CYS799  TRP800  GLU811  SER814 

> <Gold.Protein.RotatedAtoms>
  152.4999  134.4203  159.9478 H   0  0  0  0  0  0  0  0  0  0  0  0  # atno 6907 bound_to 6896
  151.4176  133.3702  159.2759 H   0  0  0  0  0  0  0  0  0  0  0  0  # atno 6908 bound_to 6896
  150.9246  134.8685  159.7571 H   0  0  0  0  0  0  0  0  0  0  0  0  # atno 6909 bound_to 6896
  144.8380  139.6380  143.6029 H   0  0  0  0  0  0  0  0  0  0  0  0  # atno 7974 bound_to 7965
  154.4096  140.1234  156.4924 H   0  0  0  0  0  0  0  0  0  0  0  0  # atno 8008 bound_to 7997
  155.6977  140.3495  155.4900 H   0  0  0  0  0  0  0  0  0  0  0  0  # atno 8009 bound_to 7997
  155.9413  140.1087  157.1043 H   0  0  0  0  0  0  0  0  0  0  0  0  # atno 8010 bound_to 7997
  140.7161  143.5533  150.9277 H   0  0  0  0  0  0  0  0  0  0  0  0  # atno 10167 bound_to 10162
  157.6926  131.0579  150.4499 H   0  0  0  0  0  0  0  0  0  0  0  0  # atno 10718 bound_to 10713
  154.1742  135.2803  155.3072 H   0  0  0  0  0  0  0  0  0  0  0  0  # atno 10763 bound_to 10752
  154.6052  135.5517  153.7418 H   0  0  0  0  0  0  0  0  0  0  0  0  # atno 10764 bound_to 10752
  153.0156  135.6401  154.1882 H   0  0  0  0  0  0  0  0  0  0  0  0  # atno 10765 bound_to 10752
  139.9044  134.9599  156.7210 H   0  0  0  0  0  0  0  0  0  0  0  0  # atno 11005 bound_to 11000
  146.2676  139.6558  142.9318 LP  0  0  0  0  0  0  0  0  0  0  0  0  # atno 17320 bound_to 7965
  145.4754  141.0437  143.2675 LP  0  0  0  0  0  0  0  0  0  0  0  0  # atno 17321 bound_to 7965
  139.9257  143.6552  152.3087 LP  0  0  0  0  0  0  0  0  0  0  0  0  # atno 17342 bound_to 10162
  139.6985  144.7638  151.1314 LP  0  0  0  0  0  0  0  0  0  0  0  0  # atno 17343 bound_to 10162
  156.4851  130.4082  149.6439 LP  0  0  0  0  0  0  0  0  0  0  0  0  # atno 17370 bound_to 10713
  156.3470  130.7412  151.2366 LP  0  0  0  0  0  0  0  0  0  0  0  0  # atno 17371 bound_to 10713
  140.7001  133.9314  155.8019 LP  0  0  0  0  0  0  0  0  0  0  0  0  # atno 17394 bound_to 11000
  141.0378  134.0664  157.3938 LP  0  0  0  0  0  0  0  0  0  0  0  0  # atno 17395 bound_to 11000

$$$$
