#       Name:                AV-unprocessed.smi:1601
#       Creating user name   scv26
#       Creation time:       Fri Mar 27 07:07:36 2020


#       File generated by GOLD software.
#

@<TRIPOS>MOLECULE
AV-unprocessed.smi:1601
    47    48     1
SMALL
NO_CHARGES


@<TRIPOS>ATOM
      1 ****        -0.5506   1.6835   1.6854 C.3            1 S1                 0.0000
      2 ****        -1.1304   0.9118   0.4725 C.3            1 S1                 0.0000
      3 ****        -0.5565  -0.5354   0.4831 C.3            1 S1                 0.0000
      4 ****         0.9031  -0.5773   0.4665 N.am           1 S1                 0.0000
      5 ****         1.6682  -0.3368  -0.6104 C.2            1 S1                 0.0000
      6 ****         1.2002  -0.0606  -1.7158 O.2            1 S1                 0.0000
      7 ****         3.1892  -0.4082  -0.3943 C.3            1 S1                 0.0000
      8 ****         3.9877   0.3002  -1.5073 C.3            1 S1                 0.0000
      9 ****         3.6195  -1.7895  -0.2098 N.pl3          1 S1                 0.0000
     10 ****         3.9876  -2.4142   0.9647 C.2            1 S1                 0.0000
     11 ****         4.2887  -3.7113   0.6630 C.2            1 S1                 0.0000
     12 ****         4.0618  -3.7938  -0.7386 C.2            1 S1                 0.0000
     13 ****         3.6578  -2.6460  -1.2573 N.2            1 S1                 0.0000
     14 ****        -2.6103   0.9592   0.4147 N.3            1 S1                 0.0000
     15 ****        -3.1252   2.3339   0.4015 C.3            1 S1                 0.0000
     16 ****        -4.6586   2.4010   0.2994 C.3            1 S1                 0.0000
     17 ****        -5.0906   1.7096  -0.8638 O.3            1 S1                 0.0000
     18 ****        -4.6841   0.3485  -0.8550 C.3            1 S1                 0.0000
     19 ****        -3.1510   0.2639  -0.7596 C.3            1 S1                 0.0000
     20 ****         0.5344   1.6072   1.7458 H              1 S1                 0.0000
     21 ****        -0.9573   1.3060   2.6240 H              1 S1                 0.0000
     22 ****        -0.7557   2.7518   1.6335 H              1 S1                 0.0000
     23 ****        -0.7499   1.4021  -0.4249 H              1 S1                 0.0000
     24 ****        -0.9013  -1.0648   1.3720 H              1 S1                 0.0000
     25 ****        -0.8932  -1.1201  -0.3717 H              1 S1                 0.0000
     26 ****         1.3633  -0.8001   1.3370 H              1 S1                 0.0000
     27 ****         3.4003   0.1209   0.5364 H              1 S1                 0.0000
     28 ****         3.6924   1.3460  -1.5980 H              1 S1                 0.0000
     29 ****         3.8407  -0.1704  -2.4803 H              1 S1                 0.0000
     30 ****         5.0559   0.2820  -1.2900 H              1 S1                 0.0000
     31 ****         4.0056  -1.8890   1.9084 H              1 S1                 0.0000
     32 ****         4.6176  -4.4851   1.3406 H              1 S1                 0.0000
     33 ****         4.1757  -4.6480  -1.3894 H              1 S1                 0.0000
     34 ****        -2.8446   2.8573   1.3136 H              1 S1                 0.0000
     35 ****        -2.6842   2.8858  -0.4300 H              1 S1                 0.0000
     36 ****        -5.1251   1.9681   1.1856 H              1 S1                 0.0000
     37 ****        -4.9883   3.4383   0.2388 H              1 S1                 0.0000
     38 ****        -5.1525  -0.1744  -0.0198 H              1 S1                 0.0000
     39 ****        -5.0329  -0.1321  -1.7691 H              1 S1                 0.0000
     40 ****        -2.7086   0.6743  -1.6687 H              1 S1                 0.0000
     41 ****        -2.8980  -0.7937  -0.7325 H              1 S1                 0.0000
     42 ****         0.2094  -0.0076  -1.8402 LP             1 S1                 0.0000
     43 ****         1.8110   0.1106  -2.4888 LP             1 S1                 0.0000
     44 ****         3.4309  -2.4536  -2.2120 LP             1 S1                 0.0000
     45 ****        -2.9125   0.4937   1.2466 LP             1 S1                 0.0000
     46 ****        -4.7018   2.1576  -1.6689 LP             1 S1                 0.0000
     47 ****        -6.0888   1.7482  -0.9104 LP             1 S1                 0.0000
@<TRIPOS>BOND
    1    1    2 1     
    2    1   20 1     
    3    1   21 1     
    4    1   22 1     
    5    2    3 1     
    6    2   14 1     
    7    2   23 1     
    8    3    4 1     
    9    3   24 1     
   10    3   25 1     
   11    4    5 am    
   12    4   26 1     
   13    5    6 2     
   14    5    7 1     
   15    7    8 1     
   16    7    9 1     
   17    7   27 1     
   18    8   28 1     
   19    8   29 1     
   20    8   30 1     
   21    9   13 1     
   22    9   10 1     
   23   10   11 2     
   24   10   31 1     
   25   11   12 1     
   26   11   32 1     
   27   12   13 2     
   28   12   33 1     
   29   14   19 1     
   30   14   15 1     
   31   15   16 1     
   32   15   34 1     
   33   15   35 1     
   34   16   17 1     
   35   16   36 1     
   36   16   37 1     
   37   17   18 1     
   38   18   19 1     
   39   18   38 1     
   40   18   39 1     
   41   19   40 1     
   42   19   41 1     
   43    6   42 1     
   44    6   43 1     
   45   13   44 1     
   46   14   45 1     
   47   17   46 1     
   48   17   47 1     
@<TRIPOS>SUBSTRUCTURE
      1 S1             1
@<TRIPOS>SET
LONE_PAIRS      STATIC     ATOMS    <user>   **** ""
6 42 43 44 45 46 47
DONOR_HYDROGENS      STATIC     ATOMS    <user>   **** ""
1 26
ATOM$BLUE        STATIC     ATOMS    COLORGROUP SYSTEM
6 42 43 44 45 46 47
ATOM$RED        STATIC     ATOMS    COLORGROUP SYSTEM
1 26
