AV-unprocessed.smi:1754|AV-procd|sdf|7066|dock3
  -GOLD-   22720 8283D 1   1.00000     0.00000
 Structure written by MMmdl.
 44 45  0  0  0  0  0  0  0  0  1 V2000
  143.7882  132.7113  148.8091 C   0  0  0  0  0  0  0  0  0  0  0  0
  144.9721  132.2154  149.6543 C   0  0  0  0  0  0  0  0  0  0  0  0
  144.8213  132.5069  151.0821 N   0  0  0  0  0  0  0  0  0  0  0  0
  145.7720  131.8698  151.9932 C   0  0  0  0  0  0  0  0  0  0  0  0
  145.9429  130.3668  151.7241 C   0  0  0  0  0  0  0  0  0  0  0  0
  144.4102  133.8021  151.4696 C   0  0  0  0  0  0  0  0  0  0  0  0
  145.1442  134.9335  151.0440 C   0  0  0  0  0  0  0  0  0  0  0  0
  144.7145  136.2187  151.4260 C   0  0  0  0  0  0  0  0  0  0  0  0
  143.5593  136.3431  152.2326 C   0  0  0  0  0  0  0  0  0  0  0  0
  143.0096  137.5766  152.6766 N   0  0  0  0  0  0  0  0  0  0  0  0
  141.9045  137.8005  153.4151 C   0  0  0  0  0  0  0  0  0  0  0  0
  141.1458  136.9266  153.8277 O   0  0  0  0  0  0  0  0  0  0  0  0
  141.6623  139.1002  153.6640 N   0  0  0  0  0  0  0  0  0  0  0  0
  140.5602  139.6898  154.4260 C   0  0  2  0  0  0  0  0  0  0  0  0
  139.2493  139.6456  153.6182 C   0  0  0  0  0  0  0  0  0  0  0  0
  138.2284  140.5796  154.2799 C   0  0  0  0  0  0  0  0  0  0  0  0
  139.1991  141.9265  155.0575 S   0  0  0  0  0  0  0  0  0  0  0  0
  139.0992  143.1444  154.2391 O   0  0  0  0  0  0  0  0  0  0  0  0
  138.9040  141.9550  156.4980 O   0  0  0  0  0  0  0  0  0  0  0  0
  140.8397  141.1577  154.7882 C   0  0  0  0  0  0  0  0  0  0  0  0
  142.8887  135.1584  152.5964 C   0  0  0  0  0  0  0  0  0  0  0  0
  143.2969  133.9251  152.2322 N   0  0  0  0  0  0  0  0  0  0  0  0
  143.9227  132.4353  147.7633 H   0  0  0  0  0  0  0  0  0  0  0  0
  143.6789  133.7949  148.8482 H   0  0  0  0  0  0  0  0  0  0  0  0
  142.8521  132.2681  149.1497 H   0  0  0  0  0  0  0  0  0  0  0  0
  145.0652  131.1370  149.5232 H   0  0  0  0  0  0  0  0  0  0  0  0
  145.9041  132.6443  149.2842 H   0  0  0  0  0  0  0  0  0  0  0  0
  146.7420  132.3636  151.9481 H   0  0  0  0  0  0  0  0  0  0  0  0
  145.4197  132.0140  153.0150 H   0  0  0  0  0  0  0  0  0  0  0  0
  146.6442  129.9274  152.4335 H   0  0  0  0  0  0  0  0  0  0  0  0
  146.3306  130.1831  150.7215 H   0  0  0  0  0  0  0  0  0  0  0  0
  144.9970  129.8337  151.8215 H   0  0  0  0  0  0  0  0  0  0  0  0
  146.0319  134.8279  150.4382 H   0  0  0  0  0  0  0  0  0  0  0  0
  145.2749  137.0734  151.0823 H   0  0  0  0  0  0  0  0  0  0  0  0
  143.4955  138.4013  152.3557 H   0  0  0  0  0  0  0  0  0  0  0  0
  142.3160  139.7584  153.2647 H   0  0  0  0  0  0  0  0  0  0  0  0
  140.3943  139.1243  155.3449 H   0  0  0  0  0  0  0  0  0  0  0  0
  139.4399  140.0021  152.6047 H   0  0  0  0  0  0  0  0  0  0  0  0
  138.8616  138.6301  153.5294 H   0  0  0  0  0  0  0  0  0  0  0  0
  137.5084  140.9922  153.5728 H   0  0  0  0  0  0  0  0  0  0  0  0
  137.6836  140.0603  155.0684 H   0  0  0  0  0  0  0  0  0  0  0  0
  141.4580  141.2727  155.6787 H   0  0  0  0  0  0  0  0  0  0  0  0
  141.3200  141.6837  153.9622 H   0  0  0  0  0  0  0  0  0  0  0  0
  141.9952  135.1988  153.2022 H   0  0  0  0  0  0  0  0  0  0  0  0
  1  2  1  0  0  0  0
  1 23  1  0  0  0  0
  1 24  1  0  0  0  0
  1 25  1  0  0  0  0
  2  3  1  0  0  0  0
  2 26  1  0  0  0  0
  2 27  1  0  0  0  0
  3  4  1  0  0  0  0
  3  6  1  0  0  0  0
  4  5  1  0  0  0  0
  4 28  1  0  0  0  0
  4 29  1  0  0  0  0
  5 30  1  0  0  0  0
  5 31  1  0  0  0  0
  5 32  1  0  0  0  0
  6 22  1  0  0  0  0
  6  7  2  0  0  0  0
  7  8  1  0  0  0  0
  7 33  1  0  0  0  0
  8  9  2  0  0  0  0
  8 34  1  0  0  0  0
  9 10  1  0  0  0  0
  9 21  1  0  0  0  0
 10 11  1  0  0  0  0
 10 35  1  0  0  0  0
 11 12  2  0  0  0  0
 11 13  1  0  0  0  0
 13 14  1  0  0  0  0
 13 36  1  0  0  0  0
 14 20  1  0  0  0  0
 14 15  1  0  0  0  0
 14 37  1  0  0  0  0
 15 16  1  0  0  0  0
 15 38  1  0  0  0  0
 15 39  1  0  0  0  0
 16 17  1  0  0  0  0
 16 40  1  0  0  0  0
 16 41  1  0  0  0  0
 17 18  2  0  0  0  0
 17 19  2  0  0  0  0
 17 20  1  0  0  0  0
 20 42  1  0  0  0  0
 20 43  1  0  0  0  0
 21 22  2  0  0  0  0
 21 44  1  0  0  0  0
M  END
> <s_m_source_file>
AV-unprocessed.smi

> <i_m_source_file_index>
1754

> <i_lp_mmshare_version>
43012

> <i_f3d_flags>
0

> <s_epik_input>
W0NIM11bQ0gyXU4oW0NIMl1bQ0gzXSljMVtjSF1bY0hdYyhbY0hdbjEpW05IXUMoPU8pW05IXVtDQEBIXShbQ0gyXTIpW0NIMl1bQ0gyXVMyKD1PKT1P

> <s_epik_cmdline>
J2VwaWtfcHl0aG9uJywgJy1waCcsICc3LjAnLCAnLXRuJywgJzgnLCAnLW1hJywgJzIwMCcsICctbWV0YWxfYmluZGluZycsICctaW1hZScsICc8aW5maWxlLm1hZT4nLCAnLW9tYWUnLCAnPG91dGZpbGUubWFlPic=

> <r_lp_tautomer_probability>
1

> <r_epik_Ionization_Penalty>
0.615754

> <r_epik_Ionization_Penalty_Charging>
0

> <r_epik_Ionization_Penalty_Neutral>
0.615754

> <r_epik_State_Penalty>
2.08676

> <r_epik_Charging_Adjusted_Penalty>
2.08676

> <i_epik_Tot_Q>
0

> <i_epik_Tot_abs_Q>
0

> <r_epik_Metal_State_Penalty>
1.53042

> <b_epik_Metal_Only>
0

> <s_lp_Force_Field>
OPLS_2005

> <r_lp_Energy>
24.3589

> <b_lp_Chiralities_Consistent>
1

> <s_lp_Variant>
AV-unprocessed.smi:1754-3

> <Gold.Version>
5.8.1

> <Gold.Id.Protein>
6NUR|6NUR_protein|mol2

> <Gold.PLP.Fitness>
45.2284

> <Gold.PLP.PLP>
-39.0650

> <Gold.PLP.part.hbond>
-3.9833

> <Gold.PLP.part.metal>
0.0000

> <Gold.PLP.part.buried>
-4.5053

> <Gold.PLP.part.nonpolar>
-31.4014

> <Gold.PLP.part.repulsive>
0.4209

> <Gold.PLP.ligand.clash>
0.0000

> <Gold.PLP.ligand.torsion>
1.7323

> <Gold.PLP.Chemscore.Hbond>
2.9199

> <Gold.PLP.Chemscore.CHOScore>
0.0000

> <Gold.PLP.Chemscore.Metal>
0.0000

> <Gold.Chemscore.Hbonds>
donor molecule, donor type, donor heavy atom, donor atom, acceptor molecule, acceptor atom, score
      L1  H    10    35       P1 10175  0.92
      L1  H    13    36       P1 10175  1.00
      P1  H 10162 10167       L1    18  0.75

> <Gold.PLP.Chemscore.Internal.Correction>
0.8685

> <Gold.Rescore>
     Score         DG    S(hbond)    S(metal)    S(lipo)     H(rot)  DE(clash)    DE(int)     intcor
     17.05     -20.28       2.78        0.00      77.46       1.39       0.15       3.08       ----

> <Gold.Chemscore.Fitness>
17.0507

> <Gold.Chemscore.DG>
-20.2792

> <Gold.Chemscore.ZeroCoef>
-5.4800

> <Gold.Chemscore.Hbond>
2.7811

> <Gold.Chemscore.Metal>
0.0000

> <Gold.Chemscore.Lipo>
77.4601

> <Gold.Chemscore.Internal_Hbond>
0.0000

> <Gold.Chemscore.DEClash>
0.1506

> <Gold.Chemscore.DEInternal>
3.0779

> <Gold.Chemscore.Rot>
1.3876

> <Gold.Chemscore.Internal.Correction>
   9.000000E+99

> <Gold.Chemscore.Hbonds>
donor molecule, donor type, donor heavy atom, donor atom, acceptor molecule, acceptor atom, score
      L1  H    10    35       P1 10175  0.83
      L1  H    13    36       P1 10175  0.92
      P1  H 10162 10167       L1    18  0.74

> <Gold.Chemscore.Hbond.Weighted>
-9.2888

> <Gold.Chemscore.Metal.Weighted>
-0.0000

> <Gold.Chemscore.Lipo.Weighted>
-9.0628

> <Gold.Chemscore.Internal_Hbond.Weighted>
0.0000

> <Gold.Chemscore.DEClash.Weighted>
0.1506

> <Gold.Chemscore.DEInternal.Weighted>
3.0779

> <Gold.Chemscore.Rot.Weighted>
3.5524

> <Gold.Chemscore.Internal.Correction.Weighted>
   9.000000E+99

> <Gold.Protein.RotatedTorsions>
[ 6907 6896 6895 6894 ] final  148.81 input  -60.11 | X-H torsion
[ 7974 7965 7964 7962 ] final -109.42 input  175.53 | X-H torsion
[ 8008 7997 7996 7995 ] final   26.41 input   59.86 | X-H torsion
[ 10167 10162 10161 10158 ] final -131.48 input  -65.29 | X-H torsion
[ 10718 10713 10712 10709 ] final -108.41 input   66.30 | X-H torsion
[ 10763 10752 10751 10750 ] final   10.80 input  -60.55 | X-H torsion
[ 11005 11000 10999 10996 ] final  -98.73 input  -57.11 | X-H torsion

> <Gold.Protein.ActiveResidues>
 VAL166  LYS551  ARG553  GLY616  TRP617  ASP618  TYR619  PRO620  LYS621  CYS622 
 ASP623  PHE694  ASN695  SER759  ASP760  ASP761  ALA762  ILE779  LEU786  VAL792 
 PHE793  MET794  SER795  GLU796  ALA797  LYS798  CYS799  TRP800  GLU811  SER814 

> <Gold.Protein.RotatedAtoms>
  152.1365  133.4438  159.4745 H   0  0  0  0  0  0  0  0  0  0  0  0  # atno 6907 bound_to 6896
  150.6882  134.2358  159.4461 H   0  0  0  0  0  0  0  0  0  0  0  0  # atno 6908 bound_to 6896
  152.0245  134.9803  160.0622 H   0  0  0  0  0  0  0  0  0  0  0  0  # atno 6909 bound_to 6896
  145.1807  140.8969  143.3481 H   0  0  0  0  0  0  0  0  0  0  0  0  # atno 7974 bound_to 7965
  155.0269  140.3154  155.4772 H   0  0  0  0  0  0  0  0  0  0  0  0  # atno 8008 bound_to 7997
  156.2881  140.2187  156.5331 H   0  0  0  0  0  0  0  0  0  0  0  0  # atno 8009 bound_to 7997
  154.7404  140.0474  157.0793 H   0  0  0  0  0  0  0  0  0  0  0  0  # atno 8010 bound_to 7997
  139.9185  143.6410  152.2559 H   0  0  0  0  0  0  0  0  0  0  0  0  # atno 10167 bound_to 10162
  156.0484  130.5711  150.7957 H   0  0  0  0  0  0  0  0  0  0  0  0  # atno 10718 bound_to 10713
  153.1993  135.6854  153.8251 H   0  0  0  0  0  0  0  0  0  0  0  0  # atno 10763 bound_to 10752
  153.7523  135.3222  155.3324 H   0  0  0  0  0  0  0  0  0  0  0  0  # atno 10764 bound_to 10752
  154.8162  135.4684  154.0752 H   0  0  0  0  0  0  0  0  0  0  0  0  # atno 10765 bound_to 10752
  141.1334  133.8268  157.0879 H   0  0  0  0  0  0  0  0  0  0  0  0  # atno 11005 bound_to 11000
  145.0139  139.3485  143.6106 LP  0  0  0  0  0  0  0  0  0  0  0  0  # atno 17320 bound_to 7965
  146.3453  139.9413  142.8740 LP  0  0  0  0  0  0  0  0  0  0  0  0  # atno 17321 bound_to 7965
  139.6882  144.7649  151.1486 LP  0  0  0  0  0  0  0  0  0  0  0  0  # atno 17342 bound_to 10162
  140.7668  143.5627  150.9081 LP  0  0  0  0  0  0  0  0  0  0  0  0  # atno 17343 bound_to 10162
  157.5384  131.0940  150.9860 LP  0  0  0  0  0  0  0  0  0  0  0  0  # atno 17370 bound_to 10713
  157.0149  130.5651  149.5325 LP  0  0  0  0  0  0  0  0  0  0  0  0  # atno 17371 bound_to 10713
  140.0411  134.9854  157.0963 LP  0  0  0  0  0  0  0  0  0  0  0  0  # atno 17394 bound_to 11000
  140.4134  134.1957  155.7163 LP  0  0  0  0  0  0  0  0  0  0  0  0  # atno 17395 bound_to 11000

$$$$
