AV-unprocessed.smi:3291|AV-procd|sdf|12619|dock6
  -GOLD-   2272018553D 1   1.00000     0.00000
 Structure written by MMmdl.
 43 45  0  0  0  0  0  0  0  0  2 V2000
  150.8523  130.2858  157.3535 C   0  0  0  0  0  0  0  0  0  0  0  0
  150.6722  131.6615  156.7777 C   0  0  0  0  0  0  0  0  0  0  0  0
  151.3059  132.6830  157.3263 N   0  0  0  0  0  0  0  0  0  0  0  0
  150.9428  133.8040  156.5764 O   0  0  0  0  0  0  0  0  0  0  0  0
  150.0951  133.4108  155.5926 C   0  0  0  0  0  0  0  0  0  0  0  0
  149.6014  134.4901  154.6870 C   0  0  0  0  0  0  0  0  0  0  0  0
  149.8755  132.0588  155.6639 C   0  0  0  0  0  0  0  0  0  0  0  0
  149.0157  131.1642  154.7988 C   0  0  2  0  0  0  0  0  0  0  0  0
  149.8681  130.0351  154.1936 C   0  0  0  0  0  0  0  0  0  0  0  0
  148.2761  131.9787  153.7202 C   0  0  0  0  0  0  0  0  0  0  0  0
  147.8217  131.1244  152.6029 N   0  3  0  0  0  0  0  0  0  0  0  0
  146.3548  131.0303  152.4405 C   0  0  0  0  0  0  0  0  0  0  0  0
  146.0228  129.7467  151.7013 C   0  0  0  0  0  0  0  0  0  0  0  0
  145.9721  128.4195  152.4231 C   0  0  0  0  0  0  0  0  0  0  0  0
  147.0812  128.7008  151.4378 C   0  0  0  0  0  0  0  0  0  0  0  0
  145.8174  132.2415  151.6925 C   0  0  0  0  0  0  0  0  0  0  0  0
  144.4835  132.2027  150.9804 C   0  0  0  0  0  0  0  0  0  0  0  0
  145.7615  132.2633  150.1813 C   0  0  0  0  0  0  0  0  0  0  0  0
  151.2799  129.6083  156.6144 H   0  0  0  0  0  0  0  0  0  0  0  0
  149.8970  129.8693  157.6732 H   0  0  0  0  0  0  0  0  0  0  0  0
  151.5157  130.2918  158.2195 H   0  0  0  0  0  0  0  0  0  0  0  0
  149.5844  134.1571  153.6498 H   0  0  0  0  0  0  0  0  0  0  0  0
  150.2422  135.3706  154.7426 H   0  0  0  0  0  0  0  0  0  0  0  0
  148.5916  134.7934  154.9635 H   0  0  0  0  0  0  0  0  0  0  0  0
  148.2545  130.6912  155.4206 H   0  0  0  0  0  0  0  0  0  0  0  0
  150.3631  129.4592  154.9765 H   0  0  0  0  0  0  0  0  0  0  0  0
  150.6412  130.4240  153.5313 H   0  0  0  0  0  0  0  0  0  0  0  0
  149.2601  129.3382  153.6165 H   0  0  0  0  0  0  0  0  0  0  0  0
  147.4036  132.4650  154.1593 H   0  0  0  0  0  0  0  0  0  0  0  0
  148.9236  132.7653  153.3360 H   0  0  0  0  0  0  0  0  0  0  0  0
  148.2224  131.4665  151.7412 H   0  0  0  0  0  0  0  0  0  0  0  0
  145.8903  130.9849  153.4271 H   0  0  0  0  0  0  0  0  0  0  0  0
  145.2799  129.8763  150.9158 H   0  0  0  0  0  0  0  0  0  0  0  0
  146.2407  128.3958  153.4773 H   0  0  0  0  0  0  0  0  0  0  0  0
  145.1984  127.7155  152.1238 H   0  0  0  0  0  0  0  0  0  0  0  0
  147.0476  128.1810  150.4825 H   0  0  0  0  0  0  0  0  0  0  0  0
  148.0776  128.8710  151.8411 H   0  0  0  0  0  0  0  0  0  0  0  0
  146.0834  133.1904  152.1556 H   0  0  0  0  0  0  0  0  0  0  0  0
  143.9352  131.2626  150.9771 H   0  0  0  0  0  0  0  0  0  0  0  0
  143.8688  133.0998  151.0192 H   0  0  0  0  0  0  0  0  0  0  0  0
  146.0001  133.2012  149.6840 H   0  0  0  0  0  0  0  0  0  0  0  0
  146.0508  131.3639  149.6419 H   0  0  0  0  0  0  0  0  0  0  0  0
  148.1738  130.1930  152.7717 H   0  0  0  0  0  0  0  0  0  0  0  0
  1  2  1  0  0  0  0
  1 19  1  0  0  0  0
  1 20  1  0  0  0  0
  1 21  1  0  0  0  0
  2  7  1  0  0  0  0
  2  3  2  0  0  0  0
  3  4  1  0  0  0  0
  4  5  1  0  0  0  0
  5  6  1  0  0  0  0
  5  7  2  0  0  0  0
  6 22  1  0  0  0  0
  6 23  1  0  0  0  0
  6 24  1  0  0  0  0
  7  8  1  0  0  0  0
  8  9  1  0  0  0  0
  8 10  1  0  0  0  0
  8 25  1  0  0  0  0
  9 26  1  0  0  0  0
  9 27  1  0  0  0  0
  9 28  1  0  0  0  0
 10 11  1  0  0  0  0
 10 29  1  0  0  0  0
 10 30  1  0  0  0  0
 11 12  1  0  0  0  0
 11 31  1  0  0  0  0
 11 43  1  0  0  0  0
 12 13  1  0  0  0  0
 12 16  1  0  0  0  0
 12 32  1  0  0  0  0
 13 15  1  0  0  0  0
 13 14  1  0  0  0  0
 13 33  1  0  0  0  0
 14 15  1  0  0  0  0
 14 34  1  0  0  0  0
 14 35  1  0  0  0  0
 15 36  1  0  0  0  0
 15 37  1  0  0  0  0
 16 18  1  0  0  0  0
 16 17  1  0  0  0  0
 16 38  1  0  0  0  0
 17 18  1  0  0  0  0
 17 39  1  0  0  0  0
 17 40  1  0  0  0  0
 18 41  1  0  0  0  0
 18 42  1  0  0  0  0
M  CHG  1  11   1
M  END
> <s_m_source_file>
AV-unprocessed.smi

> <i_m_source_file_index>
3291

> <i_lp_mmshare_version>
43012

> <i_f3d_flags>
0

> <s_epik_input>
W0NIM11jMW5vYyhbQ0gzXSljMVtDQEhdKFtDSDNdKVtDSDJdW05IXVtDSF0oW0NIXTJbQ0gyXVtDSDJdMilbQ0hdM1tDSDJdW0NIMl0z

> <s_epik_cmdline>
J2VwaWtfcHl0aG9uJywgJy1waCcsICc3LjAnLCAnLXRuJywgJzgnLCAnLW1hJywgJzIwMCcsICctbWV0YWxfYmluZGluZycsICctaW1hZScsICc8aW5maWxlLm1hZT4nLCAnLW9tYWUnLCAnPG91dGZpbGUubWFlPic=

> <r_lp_tautomer_probability>
1

> <r_epik_Ionization_Penalty>
0.000158108

> <r_epik_Ionization_Penalty_Charging>
0.000158108

> <r_epik_Ionization_Penalty_Neutral>
1.14678e-10

> <r_epik_State_Penalty>
-0

> <r_epik_Charging_Adjusted_Penalty>
0.000158108

> <i_epik_Tot_Q>
1

> <i_epik_Tot_abs_Q>
1

> <r_epik_Metal_State_Penalty>
-0

> <b_epik_Metal_Only>
0

> <s_lp_Force_Field>
OPLS_2005

> <r_lp_Energy>
25.2548

> <b_lp_Chiralities_Consistent>
1

> <s_lp_Variant>
AV-unprocessed.smi:3291-1

> <Gold.Version>
5.8.1

> <Gold.Id.Protein>
6NUR|6NUR_protein|mol2

> <Gold.PLP.Fitness>
40.4140

> <Gold.PLP.PLP>
-36.7804

> <Gold.PLP.part.hbond>
-2.0000

> <Gold.PLP.part.metal>
0.0000

> <Gold.PLP.part.buried>
-3.8725

> <Gold.PLP.part.nonpolar>
-31.4545

> <Gold.PLP.part.repulsive>
0.0132

> <Gold.PLP.ligand.clash>
0.0111

> <Gold.PLP.ligand.torsion>
2.2701

> <Gold.PLP.Chemscore.Hbond>
1.9840

> <Gold.PLP.Chemscore.CHOScore>
0.0000

> <Gold.PLP.Chemscore.Metal>
0.0000

> <Gold.Chemscore.Hbonds>
donor molecule, donor type, donor heavy atom, donor atom, acceptor molecule, acceptor atom, score
      L1  H    11    31       P1 10747  0.80
      P1  H  6896  6907       L1     3  1.00

> <Gold.PLP.Chemscore.Internal.Correction>
2.2329

> <Gold.Rescore>
     Score         DG    S(hbond)    S(metal)    S(lipo)     H(rot)  DE(clash)    DE(int)     intcor
     17.04     -20.02       1.89        0.00     103.27       1.50       0.02       2.95       ----

> <Gold.Chemscore.Fitness>
17.0440

> <Gold.Chemscore.DG>
-20.0227

> <Gold.Chemscore.ZeroCoef>
-5.4800

> <Gold.Chemscore.Hbond>
1.8874

> <Gold.Chemscore.Metal>
0.0000

> <Gold.Chemscore.Lipo>
103.2707

> <Gold.Chemscore.Internal_Hbond>
0.0000

> <Gold.Chemscore.DEClash>
0.0247

> <Gold.Chemscore.DEInternal>
2.9541

> <Gold.Chemscore.Rot>
1.5015

> <Gold.Chemscore.Internal.Correction>
   9.000000E+99

> <Gold.Chemscore.Hbonds>
donor molecule, donor type, donor heavy atom, donor atom, acceptor molecule, acceptor atom, score
      L1  H    11    31       P1 10747  0.80
      P1  H  6896  6907       L1     3  0.37

> <Gold.Chemscore.Hbond.Weighted>
-6.3039

> <Gold.Chemscore.Metal.Weighted>
-0.0000

> <Gold.Chemscore.Lipo.Weighted>
-12.0827

> <Gold.Chemscore.Internal_Hbond.Weighted>
0.0000

> <Gold.Chemscore.DEClash.Weighted>
0.0247

> <Gold.Chemscore.DEInternal.Weighted>
2.9541

> <Gold.Chemscore.Rot.Weighted>
3.8438

> <Gold.Chemscore.Internal.Correction.Weighted>
   9.000000E+99

> <Gold.Protein.RotatedTorsions>
[ 6907 6896 6895 6894 ] final -158.51 input  -60.11 | X-H torsion
[ 7974 7965 7964 7962 ] final -132.66 input  175.53 | X-H torsion
[ 8008 7997 7996 7995 ] final  -87.16 input   59.86 | X-H torsion
[ 10167 10162 10161 10158 ] final  -73.84 input  -65.29 | X-H torsion
[ 10718 10713 10712 10709 ] final  -69.82 input   66.30 | X-H torsion
[ 10763 10752 10751 10750 ] final -177.92 input  -60.55 | X-H torsion
[ 11005 11000 10999 10996 ] final  160.11 input  -57.11 | X-H torsion

> <Gold.Protein.ActiveResidues>
 VAL166  LYS551  ARG553  GLY616  TRP617  ASP618  TYR619  PRO620  LYS621  CYS622 
 ASP623  PHE694  ASN695  SER759  ASP760  ASP761  ALA762  ILE779  LEU786  VAL792 
 PHE793  MET794  SER795  GLU796  ALA797  LYS798  CYS799  TRP800  GLU811  SER814 

> <Gold.Protein.RotatedAtoms>
  151.3193  133.4047  159.2652 H   0  0  0  0  0  0  0  0  0  0  0  0  # atno 6907 bound_to 6896
  151.0048  134.9351  159.7984 H   0  0  0  0  0  0  0  0  0  0  0  0  # atno 6908 bound_to 6896
  152.5285  134.3158  159.9182 H   0  0  0  0  0  0  0  0  0  0  0  0  # atno 6909 bound_to 6896
  144.9265  140.7077  143.4932 H   0  0  0  0  0  0  0  0  0  0  0  0  # atno 7974 bound_to 7965
  154.6601  140.0569  157.0052 H   0  0  0  0  0  0  0  0  0  0  0  0  # atno 8008 bound_to 7997
  155.1242  140.3250  155.4471 H   0  0  0  0  0  0  0  0  0  0  0  0  # atno 8009 bound_to 7997
  156.2614  140.1992  156.6363 H   0  0  0  0  0  0  0  0  0  0  0  0  # atno 8010 bound_to 7997
  140.5077  143.2350  151.7646 H   0  0  0  0  0  0  0  0  0  0  0  0  # atno 10167 bound_to 10162
  156.0437  130.4320  150.2204 H   0  0  0  0  0  0  0  0  0  0  0  0  # atno 10718 bound_to 10713
  154.5541  135.2815  155.0981 H   0  0  0  0  0  0  0  0  0  0  0  0  # atno 10763 bound_to 10752
  154.2415  135.6356  153.5212 H   0  0  0  0  0  0  0  0  0  0  0  0  # atno 10764 bound_to 10752
  153.0011  135.5561  154.6116 H   0  0  0  0  0  0  0  0  0  0  0  0  # atno 10765 bound_to 10752
  140.2027  134.8326  157.3035 H   0  0  0  0  0  0  0  0  0  0  0  0  # atno 11005 bound_to 11000
  145.3211  139.1788  143.4587 LP  0  0  0  0  0  0  0  0  0  0  0  0  # atno 17320 bound_to 7965
  146.3228  140.3228  142.8634 LP  0  0  0  0  0  0  0  0  0  0  0  0  # atno 17321 bound_to 7965
  139.4888  144.4434  151.9738 LP  0  0  0  0  0  0  0  0  0  0  0  0  # atno 17342 bound_to 10162
  140.3525  144.3071  150.5947 LP  0  0  0  0  0  0  0  0  0  0  0  0  # atno 17343 bound_to 10162
  157.0297  131.0003  151.3316 LP  0  0  0  0  0  0  0  0  0  0  0  0  # atno 17370 bound_to 10713
  157.5286  130.8044  149.7891 LP  0  0  0  0  0  0  0  0  0  0  0  0  # atno 17371 bound_to 10713
  140.2037  134.4224  155.7649 LP  0  0  0  0  0  0  0  0  0  0  0  0  # atno 17394 bound_to 11000
  141.2227  133.7084  156.8225 LP  0  0  0  0  0  0  0  0  0  0  0  0  # atno 17395 bound_to 11000

$$$$
