#       Name:                AV-unprocessed.smi:2154
#       Creating user name   scv26
#       Creation time:       Fri Mar 27 11:55:12 2020


#       File generated by GOLD software.
#

@<TRIPOS>MOLECULE
AV-unprocessed.smi:2154
    38    39     1
SMALL
NO_CHARGES


@<TRIPOS>ATOM
      1 ****        -5.0749   0.6904   0.4125 C.3            1 S1                 0.0000
      2 ****        -4.1990  -0.5438   0.4162 C.3            1 S1                 0.0000
      3 ****        -3.4717  -0.9670   1.6716 C.3            1 S1                 0.0000
      4 ****        -2.6936  -0.4228   0.4964 C.3            1 S1                 0.0000
      5 ****        -1.8059  -1.3267  -0.3383 C.3            1 S1                 0.0000
      6 ****        -0.4141  -1.3886   0.0892 N.am           1 S1                 0.0000
      7 ****         0.5021  -0.4337  -0.1311 C.2            1 S1                 0.0000
      8 ****         0.2495   0.6180  -0.7213 O.2            1 S1                 0.0000
      9 ****         1.9088  -0.7102   0.4198 C.3            1 S1                 0.0000
     10 ****         2.9427   0.1522  -0.1715 N.am           1 S1                 0.0000
     11 ****         3.3697   1.2917   0.4959 C.2            1 S1                 0.0000
     12 ****         4.3076   2.1361   0.0052 C.2            1 S1                 0.0000
     13 ****         4.9302   1.8772  -1.2887 C.2            1 S1                 0.0000
     14 ****         5.7885   2.5811  -1.8162 O.2            1 S1                 0.0000
     15 ****         4.4726   0.7232  -1.9306 N.am           1 S1                 0.0000
     16 ****         3.5053  -0.1505  -1.4310 C.2            1 S1                 0.0000
     17 ****         3.1705  -1.1396  -2.0818 O.2            1 S1                 0.0000
     18 ****         4.8725   0.5048  -2.8316 H              1 S1                 0.0000
     19 ****        -4.6523   1.4682   1.0494 H              1 S1                 0.0000
     20 ****        -6.0709   0.4433   0.7800 H              1 S1                 0.0000
     21 ****        -5.1646   1.0815  -0.6011 H              1 S1                 0.0000
     22 ****        -4.5836  -1.3517  -0.2038 H              1 S1                 0.0000
     23 ****        -3.5598  -0.3307   2.5501 H              1 S1                 0.0000
     24 ****        -3.4045  -2.0337   1.8758 H              1 S1                 0.0000
     25 ****        -2.3109   0.5908   0.6020 H              1 S1                 0.0000
     26 ****        -2.2099  -2.3394  -0.3227 H              1 S1                 0.0000
     27 ****        -1.8524  -0.9974  -1.3775 H              1 S1                 0.0000
     28 ****        -0.1256  -2.2187   0.5867 H              1 S1                 0.0000
     29 ****         1.8810  -0.5771   1.5023 H              1 S1                 0.0000
     30 ****         2.1629  -1.7610   0.2659 H              1 S1                 0.0000
     31 ****         2.9326   1.5261   1.4562 H              1 S1                 0.0000
     32 ****         4.5980   3.0087   0.5724 H              1 S1                 0.0000
     33 ****        -0.6748   0.7908  -1.0615 LP             1 S1                 0.0000
     34 ****         0.9688   1.2987  -0.8601 LP             1 S1                 0.0000
     35 ****         6.1125   3.4060  -1.3531 LP             1 S1                 0.0000
     36 ****         6.1628   2.3289  -2.7085 LP             1 S1                 0.0000
     37 ****         2.4764  -1.7633  -1.7222 LP             1 S1                 0.0000
     38 ****         3.5924  -1.3198  -2.9703 LP             1 S1                 0.0000
@<TRIPOS>BOND
    1    1    2 1     
    2    1   19 1     
    3    1   20 1     
    4    1   21 1     
    5    2    4 1     
    6    2    3 1     
    7    2   22 1     
    8    3    4 1     
    9    3   23 1     
   10    3   24 1     
   11    4    5 1     
   12    4   25 1     
   13    5    6 1     
   14    5   26 1     
   15    5   27 1     
   16    6    7 am    
   17    6   28 1     
   18    7    8 2     
   19    7    9 1     
   20    9   10 1     
   21    9   29 1     
   22    9   30 1     
   23   10   16 1     
   24   10   11 1     
   25   11   12 2     
   26   11   31 1     
   27   12   13 1     
   28   12   32 1     
   29   13   14 2     
   30   13   15 1     
   31   15   18 1     
   32   15   16 1     
   33   16   17 2     
   34    8   33 1     
   35    8   34 1     
   36   14   35 1     
   37   14   36 1     
   38   17   37 1     
   39   17   38 1     
@<TRIPOS>SUBSTRUCTURE
      1 S1             1
@<TRIPOS>SET
LONE_PAIRS      STATIC     ATOMS    <user>   **** ""
6 33 34 35 36 37 38
DONOR_HYDROGENS      STATIC     ATOMS    <user>   **** ""
2 28 18
ATOM$BLUE        STATIC     ATOMS    COLORGROUP SYSTEM
6 33 34 35 36 37 38
ATOM$RED        STATIC     ATOMS    COLORGROUP SYSTEM
2 28 18
