#       Name:                AV-unprocessed.smi:2013
#       Creating user name   scv26
#       Creation time:       Fri Mar 27 10:40:28 2020


#       File generated by GOLD software.
#

@<TRIPOS>MOLECULE
AV-unprocessed.smi:2013
    59    60     1
SMALL
NO_CHARGES


@<TRIPOS>ATOM
      1 ****        -3.8633   1.3556  -1.3608 C.3            1 S1                 0.0000
      2 ****        -2.4105   1.1052  -0.9199 C.3            1 S1                 0.0000
      3 ****        -1.4314   2.0290  -1.6747 C.3            1 S1                 0.0000
      4 ****        -2.0484  -0.4150  -0.8737 C.3            1 S1                 0.0000
      5 ****        -0.5700  -0.6933  -0.4909 C.3            1 S1                 0.0000
      6 ****        -0.1910  -0.0059   0.7374 N.am           1 S1                 0.0000
      7 ****         0.9977  -0.1300   1.3427 C.2            1 S1                 0.0000
      8 ****         1.8921  -0.8665   0.9242 O.2            1 S1                 0.0000
      9 ****         1.1854   0.7009   2.6198 C.3            1 S1                 0.0000
     10 ****         2.5704   0.7220   3.1087 N.am           1 S1                 0.0000
     11 ****         2.9487  -0.1364   4.1245 C.2            1 S1                 0.0000
     12 ****         4.2026  -0.1937   4.6234 C.2            1 S1                 0.0000
     13 ****         5.2541   0.6732   4.1059 C.2            1 S1                 0.0000
     14 ****         6.4151   0.6395   4.5156 O.2            1 S1                 0.0000
     15 ****         4.8370   1.5535   3.0790 N.am           1 S1                 0.0000
     16 ****         5.8256   2.4342   2.4918 C.3            1 S1                 0.0000
     17 ****         3.5277   1.5954   2.5485 C.2            1 S1                 0.0000
     18 ****         3.2191   2.3543   1.6262 O.2            1 S1                 0.0000
     19 ****        -2.5563  -1.2130  -2.0081 N.3            1 S1                 0.0000
     20 ****        -2.6546  -2.6408  -1.7103 C.3            1 S1                 0.0000
     21 ****        -3.3167  -3.4191  -2.8591 C.3            1 S1                 0.0000
     22 ****        -2.5830  -3.2040  -4.0599 O.3            1 S1                 0.0000
     23 ****        -2.5052  -1.8275  -4.4147 C.3            1 S1                 0.0000
     24 ****        -1.8506  -1.0274  -3.2745 C.3            1 S1                 0.0000
     25 ****        -4.0096   1.1161  -2.4144 H              1 S1                 0.0000
     26 ****        -4.1401   2.4008  -1.2211 H              1 S1                 0.0000
     27 ****        -4.5609   0.7514  -0.7800 H              1 S1                 0.0000
     28 ****        -2.3678   1.4452   0.1157 H              1 S1                 0.0000
     29 ****        -1.4444   1.8752  -2.7507 H              1 S1                 0.0000
     30 ****        -0.4046   1.9125  -1.3302 H              1 S1                 0.0000
     31 ****        -1.6973   3.0734  -1.5091 H              1 S1                 0.0000
     32 ****        -2.6182  -0.7672  -0.0120 H              1 S1                 0.0000
     33 ****        -0.4052  -1.7601  -0.3402 H              1 S1                 0.0000
     34 ****         0.1039  -0.3845  -1.2904 H              1 S1                 0.0000
     35 ****        -0.8747   0.6147   1.1462 H              1 S1                 0.0000
     36 ****         0.8357   1.7193   2.4422 H              1 S1                 0.0000
     37 ****         0.5282   0.2951   3.3902 H              1 S1                 0.0000
     38 ****         2.2059  -0.8024   4.5393 H              1 S1                 0.0000
     39 ****         4.4319  -0.8930   5.4139 H              1 S1                 0.0000
     40 ****         5.3492   3.3777   2.2210 H              1 S1                 0.0000
     41 ****         6.2248   1.9216   1.6155 H              1 S1                 0.0000
     42 ****         6.6103   2.6509   3.2176 H              1 S1                 0.0000
     43 ****        -1.6648  -3.0615  -1.5346 H              1 S1                 0.0000
     44 ****        -3.2289  -2.7934  -0.7960 H              1 S1                 0.0000
     45 ****        -3.3308  -4.4860  -2.6360 H              1 S1                 0.0000
     46 ****        -4.3531  -3.1051  -2.9936 H              1 S1                 0.0000
     47 ****        -1.9227  -1.7275  -5.3304 H              1 S1                 0.0000
     48 ****        -3.5043  -1.4448  -4.6280 H              1 S1                 0.0000
     49 ****        -1.8480   0.0192  -3.5615 H              1 S1                 0.0000
     50 ****        -0.8096  -1.3357  -3.1746 H              1 S1                 0.0000
     51 ****         1.7478  -1.4072   0.0955 LP             1 S1                 0.0000
     52 ****         2.7625  -0.9237   1.4132 LP             1 S1                 0.0000
     53 ****         6.6725  -0.0042   5.2363 LP             1 S1                 0.0000
     54 ****         7.1004   1.2558   4.1275 LP             1 S1                 0.0000
     55 ****         2.2848   2.3539   1.2698 LP             1 S1                 0.0000
     56 ****         3.9033   2.9698   1.2350 LP             1 S1                 0.0000
     57 ****        -3.4748  -0.8388  -2.1354 LP             1 S1                 0.0000
     58 ****        -3.0313  -3.7014  -4.8026 LP             1 S1                 0.0000
     59 ****        -1.6551  -3.5557  -3.9357 LP             1 S1                 0.0000
@<TRIPOS>BOND
    1    1    2 1     
    2    1   25 1     
    3    1   26 1     
    4    1   27 1     
    5    2    3 1     
    6    2    4 1     
    7    2   28 1     
    8    3   29 1     
    9    3   30 1     
   10    3   31 1     
   11    4    5 1     
   12    4   19 1     
   13    4   32 1     
   14    5    6 1     
   15    5   33 1     
   16    5   34 1     
   17    6    7 am    
   18    6   35 1     
   19    7    8 2     
   20    7    9 1     
   21    9   10 1     
   22    9   36 1     
   23    9   37 1     
   24   10   17 am    
   25   10   11 1     
   26   11   12 2     
   27   11   38 1     
   28   12   13 1     
   29   12   39 1     
   30   13   14 2     
   31   13   15 am    
   32   15   16 1     
   33   15   17 am    
   34   16   40 1     
   35   16   41 1     
   36   16   42 1     
   37   17   18 2     
   38   19   24 1     
   39   19   20 1     
   40   20   21 1     
   41   20   43 1     
   42   20   44 1     
   43   21   22 1     
   44   21   45 1     
   45   21   46 1     
   46   22   23 1     
   47   23   24 1     
   48   23   47 1     
   49   23   48 1     
   50   24   49 1     
   51   24   50 1     
   52    8   51 1     
   53    8   52 1     
   54   14   53 1     
   55   14   54 1     
   56   18   55 1     
   57   18   56 1     
   58   19   57 1     
   59   22   58 1     
   60   22   59 1     
@<TRIPOS>SUBSTRUCTURE
      1 S1             1
@<TRIPOS>SET
LONE_PAIRS      STATIC     ATOMS    <user>   **** ""
9 51 52 53 54 55 56 57 58 59
DONOR_HYDROGENS      STATIC     ATOMS    <user>   **** ""
1 35
ATOM$BLUE        STATIC     ATOMS    COLORGROUP SYSTEM
9 51 52 53 54 55 56 57 58 59
ATOM$RED        STATIC     ATOMS    COLORGROUP SYSTEM
1 35
