#       Name:                AV-unprocessed.smi:1396
#       Creating user name   scv26
#       Creation time:       Fri Mar 27 05:30:17 2020


#       File generated by GOLD software.
#

@<TRIPOS>MOLECULE
AV-unprocessed.smi:1396
    54    55     1
SMALL
NO_CHARGES


@<TRIPOS>ATOM
      1 ****        -3.1960  -5.6488  -1.9876 C.3            1 S1                 0.0000
      2 ****        -2.5129  -4.9203  -0.9254 N.pl3          1 S1                -1.0000
      3 ****        -3.1444  -4.4265   0.1733 C.2            1 S1                 0.0000
      4 ****        -4.3326  -4.4718   0.5090 O.2            1 S1                 0.0000
      5 ****        -2.1622  -3.6848   1.0874 C.3            1 S1                 0.0000
      6 ****        -2.4396  -2.2265   1.0673 N.4            1 S1                 1.0000
      7 ****        -1.9394  -1.5504  -0.1609 C.3            1 S1                 0.0000
      8 ****        -2.3541  -0.0690  -0.1910 C.3            1 S1                 0.0000
      9 ****        -1.8917   0.6864   1.0706 C.3            1 S1                 0.0000
     10 ****        -0.4395   0.8592   1.1011 N.am           1 S1                 0.0000
     11 ****         0.2494   1.7670   0.3947 C.2            1 S1                 0.0000
     12 ****        -0.2781   2.5745  -0.3695 O.2            1 S1                 0.0000
     13 ****         1.5662   1.6841   0.6505 N.am           1 S1                 0.0000
     14 ****         2.6265   2.4238   0.0608 C.ar           1 S1                 0.0000
     15 ****         3.8484   2.5053   0.7586 C.ar           1 S1                 0.0000
     16 ****         4.9229   3.2092   0.1828 C.ar           1 S1                 0.0000
     17 ****         4.7449   3.8033  -1.0823 C.ar           1 S1                 0.0000
     18 ****         5.8022   4.4884  -1.6449 O.3            1 S1                 0.0000
     19 ****         5.6212   5.0725  -2.9303 C.3            1 S1                 0.0000
     20 ****         3.5778   3.7206  -1.7674 N.ar           1 S1                 0.0000
     21 ****         2.5500   3.0469  -1.2088 C.ar           1 S1                 0.0000
     22 ****        -2.3700  -0.0663   2.3236 C.3            1 S1                 0.0000
     23 ****        -1.9588  -1.5499   2.2989 C.3            1 S1                 0.0000
     24 ****        -2.5248  -5.8842  -2.8133 H              1 S1                 0.0000
     25 ****        -4.0235  -5.0825  -2.4157 H              1 S1                 0.0000
     26 ****        -3.6074  -6.5977  -1.6427 H              1 S1                 0.0000
     27 ****        -2.3108  -4.0777   2.0944 H              1 S1                 0.0000
     28 ****        -1.1175  -3.8787   0.8336 H              1 S1                 0.0000
     29 ****        -0.8532  -1.6402  -0.2116 H              1 S1                 0.0000
     30 ****        -2.3343  -2.0411  -1.0506 H              1 S1                 0.0000
     31 ****        -1.9663   0.4092  -1.0911 H              1 S1                 0.0000
     32 ****        -3.4407  -0.0075  -0.2651 H              1 S1                 0.0000
     33 ****        -2.3484   1.6778   1.0756 H              1 S1                 0.0000
     34 ****         0.0794   0.2431   1.7097 H              1 S1                 0.0000
     35 ****         1.8401   1.0387   1.3767 H              1 S1                 0.0000
     36 ****         3.9644   2.0376   1.7254 H              1 S1                 0.0000
     37 ****         5.8677   3.2894   0.7002 H              1 S1                 0.0000
     38 ****         6.5418   5.5717  -3.2323 H              1 S1                 0.0000
     39 ****         4.8270   5.8205  -2.9210 H              1 S1                 0.0000
     40 ****         5.3929   4.3167  -3.6832 H              1 S1                 0.0000
     41 ****         1.6615   2.9948  -1.8183 H              1 S1                 0.0000
     42 ****        -1.9857   0.4146   3.2240 H              1 S1                 0.0000
     43 ****        -3.4572  -0.0006   2.3866 H              1 S1                 0.0000
     44 ****        -2.3738  -2.0471   3.1763 H              1 S1                 0.0000
     45 ****        -0.8740  -1.6456   2.3657 H              1 S1                 0.0000
     46 ****        -3.4458  -2.1374   1.0646 H              1 S1                 0.0000
     47 ****        -1.5270  -4.7759  -1.0091 LP             1 S1                 0.0000
     48 ****        -5.0002  -4.9325  -0.0758 LP             1 S1                 0.0000
     49 ****        -4.6267  -4.0478   1.3656 LP             1 S1                 0.0000
     50 ****        -1.2710   2.5753  -0.4884 LP             1 S1                 0.0000
     51 ****         0.2861   3.2299  -0.8715 LP             1 S1                 0.0000
     52 ****         6.5660   3.8470  -1.7162 LP             1 S1                 0.0000
     53 ****         6.0446   5.2269  -1.0157 LP             1 S1                 0.0000
     54 ****         3.4806   4.1488  -2.6658 LP             1 S1                 0.0000
@<TRIPOS>BOND
    1    1    2 1     
    2    1   24 1     
    3    1   25 1     
    4    1   26 1     
    5    2    3 1     
    6    3    4 2     
    7    3    5 1     
    8    5    6 1     
    9    5   27 1     
   10    5   28 1     
   11    6   23 1     
   12    6    7 1     
   13    6   46 1     
   14    7    8 1     
   15    7   29 1     
   16    7   30 1     
   17    8    9 1     
   18    8   31 1     
   19    8   32 1     
   20    9   10 1     
   21    9   22 1     
   22    9   33 1     
   23   10   11 am    
   24   10   34 1     
   25   11   12 2     
   26   11   13 am    
   27   13   14 1     
   28   13   35 1     
   29   14   21 ar    
   30   14   15 ar    
   31   15   16 ar    
   32   15   36 1     
   33   16   17 ar    
   34   16   37 1     
   35   17   18 1     
   36   17   20 ar    
   37   18   19 1     
   38   19   38 1     
   39   19   39 1     
   40   19   40 1     
   41   20   21 ar    
   42   21   41 1     
   43   22   23 1     
   44   22   42 1     
   45   22   43 1     
   46   23   44 1     
   47   23   45 1     
   48    2   47 1     
   49    4   48 1     
   50    4   49 1     
   51   12   50 1     
   52   12   51 1     
   53   18   52 1     
   54   18   53 1     
   55   20   54 1     
@<TRIPOS>SUBSTRUCTURE
      1 S1             1
@<TRIPOS>SET
LONE_PAIRS      STATIC     ATOMS    <user>   **** ""
8 47 48 49 50 51 52 53 54
DONOR_HYDROGENS      STATIC     ATOMS    <user>   **** ""
3 46 34 35
ATOM$BLUE        STATIC     ATOMS    COLORGROUP SYSTEM
8 47 48 49 50 51 52 53 54
ATOM$RED        STATIC     ATOMS    COLORGROUP SYSTEM
3 46 34 35
