AV-unprocessed.smi:2030|AV-procd|sdf|8226|dock5
  -GOLD-   2272010493D 1   1.00000     0.00000
 Structure written by MMmdl.
 34 35  0  0  0  0  0  0  0  0  2 V2000
  150.8903  141.5436  156.4151 C   0  0  0  0  0  0  0  0  0  0  0  0
  151.4194  140.1819  156.4486 N   0  0  0  0  0  0  0  0  0  0  0  0
  152.0044  139.8197  157.6437 N   0  0  0  0  0  0  0  0  0  0  0  0
  152.7134  138.7414  157.7714 C   0  0  0  0  0  0  0  0  0  0  0  0
  153.3382  138.4215  159.0902 C   0  0  0  0  0  0  0  0  0  0  0  0
  153.8768  137.3101  159.1647 O   0  0  0  0  0  0  0  0  0  0  0  0
  153.2752  139.3553  160.0856 N   0  5  0  0  0  0  0  0  0  0  0  0
  153.8743  140.6892  160.0329 C   0  0  0  0  0  0  0  0  0  0  0  0
  153.1780  141.6416  161.0336 C   0  0  0  0  0  0  0  0  0  0  0  0
  152.6118  142.9257  160.4298 C   0  0  0  0  0  0  0  0  0  0  0  0
  151.9385  143.8666  161.2424 C   0  0  0  0  0  0  0  0  0  0  0  0
  151.4394  145.0400  160.6455 C   0  0  0  0  0  0  0  0  0  0  0  0
  151.6336  145.2349  159.2648 C   0  0  0  0  0  0  0  0  0  0  0  0
  152.3243  144.2439  158.5399 C   0  0  0  0  0  0  0  0  0  0  0  0
  152.8109  143.1179  159.1027 N   0  0  0  0  0  0  0  0  0  0  0  0
  152.9379  137.8290  156.5780 C   0  0  0  0  0  0  0  0  0  0  0  0
  151.7997  137.9313  155.5434 C   0  0  0  0  0  0  0  0  0  0  0  0
  151.2965  139.3668  155.3726 C   0  0  0  0  0  0  0  0  0  0  0  0
  150.7895  139.7134  154.3054 O   0  0  0  0  0  0  0  0  0  0  0  0
  151.3948  142.1312  155.6472 H   0  0  0  0  0  0  0  0  0  0  0  0
  151.0265  142.0589  157.3673 H   0  0  0  0  0  0  0  0  0  0  0  0
  149.8217  141.5370  156.1956 H   0  0  0  0  0  0  0  0  0  0  0  0
  154.9442  140.6675  160.2453 H   0  0  0  0  0  0  0  0  0  0  0  0
  153.7813  141.1167  159.0338 H   0  0  0  0  0  0  0  0  0  0  0  0
  152.3565  141.1074  161.5121 H   0  0  0  0  0  0  0  0  0  0  0  0
  153.8670  141.8991  161.8397 H   0  0  0  0  0  0  0  0  0  0  0  0
  151.8023  143.6882  162.2989 H   0  0  0  0  0  0  0  0  0  0  0  0
  150.9168  145.7774  161.2365 H   0  0  0  0  0  0  0  0  0  0  0  0
  151.2629  146.1219  158.7733 H   0  0  0  0  0  0  0  0  0  0  0  0
  152.4936  144.3606  157.4796 H   0  0  0  0  0  0  0  0  0  0  0  0
  153.8905  138.0791  156.1103 H   0  0  0  0  0  0  0  0  0  0  0  0
  153.0135  136.7878  156.8935 H   0  0  0  0  0  0  0  0  0  0  0  0
  152.1231  137.5291  154.5827 H   0  0  0  0  0  0  0  0  0  0  0  0
  150.9534  137.3255  155.8693 H   0  0  0  0  0  0  0  0  0  0  0  0
  1  2  1  0  0  0  0
  1 20  1  0  0  0  0
  1 21  1  0  0  0  0
  1 22  1  0  0  0  0
  2 18  1  0  0  0  0
  2  3  1  0  0  0  0
  3  4  2  0  0  0  0
  4  5  1  0  0  0  0
  4 16  1  0  0  0  0
  5  6  2  0  0  0  0
  5  7  1  0  0  0  0
  7  8  1  0  0  0  0
  8  9  1  0  0  0  0
  8 23  1  0  0  0  0
  8 24  1  0  0  0  0
  9 10  1  0  0  0  0
  9 25  1  0  0  0  0
  9 26  1  0  0  0  0
 10 15  1  0  0  0  0
 10 11  2  0  0  0  0
 11 12  1  0  0  0  0
 11 27  1  0  0  0  0
 12 13  2  0  0  0  0
 12 28  1  0  0  0  0
 13 14  1  0  0  0  0
 13 29  1  0  0  0  0
 14 15  2  0  0  0  0
 14 30  1  0  0  0  0
 16 17  1  0  0  0  0
 16 31  1  0  0  0  0
 16 32  1  0  0  0  0
 17 18  1  0  0  0  0
 17 33  1  0  0  0  0
 17 34  1  0  0  0  0
 18 19  2  0  0  0  0
M  CHG  1   7  -1
M  END
> <s_m_source_file>
AV-unprocessed.smi

> <i_m_source_file_index>
2030

> <i_lp_mmshare_version>
43012

> <i_f3d_flags>
0

> <s_epik_input>
Tz1DMVtDSDJdW0NIMl1DKD1OTjFbQ0gzXSlDKD1PKVtOSF1bQ0gyXVtDSDJdYzJbY0hdW2NIXVtjSF1bY0hdbjI=

> <s_epik_cmdline>
J2VwaWtfcHl0aG9uJywgJy1waCcsICc3LjAnLCAnLXRuJywgJzgnLCAnLW1hJywgJzIwMCcsICctbWV0YWxfYmluZGluZycsICctaW1hZScsICc8aW5maWxlLm1hZT4nLCAnLW9tYWUnLCAnPG91dGZpbGUubWFlPic=

> <r_epik_Ionization_Penalty>
5.44594

> <r_epik_Ionization_Penalty_Charging>
5.3715

> <r_epik_Ionization_Penalty_Neutral>
0.0744438

> <r_epik_State_Penalty>
5.38529

> <r_epik_Charging_Adjusted_Penalty>
10.7568

> <i_epik_Tot_Q>
-1

> <i_epik_Tot_abs_Q>
1

> <r_epik_Metal_State_Penalty>
1.42988

> <b_epik_Metal_Only>
1

> <s_epik_Chemistry_Notes>
This compound has an imine and may undergo hydrolysis.

> <s_lp_Force_Field>
OPLS_2005

> <r_lp_Energy>
26.3213

> <b_lp_Chiralities_Consistent>
1

> <s_lp_Variant>
AV-unprocessed.smi:2030-3

> <Gold.Version>
5.8.1

> <Gold.Id.Protein>
6NUR|6NUR_protein|mol2

> <Gold.PLP.Fitness>
44.5742

> <Gold.PLP.PLP>
-43.8461

> <Gold.PLP.part.hbond>
-1.0000

> <Gold.PLP.part.metal>
0.0000

> <Gold.PLP.part.buried>
-5.9422

> <Gold.PLP.part.nonpolar>
-37.7049

> <Gold.PLP.part.repulsive>
0.1475

> <Gold.PLP.ligand.clash>
0.0000

> <Gold.PLP.ligand.torsion>
1.1512

> <Gold.PLP.Chemscore.Hbond>
1.0000

> <Gold.PLP.Chemscore.CHOScore>
0.0000

> <Gold.PLP.Chemscore.Metal>
0.0000

> <Gold.Chemscore.Hbonds>
donor molecule, donor type, donor heavy atom, donor atom, acceptor molecule, acceptor atom, score
      P1  H  7989  7998       L1    19  1.00

> <Gold.PLP.Chemscore.Internal.Correction>
0.0304

> <Gold.Rescore>
     Score         DG    S(hbond)    S(metal)    S(lipo)     H(rot)  DE(clash)    DE(int)     intcor
     16.57     -17.78       0.98        0.00     108.23       1.42       0.02       1.19       ----

> <Gold.Chemscore.Fitness>
16.5723

> <Gold.Chemscore.DG>
-17.7778

> <Gold.Chemscore.ZeroCoef>
-5.4800

> <Gold.Chemscore.Hbond>
0.9774

> <Gold.Chemscore.Metal>
0.0000

> <Gold.Chemscore.Lipo>
108.2299

> <Gold.Chemscore.Internal_Hbond>
0.0000

> <Gold.Chemscore.DEClash>
0.0174

> <Gold.Chemscore.DEInternal>
1.1881

> <Gold.Chemscore.Rot>
1.4178

> <Gold.Chemscore.Internal.Correction>
   9.000000E+99

> <Gold.Chemscore.Hbonds>
donor molecule, donor type, donor heavy atom, donor atom, acceptor molecule, acceptor atom, score
      P1  H  7989  7998       L1    19  0.90

> <Gold.Chemscore.Hbond.Weighted>
-3.2644

> <Gold.Chemscore.Metal.Weighted>
-0.0000

> <Gold.Chemscore.Lipo.Weighted>
-12.6629

> <Gold.Chemscore.Internal_Hbond.Weighted>
0.0000

> <Gold.Chemscore.DEClash.Weighted>
0.0174

> <Gold.Chemscore.DEInternal.Weighted>
1.1881

> <Gold.Chemscore.Rot.Weighted>
3.6295

> <Gold.Chemscore.Internal.Correction.Weighted>
   9.000000E+99

> <Gold.Protein.RotatedTorsions>
[ 6907 6896 6895 6894 ] final  140.15 input  -60.11 | X-H torsion
[ 7974 7965 7964 7962 ] final -114.77 input  175.53 | X-H torsion
[ 8008 7997 7996 7995 ] final -172.53 input   59.86 | X-H torsion
[ 10167 10162 10161 10158 ] final   67.51 input  -65.29 | X-H torsion
[ 10718 10713 10712 10709 ] final -151.69 input   66.30 | X-H torsion
[ 10763 10752 10751 10750 ] final   31.41 input  -60.55 | X-H torsion
[ 11005 11000 10999 10996 ] final  -35.22 input  -57.11 | X-H torsion

> <Gold.Protein.ActiveResidues>
 VAL166  LYS551  ARG553  GLY616  TRP617  ASP618  TYR619  PRO620  LYS621  CYS622 
 ASP623  PHE694  ASN695  SER759  ASP760  ASP761  ALA762  ILE779  LEU786  VAL792 
 PHE793  MET794  SER795  GLU796  ALA797  LYS798  CYS799  TRP800  GLU811  SER814 

> <Gold.Protein.RotatedAtoms>
  152.2465  133.5179  159.5299 H   0  0  0  0  0  0  0  0  0  0  0  0  # atno 6907 bound_to 6896
  150.7080  134.1018  159.3977 H   0  0  0  0  0  0  0  0  0  0  0  0  # atno 6908 bound_to 6896
  151.8939  135.0405  160.0551 H   0  0  0  0  0  0  0  0  0  0  0  0  # atno 6909 bound_to 6896
  145.1163  140.8642  143.3840 H   0  0  0  0  0  0  0  0  0  0  0  0  # atno 7974 bound_to 7965
  155.9457  140.1117  157.1018 H   0  0  0  0  0  0  0  0  0  0  0  0  # atno 8008 bound_to 7997
  154.4099  140.1210  156.5052 H   0  0  0  0  0  0  0  0  0  0  0  0  # atno 8009 bound_to 7997
  155.6905  140.3472  155.4894 H   0  0  0  0  0  0  0  0  0  0  0  0  # atno 8010 bound_to 7997
  140.0887  144.5007  150.7113 H   0  0  0  0  0  0  0  0  0  0  0  0  # atno 10167 bound_to 10162
  156.4626  130.8220  151.2451 H   0  0  0  0  0  0  0  0  0  0  0  0  # atno 10718 bound_to 10713
  153.0317  135.6439  154.1195 H   0  0  0  0  0  0  0  0  0  0  0  0  # atno 10763 bound_to 10752
  154.0917  135.2866  155.3272 H   0  0  0  0  0  0  0  0  0  0  0  0  # atno 10764 bound_to 10752
  154.6460  135.5443  153.7909 H   0  0  0  0  0  0  0  0  0  0  0  0  # atno 10765 bound_to 10752
  140.9779  133.7072  156.1634 H   0  0  0  0  0  0  0  0  0  0  0  0  # atno 11005 bound_to 11000
  145.0791  139.2973  143.5793 LP  0  0  0  0  0  0  0  0  0  0  0  0  # atno 17320 bound_to 7965
  146.3523  140.0291  142.8652 LP  0  0  0  0  0  0  0  0  0  0  0  0  # atno 17321 bound_to 7965
  140.7040  143.2454  151.4782 LP  0  0  0  0  0  0  0  0  0  0  0  0  # atno 17342 bound_to 10162
  139.5737  144.1869  152.1873 LP  0  0  0  0  0  0  0  0  0  0  0  0  # atno 17343 bound_to 10162
  157.7497  131.0102  150.3297 LP  0  0  0  0  0  0  0  0  0  0  0  0  # atno 17370 bound_to 10713
  156.3701  130.3862  149.7182 LP  0  0  0  0  0  0  0  0  0  0  0  0  # atno 17371 bound_to 10713
  140.7231  134.4337  157.5573 LP  0  0  0  0  0  0  0  0  0  0  0  0  # atno 17394 bound_to 11000
  139.8938  134.8722  156.2206 LP  0  0  0  0  0  0  0  0  0  0  0  0  # atno 17395 bound_to 11000

$$$$
