#       Name:                AV-unprocessed.smi:86
#       Creating user name   scv26
#       Creation time:       Thu Mar 26 17:21:28 2020


#       File generated by GOLD software.
#

@<TRIPOS>MOLECULE
AV-unprocessed.smi:86
    60    64     1
SMALL
NO_CHARGES


@<TRIPOS>ATOM
      1 ****        -5.4338  -1.9841   1.2274 O.3            1 S1                 0.0000
      2 ****        -4.2091  -1.6408   1.8441 C.3            1 S1                 0.0000
      3 ****        -3.5201  -2.8525   2.5041 C.3            1 S1                 0.0000
      4 ****        -2.2596  -2.3611   3.2396 C.3            1 S1                 0.0000
      5 ****        -1.2735  -1.7401   2.3681 N.pl3          1 S1                 0.0000
      6 ****        -0.3360  -2.3825   1.5924 C.2            1 S1                 0.0000
      7 ****         0.4435  -1.5984   0.9001 N.2            1 S1                 0.0000
      8 ****         0.0169  -0.3143   1.2220 C.ar           1 S1                 0.0000
      9 ****         0.4202   0.9994   0.8398 C.ar           1 S1                 0.0000
     10 ****         1.4250   1.2651  -0.0330 N.pl3          1 S1                 0.0000
     11 ****         1.7939   2.6297  -0.4046 C.3            1 S1                 0.0000
     12 ****         2.8461   2.4271  -1.4918 C.3            1 S1                 0.0000
     13 ****         3.1269   3.5698  -2.4734 C.3            1 S1                 0.0000
     14 ****         4.1522   3.0893  -3.5253 C.3            1 S1                 0.0000
     15 ****         3.7466   1.7635  -4.2198 C.3            1 S1                 0.0000
     16 ****         2.6912   2.0120  -5.1271 O.3            1 S1                 0.0000
     17 ****         3.3261   0.6603  -3.2176 C.3            1 S1                 0.0000
     18 ****         2.2936   1.2145  -2.2261 C.3            1 S1                 0.0000
     19 ****         1.8215   0.3220  -1.0767 C.3            1 S1                 0.0000
     20 ****        -0.2406   2.0425   1.4083 N.ar           1 S1                 0.0000
     21 ****        -1.2351   1.8263   2.2733 C.ar           1 S1                 0.0000
     22 ****        -1.7221   0.6641   2.7096 N.ar           1 S1                 0.0000
     23 ****        -1.0570  -0.3893   2.1553 C.ar           1 S1                 0.0000
     24 ****        -4.4235  -3.7842   3.3248 C.3            1 S1                 0.0000
     25 ****        -4.4007  -4.8058   2.3035 O.3            1 S1                 0.0000
     26 ****        -3.3462  -4.0944   1.6183 C.3            1 S1                 0.0000
     27 ****        -5.8082  -1.2039   0.8476 H              1 S1                 0.0000
     28 ****        -3.5766  -1.1982   1.0747 H              1 S1                 0.0000
     29 ****        -4.4076  -0.8602   2.5792 H              1 S1                 0.0000
     30 ****        -2.5272  -1.6500   4.0220 H              1 S1                 0.0000
     31 ****        -1.7691  -3.1895   3.7525 H              1 S1                 0.0000
     32 ****        -0.2437  -3.4581   1.5565 H              1 S1                 0.0000
     33 ****         0.9235   3.1586  -0.7959 H              1 S1                 0.0000
     34 ****         2.1902   3.1870   0.4449 H              1 S1                 0.0000
     35 ****         3.7829   2.1508  -1.0027 H              1 S1                 0.0000
     36 ****         2.2041   3.8826  -2.9636 H              1 S1                 0.0000
     37 ****         3.5117   4.4403  -1.9413 H              1 S1                 0.0000
     38 ****         4.3210   3.8699  -4.2681 H              1 S1                 0.0000
     39 ****         5.1115   2.9391  -3.0283 H              1 S1                 0.0000
     40 ****         4.5879   1.4022  -4.8120 H              1 S1                 0.0000
     41 ****         1.9463   2.3304  -4.6404 H              1 S1                 0.0000
     42 ****         2.9271  -0.2074  -3.7442 H              1 S1                 0.0000
     43 ****         4.2040   0.3136  -2.6710 H              1 S1                 0.0000
     44 ****         1.4053   1.5199  -2.7829 H              1 S1                 0.0000
     45 ****         2.6306  -0.3067  -0.7031 H              1 S1                 0.0000
     46 ****         0.9998  -0.3193  -1.3965 H              1 S1                 0.0000
     47 ****        -1.7076   2.7114   2.6732 H              1 S1                 0.0000
     48 ****        -3.9717  -4.1335   4.2545 H              1 S1                 0.0000
     49 ****        -5.4257  -3.3958   3.5081 H              1 S1                 0.0000
     50 ****        -3.5685  -3.9263   0.5641 H              1 S1                 0.0000
     51 ****        -2.3854  -4.5960   1.7362 H              1 S1                 0.0000
     52 ****        -6.0606  -2.3613   1.9093 LP             1 S1                 0.0000
     53 ****        -5.2721  -2.6633   0.5115 LP             1 S1                 0.0000
     54 ****         1.1812  -1.8612   0.2783 LP             1 S1                 0.0000
     55 ****         2.4477   1.1659  -5.6013 LP             1 S1                 0.0000
     56 ****         2.9759   2.6989  -5.7958 LP             1 S1                 0.0000
     57 ****         0.0201   2.9798   1.1769 LP             1 S1                 0.0000
     58 ****        -2.4773   0.5765   3.3592 LP             1 S1                 0.0000
     59 ****        -5.2500  -4.8800   1.7809 LP             1 S1                 0.0000
     60 ****        -4.1340  -5.7103   2.6363 LP             1 S1                 0.0000
@<TRIPOS>BOND
    1    1    2 1     
    2    1   27 1     
    3    2    3 1     
    4    2   28 1     
    5    2   29 1     
    6    3   26 1     
    7    3    4 1     
    8    3   24 1     
    9    4    5 1     
   10    4   30 1     
   11    4   31 1     
   12    5   23 1     
   13    5    6 1     
   14    6    7 2     
   15    6   32 1     
   16    7    8 1     
   17    8   23 ar    
   18    8    9 ar    
   19    9   10 1     
   20    9   20 ar    
   21   10   19 1     
   22   10   11 1     
   23   11   12 1     
   24   11   33 1     
   25   11   34 1     
   26   12   18 1     
   27   12   13 1     
   28   12   35 1     
   29   13   14 1     
   30   13   36 1     
   31   13   37 1     
   32   14   15 1     
   33   14   38 1     
   34   14   39 1     
   35   15   16 1     
   36   15   17 1     
   37   15   40 1     
   38   16   41 1     
   39   17   18 1     
   40   17   42 1     
   41   17   43 1     
   42   18   19 1     
   43   18   44 1     
   44   19   45 1     
   45   19   46 1     
   46   20   21 ar    
   47   21   22 ar    
   48   21   47 1     
   49   22   23 ar    
   50   24   25 1     
   51   24   48 1     
   52   24   49 1     
   53   25   26 1     
   54   26   50 1     
   55   26   51 1     
   56    1   52 1     
   57    1   53 1     
   58    7   54 1     
   59   16   55 1     
   60   16   56 1     
   61   20   57 1     
   62   22   58 1     
   63   25   59 1     
   64   25   60 1     
@<TRIPOS>SUBSTRUCTURE
      1 S1             1
@<TRIPOS>SET
LONE_PAIRS      STATIC     ATOMS    <user>   **** ""
9 52 53 54 55 56 57 58 59 60
DONOR_HYDROGENS      STATIC     ATOMS    <user>   **** ""
2 27 41
ATOM$BLUE        STATIC     ATOMS    COLORGROUP SYSTEM
9 52 53 54 55 56 57 58 59 60
ATOM$RED        STATIC     ATOMS    COLORGROUP SYSTEM
2 27 41
