AV-unprocessed.smi:305|AV-procd|sdf|2281|dock10
  -GOLD-   2262022183D 1   1.00000     0.00000
 Structure written by MMmdl.
 46 48  0  0  0  0  0  0  0  0  2 V2000
  149.6456  133.6545  154.9851 C   0  0  0  0  0  0  0  0  0  0  0  0
  149.5272  135.1585  154.7293 C   0  0  0  0  0  0  0  0  0  0  0  0
  149.0594  135.7903  155.9087 O   0  0  0  0  0  0  0  0  0  0  0  0
  148.8038  137.1721  155.7225 C   0  0  0  0  0  0  0  0  0  0  0  0
  148.4242  137.7920  157.0734 C   0  0  0  0  0  0  0  0  0  0  0  0
  149.4965  137.6537  158.0530 N   0  0  0  0  0  0  0  0  0  0  0  0
  149.4246  137.0902  159.2858 C   0  0  0  0  0  0  0  0  0  0  0  0
  148.2180  136.5490  159.7779 N   0  0  0  0  0  0  0  0  0  0  0  0
  147.5743  137.1496  160.8000 N   0  0  0  0  0  0  0  0  0  0  0  0
  146.5044  136.4032  161.0138 C   0  0  0  0  0  0  0  0  0  0  0  0
  145.5408  136.7980  162.0956 C   0  0  0  0  0  0  0  0  0  0  0  0
  146.4403  135.2812  160.1370 C   0  0  0  0  0  0  0  0  0  0  0  0
  145.3813  134.2144  160.0896 C   0  0  0  0  0  0  0  0  0  0  0  0
  147.5571  135.4103  159.3559 C   0  0  0  0  0  0  0  0  0  0  0  0
  148.0645  134.5595  158.2359 C   0  0  0  0  0  0  0  0  0  0  0  0
  150.5710  137.0780  159.9686 N   0  0  0  0  0  0  0  0  0  0  0  0
  151.4497  137.7041  159.0954 C   0  0  0  0  0  0  0  0  0  0  0  0
  150.8279  138.0607  157.9389 C   0  0  0  0  0  0  0  0  0  0  0  0
  151.5023  138.7470  156.8165 C   0  0  0  0  0  0  0  0  0  0  0  0
  150.8863  139.0496  155.7965 O   0  0  0  0  0  0  0  0  0  0  0  0
  152.8284  138.9785  157.0757 N   0  5  0  0  0  0  0  0  0  0  0  0
  153.5004  138.6356  158.2297 C   0  0  0  0  0  0  0  0  0  0  0  0
  154.6973  138.8831  158.3829 O   0  0  0  0  0  0  0  0  0  0  0  0
  152.8321  138.0014  159.2446 N   0  0  0  0  0  0  0  0  0  0  0  0
  153.5204  137.6282  160.4833 C   0  0  0  0  0  0  0  0  0  0  0  0
  150.0009  133.1350  154.0950 H   0  0  0  0  0  0  0  0  0  0  0  0
  148.6813  133.2272  155.2602 H   0  0  0  0  0  0  0  0  0  0  0  0
  150.3468  133.4500  155.7945 H   0  0  0  0  0  0  0  0  0  0  0  0
  150.4988  135.5650  154.4443 H   0  0  0  0  0  0  0  0  0  0  0  0
  148.8366  135.3418  153.9048 H   0  0  0  0  0  0  0  0  0  0  0  0
  149.6868  137.6643  155.3130 H   0  0  0  0  0  0  0  0  0  0  0  0
  147.9934  137.3058  155.0048 H   0  0  0  0  0  0  0  0  0  0  0  0
  148.1860  138.8481  156.9456 H   0  0  0  0  0  0  0  0  0  0  0  0
  147.5175  137.3345  157.4678 H   0  0  0  0  0  0  0  0  0  0  0  0
  144.5158  136.5510  161.8188 H   0  0  0  0  0  0  0  0  0  0  0  0
  145.5774  137.8700  162.2934 H   0  0  0  0  0  0  0  0  0  0  0  0
  145.7681  136.2794  163.0269 H   0  0  0  0  0  0  0  0  0  0  0  0
  145.7935  133.2443  159.8117 H   0  0  0  0  0  0  0  0  0  0  0  0
  144.6032  134.4544  159.3649 H   0  0  0  0  0  0  0  0  0  0  0  0
  144.8922  134.0844  161.0550 H   0  0  0  0  0  0  0  0  0  0  0  0
  147.3042  133.8547  157.9000 H   0  0  0  0  0  0  0  0  0  0  0  0
  148.9380  133.9884  158.5506 H   0  0  0  0  0  0  0  0  0  0  0  0
  148.3501  135.1713  157.3797 H   0  0  0  0  0  0  0  0  0  0  0  0
  153.9083  138.5158  160.9853 H   0  0  0  0  0  0  0  0  0  0  0  0
  154.3581  136.9624  160.2707 H   0  0  0  0  0  0  0  0  0  0  0  0
  152.8682  137.1136  161.1886 H   0  0  0  0  0  0  0  0  0  0  0  0
  1  2  1  0  0  0  0
  1 26  1  0  0  0  0
  1 27  1  0  0  0  0
  1 28  1  0  0  0  0
  2  3  1  0  0  0  0
  2 29  1  0  0  0  0
  2 30  1  0  0  0  0
  3  4  1  0  0  0  0
  4  5  1  0  0  0  0
  4 31  1  0  0  0  0
  4 32  1  0  0  0  0
  5  6  1  0  0  0  0
  5 33  1  0  0  0  0
  5 34  1  0  0  0  0
  6 18  1  0  0  0  0
  6  7  1  0  0  0  0
  7  8  1  0  0  0  0
  7 16  2  0  0  0  0
  8 14  1  0  0  0  0
  8  9  1  0  0  0  0
  9 10  2  0  0  0  0
 10 11  1  0  0  0  0
 10 12  1  0  0  0  0
 11 35  1  0  0  0  0
 11 36  1  0  0  0  0
 11 37  1  0  0  0  0
 12 13  1  0  0  0  0
 12 14  2  0  0  0  0
 13 38  1  0  0  0  0
 13 39  1  0  0  0  0
 13 40  1  0  0  0  0
 14 15  1  0  0  0  0
 15 41  1  0  0  0  0
 15 42  1  0  0  0  0
 15 43  1  0  0  0  0
 16 17  1  0  0  0  0
 17 24  1  0  0  0  0
 17 18  2  0  0  0  0
 18 19  1  0  0  0  0
 19 20  2  0  0  0  0
 19 21  1  0  0  0  0
 21 22  1  0  0  0  0
 22 23  2  0  0  0  0
 22 24  1  0  0  0  0
 24 25  1  0  0  0  0
 25 44  1  0  0  0  0
 25 45  1  0  0  0  0
 25 46  1  0  0  0  0
M  CHG  1  21  -1
M  END
> <s_m_source_file>
AV-unprocessed.smi

> <i_m_source_file_index>
305

> <i_lp_mmshare_version>
43012

> <i_f3d_flags>
0

> <s_epik_input>
W0NIM11uMWMoPU8pW25IXWMoPU8pYyhjMTIpbihbQ0gyXVtDSDJdT1tDSDJdW0NIM10pYyhuMiktbjNuYyhbQ0gzXSljKFtDSDNdKWMzW0NIM10=

> <s_epik_cmdline>
J2VwaWtfcHl0aG9uJywgJy1waCcsICc3LjAnLCAnLXRuJywgJzgnLCAnLW1hJywgJzIwMCcsICctbWV0YWxfYmluZGluZycsICctaW1hZScsICc8aW5maWxlLm1hZT4nLCAnLW9tYWUnLCAnPG91dGZpbGUubWFlPic=

> <r_lp_tautomer_probability>
1

> <r_epik_Ionization_Penalty>
4

> <r_epik_Ionization_Penalty_Charging>
0.0169474

> <r_epik_Ionization_Penalty_Neutral>
3.98305

> <r_epik_State_Penalty>
3.98062

> <r_epik_Charging_Adjusted_Penalty>
3.99756

> <i_epik_Tot_Q>
-1

> <i_epik_Tot_abs_Q>
1

> <r_epik_Metal_State_Penalty>
0.616488

> <b_epik_Metal_Only>
1

> <s_lp_Force_Field>
OPLS_2005

> <r_lp_Energy>
29.8012

> <b_lp_Chiralities_Consistent>
1

> <s_lp_Variant>
AV-unprocessed.smi:305-2

> <Gold.Version>
5.8.1

> <Gold.Id.Protein>
6NUR|6NUR_protein|mol2

> <Gold.PLP.Fitness>
41.1946

> <Gold.PLP.PLP>
-27.8513

> <Gold.PLP.part.hbond>
-5.8242

> <Gold.PLP.part.metal>
0.0000

> <Gold.PLP.part.buried>
-3.1792

> <Gold.PLP.part.nonpolar>
-19.7823

> <Gold.PLP.part.repulsive>
0.0422

> <Gold.PLP.ligand.clash>
0.0000

> <Gold.PLP.ligand.torsion>
1.3552

> <Gold.PLP.Chemscore.Hbond>
5.1600

> <Gold.PLP.Chemscore.CHOScore>
0.0000

> <Gold.PLP.Chemscore.Metal>
0.0000

> <Gold.Chemscore.Hbonds>
donor molecule, donor type, donor heavy atom, donor atom, acceptor molecule, acceptor atom, score
      P1  H  6896  6909       L1    16  0.88
      P1  H  6931  6943       L1     9  0.62
      P1  H  6934  6947       L1     9  0.99
      P1  H  7997  8008       L1    21  1.20
      P1  H  7997  8010       L1    23  0.22

> <Gold.PLP.Chemscore.Internal.Correction>
0.5737

> <Gold.Rescore>
     Score         DG    S(hbond)    S(metal)    S(lipo)     H(rot)  DE(clash)    DE(int)     intcor
     11.23     -14.49       2.18        0.00      50.32       1.62       0.33       2.93       ----

> <Gold.Chemscore.Fitness>
11.2337

> <Gold.Chemscore.DG>
-14.4928

> <Gold.Chemscore.ZeroCoef>
-5.4800

> <Gold.Chemscore.Hbond>
2.1776

> <Gold.Chemscore.Metal>
0.0000

> <Gold.Chemscore.Lipo>
50.3216

> <Gold.Chemscore.Internal_Hbond>
0.0000

> <Gold.Chemscore.DEClash>
0.3331

> <Gold.Chemscore.DEInternal>
2.9259

> <Gold.Chemscore.Rot>
1.6204

> <Gold.Chemscore.Internal.Correction>
   9.000000E+99

> <Gold.Chemscore.Hbonds>
donor molecule, donor type, donor heavy atom, donor atom, acceptor molecule, acceptor atom, score
      P1  H  6896  6909       L1    16  0.16
      P1  H  6931  6943       L1     9  0.38
      P1  H  6934  6947       L1     9  0.76
      P1  H  7997  8008       L1    21  0.04
      P1  H  7997  8010       L1    23  0.21

> <Gold.Chemscore.Hbond.Weighted>
-7.2733

> <Gold.Chemscore.Metal.Weighted>
-0.0000

> <Gold.Chemscore.Lipo.Weighted>
-5.8876

> <Gold.Chemscore.Internal_Hbond.Weighted>
0.0000

> <Gold.Chemscore.DEClash.Weighted>
0.3331

> <Gold.Chemscore.DEInternal.Weighted>
2.9259

> <Gold.Chemscore.Rot.Weighted>
4.1481

> <Gold.Chemscore.Internal.Correction.Weighted>
   9.000000E+99

> <Gold.Protein.RotatedTorsions>
[ 6907 6896 6895 6894 ] final  110.21 input  -60.11 | X-H torsion
[ 7974 7965 7964 7962 ] final  -75.59 input  175.53 | X-H torsion
[ 8008 7997 7996 7995 ] final  -47.75 input   59.86 | X-H torsion
[ 10167 10162 10161 10158 ] final -142.43 input  -65.29 | X-H torsion
[ 10718 10713 10712 10709 ] final   25.92 input   66.30 | X-H torsion
[ 10763 10752 10751 10750 ] final  -16.18 input  -60.55 | X-H torsion
[ 11005 11000 10999 10996 ] final -107.86 input  -57.11 | X-H torsion

> <Gold.Protein.ActiveResidues>
 VAL166  LYS551  ARG553  GLY616  TRP617  ASP618  TYR619  PRO620  LYS621  CYS622 
 ASP623  PHE694  ASN695  SER759  ASP760  ASP761  ALA762  ILE779  LEU786  VAL792 
 PHE793  MET794  SER795  GLU796  ALA797  LYS798  CYS799  TRP800  GLU811  SER814 

> <Gold.Protein.RotatedAtoms>
  152.5030  133.8832  159.7356 H   0  0  0  0  0  0  0  0  0  0  0  0  # atno 6907 bound_to 6896
  150.9289  133.6781  159.2822 H   0  0  0  0  0  0  0  0  0  0  0  0  # atno 6908 bound_to 6896
  151.4132  135.0992  159.9644 H   0  0  0  0  0  0  0  0  0  0  0  0  # atno 6909 bound_to 6896
  145.6241  140.9355  143.1122 H   0  0  0  0  0  0  0  0  0  0  0  0  # atno 7974 bound_to 7965
  154.4020  140.1338  156.4226 H   0  0  0  0  0  0  0  0  0  0  0  0  # atno 8008 bound_to 7997
  155.7628  140.3485  155.5186 H   0  0  0  0  0  0  0  0  0  0  0  0  # atno 8009 bound_to 7997
  155.8842  140.0992  157.1454 H   0  0  0  0  0  0  0  0  0  0  0  0  # atno 8010 bound_to 7997
  139.8089  143.7730  152.2662 H   0  0  0  0  0  0  0  0  0  0  0  0  # atno 10167 bound_to 10162
  157.1999  130.6885  149.6184 H   0  0  0  0  0  0  0  0  0  0  0  0  # atno 10718 bound_to 10713
  153.5546  135.7011  153.5575 H   0  0  0  0  0  0  0  0  0  0  0  0  # atno 10763 bound_to 10752
  153.3485  135.4002  155.1627 H   0  0  0  0  0  0  0  0  0  0  0  0  # atno 10764 bound_to 10752
  154.8656  135.3759  154.5059 H   0  0  0  0  0  0  0  0  0  0  0  0  # atno 10765 bound_to 10752
  141.0932  133.9018  157.2026 H   0  0  0  0  0  0  0  0  0  0  0  0  # atno 11005 bound_to 11000
  144.7219  139.8001  143.7379 LP  0  0  0  0  0  0  0  0  0  0  0  0  # atno 17320 bound_to 7965
  146.1408  139.4465  143.0110 LP  0  0  0  0  0  0  0  0  0  0  0  0  # atno 17321 bound_to 7965
  139.7873  144.7423  151.0004 LP  0  0  0  0  0  0  0  0  0  0  0  0  # atno 17342 bound_to 10162
  140.7818  143.4479  151.0456 LP  0  0  0  0  0  0  0  0  0  0  0  0  # atno 17343 bound_to 10162
  155.9701  130.4586  150.6006 LP  0  0  0  0  0  0  0  0  0  0  0  0  # atno 17370 bound_to 10713
  157.3778  131.0776  151.1503 LP  0  0  0  0  0  0  0  0  0  0  0  0  # atno 17371 bound_to 10713
  139.9762  135.0113  156.9637 LP  0  0  0  0  0  0  0  0  0  0  0  0  # atno 17394 bound_to 11000
  140.5203  134.0914  155.7290 LP  0  0  0  0  0  0  0  0  0  0  0  0  # atno 17395 bound_to 11000

$$$$
