AV-unprocessed.smi:1769|AV-procd|sdf|7153|dock4
  -GOLD-   22720 8393D 1   1.00000     0.00000
 Structure written by MMmdl.
 42 43  0  0  0  0  0  0  0  0  2 V2000
  154.6177  132.6416  161.8304 C   0  0  0  0  0  0  0  0  0  0  0  0
  154.4778  133.8823  160.9454 C   0  0  0  0  0  0  0  0  0  0  0  0
  154.0536  133.7304  159.7996 O   0  0  0  0  0  0  0  0  0  0  0  0
  154.8161  135.0949  161.4462 N   0  0  0  0  0  0  0  0  0  0  0  0
  155.2511  135.3527  162.8249 C   0  0  0  0  0  0  0  0  0  0  0  0
  154.1249  136.0959  163.5649 C   0  0  0  0  0  0  0  0  0  0  0  0
  153.7407  137.3908  162.8239 C   0  0  0  0  0  0  0  0  0  0  0  0
  153.4609  137.1340  161.3236 C   0  0  1  0  0  0  0  0  0  0  0  0
  153.2213  138.4492  160.5708 C   0  0  0  0  0  0  0  0  0  0  0  0
  152.3672  138.5123  159.6858 O   0  0  0  0  0  0  0  0  0  0  0  0
  153.9838  139.4938  160.9295 N   0  0  0  0  0  0  0  0  0  0  0  0
  153.9103  140.8225  160.3339 C   0  0  0  0  0  0  0  0  0  0  0  0
  153.5131  141.8842  161.3724 C   0  0  0  0  0  0  0  0  0  0  0  0
  153.0156  143.1605  160.7227 C   0  0  0  0  0  0  0  0  0  0  0  0
  153.0806  143.3231  159.3212 C   0  0  0  0  0  0  0  0  0  0  0  0
  152.6071  144.5182  158.7409 C   0  0  0  0  0  0  0  0  0  0  0  0
  152.0784  145.5241  159.5756 C   0  0  0  0  0  0  0  0  0  0  0  0
  152.0323  145.3328  160.9127 N   0  3  0  0  0  0  0  0  0  0  0  0
  152.4757  144.2030  161.5068 C   0  0  0  0  0  0  0  0  0  0  0  0
  154.6303  136.3427  160.6948 C   0  0  0  0  0  0  0  0  0  0  0  0
  154.0161  132.7405  162.7345 H   0  0  0  0  0  0  0  0  0  0  0  0
  155.6589  132.4832  162.1119 H   0  0  0  0  0  0  0  0  0  0  0  0
  154.2768  131.7515  161.3008 H   0  0  0  0  0  0  0  0  0  0  0  0
  155.5259  134.4529  163.3733 H   0  0  0  0  0  0  0  0  0  0  0  0
  156.1526  135.9670  162.8064 H   0  0  0  0  0  0  0  0  0  0  0  0
  153.2519  135.4469  163.6458 H   0  0  0  0  0  0  0  0  0  0  0  0
  154.4342  136.3279  164.5844 H   0  0  0  0  0  0  0  0  0  0  0  0
  152.8694  137.8425  163.2996 H   0  0  0  0  0  0  0  0  0  0  0  0
  154.5561  138.1080  162.9327 H   0  0  0  0  0  0  0  0  0  0  0  0
  152.5587  136.5236  161.2465 H   0  0  0  0  0  0  0  0  0  0  0  0
  154.6583  139.3583  161.6690 H   0  0  0  0  0  0  0  0  0  0  0  0
  154.8666  141.0766  159.8727 H   0  0  0  0  0  0  0  0  0  0  0  0
  153.1758  140.7946  159.5288 H   0  0  0  0  0  0  0  0  0  0  0  0
  152.7367  141.4912  162.0303 H   0  0  0  0  0  0  0  0  0  0  0  0
  154.3632  142.1261  162.0121 H   0  0  0  0  0  0  0  0  0  0  0  0
  153.4868  142.5406  158.6964 H   0  0  0  0  0  0  0  0  0  0  0  0
  152.6484  144.6600  157.6708 H   0  0  0  0  0  0  0  0  0  0  0  0
  151.6936  146.4679  159.2173 H   0  0  0  0  0  0  0  0  0  0  0  0
  152.3836  144.1676  162.5828 H   0  0  0  0  0  0  0  0  0  0  0  0
  155.5538  136.9232  160.7347 H   0  0  0  0  0  0  0  0  0  0  0  0
  154.4405  136.1664  159.6346 H   0  0  0  0  0  0  0  0  0  0  0  0
  151.6453  146.0733  161.4984 H   0  0  0  0  0  0  0  0  0  0  0  0
  1  2  1  0  0  0  0
  1 21  1  0  0  0  0
  1 22  1  0  0  0  0
  1 23  1  0  0  0  0
  2  3  2  0  0  0  0
  2  4  1  0  0  0  0
  4 20  1  0  0  0  0
  4  5  1  0  0  0  0
  5  6  1  0  0  0  0
  5 24  1  0  0  0  0
  5 25  1  0  0  0  0
  6  7  1  0  0  0  0
  6 26  1  0  0  0  0
  6 27  1  0  0  0  0
  7  8  1  0  0  0  0
  7 28  1  0  0  0  0
  7 29  1  0  0  0  0
  8  9  1  0  0  0  0
  8 20  1  0  0  0  0
  8 30  1  0  0  0  0
  9 10  2  0  0  0  0
  9 11  1  0  0  0  0
 11 12  1  0  0  0  0
 11 31  1  0  0  0  0
 12 13  1  0  0  0  0
 12 32  1  0  0  0  0
 12 33  1  0  0  0  0
 13 14  1  0  0  0  0
 13 34  1  0  0  0  0
 13 35  1  0  0  0  0
 14 19  1  0  0  0  0
 14 15  2  0  0  0  0
 15 16  1  0  0  0  0
 15 36  1  0  0  0  0
 16 17  2  0  0  0  0
 16 37  1  0  0  0  0
 17 18  1  0  0  0  0
 17 38  1  0  0  0  0
 18 19  2  0  0  0  0
 18 42  1  0  0  0  0
 19 39  1  0  0  0  0
 20 40  1  0  0  0  0
 20 41  1  0  0  0  0
M  CHG  1  18   1
M  END
> <s_m_source_file>
AV-unprocessed.smi

> <i_m_source_file_index>
1769

> <i_lp_mmshare_version>
43012

> <i_f3d_flags>
0

> <s_epik_input>
W0NIM11DKD1PKU4xW0NIMl1bQ0gyXVtDSDJdW0NASF0oW0NIMl0xKUMoPU8pW05IXVtDSDJdW0NIMl1jMltjSF1bY0hdW2NIXW5bY0hdMg==

> <s_epik_cmdline>
J2VwaWtfcHl0aG9uJywgJy1waCcsICc3LjAnLCAnLXRuJywgJzgnLCAnLW1hJywgJzIwMCcsICctbWV0YWxfYmluZGluZycsICctaW1hZScsICc8aW5maWxlLm1hZT4nLCAnLW9tYWUnLCAnPG91dGZpbGUubWFlPic=

> <r_epik_Ionization_Penalty>
2.25127

> <r_epik_Ionization_Penalty_Charging>
2.25127

> <r_epik_Ionization_Penalty_Neutral>
1.02261e-06

> <r_epik_State_Penalty>
2.39841

> <r_epik_Charging_Adjusted_Penalty>
4.64968

> <i_epik_Tot_Q>
1

> <i_epik_Tot_abs_Q>
1

> <r_epik_Metal_State_Penalty>
2.41159

> <b_epik_Metal_Only>
0

> <s_lp_Force_Field>
OPLS_2005

> <r_lp_Energy>
29.7946

> <b_lp_Chiralities_Consistent>
1

> <s_lp_Variant>
AV-unprocessed.smi:1769-3

> <Gold.Version>
5.8.1

> <Gold.Id.Protein>
6NUR|6NUR_protein|mol2

> <Gold.PLP.Fitness>
48.7149

> <Gold.PLP.PLP>
-47.2289

> <Gold.PLP.part.hbond>
-1.9758

> <Gold.PLP.part.metal>
0.0000

> <Gold.PLP.part.buried>
-5.7513

> <Gold.PLP.part.nonpolar>
-39.8743

> <Gold.PLP.part.repulsive>
0.1489

> <Gold.PLP.ligand.clash>
0.0000

> <Gold.PLP.ligand.torsion>
0.7750

> <Gold.PLP.Chemscore.Hbond>
1.0000

> <Gold.PLP.Chemscore.CHOScore>
0.0000

> <Gold.PLP.Chemscore.Metal>
0.0000

> <Gold.Chemscore.Hbonds>
donor molecule, donor type, donor heavy atom, donor atom, acceptor molecule, acceptor atom, score
      P1  H  6896  6907       L1     3  0.88

> <Gold.PLP.Chemscore.Internal.Correction>
0.0360

> <Gold.Rescore>
     Score         DG    S(hbond)    S(metal)    S(lipo)     H(rot)  DE(clash)    DE(int)     intcor
     18.06     -18.85       0.91        0.00     123.44       1.61       0.02       0.76       ----

> <Gold.Chemscore.Fitness>
18.0631

> <Gold.Chemscore.DG>
-18.8508

> <Gold.Chemscore.ZeroCoef>
-5.4800

> <Gold.Chemscore.Hbond>
0.9133

> <Gold.Chemscore.Metal>
0.0000

> <Gold.Chemscore.Lipo>
123.4353

> <Gold.Chemscore.Internal_Hbond>
0.0000

> <Gold.Chemscore.DEClash>
0.0231

> <Gold.Chemscore.DEInternal>
0.7645

> <Gold.Chemscore.Rot>
1.6100

> <Gold.Chemscore.Internal.Correction>
   9.000000E+99

> <Gold.Chemscore.Hbonds>
donor molecule, donor type, donor heavy atom, donor atom, acceptor molecule, acceptor atom, score
      P1  H  6896  6907       L1     3  0.67

> <Gold.Chemscore.Hbond.Weighted>
-3.0505

> <Gold.Chemscore.Metal.Weighted>
-0.0000

> <Gold.Chemscore.Lipo.Weighted>
-14.4419

> <Gold.Chemscore.Internal_Hbond.Weighted>
0.0000

> <Gold.Chemscore.DEClash.Weighted>
0.0231

> <Gold.Chemscore.DEInternal.Weighted>
0.7645

> <Gold.Chemscore.Rot.Weighted>
4.1216

> <Gold.Chemscore.Internal.Correction.Weighted>
   9.000000E+99

> <Gold.Protein.RotatedTorsions>
[ 6907 6896 6895 6894 ] final  107.24 input  -60.11 | X-H torsion
[ 7974 7965 7964 7962 ] final -142.60 input  175.53 | X-H torsion
[ 8008 7997 7996 7995 ] final    6.93 input   59.86 | X-H torsion
[ 10167 10162 10161 10158 ] final   94.08 input  -65.29 | X-H torsion
[ 10718 10713 10712 10709 ] final   40.74 input   66.30 | X-H torsion
[ 10763 10752 10751 10750 ] final   18.24 input  -60.55 | X-H torsion
[ 11005 11000 10999 10996 ] final   35.24 input  -57.11 | X-H torsion

> <Gold.Protein.ActiveResidues>
 VAL166  LYS551  ARG553  GLY616  TRP617  ASP618  TYR619  PRO620  LYS621  CYS622 
 ASP623  PHE694  ASN695  SER759  ASP760  ASP761  ALA762  ILE779  LEU786  VAL792 
 PHE793  MET794  SER795  GLU796  ALA797  LYS798  CYS799  TRP800  GLU811  SER814 

> <Gold.Protein.RotatedAtoms>
  152.5162  133.9264  159.7558 H   0  0  0  0  0  0  0  0  0  0  0  0  # atno 6907 bound_to 6896
  150.9624  133.6422  159.2759 H   0  0  0  0  0  0  0  0  0  0  0  0  # atno 6908 bound_to 6896
  151.3663  135.0919  159.9503 H   0  0  0  0  0  0  0  0  0  0  0  0  # atno 6909 bound_to 6896
  144.8431  140.5938  143.5439 H   0  0  0  0  0  0  0  0  0  0  0  0  # atno 7974 bound_to 7965
  154.7473  140.2760  155.6322 H   0  0  0  0  0  0  0  0  0  0  0  0  # atno 8008 bound_to 7997
  156.2888  140.2685  156.2144 H   0  0  0  0  0  0  0  0  0  0  0  0  # atno 8009 bound_to 7997
  155.0181  140.0371  157.2416 H   0  0  0  0  0  0  0  0  0  0  0  0  # atno 8010 bound_to 7997
  139.8118  144.6770  150.9630 H   0  0  0  0  0  0  0  0  0  0  0  0  # atno 10167 bound_to 10162
  157.3856  130.7778  149.7228 H   0  0  0  0  0  0  0  0  0  0  0  0  # atno 10718 bound_to 10713
  153.1267  135.6731  153.9246 H   0  0  0  0  0  0  0  0  0  0  0  0  # atno 10763 bound_to 10752
  153.8745  135.3065  155.3444 H   0  0  0  0  0  0  0  0  0  0  0  0  # atno 10764 bound_to 10752
  154.7671  135.4959  153.9656 H   0  0  0  0  0  0  0  0  0  0  0  0  # atno 10765 bound_to 10752
  140.2447  134.3373  155.7912 H   0  0  0  0  0  0  0  0  0  0  0  0  # atno 11005 bound_to 11000
  145.4652  139.1509  143.3844 LP  0  0  0  0  0  0  0  0  0  0  0  0  # atno 17320 bound_to 7965
  146.2721  140.4783  142.8810 LP  0  0  0  0  0  0  0  0  0  0  0  0  # atno 17321 bound_to 7965
  140.7817  143.4177  151.0890 LP  0  0  0  0  0  0  0  0  0  0  0  0  # atno 17342 bound_to 10162
  139.7843  143.8309  152.3142 LP  0  0  0  0  0  0  0  0  0  0  0  0  # atno 17343 bound_to 10162
  155.9786  130.4049  150.3639 LP  0  0  0  0  0  0  0  0  0  0  0  0  # atno 17370 bound_to 10713
  157.1749  131.0378  151.2777 LP  0  0  0  0  0  0  0  0  0  0  0  0  # atno 17371 bound_to 10713
  141.2207  133.7319  156.8942 LP  0  0  0  0  0  0  0  0  0  0  0  0  # atno 17394 bound_to 11000
  140.1618  134.9160  157.2724 LP  0  0  0  0  0  0  0  0  0  0  0  0  # atno 17395 bound_to 11000

$$$$
