AV-unprocessed.smi:697|AV-procd|sdf|3391|dock10
  -GOLD-   22720 0373D 1   1.00000     0.00000
 Structure written by MMmdl.
 44 45  0  0  0  0  0  0  0  0  1 V2000
  151.4777  140.9892  156.8341 C   0  0  0  0  0  0  0  0  0  0  0  0
  150.3772  140.0917  156.7556 O   0  0  0  0  0  0  0  0  0  0  0  0
  149.8202  139.8453  155.4570 C   0  0  1  0  0  0  0  0  0  0  0  0
  149.4449  141.1658  154.7722 C   0  0  0  0  0  0  0  0  0  0  0  0
  150.6797  138.8169  154.6969 C   0  0  0  0  0  0  0  0  0  0  0  0
  149.9153  137.7307  155.4511 C   0  0  2  0  0  0  0  0  0  0  0  0
  149.6414  136.5596  154.6251 N   0  0  0  0  0  0  0  0  0  0  0  0
  149.9186  135.2988  154.9832 C   0  0  0  0  0  0  0  0  0  0  0  0
  150.4559  135.0057  156.0509 O   0  0  0  0  0  0  0  0  0  0  0  0
  149.5370  134.4341  154.0251 N   0  0  0  0  0  0  0  0  0  0  0  0
  149.6032  133.0303  154.0083 C   0  0  0  0  0  0  0  0  0  0  0  0
  150.4155  132.2774  154.7959 C   0  0  0  0  0  0  0  0  0  0  0  0
  150.4232  130.8254  154.7316 C   0  0  0  0  0  0  0  0  0  0  0  0
  151.3960  129.9982  155.5574 C   0  0  0  0  0  0  0  0  0  0  0  0
  152.1953  129.2687  154.7781 F   0  0  0  0  0  0  0  0  0  0  0  0
  152.1579  130.7800  156.3229 F   0  0  0  0  0  0  0  0  0  0  0  0
  150.7226  129.1690  156.3534 F   0  0  0  0  0  0  0  0  0  0  0  0
  149.5860  130.2592  153.8431 C   0  0  0  0  0  0  0  0  0  0  0  0
  148.7314  131.0243  153.0467 N   0  0  0  0  0  0  0  0  0  0  0  0
  148.6794  132.3750  153.0673 C   0  0  0  0  0  0  0  0  0  0  0  0
  147.8966  132.9769  152.3328 O   0  0  0  0  0  0  0  0  0  0  0  0
  148.7348  138.7270  155.5889 C   0  0  0  0  0  0  0  0  0  0  0  0
  147.9630  138.6737  156.9120 C   0  0  0  0  0  0  0  0  0  0  0  0
  147.6652  138.6920  154.4804 C   0  0  0  0  0  0  0  0  0  0  0  0
  148.1195  130.5243  152.4178 H   0  0  0  0  0  0  0  0  0  0  0  0
  151.8940  140.9532  157.8405 H   0  0  0  0  0  0  0  0  0  0  0  0
  151.1697  142.0183  156.6508 H   0  0  0  0  0  0  0  0  0  0  0  0
  152.2749  140.7328  156.1373 H   0  0  0  0  0  0  0  0  0  0  0  0
  148.9273  141.0003  153.8281 H   0  0  0  0  0  0  0  0  0  0  0  0
  150.3225  141.7660  154.5330 H   0  0  0  0  0  0  0  0  0  0  0  0
  148.7893  141.7658  155.4035 H   0  0  0  0  0  0  0  0  0  0  0  0
  150.4903  138.8185  153.6219 H   0  0  0  0  0  0  0  0  0  0  0  0
  151.7491  138.8366  154.9041 H   0  0  0  0  0  0  0  0  0  0  0  0
  150.3886  137.4961  156.4075 H   0  0  0  0  0  0  0  0  0  0  0  0
  149.2057  136.7207  153.7290 H   0  0  0  0  0  0  0  0  0  0  0  0
  149.1642  134.8427  153.1804 H   0  0  0  0  0  0  0  0  0  0  0  0
  151.0748  132.7336  155.5155 H   0  0  0  0  0  0  0  0  0  0  0  0
  149.5102  129.1957  153.6704 H   0  0  0  0  0  0  0  0  0  0  0  0
  147.2793  137.8249  156.9446 H   0  0  0  0  0  0  0  0  0  0  0  0
  147.3741  139.5783  157.0663 H   0  0  0  0  0  0  0  0  0  0  0  0
  148.6284  138.5693  157.7692 H   0  0  0  0  0  0  0  0  0  0  0  0
  147.0526  137.7915  154.5392 H   0  0  0  0  0  0  0  0  0  0  0  0
  148.1042  138.7126  153.4830 H   0  0  0  0  0  0  0  0  0  0  0  0
  146.9889  139.5445  154.5514 H   0  0  0  0  0  0  0  0  0  0  0  0
  1  2  1  0  0  0  0
  1 26  1  0  0  0  0
  1 27  1  0  0  0  0
  1 28  1  0  0  0  0
  2  3  1  0  0  0  0
  3 22  1  0  0  0  0
  3  4  1  0  0  0  0
  3  5  1  0  0  0  0
  4 29  1  0  0  0  0
  4 30  1  0  0  0  0
  4 31  1  0  0  0  0
  5  6  1  0  0  0  0
  5 32  1  0  0  0  0
  5 33  1  0  0  0  0
  6  7  1  0  0  0  0
  6 22  1  0  0  0  0
  6 34  1  0  0  0  0
  7  8  1  0  0  0  0
  7 35  1  0  0  0  0
  8  9  2  0  0  0  0
  8 10  1  0  0  0  0
 10 11  1  0  0  0  0
 10 36  1  0  0  0  0
 11 20  1  0  0  0  0
 11 12  2  0  0  0  0
 12 13  1  0  0  0  0
 12 37  1  0  0  0  0
 13 14  1  0  0  0  0
 13 18  2  0  0  0  0
 14 15  1  0  0  0  0
 14 16  1  0  0  0  0
 14 17  1  0  0  0  0
 18 19  1  0  0  0  0
 18 38  1  0  0  0  0
 19 25  1  0  0  0  0
 19 20  1  0  0  0  0
 20 21  2  0  0  0  0
 22 23  1  0  0  0  0
 22 24  1  0  0  0  0
 23 39  1  0  0  0  0
 23 40  1  0  0  0  0
 23 41  1  0  0  0  0
 24 42  1  0  0  0  0
 24 43  1  0  0  0  0
 24 44  1  0  0  0  0
M  END
> <s_m_source_file>
AV-unprocessed.smi

> <i_m_source_file_index>
697

> <i_lp_mmshare_version>
43012

> <i_f3d_flags>
0

> <s_epik_input>
W0NIM11PW0NAQF0xKFtDSDNdKVtDSDJdW0NASF0oQzEoW0NIM10pW0NIM10pW05IXUMoPU8pW05IXWMyW2NIXWMoQyhGKShGKUYpW2NIXVtuSF1jMj1P

> <s_epik_cmdline>
J2VwaWtfcHl0aG9uJywgJy1waCcsICc3LjAnLCAnLXRuJywgJzgnLCAnLW1hJywgJzIwMCcsICctbWV0YWxfYmluZGluZycsICctaW1hZScsICc8aW5maWxlLm1hZT4nLCAnLW9tYWUnLCAnPG91dGZpbGUubWFlPic=

> <r_lp_tautomer_probability>
1

> <r_epik_Ionization_Penalty>
0.0036482

> <r_epik_Ionization_Penalty_Charging>
0.00362828

> <r_epik_Ionization_Penalty_Neutral>
1.99208e-05

> <r_epik_State_Penalty>
-0

> <r_epik_Charging_Adjusted_Penalty>
0.00362828

> <i_epik_Tot_Q>
0

> <i_epik_Tot_abs_Q>
0

> <r_epik_Metal_State_Penalty>
0.369362

> <b_epik_Metal_Only>
0

> <s_lp_Force_Field>
OPLS_2005

> <r_lp_Energy>
34.6264

> <b_lp_Chiralities_Consistent>
1

> <s_lp_Variant>
AV-unprocessed.smi:697-3

> <Gold.Version>
5.8.1

> <Gold.Id.Protein>
6NUR|6NUR_protein|mol2

> <Gold.PLP.Fitness>
40.4329

> <Gold.PLP.PLP>
-35.3126

> <Gold.PLP.part.hbond>
-3.0000

> <Gold.PLP.part.metal>
0.0000

> <Gold.PLP.part.buried>
-5.1518

> <Gold.PLP.part.nonpolar>
-27.1249

> <Gold.PLP.part.repulsive>
0.2676

> <Gold.PLP.ligand.clash>
0.0000

> <Gold.PLP.ligand.torsion>
0.3317

> <Gold.PLP.Chemscore.Hbond>
1.7888

> <Gold.PLP.Chemscore.CHOScore>
0.0000

> <Gold.PLP.Chemscore.Metal>
0.0000

> <Gold.Chemscore.Hbonds>
donor molecule, donor type, donor heavy atom, donor atom, acceptor molecule, acceptor atom, score
      L1  H     7    35       P1  7948  0.98
      L1  H    10    36       P1  7948  0.60
      L1  H    19    25       P1 10747  0.03

> <Gold.PLP.Chemscore.Internal.Correction>
0.4174

> <Gold.Rescore>
     Score         DG    S(hbond)    S(metal)    S(lipo)     H(rot)  DE(clash)    DE(int)     intcor
     12.49     -13.05       1.14        0.00      60.82       1.31       0.02       0.54       ----

> <Gold.Chemscore.Fitness>
12.4889

> <Gold.Chemscore.DG>
-13.0467

> <Gold.Chemscore.ZeroCoef>
-5.4800

> <Gold.Chemscore.Hbond>
1.1360

> <Gold.Chemscore.Metal>
0.0000

> <Gold.Chemscore.Lipo>
60.8247

> <Gold.Chemscore.Internal_Hbond>
0.0000

> <Gold.Chemscore.DEClash>
0.0204

> <Gold.Chemscore.DEInternal>
0.5374

> <Gold.Chemscore.Rot>
1.3062

> <Gold.Chemscore.Internal.Correction>
   9.000000E+99

> <Gold.Chemscore.Hbonds>
donor molecule, donor type, donor heavy atom, donor atom, acceptor molecule, acceptor atom, score
      L1  H     7    35       P1  7948  0.91
      L1  H    10    36       P1  7948  0.04
      L1  H    19    25       P1 10747  0.04

> <Gold.Chemscore.Hbond.Weighted>
-3.7942

> <Gold.Chemscore.Metal.Weighted>
-0.0000

> <Gold.Chemscore.Lipo.Weighted>
-7.1165

> <Gold.Chemscore.Internal_Hbond.Weighted>
0.0000

> <Gold.Chemscore.DEClash.Weighted>
0.0204

> <Gold.Chemscore.DEInternal.Weighted>
0.5374

> <Gold.Chemscore.Rot.Weighted>
3.3440

> <Gold.Chemscore.Internal.Correction.Weighted>
   9.000000E+99

> <Gold.Protein.RotatedTorsions>
[ 6907 6896 6895 6894 ] final   10.55 input  -60.11 | X-H torsion
[ 7974 7965 7964 7962 ] final  121.49 input  175.53 | X-H torsion
[ 8008 7997 7996 7995 ] final   50.81 input   59.86 | X-H torsion
[ 10167 10162 10161 10158 ] final  -54.63 input  -65.29 | X-H torsion
[ 10718 10713 10712 10709 ] final  164.28 input   66.30 | X-H torsion
[ 10763 10752 10751 10750 ] final  -72.48 input  -60.55 | X-H torsion
[ 11005 11000 10999 10996 ] final  118.79 input  -57.11 | X-H torsion

> <Gold.Protein.ActiveResidues>
 VAL166  LYS551  ARG553  GLY616  TRP617  ASP618  TYR619  PRO620  LYS621  CYS622 
 ASP623  PHE694  ASN695  SER759  ASP760  ASP761  ALA762  ILE779  LEU786  VAL792 
 PHE793  MET794  SER795  GLU796  ALA797  LYS798  CYS799  TRP800  GLU811  SER814 

> <Gold.Protein.RotatedAtoms>
  151.7401  135.0856  160.0313 H   0  0  0  0  0  0  0  0  0  0  0  0  # atno 6907 bound_to 6896
  152.3485  133.6147  159.5936 H   0  0  0  0  0  0  0  0  0  0  0  0  # atno 6908 bound_to 6896
  150.7524  133.9527  159.3532 H   0  0  0  0  0  0  0  0  0  0  0  0  # atno 6909 bound_to 6896
  145.1187  139.3403  143.4725 H   0  0  0  0  0  0  0  0  0  0  0  0  # atno 7974 bound_to 7965
  155.4249  140.3448  155.4274 H   0  0  0  0  0  0  0  0  0  0  0  0  # atno 8008 bound_to 7997
  156.1371  140.1531  156.9009 H   0  0  0  0  0  0  0  0  0  0  0  0  # atno 8009 bound_to 7997
  154.4940  140.0833  156.7637 H   0  0  0  0  0  0  0  0  0  0  0  0  # atno 8010 bound_to 7997
  140.6420  143.2513  151.4964 H   0  0  0  0  0  0  0  0  0  0  0  0  # atno 10167 bound_to 10162
  157.0965  131.0431  151.2515 H   0  0  0  0  0  0  0  0  0  0  0  0  # atno 10718 bound_to 10713
  154.4463  135.5928  153.6162 H   0  0  0  0  0  0  0  0  0  0  0  0  # atno 10763 bound_to 10752
  152.9809  135.6010  154.3660 H   0  0  0  0  0  0  0  0  0  0  0  0  # atno 10764 bound_to 10752
  154.3516  135.2841  155.2347 H   0  0  0  0  0  0  0  0  0  0  0  0  # atno 10765 bound_to 10752
  139.9122  134.9623  156.7556 H   0  0  0  0  0  0  0  0  0  0  0  0  # atno 11005 bound_to 11000
  146.3522  140.1137  142.8603 LP  0  0  0  0  0  0  0  0  0  0  0  0  # atno 17320 bound_to 7965
  145.0764  140.9191  143.4851 LP  0  0  0  0  0  0  0  0  0  0  0  0  # atno 17321 bound_to 7965
  139.5629  144.2112  152.1720 LP  0  0  0  0  0  0  0  0  0  0  0  0  # atno 17342 bound_to 10162
  140.1386  144.5223  150.6758 LP  0  0  0  0  0  0  0  0  0  0  0  0  # atno 17343 bound_to 10162
  157.4677  130.7690  149.7294 LP  0  0  0  0  0  0  0  0  0  0  0  0  # atno 17370 bound_to 10713
  155.9884  130.3959  150.3119 LP  0  0  0  0  0  0  0  0  0  0  0  0  # atno 17371 bound_to 10713
  140.6738  133.9535  155.7871 LP  0  0  0  0  0  0  0  0  0  0  0  0  # atno 17394 bound_to 11000
  141.0558  134.0418  157.3724 LP  0  0  0  0  0  0  0  0  0  0  0  0  # atno 17395 bound_to 11000

$$$$
