#       Name:                AV-unprocessed.smi:16
#       Creating user name   scv26
#       Creation time:       Thu Mar 26 15:23:58 2020


#       File generated by GOLD software.
#

@<TRIPOS>MOLECULE
AV-unprocessed.smi:16
    70    74     1
SMALL
NO_CHARGES


@<TRIPOS>ATOM
      1 ****        -1.8302   0.6744   4.0350 C.3            1 S1                 0.0000
      2 ****        -3.2824   0.4420   3.5891 C.3            1 S1                 0.0000
      3 ****        -3.3632  -0.2938   2.3278 N.3            1 S1                 0.0000
      4 ****        -4.7415  -0.7524   2.1385 C.3            1 S1                 0.0000
      5 ****        -4.8511  -1.6226   0.8750 C.3            1 S1                 0.0000
      6 ****        -4.3870  -0.8627  -0.3737 C.3            1 S1                 0.0000
      7 ****        -5.3282   0.1616  -0.6873 O.3            1 S1                 0.0000
      8 ****        -4.9800   0.8605  -1.8773 C.3            1 S1                 0.0000
      9 ****        -3.6180   1.5488  -1.6959 C.3            1 S1                 0.0000
     10 ****        -2.6108   0.5743  -1.2766 N.3            1 S1                 0.0000
     11 ****        -1.3024   0.9380  -1.3464 C.ar           1 S1                 0.0000
     12 ****        -0.9748   2.2568  -1.4154 N.ar           1 S1                 0.0000
     13 ****         0.3044   2.6357  -1.4785 C.ar           1 S1                 0.0000
     14 ****         1.3996   1.8749  -1.4868 N.ar           1 S1                 0.0000
     15 ****         1.0822   0.5504  -1.4212 C.ar           1 S1                 0.0000
     16 ****        -0.2299  -0.0004  -1.3544 C.ar           1 S1                 0.0000
     17 ****        -0.1540  -1.3886  -1.3349 N.2            1 S1                 0.0000
     18 ****         1.1252  -1.6421  -1.3801 C.2            1 S1                 0.0000
     19 ****         1.9415  -0.5347  -1.4088 N.pl3          1 S1                 0.0000
     20 ****         3.3712  -0.5247  -1.5154 C.3            1 S1                 0.0000
     21 ****         4.2262  -1.6390  -0.9022 C.3            1 S1                 0.0000
     22 ****         5.3512  -0.6104  -0.6407 C.3            1 S1                 0.0000
     23 ****         6.1269  -0.7536   0.6833 C.3            1 S1                 0.0000
     24 ****         5.2748  -0.9080   1.8004 O.3            1 S1                 0.0000
     25 ****         6.3955  -0.5184  -1.7700 C.3            1 S1                 0.0000
     26 ****         7.1456   0.6767  -1.6893 O.3            1 S1                 0.0000
     27 ****         4.2230   0.4460  -0.6918 C.3            1 S1                 0.0000
     28 ****        -2.9970  -0.2426  -0.1233 C.3            1 S1                 0.0000
     29 ****        -2.9792   0.5600   1.1992 C.3            1 S1                 0.0000
     30 ****        -4.3388  -1.5613  -1.2110 H              1 S1                 0.0000
     31 ****        -2.2968  -1.0692  -0.0158 H              1 S1                 0.0000
     32 ****        -1.8057   1.1033   5.0367 H              1 S1                 0.0000
     33 ****        -1.3001   1.3646   3.3797 H              1 S1                 0.0000
     34 ****        -1.2715  -0.2615   4.0653 H              1 S1                 0.0000
     35 ****        -3.7763  -0.1401   4.3684 H              1 S1                 0.0000
     36 ****        -3.8221   1.3874   3.5169 H              1 S1                 0.0000
     37 ****        -5.0539  -1.3427   3.0008 H              1 S1                 0.0000
     38 ****        -5.4185   0.1010   2.0738 H              1 S1                 0.0000
     39 ****        -4.2409  -2.5179   1.0015 H              1 S1                 0.0000
     40 ****        -5.8772  -1.9666   0.7434 H              1 S1                 0.0000
     41 ****        -4.9559   0.1712  -2.7228 H              1 S1                 0.0000
     42 ****        -5.7491   1.6020  -2.0932 H              1 S1                 0.0000
     43 ****        -3.3221   2.0144  -2.6370 H              1 S1                 0.0000
     44 ****        -3.6952   2.3443  -0.9538 H              1 S1                 0.0000
     45 ****         0.4745   3.7009  -1.5292 H              1 S1                 0.0000
     46 ****         1.5090  -2.6519  -1.3945 H              1 S1                 0.0000
     47 ****         3.5876  -0.4154  -2.5794 H              1 S1                 0.0000
     48 ****         3.7820  -2.0474   0.0070 H              1 S1                 0.0000
     49 ****         4.4883  -2.4378  -1.5966 H              1 S1                 0.0000
     50 ****         6.7945  -1.6153   0.6507 H              1 S1                 0.0000
     51 ****         6.7509   0.1211   0.8684 H              1 S1                 0.0000
     52 ****         5.8083  -0.9781   2.5772 H              1 S1                 0.0000
     53 ****         7.0821  -1.3651  -1.7390 H              1 S1                 0.0000
     54 ****         5.9230  -0.5474  -2.7519 H              1 S1                 0.0000
     55 ****         7.7544   0.6988  -2.4118 H              1 S1                 0.0000
     56 ****         4.4770   1.3700  -1.2121 H              1 S1                 0.0000
     57 ****         3.7799   0.6602   0.2822 H              1 S1                 0.0000
     58 ****        -3.6491   1.4191   1.1428 H              1 S1                 0.0000
     59 ****        -1.9748   0.9513   1.3548 H              1 S1                 0.0000
     60 ****        -2.7353  -1.0712   2.3645 LP             1 S1                 0.0000
     61 ****        -5.3616   0.8125   0.0712 LP             1 S1                 0.0000
     62 ****        -6.2293  -0.2544  -0.8093 LP             1 S1                 0.0000
     63 ****        -2.6280  -0.0675  -2.0433 LP             1 S1                 0.0000
     64 ****        -1.6976   2.9479  -1.4189 LP             1 S1                 0.0000
     65 ****         2.3332   2.2300  -1.5349 LP             1 S1                 0.0000
     66 ****        -0.9084  -2.0438  -1.2952 LP             1 S1                 0.0000
     67 ****         4.7247  -1.7362   1.6931 LP             1 S1                 0.0000
     68 ****         4.6711  -0.1144   1.8763 LP             1 S1                 0.0000
     69 ****         7.6474   0.7021  -0.8247 LP             1 S1                 0.0000
     70 ****         6.5316   1.4643  -1.7416 LP             1 S1                 0.0000
@<TRIPOS>BOND
    1    1    2 1     
    2    1   32 1     
    3    1   33 1     
    4    1   34 1     
    5    2    3 1     
    6    2   35 1     
    7    2   36 1     
    8    3   29 1     
    9    3    4 1     
   10    4    5 1     
   11    4   37 1     
   12    4   38 1     
   13    5    6 1     
   14    5   39 1     
   15    5   40 1     
   16    6   30 1     
   17    6   28 1     
   18    6    7 1     
   19    7    8 1     
   20    8    9 1     
   21    8   41 1     
   22    8   42 1     
   23    9   10 1     
   24    9   43 1     
   25    9   44 1     
   26   10   11 1     
   27   10   28 1     
   28   11   16 ar    
   29   11   12 ar    
   30   12   13 ar    
   31   13   14 ar    
   32   13   45 1     
   33   14   15 ar    
   34   15   19 1     
   35   15   16 ar    
   36   16   17 1     
   37   17   18 2     
   38   18   19 1     
   39   18   46 1     
   40   19   20 1     
   41   20   27 1     
   42   20   21 1     
   43   20   47 1     
   44   21   22 1     
   45   21   48 1     
   46   21   49 1     
   47   22   23 1     
   48   22   25 1     
   49   22   27 1     
   50   23   24 1     
   51   23   50 1     
   52   23   51 1     
   53   24   52 1     
   54   25   26 1     
   55   25   53 1     
   56   25   54 1     
   57   26   55 1     
   58   27   56 1     
   59   27   57 1     
   60   28   31 1     
   61   28   29 1     
   62   29   58 1     
   63   29   59 1     
   64    3   60 1     
   65    7   61 1     
   66    7   62 1     
   67   10   63 1     
   68   12   64 1     
   69   14   65 1     
   70   17   66 1     
   71   24   67 1     
   72   24   68 1     
   73   26   69 1     
   74   26   70 1     
@<TRIPOS>SUBSTRUCTURE
      1 S1             1
@<TRIPOS>SET
LONE_PAIRS      STATIC     ATOMS    <user>   **** ""
11 60 61 62 63 64 65 66 67 68 69 70
DONOR_HYDROGENS      STATIC     ATOMS    <user>   **** ""
2 52 55
ATOM$BLUE        STATIC     ATOMS    COLORGROUP SYSTEM
11 60 61 62 63 64 65 66 67 68 69 70
ATOM$RED        STATIC     ATOMS    COLORGROUP SYSTEM
2 52 55
