#       Name:                AV-unprocessed.smi:1537
#       Creating user name   scv26
#       Creation time:       Fri Mar 27 06:35:43 2020


#       File generated by GOLD software.
#

@<TRIPOS>MOLECULE
AV-unprocessed.smi:1537
    48    48     1
SMALL
NO_CHARGES


@<TRIPOS>ATOM
      1 ****        -2.3743   5.0480   1.9689 C.3            1 S1                 0.0000
      2 ****        -3.7254   4.3487   1.7874 C.3            1 S1                 0.0000
      3 ****        -3.7304   3.4074   0.6300 C.2            1 S1                 0.0000
      4 ****        -3.3495   2.1305   0.7182 N.2            1 S1                 0.0000
      5 ****        -3.4016   1.4651  -0.5116 C.2            1 S1                 0.0000
      6 ****        -3.0086   0.0193  -0.6008 C.3            1 S1                 0.0000
      7 ****        -1.5172  -0.1049  -0.9157 C.2            1 S1                 0.0000
      8 ****        -1.1491  -0.3954  -2.0540 O.2            1 S1                 0.0000
      9 ****        -0.6698   0.1134   0.1032 N.am           1 S1                 0.0000
     10 ****         0.7874   0.0339   0.0244 C.3            1 S1                 0.0000
     11 ****         1.3698   0.8189   1.2115 C.3            1 S1                 0.0000
     12 ****         1.2599  -1.4247   0.1387 C.2            1 S1                 0.0000
     13 ****         0.6902  -2.2065   0.9015 O.2            1 S1                 0.0000
     14 ****         2.3165  -1.7583  -0.6233 N.am           1 S1                 0.0000
     15 ****         2.9885  -3.0584  -0.7344 C.3            1 S1                 0.0000
     16 ****         4.1378  -2.8827  -1.7422 C.3            1 S1                 0.0000
     17 ****         2.0140  -4.1300  -1.2671 C.3            1 S1                 0.0000
     18 ****         3.5781  -3.4865   0.6259 C.3            1 S1                 0.0000
     19 ****        -3.8306   2.2667  -1.5407 C.2            1 S1                 0.0000
     20 ****        -4.1700   3.8889  -1.0044 S.3            1 S1                 0.0000
     21 ****        -2.4008   5.7309   2.8181 H              1 S1                 0.0000
     22 ****        -2.1096   5.6267   1.0835 H              1 S1                 0.0000
     23 ****        -1.5780   4.3245   2.1471 H              1 S1                 0.0000
     24 ****        -3.9845   3.7974   2.6921 H              1 S1                 0.0000
     25 ****        -4.5107   5.0902   1.6376 H              1 S1                 0.0000
     26 ****        -3.2253  -0.5034   0.3319 H              1 S1                 0.0000
     27 ****        -3.5838  -0.4868  -1.3772 H              1 S1                 0.0000
     28 ****        -1.0640   0.3430   1.0041 H              1 S1                 0.0000
     29 ****         1.1350   0.4739  -0.9126 H              1 S1                 0.0000
     30 ****         2.4604   0.7991   1.2033 H              1 S1                 0.0000
     31 ****         1.0366   0.4156   2.1692 H              1 S1                 0.0000
     32 ****         1.0649   1.8652   1.1718 H              1 S1                 0.0000
     33 ****         2.6974  -1.0252  -1.2036 H              1 S1                 0.0000
     34 ****         4.6889  -3.8134  -1.8821 H              1 S1                 0.0000
     35 ****         4.8500  -2.1280  -1.4060 H              1 S1                 0.0000
     36 ****         3.7670  -2.5722  -2.7198 H              1 S1                 0.0000
     37 ****         1.5646  -3.8229  -2.2123 H              1 S1                 0.0000
     38 ****         1.2032  -4.3325  -0.5674 H              1 S1                 0.0000
     39 ****         2.5282  -5.0757  -1.4412 H              1 S1                 0.0000
     40 ****         4.1608  -4.4031   0.5291 H              1 S1                 0.0000
     41 ****         2.8034  -3.6792   1.3678 H              1 S1                 0.0000
     42 ****         4.2391  -2.7195   1.0310 H              1 S1                 0.0000
     43 ****        -3.9586   2.0032  -2.5803 H              1 S1                 0.0000
     44 ****        -3.0585   1.6967   1.5710 LP             1 S1                 0.0000
     45 ****        -1.8256  -0.5505  -2.7739 LP             1 S1                 0.0000
     46 ****        -0.1736  -0.4763  -2.2587 LP             1 S1                 0.0000
     47 ****        -0.0845  -1.8937   1.4510 LP             1 S1                 0.0000
     48 ****         1.0025  -3.1540   0.9712 LP             1 S1                 0.0000
@<TRIPOS>BOND
    1    1    2 1     
    2    1   21 1     
    3    1   22 1     
    4    1   23 1     
    5    2    3 1     
    6    2   24 1     
    7    2   25 1     
    8    3   20 1     
    9    3    4 2     
   10    4    5 1     
   11    5    6 1     
   12    5   19 2     
   13    6    7 1     
   14    6   26 1     
   15    6   27 1     
   16    7    8 2     
   17    7    9 am    
   18    9   10 1     
   19    9   28 1     
   20   10   11 1     
   21   10   12 1     
   22   10   29 1     
   23   11   30 1     
   24   11   31 1     
   25   11   32 1     
   26   12   13 2     
   27   12   14 am    
   28   14   15 1     
   29   14   33 1     
   30   15   16 1     
   31   15   17 1     
   32   15   18 1     
   33   16   34 1     
   34   16   35 1     
   35   16   36 1     
   36   17   37 1     
   37   17   38 1     
   38   17   39 1     
   39   18   40 1     
   40   18   41 1     
   41   18   42 1     
   42   19   20 1     
   43   19   43 1     
   44    4   44 1     
   45    8   45 1     
   46    8   46 1     
   47   13   47 1     
   48   13   48 1     
@<TRIPOS>SUBSTRUCTURE
      1 S1             1
@<TRIPOS>SET
LONE_PAIRS      STATIC     ATOMS    <user>   **** ""
5 44 45 46 47 48
DONOR_HYDROGENS      STATIC     ATOMS    <user>   **** ""
2 28 33
ATOM$BLUE        STATIC     ATOMS    COLORGROUP SYSTEM
5 44 45 46 47 48
ATOM$RED        STATIC     ATOMS    COLORGROUP SYSTEM
2 28 33
