AV-unprocessed.smi:1641|AV-procd|sdf|6561|dock8
  -GOLD-   22720 7243D 1   1.00000     0.00000
 Structure written by MMmdl.
 42 43  0  0  0  0  0  0  0  0  2 V2000
  152.5708  139.6085  157.8633 C   0  0  0  0  0  0  0  0  0  0  0  0
  152.1524  138.6556  156.7964 C   0  0  0  0  0  0  0  0  0  0  0  0
  152.9381  138.3341  155.7614 N   0  0  0  0  0  0  0  0  0  0  0  0
  152.3283  137.4354  154.8975 N   0  0  0  0  0  0  0  0  0  0  0  0
  151.0963  137.1046  155.3085 C   0  0  0  0  0  0  0  0  0  0  0  0
  150.2453  136.2097  154.6076 N   0  0  0  0  0  0  0  0  0  0  0  0
  149.7544  135.0300  155.0259 C   0  0  0  0  0  0  0  0  0  0  0  0
  149.9494  134.5279  156.1333 O   0  0  0  0  0  0  0  0  0  0  0  0
  149.0123  134.4445  154.0749 N   0  0  0  0  0  0  0  0  0  0  0  0
  148.3469  133.1549  154.2190 C   0  0  0  0  0  0  0  0  0  0  0  0
  148.8187  132.1509  153.1490 C   0  0  0  0  0  0  0  0  0  0  0  0
  147.7050  131.6710  152.2945 N   0  3  1  0  0  0  0  0  0  0  0  0
  147.1517  130.3790  152.7610 C   0  0  0  0  0  0  0  0  0  0  0  0
  146.0768  129.8696  151.7845 C   0  0  1  0  0  0  0  0  0  0  0  0
  145.4173  128.5781  152.2802 C   0  0  0  0  0  0  0  0  0  0  0  0
  145.0577  130.8560  151.6436 O   0  0  0  0  0  0  0  0  0  0  0  0
  145.5137  132.1317  151.1934 C   0  0  2  0  0  0  0  0  0  0  0  0
  145.9239  132.1150  149.7100 C   0  0  0  0  0  0  0  0  0  0  0  0
  146.6155  132.6649  152.1299 C   0  0  0  0  0  0  0  0  0  0  0  0
  150.5792  137.8679  156.8022 S   0  0  0  0  0  0  0  0  0  0  0  0
  153.5748  139.9877  157.6697 H   0  0  0  0  0  0  0  0  0  0  0  0
  152.5669  139.1083  158.8318 H   0  0  0  0  0  0  0  0  0  0  0  0
  151.8805  140.4514  157.9002 H   0  0  0  0  0  0  0  0  0  0  0  0
  149.9940  136.4959  153.6729 H   0  0  0  0  0  0  0  0  0  0  0  0
  148.8959  134.9253  153.1943 H   0  0  0  0  0  0  0  0  0  0  0  0
  148.5198  132.7783  155.2275 H   0  0  0  0  0  0  0  0  0  0  0  0
  147.2724  133.3158  154.1282 H   0  0  0  0  0  0  0  0  0  0  0  0
  149.5607  132.6495  152.5232 H   0  0  0  0  0  0  0  0  0  0  0  0
  149.3233  131.2959  153.6017 H   0  0  0  0  0  0  0  0  0  0  0  0
  147.9518  129.6415  152.8388 H   0  0  0  0  0  0  0  0  0  0  0  0
  146.7311  130.5023  153.7607 H   0  0  0  0  0  0  0  0  0  0  0  0
  146.5303  129.6663  150.8142 H   0  0  0  0  0  0  0  0  0  0  0  0
  146.1514  127.7800  152.3941 H   0  0  0  0  0  0  0  0  0  0  0  0
  144.6586  128.2335  151.5770 H   0  0  0  0  0  0  0  0  0  0  0  0
  144.9326  128.7272  153.2455 H   0  0  0  0  0  0  0  0  0  0  0  0
  144.6576  132.8021  151.2747 H   0  0  0  0  0  0  0  0  0  0  0  0
  146.1375  133.1243  149.3574 H   0  0  0  0  0  0  0  0  0  0  0  0
  145.1221  131.7136  149.0896 H   0  0  0  0  0  0  0  0  0  0  0  0
  146.8165  131.5158  149.5324 H   0  0  0  0  0  0  0  0  0  0  0  0
  146.1862  132.8861  153.1086 H   0  0  0  0  0  0  0  0  0  0  0  0
  147.0006  133.6060  151.7388 H   0  0  0  0  0  0  0  0  0  0  0  0
  148.0946  131.5000  151.3785 H   0  0  0  0  0  0  0  0  0  0  0  0
  1  2  1  0  0  0  0
  1 21  1  0  0  0  0
  1 22  1  0  0  0  0
  1 23  1  0  0  0  0
  2 20  1  0  0  0  0
  2  3  2  0  0  0  0
  3  4  1  0  0  0  0
  4  5  2  0  0  0  0
  5  6  1  0  0  0  0
  5 20  1  0  0  0  0
  6  7  1  0  0  0  0
  6 24  1  0  0  0  0
  7  8  2  0  0  0  0
  7  9  1  0  0  0  0
  9 10  1  0  0  0  0
  9 25  1  0  0  0  0
 10 11  1  0  0  0  0
 10 26  1  0  0  0  0
 10 27  1  0  0  0  0
 11 12  1  0  0  0  0
 11 28  1  0  0  0  0
 11 29  1  0  0  0  0
 12 19  1  0  0  0  0
 12 13  1  0  0  0  0
 12 42  1  0  0  0  0
 13 14  1  0  0  0  0
 13 30  1  0  0  0  0
 13 31  1  0  0  0  0
 14 15  1  0  0  0  0
 14 16  1  0  0  0  0
 14 32  1  0  0  0  0
 15 33  1  0  0  0  0
 15 34  1  0  0  0  0
 15 35  1  0  0  0  0
 16 17  1  0  0  0  0
 17 18  1  0  0  0  0
 17 19  1  0  0  0  0
 17 36  1  0  0  0  0
 18 37  1  0  0  0  0
 18 38  1  0  0  0  0
 18 39  1  0  0  0  0
 19 40  1  0  0  0  0
 19 41  1  0  0  0  0
M  CHG  1  12   1
M  END
> <s_m_source_file>
AV-unprocessed.smi

> <i_m_source_file_index>
1641

> <i_lp_mmshare_version>
43012

> <i_f3d_flags>
0

> <s_epik_input>
W0NIM11jMW5uYyhzMSlbTkhdQyg9TylbTkhdW0NIMl1bQ0gyXU4yW0NIMl1bQ0BASF0oW0NIM10pT1tDQEBIXShbQ0gzXSlbQ0gyXTI=

> <s_epik_cmdline>
J2VwaWtfcHl0aG9uJywgJy1waCcsICc3LjAnLCAnLXRuJywgJzgnLCAnLW1hJywgJzIwMCcsICctbWV0YWxfYmluZGluZycsICctaW1hZScsICc8aW5maWxlLm1hZT4nLCAnLW9tYWUnLCAnPG91dGZpbGUubWFlPic=

> <r_lp_tautomer_probability>
1

> <r_epik_Ionization_Penalty>
0.700114

> <r_epik_Ionization_Penalty_Charging>
0.695697

> <r_epik_Ionization_Penalty_Neutral>
0.00441638

> <r_epik_State_Penalty>
0.717972

> <r_epik_Charging_Adjusted_Penalty>
1.41367

> <i_epik_Tot_Q>
1

> <i_epik_Tot_abs_Q>
1

> <r_epik_Metal_State_Penalty>
1.06958

> <b_epik_Metal_Only>
0

> <s_lp_Force_Field>
OPLS_2005

> <r_lp_Energy>
15.7554

> <b_lp_Chiralities_Consistent>
1

> <s_lp_Variant>
AV-unprocessed.smi:1641-6

> <Gold.Version>
5.8.1

> <Gold.Id.Protein>
6NUR|6NUR_protein|mol2

> <Gold.PLP.Fitness>
40.4220

> <Gold.PLP.PLP>
-31.6012

> <Gold.PLP.part.hbond>
-4.4464

> <Gold.PLP.part.metal>
0.0000

> <Gold.PLP.part.buried>
-4.3027

> <Gold.PLP.part.nonpolar>
-24.2676

> <Gold.PLP.part.repulsive>
0.3326

> <Gold.PLP.ligand.clash>
0.0000

> <Gold.PLP.ligand.torsion>
1.3999

> <Gold.PLP.Chemscore.Hbond>
3.8697

> <Gold.PLP.Chemscore.CHOScore>
0.0000

> <Gold.PLP.Chemscore.Metal>
0.0000

> <Gold.Chemscore.Hbonds>
donor molecule, donor type, donor heavy atom, donor atom, acceptor molecule, acceptor atom, score
      L1  H     6    24       P1  7948  0.82
      L1  H     9    25       P1  7948  1.00
      L1  H    12    42       P1 10747  1.00
      P1  H  7997  8008       L1     3  0.13
      P1  H 10752 10764       L1     4  0.62

> <Gold.PLP.Chemscore.Internal.Correction>
0.0116

> <Gold.Rescore>
     Score         DG    S(hbond)    S(metal)    S(lipo)     H(rot)  DE(clash)    DE(int)     intcor
     19.85     -21.46       3.37        0.00      76.14       1.64       0.11       1.50       ----

> <Gold.Chemscore.Fitness>
19.8509

> <Gold.Chemscore.DG>
-21.4575

> <Gold.Chemscore.ZeroCoef>
-5.4800

> <Gold.Chemscore.Hbond>
3.3704

> <Gold.Chemscore.Metal>
0.0000

> <Gold.Chemscore.Lipo>
76.1369

> <Gold.Chemscore.Internal_Hbond>
0.0000

> <Gold.Chemscore.DEClash>
0.1075

> <Gold.Chemscore.DEInternal>
1.4991

> <Gold.Chemscore.Rot>
1.6358

> <Gold.Chemscore.Internal.Correction>
   9.000000E+99

> <Gold.Chemscore.Hbonds>
donor molecule, donor type, donor heavy atom, donor atom, acceptor molecule, acceptor atom, score
      L1  H     6    24       P1  7948  0.15
      L1  H     9    25       P1  7948  0.26
      L1  H    12    42       P1 10747  0.95
      P1  H  7997  8008       L1     3  0.01
      P1  H 10752 10764       L1     4  0.12

> <Gold.Chemscore.Hbond.Weighted>
-11.2572

> <Gold.Chemscore.Metal.Weighted>
-0.0000

> <Gold.Chemscore.Lipo.Weighted>
-8.9080

> <Gold.Chemscore.Internal_Hbond.Weighted>
0.0000

> <Gold.Chemscore.DEClash.Weighted>
0.1075

> <Gold.Chemscore.DEInternal.Weighted>
1.4991

> <Gold.Chemscore.Rot.Weighted>
4.1878

> <Gold.Chemscore.Internal.Correction.Weighted>
   9.000000E+99

> <Gold.Protein.RotatedTorsions>
[ 6907 6896 6895 6894 ] final -138.56 input  -60.11 | X-H torsion
[ 7974 7965 7964 7962 ] final  136.57 input  175.53 | X-H torsion
[ 8008 7997 7996 7995 ] final  -41.11 input   59.86 | X-H torsion
[ 10167 10162 10161 10158 ] final -121.81 input  -65.29 | X-H torsion
[ 10718 10713 10712 10709 ] final  168.55 input   66.30 | X-H torsion
[ 10763 10752 10751 10750 ] final  -69.86 input  -60.55 | X-H torsion
[ 11005 11000 10999 10996 ] final   19.47 input  -57.11 | X-H torsion

> <Gold.Protein.ActiveResidues>
 VAL166  LYS551  ARG553  GLY616  TRP617  ASP618  TYR619  PRO620  LYS621  CYS622 
 ASP623  PHE694  ASN695  SER759  ASP760  ASP761  ALA762  ILE779  LEU786  VAL792 
 PHE793  MET794  SER795  GLU796  ALA797  LYS798  CYS799  TRP800  GLU811  SER814 

> <Gold.Protein.RotatedAtoms>
  151.0366  133.5743  159.2655 H   0  0  0  0  0  0  0  0  0  0  0  0  # atno 6907 bound_to 6896
  151.2805  135.0711  159.9177 H   0  0  0  0  0  0  0  0  0  0  0  0  # atno 6908 bound_to 6896
  152.5356  134.0082  159.7980 H   0  0  0  0  0  0  0  0  0  0  0  0  # atno 6909 bound_to 6896
  144.9552  139.4773  143.5506 H   0  0  0  0  0  0  0  0  0  0  0  0  # atno 7974 bound_to 7965
  154.4006  140.1508  156.3137 H   0  0  0  0  0  0  0  0  0  0  0  0  # atno 8008 bound_to 7997
  155.8592  140.3454  155.5723 H   0  0  0  0  0  0  0  0  0  0  0  0  # atno 8009 bound_to 7997
  155.7898  140.0855  157.2005 H   0  0  0  0  0  0  0  0  0  0  0  0  # atno 8010 bound_to 7997
  140.0210  143.5344  152.2220 H   0  0  0  0  0  0  0  0  0  0  0  0  # atno 10167 bound_to 10162
  157.0355  131.0271  151.2730 H   0  0  0  0  0  0  0  0  0  0  0  0  # atno 10718 bound_to 10713
  154.4094  135.6012  153.5944 H   0  0  0  0  0  0  0  0  0  0  0  0  # atno 10763 bound_to 10752
  152.9790  135.5925  154.4088 H   0  0  0  0  0  0  0  0  0  0  0  0  # atno 10764 bound_to 10752
  154.3898  135.2842  155.2140 H   0  0  0  0  0  0  0  0  0  0  0  0  # atno 10765 bound_to 10752
  140.4133  134.1595  155.7668 H   0  0  0  0  0  0  0  0  0  0  0  0  # atno 11005 bound_to 11000
  146.3335  139.8664  142.8847 LP  0  0  0  0  0  0  0  0  0  0  0  0  # atno 17320 bound_to 7965
  145.2783  141.0131  143.3732 LP  0  0  0  0  0  0  0  0  0  0  0  0  # atno 17321 bound_to 7965
  139.6140  144.7615  151.2889 LP  0  0  0  0  0  0  0  0  0  0  0  0  # atno 17342 bound_to 10162
  140.7342  143.6772  150.8031 LP  0  0  0  0  0  0  0  0  0  0  0  0  # atno 17343 bound_to 10162
  157.5145  130.7959  149.7741 LP  0  0  0  0  0  0  0  0  0  0  0  0  # atno 17370 bound_to 10713
  156.0055  130.3858  150.2447 LP  0  0  0  0  0  0  0  0  0  0  0  0  # atno 17371 bound_to 10713
  141.1813  133.8409  157.1249 LP  0  0  0  0  0  0  0  0  0  0  0  0  # atno 17394 bound_to 11000
  140.0252  134.9927  157.0671 LP  0  0  0  0  0  0  0  0  0  0  0  0  # atno 17395 bound_to 11000

$$$$
