AV-unprocessed.smi:2396|AV-procd|sdf|9492|dock6
  -GOLD-   2272013123D 1   1.00000     0.00000
 Structure written by MMmdl.
 32 32  0  0  0  0  0  0  0  0  1 V2000
  151.9144  144.2180  158.0455 C   0  0  0  0  0  0  0  0  0  0  0  0
  151.1137  142.9093  158.0266 C   0  0  0  0  0  0  0  0  0  0  0  0
  150.3675  142.7550  156.7834 N   0  0  0  0  0  0  0  0  0  0  0  0
  150.2999  141.6270  156.0597 C   0  0  0  0  0  0  0  0  0  0  0  0
  150.8763  140.5862  156.3788 O   0  0  0  0  0  0  0  0  0  0  0  0
  149.4558  141.6932  154.7820 C   0  0  0  0  0  0  0  0  0  0  0  0
  148.4216  140.6725  154.7559 N   0  0  0  0  0  0  0  0  0  0  0  0
  148.2273  139.6713  153.8321 C   0  0  0  0  0  0  0  0  0  0  0  0
  147.1243  138.9599  154.2127 C   0  0  0  0  0  0  0  0  0  0  0  0
  146.5181  137.7814  153.4928 C   0  0  0  0  0  0  0  0  0  0  0  0
  146.1816  138.1063  152.0294 C   0  0  0  0  0  0  0  0  0  0  0  0
  147.3587  138.2963  151.2731 O   0  0  0  0  0  0  0  0  0  0  0  0
  146.7035  139.6092  155.4181 C   0  0  0  0  0  0  0  0  0  0  0  0
  145.5300  139.3162  156.3241 C   0  0  0  0  0  0  0  0  0  0  0  0
  145.5397  140.1668  157.3502 F   0  0  0  0  0  0  0  0  0  0  0  0
  144.3651  139.4302  155.6900 F   0  0  0  0  0  0  0  0  0  0  0  0
  145.6252  138.0732  156.7974 F   0  0  0  0  0  0  0  0  0  0  0  0
  147.4886  140.6336  155.7274 N   0  0  0  0  0  0  0  0  0  0  0  0
  152.4904  144.3055  158.9669 H   0  0  0  0  0  0  0  0  0  0  0  0
  151.2584  145.0870  157.9827 H   0  0  0  0  0  0  0  0  0  0  0  0
  152.6141  144.2641  157.2106 H   0  0  0  0  0  0  0  0  0  0  0  0
  151.7930  142.0618  158.1228 H   0  0  0  0  0  0  0  0  0  0  0  0
  150.4384  142.8641  158.8825 H   0  0  0  0  0  0  0  0  0  0  0  0
  149.8675  143.5656  156.4478 H   0  0  0  0  0  0  0  0  0  0  0  0
  148.9758  142.6690  154.6944 H   0  0  0  0  0  0  0  0  0  0  0  0
  150.1063  141.5751  153.9142 H   0  0  0  0  0  0  0  0  0  0  0  0
  148.8804  139.5530  152.9798 H   0  0  0  0  0  0  0  0  0  0  0  0
  147.2239  136.9502  153.4979 H   0  0  0  0  0  0  0  0  0  0  0  0
  145.6360  137.3980  154.0048 H   0  0  0  0  0  0  0  0  0  0  0  0
  145.5743  137.3188  151.5818 H   0  0  0  0  0  0  0  0  0  0  0  0
  145.6006  139.0275  151.9795 H   0  0  0  0  0  0  0  0  0  0  0  0
  147.8604  138.9937  151.6669 H   0  0  0  0  0  0  0  0  0  0  0  0
  1  2  1  0  0  0  0
  1 19  1  0  0  0  0
  1 20  1  0  0  0  0
  1 21  1  0  0  0  0
  2  3  1  0  0  0  0
  2 22  1  0  0  0  0
  2 23  1  0  0  0  0
  3  4  1  0  0  0  0
  3 24  1  0  0  0  0
  4  5  2  0  0  0  0
  4  6  1  0  0  0  0
  6  7  1  0  0  0  0
  6 25  1  0  0  0  0
  6 26  1  0  0  0  0
  7 18  1  0  0  0  0
  7  8  1  0  0  0  0
  8  9  2  0  0  0  0
  8 27  1  0  0  0  0
  9 10  1  0  0  0  0
  9 13  1  0  0  0  0
 10 11  1  0  0  0  0
 10 28  1  0  0  0  0
 10 29  1  0  0  0  0
 11 12  1  0  0  0  0
 11 30  1  0  0  0  0
 11 31  1  0  0  0  0
 12 32  1  0  0  0  0
 13 14  1  0  0  0  0
 13 18  2  0  0  0  0
 14 15  1  0  0  0  0
 14 16  1  0  0  0  0
 14 17  1  0  0  0  0
M  END
> <s_m_source_file>
AV-unprocessed.smi

> <i_m_source_file_index>
2396

> <i_lp_mmshare_version>
43012

> <i_f3d_flags>
0

> <s_epik_input>
W0NIM11bQ0gyXVtOSF1DKD1PKVtDSDJdbjFbY0hdYyhjKG4xKUMoRikoRilGKVtDSDJdW0NIMl1bT0hd

> <s_epik_cmdline>
J2VwaWtfcHl0aG9uJywgJy1waCcsICc3LjAnLCAnLXRuJywgJzgnLCAnLW1hJywgJzIwMCcsICctbWV0YWxfYmluZGluZycsICctaW1hZScsICc8aW5maWxlLm1hZT4nLCAnLW9tYWUnLCAnPG91dGZpbGUubWFlPic=

> <r_lp_tautomer_probability>
1

> <r_epik_Ionization_Penalty>
2.37964e-07

> <r_epik_Ionization_Penalty_Charging>
0

> <r_epik_Ionization_Penalty_Neutral>
2.37964e-07

> <r_epik_State_Penalty>
-0

> <r_epik_Charging_Adjusted_Penalty>
0

> <i_epik_Tot_Q>
0

> <i_epik_Tot_abs_Q>
0

> <r_epik_Metal_State_Penalty>
-0

> <b_epik_Metal_Only>
0

> <s_lp_Force_Field>
OPLS_2005

> <r_lp_Energy>
5.98536

> <b_lp_Chiralities_Consistent>
1

> <s_lp_Variant>
AV-unprocessed.smi:2396-1

> <Gold.Version>
5.8.1

> <Gold.Id.Protein>
6NUR|6NUR_protein|mol2

> <Gold.PLP.Fitness>
37.1696

> <Gold.PLP.PLP>
-26.4313

> <Gold.PLP.part.hbond>
-4.0000

> <Gold.PLP.part.metal>
0.0000

> <Gold.PLP.part.buried>
0.0623

> <Gold.PLP.part.nonpolar>
-21.4095

> <Gold.PLP.part.repulsive>
0.1030

> <Gold.PLP.ligand.clash>
0.0000

> <Gold.PLP.ligand.torsion>
0.1577

> <Gold.PLP.Chemscore.Hbond>
2.6750

> <Gold.PLP.Chemscore.CHOScore>
0.9930

> <Gold.PLP.Chemscore.Metal>
0.0000

> <Gold.Chemscore.Hbonds>
donor molecule, donor type, donor heavy atom, donor atom, acceptor molecule, acceptor atom, score
      L1  H     3    24       P1  8028  1.00
      L1  H    12    32       P1  7957  0.62
      P1  H  7954  7966       L1    12  1.00
      L1  C     8    27       P1  7957  0.97

> <Gold.PLP.Chemscore.Internal.Correction>
0.0498

> <Gold.Rescore>
     Score         DG    S(hbond)    S(metal)    S(lipo)     H(rot)  DE(clash)    DE(int)     intcor
     11.26     -12.72       2.40        0.00      55.91       2.86       0.37       1.09       ----

> <Gold.Chemscore.Fitness>
11.2597

> <Gold.Chemscore.DG>
-12.7180

> <Gold.Chemscore.ZeroCoef>
-5.4800

> <Gold.Chemscore.Hbond>
2.4027

> <Gold.Chemscore.Metal>
0.0000

> <Gold.Chemscore.Lipo>
55.9063

> <Gold.Chemscore.Internal_Hbond>
0.0000

> <Gold.Chemscore.DEClash>
0.3679

> <Gold.Chemscore.DEInternal>
1.0905

> <Gold.Chemscore.Rot>
2.8625

> <Gold.Chemscore.Internal.Correction>
   9.000000E+99

> <Gold.Chemscore.Hbonds>
donor molecule, donor type, donor heavy atom, donor atom, acceptor molecule, acceptor atom, score
      L1  H     3    24       P1  8028  1.00
      L1  H    12    32       P1  7957  0.55
      P1  H  7954  7966       L1    12  0.50

> <Gold.Chemscore.Hbond.Weighted>
-8.0249

> <Gold.Chemscore.Metal.Weighted>
-0.0000

> <Gold.Chemscore.Lipo.Weighted>
-6.5410

> <Gold.Chemscore.Internal_Hbond.Weighted>
0.0000

> <Gold.Chemscore.DEClash.Weighted>
0.3679

> <Gold.Chemscore.DEInternal.Weighted>
1.0905

> <Gold.Chemscore.Rot.Weighted>
7.3279

> <Gold.Chemscore.Internal.Correction.Weighted>
   9.000000E+99

> <Gold.Protein.RotatedTorsions>
[ 6907 6896 6895 6894 ] final  107.11 input  -60.11 | X-H torsion
[ 7974 7965 7964 7962 ] final -162.29 input  175.53 | X-H torsion
[ 8008 7997 7996 7995 ] final -162.45 input   59.86 | X-H torsion
[ 10167 10162 10161 10158 ] final   61.60 input  -65.29 | X-H torsion
[ 10718 10713 10712 10709 ] final    1.67 input   66.30 | X-H torsion
[ 10763 10752 10751 10750 ] final  -45.98 input  -60.55 | X-H torsion
[ 11005 11000 10999 10996 ] final -114.32 input  -57.11 | X-H torsion

> <Gold.Protein.ActiveResidues>
 VAL166  LYS551  ARG553  GLY616  TRP617  ASP618  TYR619  PRO620  LYS621  CYS622 
 ASP623  PHE694  ASN695  SER759  ASP760  ASP761  ALA762  ILE779  LEU786  VAL792 
 PHE793  MET794  SER795  GLU796  ALA797  LYS798  CYS799  TRP800  GLU811  SER814 

> <Gold.Protein.RotatedAtoms>
  152.5167  133.9283  159.7567 H   0  0  0  0  0  0  0  0  0  0  0  0  # atno 6907 bound_to 6896
  150.9639  133.6407  159.2756 H   0  0  0  0  0  0  0  0  0  0  0  0  # atno 6908 bound_to 6896
  151.3643  135.0915  159.9497 H   0  0  0  0  0  0  0  0  0  0  0  0  # atno 6909 bound_to 6896
  144.7362  140.3274  143.6159 H   0  0  0  0  0  0  0  0  0  0  0  0  # atno 7974 bound_to 7965
  155.8069  140.0900  157.1926 H   0  0  0  0  0  0  0  0  0  0  0  0  # atno 8008 bound_to 7997
  154.3980  140.1462  156.3400 H   0  0  0  0  0  0  0  0  0  0  0  0  # atno 8009 bound_to 7997
  155.8405  140.3439  155.5631 H   0  0  0  0  0  0  0  0  0  0  0  0  # atno 8010 bound_to 7997
  140.1530  144.4444  150.6749 H   0  0  0  0  0  0  0  0  0  0  0  0  # atno 10167 bound_to 10162
  156.8516  130.5556  149.5669 H   0  0  0  0  0  0  0  0  0  0  0  0  # atno 10718 bound_to 10713
  154.0375  135.6648  153.4786 H   0  0  0  0  0  0  0  0  0  0  0  0  # atno 10763 bound_to 10752
  153.0515  135.5082  154.7874 H   0  0  0  0  0  0  0  0  0  0  0  0  # atno 10764 bound_to 10752
  154.6839  135.3049  154.9540 H   0  0  0  0  0  0  0  0  0  0  0  0  # atno 10765 bound_to 10752
  141.0559  133.9613  157.2755 H   0  0  0  0  0  0  0  0  0  0  0  0  # atno 11005 bound_to 11000
  145.7507  139.1793  143.2323 LP  0  0  0  0  0  0  0  0  0  0  0  0  # atno 17320 bound_to 7965
  146.1063  140.7483  142.9525 LP  0  0  0  0  0  0  0  0  0  0  0  0  # atno 17321 bound_to 7965
  140.6690  143.2278  151.5671 LP  0  0  0  0  0  0  0  0  0  0  0  0  # atno 17342 bound_to 10162
  139.5417  144.2631  152.1363 LP  0  0  0  0  0  0  0  0  0  0  0  0  # atno 17343 bound_to 10162
  156.0825  130.5832  150.9588 LP  0  0  0  0  0  0  0  0  0  0  0  0  # atno 17370 bound_to 10713
  157.6300  131.0922  150.8460 LP  0  0  0  0  0  0  0  0  0  0  0  0  # atno 17371 bound_to 10713
  139.9390  135.0193  156.8647 LP  0  0  0  0  0  0  0  0  0  0  0  0  # atno 17394 bound_to 11000
  140.5965  134.0212  155.7520 LP  0  0  0  0  0  0  0  0  0  0  0  0  # atno 17395 bound_to 11000

$$$$
