AV-unprocessed.smi:1703|AV-procd|sdf|6875|dock4
  -GOLD-   22720 8 73D 1   1.00000     0.00000
 Structure written by MMmdl.
 50 52  0  0  0  0  0  0  0  0  3 V2000
  151.4610  138.0046  154.5438 C   0  0  0  0  0  0  0  0  0  0  0  0
  150.1706  138.7835  154.8213 C   0  0  2  0  0  0  0  0  0  0  0  0
  149.0683  138.4592  153.7967 C   0  0  0  0  0  0  0  0  0  0  0  0
  147.8704  139.2983  154.0420 N   0  3  2  0  0  0  0  0  0  0  0  0
  146.7289  138.9801  153.1473 C   0  0  0  0  0  0  0  0  0  0  0  0
  146.1201  137.5877  153.4260 C   0  0  1  0  0  0  0  0  0  0  0  0
  145.5083  137.5959  154.6996 O   0  0  0  0  0  0  0  0  0  0  0  0
  145.0452  137.1661  152.4042 C   0  0  0  0  0  0  0  0  0  0  0  0
  144.0089  136.2936  152.9822 N   0  0  0  0  0  0  0  0  0  0  0  0
  144.0885  134.9951  153.3967 C   0  0  0  0  0  0  0  0  0  0  0  0
  145.2862  134.1046  153.3471 C   0  0  0  0  0  0  0  0  0  0  0  0
  145.2834  133.1469  154.3827 O   0  0  0  0  0  0  0  0  0  0  0  0
  142.8560  134.6406  153.8562 N   0  3  0  0  0  0  0  0  0  0  0  0
  141.9792  135.7190  153.7394 C   0  0  0  0  0  0  0  0  0  0  0  0
  140.6331  135.8351  154.0720 C   0  0  0  0  0  0  0  0  0  0  0  0
  140.0239  137.0813  153.8190 C   0  0  0  0  0  0  0  0  0  0  0  0
  140.7487  138.1510  153.2557 C   0  0  0  0  0  0  0  0  0  0  0  0
  142.1132  138.0213  152.9223 C   0  0  0  0  0  0  0  0  0  0  0  0
  142.7111  136.7862  153.1781 C   0  0  0  0  0  0  0  0  0  0  0  0
  148.2338  140.7346  154.0065 C   0  0  0  0  0  0  0  0  0  0  0  0
  149.3722  141.0448  154.9982 C   0  0  1  0  0  0  0  0  0  0  0  0
  148.9232  141.0356  156.4704 C   0  0  0  0  0  0  0  0  0  0  0  0
  150.4786  140.1739  154.7642 O   0  0  0  0  0  0  0  0  0  0  0  0
  151.2872  136.9289  154.5827 H   0  0  0  0  0  0  0  0  0  0  0  0
  152.2267  138.2439  155.2823 H   0  0  0  0  0  0  0  0  0  0  0  0
  151.8631  138.2433  153.5589 H   0  0  0  0  0  0  0  0  0  0  0  0
  149.8278  138.5228  155.8226 H   0  0  0  0  0  0  0  0  0  0  0  0
  149.4328  138.6317  152.7826 H   0  0  0  0  0  0  0  0  0  0  0  0
  148.8145  137.4020  153.8655 H   0  0  0  0  0  0  0  0  0  0  0  0
  145.9444  139.7292  153.2659 H   0  0  0  0  0  0  0  0  0  0  0  0
  147.0703  139.0615  152.1150 H   0  0  0  0  0  0  0  0  0  0  0  0
  146.8977  136.8258  153.4364 H   0  0  0  0  0  0  0  0  0  0  0  0
  146.1789  137.5516  155.3637 H   0  0  0  0  0  0  0  0  0  0  0  0
  144.5399  138.0484  152.0094 H   0  0  0  0  0  0  0  0  0  0  0  0
  145.4972  136.6751  151.5432 H   0  0  0  0  0  0  0  0  0  0  0  0
  145.3285  133.5944  152.3849 H   0  0  0  0  0  0  0  0  0  0  0  0
  146.1898  134.7097  153.4274 H   0  0  0  0  0  0  0  0  0  0  0  0
  144.4104  132.7923  154.4604 H   0  0  0  0  0  0  0  0  0  0  0  0
  140.0752  135.0164  154.5026 H   0  0  0  0  0  0  0  0  0  0  0  0
  138.9800  137.2193  154.0615 H   0  0  0  0  0  0  0  0  0  0  0  0
  140.2478  139.0912  153.0752 H   0  0  0  0  0  0  0  0  0  0  0  0
  142.6509  138.8512  152.4891 H   0  0  0  0  0  0  0  0  0  0  0  0
  148.5458  140.9973  152.9941 H   0  0  0  0  0  0  0  0  0  0  0  0
  147.3635  141.3500  154.2383 H   0  0  0  0  0  0  0  0  0  0  0  0
  149.7322  142.0520  154.7858 H   0  0  0  0  0  0  0  0  0  0  0  0
  148.1767  141.8095  156.6510 H   0  0  0  0  0  0  0  0  0  0  0  0
  149.7655  141.2301  157.1346 H   0  0  0  0  0  0  0  0  0  0  0  0
  148.4792  140.0845  156.7631 H   0  0  0  0  0  0  0  0  0  0  0  0
  147.5605  139.1105  154.9848 H   0  0  0  0  0  0  0  0  0  0  0  0
  142.6335  133.7235  154.2217 H   0  0  0  0  0  0  0  0  0  0  0  0
  1  2  1  0  0  0  0
  1 24  1  0  0  0  0
  1 25  1  0  0  0  0
  1 26  1  0  0  0  0
  2 23  1  0  0  0  0
  2  3  1  0  0  0  0
  2 27  1  0  0  0  0
  3  4  1  0  0  0  0
  3 28  1  0  0  0  0
  3 29  1  0  0  0  0
  4  5  1  0  0  0  0
  4 20  1  0  0  0  0
  4 49  1  0  0  0  0
  5  6  1  0  0  0  0
  5 30  1  0  0  0  0
  5 31  1  0  0  0  0
  6  7  1  0  0  0  0
  6  8  1  0  0  0  0
  6 32  1  0  0  0  0
  7 33  1  0  0  0  0
  8  9  1  0  0  0  0
  8 34  1  0  0  0  0
  8 35  1  0  0  0  0
  9 19  1  0  0  0  0
  9 10  1  0  0  0  0
 10 11  1  0  0  0  0
 10 13  2  0  0  0  0
 11 12  1  0  0  0  0
 11 36  1  0  0  0  0
 11 37  1  0  0  0  0
 12 38  1  0  0  0  0
 13 14  1  0  0  0  0
 13 50  1  0  0  0  0
 14 19  2  0  0  0  0
 14 15  1  0  0  0  0
 15 16  2  0  0  0  0
 15 39  1  0  0  0  0
 16 17  1  0  0  0  0
 16 40  1  0  0  0  0
 17 18  2  0  0  0  0
 17 41  1  0  0  0  0
 18 19  1  0  0  0  0
 18 42  1  0  0  0  0
 20 21  1  0  0  0  0
 20 43  1  0  0  0  0
 20 44  1  0  0  0  0
 21 22  1  0  0  0  0
 21 23  1  0  0  0  0
 21 45  1  0  0  0  0
 22 46  1  0  0  0  0
 22 47  1  0  0  0  0
 22 48  1  0  0  0  0
M  CHG  1   4   1
M  CHG  1  13   1
M  END
> <s_m_source_file>
AV-unprocessed.smi

> <i_m_source_file_index>
1703

> <i_lp_mmshare_version>
43012

> <i_f3d_flags>
0

> <s_epik_input>
W0NIM11bQ0BASF0xW0NIMl1OKFtDSDJdW0NASF0oTzEpW0NIM10pW0NIMl1bQ0BIXShbT0hdKVtDSDJdbihjKG4yKVtDSDJdW09IXSljKGMyMylbY0hdW2NIXVtjSF1bY0hdMw==

> <s_epik_cmdline>
J2VwaWtfcHl0aG9uJywgJy1waCcsICc3LjAnLCAnLXRuJywgJzgnLCAnLW1hJywgJzIwMCcsICctbWV0YWxfYmluZGluZycsICctaW1hZScsICc8aW5maWxlLm1hZT4nLCAnLW9tYWUnLCAnPG91dGZpbGUubWFlPic=

> <r_epik_Ionization_Penalty>
2.22579

> <r_epik_Ionization_Penalty_Charging>
2.22492

> <r_epik_Ionization_Penalty_Neutral>
0.000870007

> <r_epik_State_Penalty>
2.3141

> <r_epik_Charging_Adjusted_Penalty>
4.53902

> <i_epik_Tot_Q>
2

> <i_epik_Tot_abs_Q>
2

> <r_epik_Metal_State_Penalty>
6.36517

> <b_epik_Metal_Only>
0

> <s_lp_Force_Field>
OPLS_2005

> <r_lp_Energy>
32.2753

> <b_lp_Chiralities_Consistent>
1

> <s_lp_Variant>
AV-unprocessed.smi:1703-23

> <Gold.Version>
5.8.1

> <Gold.Id.Protein>
6NUR|6NUR_protein|mol2

> <Gold.PLP.Fitness>
43.8105

> <Gold.PLP.PLP>
-33.7348

> <Gold.PLP.part.hbond>
-3.0000

> <Gold.PLP.part.metal>
0.0000

> <Gold.PLP.part.buried>
-0.1134

> <Gold.PLP.part.nonpolar>
-31.8274

> <Gold.PLP.part.repulsive>
0.0864

> <Gold.PLP.ligand.clash>
0.0000

> <Gold.PLP.ligand.torsion>
0.9691

> <Gold.PLP.Chemscore.Hbond>
3.9913

> <Gold.PLP.Chemscore.CHOScore>
0.0000

> <Gold.PLP.Chemscore.Metal>
0.0000

> <Gold.Chemscore.Hbonds>
donor molecule, donor type, donor heavy atom, donor atom, acceptor molecule, acceptor atom, score
      L1  H    12    38       P1 10957  0.98
      L1  H    13    50       P1 10957  1.98
      P1  H  7989  7998       L1    23  1.00

> <Gold.PLP.Chemscore.Internal.Correction>
0.0401

> <Gold.Rescore>
     Score         DG    S(hbond)    S(metal)    S(lipo)     H(rot)  DE(clash)    DE(int)     intcor
     15.96     -18.03       2.86        0.00      92.11       3.04       1.18       0.88       ----

> <Gold.Chemscore.Fitness>
15.9610

> <Gold.Chemscore.DG>
-18.0306

> <Gold.Chemscore.ZeroCoef>
-5.4800

> <Gold.Chemscore.Hbond>
2.8592

> <Gold.Chemscore.Metal>
0.0000

> <Gold.Chemscore.Lipo>
92.1142

> <Gold.Chemscore.Internal_Hbond>
0.0000

> <Gold.Chemscore.DEClash>
1.1848

> <Gold.Chemscore.DEInternal>
0.8848

> <Gold.Chemscore.Rot>
3.0378

> <Gold.Chemscore.Internal.Correction>
   9.000000E+99

> <Gold.Chemscore.Hbonds>
donor molecule, donor type, donor heavy atom, donor atom, acceptor molecule, acceptor atom, score
      L1  H    12    38       P1 10957  0.88
      L1  H    13    50       P1 10957  0.92
      P1  H  7989  7998       L1    23  0.77

> <Gold.Chemscore.Hbond.Weighted>
-9.5499

> <Gold.Chemscore.Metal.Weighted>
-0.0000

> <Gold.Chemscore.Lipo.Weighted>
-10.7774

> <Gold.Chemscore.Internal_Hbond.Weighted>
0.0000

> <Gold.Chemscore.DEClash.Weighted>
1.1848

> <Gold.Chemscore.DEInternal.Weighted>
0.8848

> <Gold.Chemscore.Rot.Weighted>
7.7767

> <Gold.Chemscore.Internal.Correction.Weighted>
   9.000000E+99

> <Gold.Protein.RotatedTorsions>
[ 6907 6896 6895 6894 ] final  101.36 input  -60.11 | X-H torsion
[ 7974 7965 7964 7962 ] final  120.32 input  175.53 | X-H torsion
[ 8008 7997 7996 7995 ] final  -35.50 input   59.86 | X-H torsion
[ 10167 10162 10161 10158 ] final   51.41 input  -65.29 | X-H torsion
[ 10718 10713 10712 10709 ] final  121.04 input   66.30 | X-H torsion
[ 10763 10752 10751 10750 ] final -170.92 input  -60.55 | X-H torsion
[ 11005 11000 10999 10996 ] final  126.38 input  -57.11 | X-H torsion

> <Gold.Protein.ActiveResidues>
 VAL166  LYS551  ARG553  GLY616  TRP617  ASP618  TYR619  PRO620  LYS621  CYS622 
 ASP623  PHE694  ASN695  SER759  ASP760  ASP761  ALA762  ILE779  LEU786  VAL792 
 PHE793  MET794  SER795  GLU796  ALA797  LYS798  CYS799  TRP800  GLU811  SER814 

> <Gold.Protein.RotatedAtoms>
  152.5351  134.0137  159.7949 H   0  0  0  0  0  0  0  0  0  0  0  0  # atno 6907 bound_to 6896
  151.0335  133.5761  159.2665 H   0  0  0  0  0  0  0  0  0  0  0  0  # atno 6908 bound_to 6896
  151.2757  135.0705  159.9204 H   0  0  0  0  0  0  0  0  0  0  0  0  # atno 6909 bound_to 6896
  145.1326  139.3318  143.4657 H   0  0  0  0  0  0  0  0  0  0  0  0  # atno 7974 bound_to 7965
  154.4094  140.1655  156.2222 H   0  0  0  0  0  0  0  0  0  0  0  0  # atno 8008 bound_to 7997
  155.9354  140.3412  155.6260 H   0  0  0  0  0  0  0  0  0  0  0  0  # atno 8009 bound_to 7997
  155.7055  140.0750  157.2383 H   0  0  0  0  0  0  0  0  0  0  0  0  # atno 8010 bound_to 7997
  140.2622  144.3360  150.6314 H   0  0  0  0  0  0  0  0  0  0  0  0  # atno 10167 bound_to 10162
  157.5847  131.1071  150.8119 H   0  0  0  0  0  0  0  0  0  0  0  0  # atno 10718 bound_to 10713
  154.6362  135.2893  155.0158 H   0  0  0  0  0  0  0  0  0  0  0  0  # atno 10763 bound_to 10752
  154.1300  135.6535  153.4924 H   0  0  0  0  0  0  0  0  0  0  0  0  # atno 10764 bound_to 10752
  153.0304  135.5308  154.7210 H   0  0  0  0  0  0  0  0  0  0  0  0  # atno 10765 bound_to 10752
  139.9453  134.9630  156.8699 H   0  0  0  0  0  0  0  0  0  0  0  0  # atno 11005 bound_to 11000
  146.3512  140.1331  142.8596 LP  0  0  0  0  0  0  0  0  0  0  0  0  # atno 17320 bound_to 7965
  145.0619  140.9094  143.4933 LP  0  0  0  0  0  0  0  0  0  0  0  0  # atno 17321 bound_to 7965
  140.5957  143.2167  151.7169 LP  0  0  0  0  0  0  0  0  0  0  0  0  # atno 17342 bound_to 10162
  139.5013  144.3871  152.0317 LP  0  0  0  0  0  0  0  0  0  0  0  0  # atno 17343 bound_to 10162
  156.8556  130.5095  149.5308 LP  0  0  0  0  0  0  0  0  0  0  0  0  # atno 17370 bound_to 10713
  156.0895  130.5884  150.9707 LP  0  0  0  0  0  0  0  0  0  0  0  0  # atno 17371 bound_to 10713
  140.5849  134.0316  155.7478 LP  0  0  0  0  0  0  0  0  0  0  0  0  # atno 17394 bound_to 11000
  141.1102  133.9629  157.2924 LP  0  0  0  0  0  0  0  0  0  0  0  0  # atno 17395 bound_to 11000

$$$$
