AV-unprocessed.smi:2093|AV-procd|sdf|8551|dock6
  -GOLD-   2272011273D 1   1.00000     0.00000
 Structure written by MMmdl.
 30 31  0  0  0  0  0  0  0  0  2 V2000
  151.1524  140.1743  155.3811 C   0  0  0  0  0  0  0  0  0  0  0  0
  149.9000  141.0150  155.6877 C   0  0  1  0  0  0  0  0  0  0  0  0
  150.3007  142.3347  156.1707 N   0  0  0  0  0  0  0  0  0  0  0  0
  151.0950  142.5882  157.2209 C   0  0  0  0  0  0  0  0  0  0  0  0
  151.5648  141.6561  157.8776 O   0  0  0  0  0  0  0  0  0  0  0  0
  151.2969  143.9070  157.4438 N   0  5  0  0  0  0  0  0  0  0  0  0
  151.5078  144.3527  158.6929 C   0  0  0  0  0  0  0  0  0  0  0  0
  151.3479  145.6328  159.0487 N   0  0  0  0  0  0  0  0  0  0  0  0
  151.6153  145.8714  160.3979 C   0  0  0  0  0  0  0  0  0  0  0  0
  151.9770  144.7448  161.0881 C   0  0  0  0  0  0  0  0  0  0  0  0
  151.9954  143.3426  160.0569 S   0  0  0  0  0  0  0  0  0  0  0  0
  148.9964  141.1850  154.4512 C   0  0  1  0  0  0  0  0  0  0  0  0
  148.3998  139.8852  153.9070 C   0  0  0  0  0  0  0  0  0  0  0  0
  147.1178  140.3314  153.2196 C   0  0  0  0  0  0  0  0  0  0  0  0
  146.9132  141.7684  153.7052 C   0  0  0  0  0  0  0  0  0  0  0  0
  147.8295  141.9253  154.7780 O   0  0  0  0  0  0  0  0  0  0  0  0
  150.8869  139.1686  155.0557 H   0  0  0  0  0  0  0  0  0  0  0  0
  151.7844  140.0708  156.2636 H   0  0  0  0  0  0  0  0  0  0  0  0
  151.7532  140.6322  154.5947 H   0  0  0  0  0  0  0  0  0  0  0  0
  149.3221  140.5114  156.4649 H   0  0  0  0  0  0  0  0  0  0  0  0
  149.9347  143.1304  155.6691 H   0  0  0  0  0  0  0  0  0  0  0  0
  151.5202  146.8757  160.7832 H   0  0  0  0  0  0  0  0  0  0  0  0
  152.2318  144.6532  162.1330 H   0  0  0  0  0  0  0  0  0  0  0  0
  149.5326  141.7072  153.6558 H   0  0  0  0  0  0  0  0  0  0  0  0
  149.0792  139.3625  153.2331 H   0  0  0  0  0  0  0  0  0  0  0  0
  148.1552  139.2095  154.7278 H   0  0  0  0  0  0  0  0  0  0  0  0
  147.2099  140.3000  152.1334 H   0  0  0  0  0  0  0  0  0  0  0  0
  146.2840  139.6892  153.5051 H   0  0  0  0  0  0  0  0  0  0  0  0
  147.1613  142.4794  152.9159 H   0  0  0  0  0  0  0  0  0  0  0  0
  145.8903  141.9616  154.0286 H   0  0  0  0  0  0  0  0  0  0  0  0
  1  2  1  0  0  0  0
  1 17  1  0  0  0  0
  1 18  1  0  0  0  0
  1 19  1  0  0  0  0
  2  3  1  0  0  0  0
  2 12  1  0  0  0  0
  2 20  1  0  0  0  0
  3  4  1  0  0  0  0
  3 21  1  0  0  0  0
  4  5  2  0  0  0  0
  4  6  1  0  0  0  0
  6  7  1  0  0  0  0
  7 11  1  0  0  0  0
  7  8  2  0  0  0  0
  8  9  1  0  0  0  0
  9 10  2  0  0  0  0
  9 22  1  0  0  0  0
 10 11  1  0  0  0  0
 10 23  1  0  0  0  0
 12 16  1  0  0  0  0
 12 13  1  0  0  0  0
 12 24  1  0  0  0  0
 13 14  1  0  0  0  0
 13 25  1  0  0  0  0
 13 26  1  0  0  0  0
 14 15  1  0  0  0  0
 14 27  1  0  0  0  0
 14 28  1  0  0  0  0
 15 16  1  0  0  0  0
 15 29  1  0  0  0  0
 15 30  1  0  0  0  0
M  CHG  1   6  -1
M  END
> <s_m_source_file>
AV-unprocessed.smi

> <i_m_source_file_index>
2093

> <i_lp_mmshare_version>
43012

> <i_f3d_flags>
0

> <s_epik_input>
TzFbQ0gyXVtDSDJdW0NIMl1bQ0BIXTFbQ0BIXShbQ0gzXSlbTkhdQyg9TylbTkhdYzJuW2NIXVtjSF1zMg==

> <s_epik_cmdline>
J2VwaWtfcHl0aG9uJywgJy1waCcsICc3LjAnLCAnLXRuJywgJzgnLCAnLW1hJywgJzIwMCcsICctbWV0YWxfYmluZGluZycsICctaW1hZScsICc8aW5maWxlLm1hZT4nLCAnLW9tYWUnLCAnPG91dGZpbGUubWFlPic=

> <r_lp_tautomer_probability>
0.999

> <r_epik_Ionization_Penalty>
8.26346

> <r_epik_Ionization_Penalty_Charging>
6.6559

> <r_epik_Ionization_Penalty_Neutral>
1.60756

> <r_epik_State_Penalty>
6.65607

> <r_epik_Charging_Adjusted_Penalty>
13.312

> <i_epik_Tot_Q>
-1

> <i_epik_Tot_abs_Q>
1

> <r_epik_Metal_State_Penalty>
2.5789

> <b_epik_Metal_Only>
1

> <s_lp_Force_Field>
OPLS_2005

> <r_lp_Energy>
13.9073

> <b_lp_Chiralities_Consistent>
1

> <s_lp_Variant>
AV-unprocessed.smi:2093-8

> <Gold.Version>
5.8.1

> <Gold.Id.Protein>
6NUR|6NUR_protein|mol2

> <Gold.PLP.Fitness>
38.0076

> <Gold.PLP.PLP>
-35.6206

> <Gold.PLP.part.hbond>
-2.0000

> <Gold.PLP.part.metal>
0.0000

> <Gold.PLP.part.buried>
-3.2867

> <Gold.PLP.part.nonpolar>
-31.0303

> <Gold.PLP.part.repulsive>
1.1312

> <Gold.PLP.ligand.clash>
0.0000

> <Gold.PLP.ligand.torsion>
0.2877

> <Gold.PLP.Chemscore.Hbond>
0.9760

> <Gold.PLP.Chemscore.CHOScore>
0.0000

> <Gold.PLP.Chemscore.Metal>
0.0000

> <Gold.Chemscore.Hbonds>
donor molecule, donor type, donor heavy atom, donor atom, acceptor molecule, acceptor atom, score
      L1  H     3    21       P1  8028  0.99

> <Gold.PLP.Chemscore.Internal.Correction>
0.0345

> <Gold.Rescore>
     Score         DG    S(hbond)    S(metal)    S(lipo)     H(rot)  DE(clash)    DE(int)     intcor
     11.40     -14.38       0.99        0.00      75.87       1.28       0.08       2.90       ----

> <Gold.Chemscore.Fitness>
11.3974

> <Gold.Chemscore.DG>
-14.3768

> <Gold.Chemscore.ZeroCoef>
-5.4800

> <Gold.Chemscore.Hbond>
0.9853

> <Gold.Chemscore.Metal>
0.0000

> <Gold.Chemscore.Lipo>
75.8730

> <Gold.Chemscore.Internal_Hbond>
0.0000

> <Gold.Chemscore.DEClash>
0.0807

> <Gold.Chemscore.DEInternal>
2.8987

> <Gold.Chemscore.Rot>
1.2778

> <Gold.Chemscore.Internal.Correction>
   9.000000E+99

> <Gold.Chemscore.Hbonds>
donor molecule, donor type, donor heavy atom, donor atom, acceptor molecule, acceptor atom, score
      L1  H     3    21       P1  8028  0.94

> <Gold.Chemscore.Hbond.Weighted>
-3.2908

> <Gold.Chemscore.Metal.Weighted>
-0.0000

> <Gold.Chemscore.Lipo.Weighted>
-8.8771

> <Gold.Chemscore.Internal_Hbond.Weighted>
0.0000

> <Gold.Chemscore.DEClash.Weighted>
0.0807

> <Gold.Chemscore.DEInternal.Weighted>
2.8987

> <Gold.Chemscore.Rot.Weighted>
3.2711

> <Gold.Chemscore.Internal.Correction.Weighted>
   9.000000E+99

> <Gold.Protein.RotatedTorsions>
[ 6907 6896 6895 6894 ] final -154.63 input  -60.11 | X-H torsion
[ 7974 7965 7964 7962 ] final  111.39 input  175.53 | X-H torsion
[ 8008 7997 7996 7995 ] final -122.98 input   59.86 | X-H torsion
[ 10167 10162 10161 10158 ] final  108.62 input  -65.29 | X-H torsion
[ 10718 10713 10712 10709 ] final  131.47 input   66.30 | X-H torsion
[ 10763 10752 10751 10750 ] final  113.97 input  -60.55 | X-H torsion
[ 11005 11000 10999 10996 ] final    6.36 input  -57.11 | X-H torsion

> <Gold.Protein.ActiveResidues>
 VAL166  LYS551  ARG553  GLY616  TRP617  ASP618  TYR619  PRO620  LYS621  CYS622 
 ASP623  PHE694  ASN695  SER759  ASP760  ASP761  ALA762  ILE779  LEU786  VAL792 
 PHE793  MET794  SER795  GLU796  ALA797  LYS798  CYS799  TRP800  GLU811  SER814 

> <Gold.Protein.RotatedAtoms>
  151.2604  133.4305  159.2615 H   0  0  0  0  0  0  0  0  0  0  0  0  # atno 6907 bound_to 6896
  151.0535  134.9689  159.8234 H   0  0  0  0  0  0  0  0  0  0  0  0  # atno 6908 bound_to 6896
  152.5387  134.2558  159.8969 H   0  0  0  0  0  0  0  0  0  0  0  0  # atno 6909 bound_to 6896
  145.2428  139.2771  143.4108 H   0  0  0  0  0  0  0  0  0  0  0  0  # atno 7974 bound_to 7965
  155.1730  140.0408  157.2867 H   0  0  0  0  0  0  0  0  0  0  0  0  # atno 8008 bound_to 7997
  154.6256  140.2511  155.7468 H   0  0  0  0  0  0  0  0  0  0  0  0  # atno 8009 bound_to 7997
  156.2457  140.2886  156.0584 H   0  0  0  0  0  0  0  0  0  0  0  0  # atno 8010 bound_to 7997
  139.6831  144.7116  151.1480 H   0  0  0  0  0  0  0  0  0  0  0  0  # atno 10167 bound_to 10162
  157.4964  131.1092  150.9487 H   0  0  0  0  0  0  0  0  0  0  0  0  # atno 10718 bound_to 10713
  153.5004  135.3639  155.2537 H   0  0  0  0  0  0  0  0  0  0  0  0  # atno 10763 bound_to 10752
  154.8748  135.3998  154.3485 H   0  0  0  0  0  0  0  0  0  0  0  0  # atno 10764 bound_to 10752
  153.4120  135.7078  153.6419 H   0  0  0  0  0  0  0  0  0  0  0  0  # atno 10765 bound_to 10752
  140.5603  134.0199  155.7969 H   0  0  0  0  0  0  0  0  0  0  0  0  # atno 11005 bound_to 11000
  146.3324  140.2797  142.8609 LP  0  0  0  0  0  0  0  0  0  0  0  0  # atno 17320 bound_to 7965
  144.9573  140.8240  143.5535 LP  0  0  0  0  0  0  0  0  0  0  0  0  # atno 17321 bound_to 7965
  140.7659  143.5669  150.9037 LP  0  0  0  0  0  0  0  0  0  0  0  0  # atno 17342 bound_to 10162
  139.9342  143.6457  152.3069 LP  0  0  0  0  0  0  0  0  0  0  0  0  # atno 17343 bound_to 10162
  157.0172  130.5660  149.5327 LP  0  0  0  0  0  0  0  0  0  0  0  0  # atno 17370 bound_to 10713
  156.0203  130.5298  150.8255 LP  0  0  0  0  0  0  0  0  0  0  0  0  # atno 17371 bound_to 10713
  141.1118  133.9603  157.2895 LP  0  0  0  0  0  0  0  0  0  0  0  0  # atno 17394 bound_to 11000
  139.9411  135.0191  156.8711 LP  0  0  0  0  0  0  0  0  0  0  0  0  # atno 17395 bound_to 11000

$$$$
