AV-unprocessed.smi:2952|AV-procd|sdf|11292|dock4
  -GOLD-   2272016183D 1   1.00000     0.00000
 Structure written by MMmdl.
 39 41  0  0  0  0  0  0  0  0  2 V2000
  153.2197  138.9572  155.1819 O   0  0  0  0  0  0  0  0  0  0  0  0
  151.8095  138.9862  155.1087 C   0  0  0  0  0  0  0  0  0  0  0  0
  151.1877  139.2852  156.4823 C   0  0  0  0  0  0  0  0  0  0  0  0
  151.0046  140.7260  156.7244 N   0  0  0  0  0  0  0  0  0  0  0  0
  150.2050  141.6295  156.0865 C   0  0  0  0  0  0  0  0  0  0  0  0
  149.2772  141.3620  154.9428 C   0  0  0  0  0  0  0  0  0  0  0  0
  147.9860  142.0338  155.0656 N   0  0  0  0  0  0  0  0  0  0  0  0
  147.1450  141.4527  156.1097 C   0  0  0  0  0  0  0  0  0  0  0  0
  145.7878  142.1697  156.2134 C   0  0  0  0  0  0  0  0  0  0  0  0
  145.1317  142.1356  154.9500 O   0  0  0  0  0  0  0  0  0  0  0  0
  145.9024  142.7345  153.9129 C   0  0  0  0  0  0  0  0  0  0  0  0
  147.2594  142.0184  153.8013 C   0  0  0  0  0  0  0  0  0  0  0  0
  150.4019  142.8374  156.6857 N   0  3  0  0  0  0  0  0  0  0  0  0
  151.3306  142.7067  157.7186 C   0  0  0  0  0  0  0  0  0  0  0  0
  151.8440  143.6482  158.6050 C   0  0  0  0  0  0  0  0  0  0  0  0
  152.7791  143.1817  159.5517 C   0  0  0  0  0  0  0  0  0  0  0  0
  153.1708  141.8275  159.5939 C   0  0  0  0  0  0  0  0  0  0  0  0
  154.3158  141.3137  160.7773 Cl  0  0  0  0  0  0  0  0  0  0  0  0
  152.6434  140.8837  158.6878 C   0  0  0  0  0  0  0  0  0  0  0  0
  151.7207  141.3521  157.7525 C   0  0  0  0  0  0  0  0  0  0  0  0
  153.4839  138.1278  155.5504 H   0  0  0  0  0  0  0  0  0  0  0  0
  151.5101  139.7481  154.3888 H   0  0  0  0  0  0  0  0  0  0  0  0
  151.4541  138.0285  154.7275 H   0  0  0  0  0  0  0  0  0  0  0  0
  150.2340  138.7715  156.6020 H   0  0  0  0  0  0  0  0  0  0  0  0
  151.8341  138.8983  157.2698 H   0  0  0  0  0  0  0  0  0  0  0  0
  149.7754  141.6919  154.0306 H   0  0  0  0  0  0  0  0  0  0  0  0
  149.1330  140.2853  154.8418 H   0  0  0  0  0  0  0  0  0  0  0  0
  146.9786  140.3941  155.9043 H   0  0  0  0  0  0  0  0  0  0  0  0
  147.6483  141.5089  157.0750 H   0  0  0  0  0  0  0  0  0  0  0  0
  145.1568  141.6822  156.9566 H   0  0  0  0  0  0  0  0  0  0  0  0
  145.9206  143.2042  156.5342 H   0  0  0  0  0  0  0  0  0  0  0  0
  145.3556  142.6604  152.9727 H   0  0  0  0  0  0  0  0  0  0  0  0
  146.0419  143.7966  154.1204 H   0  0  0  0  0  0  0  0  0  0  0  0
  147.8565  142.4980  153.0249 H   0  0  0  0  0  0  0  0  0  0  0  0
  147.0982  140.9884  153.4791 H   0  0  0  0  0  0  0  0  0  0  0  0
  151.5449  144.6858  158.5779 H   0  0  0  0  0  0  0  0  0  0  0  0
  153.2027  143.8773  160.2618 H   0  0  0  0  0  0  0  0  0  0  0  0
  152.9449  139.8479  158.7332 H   0  0  0  0  0  0  0  0  0  0  0  0
  149.9313  143.6885  156.4064 H   0  0  0  0  0  0  0  0  0  0  0  0
  1  2  1  0  0  0  0
  1 21  1  0  0  0  0
  2  3  1  0  0  0  0
  2 22  1  0  0  0  0
  2 23  1  0  0  0  0
  3  4  1  0  0  0  0
  3 24  1  0  0  0  0
  3 25  1  0  0  0  0
  4 20  1  0  0  0  0
  4  5  1  0  0  0  0
  5  6  1  0  0  0  0
  5 13  2  0  0  0  0
  6  7  1  0  0  0  0
  6 26  1  0  0  0  0
  6 27  1  0  0  0  0
  7 12  1  0  0  0  0
  7  8  1  0  0  0  0
  8  9  1  0  0  0  0
  8 28  1  0  0  0  0
  8 29  1  0  0  0  0
  9 10  1  0  0  0  0
  9 30  1  0  0  0  0
  9 31  1  0  0  0  0
 10 11  1  0  0  0  0
 11 12  1  0  0  0  0
 11 32  1  0  0  0  0
 11 33  1  0  0  0  0
 12 34  1  0  0  0  0
 12 35  1  0  0  0  0
 13 14  1  0  0  0  0
 13 39  1  0  0  0  0
 14 20  2  0  0  0  0
 14 15  1  0  0  0  0
 15 16  2  0  0  0  0
 15 36  1  0  0  0  0
 16 17  1  0  0  0  0
 16 37  1  0  0  0  0
 17 18  1  0  0  0  0
 17 19  2  0  0  0  0
 19 20  1  0  0  0  0
 19 38  1  0  0  0  0
M  CHG  1  13   1
M  END
> <s_m_source_file>
AV-unprocessed.smi

> <i_m_source_file_index>
2952

> <i_lp_mmshare_version>
43012

> <i_f3d_flags>
0

> <s_epik_input>
W2NIXTFbY0hdYyhDbClbY0hdYyhjMTIpbihbQ0gyXVtDSDJdW09IXSljKG4yKVtDSDJdTjNbQ0gyXVtDSDJdT1tDSDJdW0NIMl0z

> <s_epik_cmdline>
J2VwaWtfcHl0aG9uJywgJy1waCcsICc3LjAnLCAnLXRuJywgJzgnLCAnLW1hJywgJzIwMCcsICctbWV0YWxfYmluZGluZycsICctaW1hZScsICc8aW5maWxlLm1hZT4nLCAnLW9tYWUnLCAnPG91dGZpbGUubWFlPic=

> <r_epik_Ionization_Penalty>
1.17151

> <r_epik_Ionization_Penalty_Charging>
1.1712

> <r_epik_Ionization_Penalty_Neutral>
0.000312352

> <r_epik_State_Penalty>
1.2343

> <r_epik_Charging_Adjusted_Penalty>
2.4055

> <i_epik_Tot_Q>
1

> <i_epik_Tot_abs_Q>
1

> <r_epik_Metal_State_Penalty>
5.24833

> <b_epik_Metal_Only>
0

> <s_lp_Force_Field>
OPLS_2005

> <r_lp_Energy>
24.7886

> <b_lp_Chiralities_Consistent>
1

> <s_lp_Variant>
AV-unprocessed.smi:2952-2

> <Gold.Version>
5.8.1

> <Gold.Id.Protein>
6NUR|6NUR_protein|mol2

> <Gold.PLP.Fitness>
51.5383

> <Gold.PLP.PLP>
-43.5709

> <Gold.PLP.part.hbond>
-2.0000

> <Gold.PLP.part.metal>
0.0000

> <Gold.PLP.part.buried>
-7.5685

> <Gold.PLP.part.nonpolar>
-37.2142

> <Gold.PLP.part.repulsive>
2.2550

> <Gold.PLP.ligand.clash>
0.0000

> <Gold.PLP.ligand.torsion>
0.5285

> <Gold.PLP.Chemscore.Hbond>
3.0000

> <Gold.PLP.Chemscore.CHOScore>
0.0000

> <Gold.PLP.Chemscore.Metal>
0.0000

> <Gold.Chemscore.Hbonds>
donor molecule, donor type, donor heavy atom, donor atom, acceptor molecule, acceptor atom, score
      L1  H    13    39       P1  8028  2.00
      P1  H  7997  8010       L1     1  1.00

> <Gold.PLP.Chemscore.Internal.Correction>
0.0243

> <Gold.Rescore>
     Score         DG    S(hbond)    S(metal)    S(lipo)     H(rot)  DE(clash)    DE(int)     intcor
     17.89     -18.64       1.91        0.00     105.67       2.18       0.08       0.66       ----

> <Gold.Chemscore.Fitness>
17.8945

> <Gold.Chemscore.DG>
-18.6377

> <Gold.Chemscore.ZeroCoef>
-5.4800

> <Gold.Chemscore.Hbond>
1.9103

> <Gold.Chemscore.Metal>
0.0000

> <Gold.Chemscore.Lipo>
105.6733

> <Gold.Chemscore.Internal_Hbond>
0.0000

> <Gold.Chemscore.DEClash>
0.0787

> <Gold.Chemscore.DEInternal>
0.6645

> <Gold.Chemscore.Rot>
2.1822

> <Gold.Chemscore.Internal.Correction>
   9.000000E+99

> <Gold.Chemscore.Hbonds>
donor molecule, donor type, donor heavy atom, donor atom, acceptor molecule, acceptor atom, score
      L1  H    13    39       P1  8028  0.99
      P1  H  7997  8010       L1     1  0.34

> <Gold.Chemscore.Hbond.Weighted>
-6.3803

> <Gold.Chemscore.Metal.Weighted>
-0.0000

> <Gold.Chemscore.Lipo.Weighted>
-12.3638

> <Gold.Chemscore.Internal_Hbond.Weighted>
0.0000

> <Gold.Chemscore.DEClash.Weighted>
0.0787

> <Gold.Chemscore.DEInternal.Weighted>
0.6645

> <Gold.Chemscore.Rot.Weighted>
5.5863

> <Gold.Chemscore.Internal.Correction.Weighted>
   9.000000E+99

> <Gold.Protein.RotatedTorsions>
[ 6907 6896 6895 6894 ] final  -46.60 input  -60.11 | X-H torsion
[ 7974 7965 7964 7962 ] final   97.28 input  175.53 | X-H torsion
[ 8008 7997 7996 7995 ] final   97.52 input   59.86 | X-H torsion
[ 10167 10162 10161 10158 ] final   -7.68 input  -65.29 | X-H torsion
[ 10718 10713 10712 10709 ] final  138.40 input   66.30 | X-H torsion
[ 10763 10752 10751 10750 ] final -132.96 input  -60.55 | X-H torsion
[ 11005 11000 10999 10996 ] final  135.42 input  -57.11 | X-H torsion

> <Gold.Protein.ActiveResidues>
 VAL166  LYS551  ARG553  GLY616  TRP617  ASP618  TYR619  PRO620  LYS621  CYS622 
 ASP623  PHE694  ASN695  SER759  ASP760  ASP761  ALA762  ILE779  LEU786  VAL792 
 PHE793  MET794  SER795  GLU796  ALA797  LYS798  CYS799  TRP800  GLU811  SER814 

> <Gold.Protein.RotatedAtoms>
  150.9096  134.8512  159.7415 H   0  0  0  0  0  0  0  0  0  0  0  0  # atno 6907 bound_to 6896
  152.4937  134.4380  159.9544 H   0  0  0  0  0  0  0  0  0  0  0  0  # atno 6908 bound_to 6896
  151.4424  133.3600  159.2819 H   0  0  0  0  0  0  0  0  0  0  0  0  # atno 6909 bound_to 6896
  145.4276  139.2314  143.3162 H   0  0  0  0  0  0  0  0  0  0  0  0  # atno 7974 bound_to 7965
  156.0910  140.3257  155.7816 H   0  0  0  0  0  0  0  0  0  0  0  0  # atno 8008 bound_to 7997
  155.4997  140.0568  157.2958 H   0  0  0  0  0  0  0  0  0  0  0  0  # atno 8009 bound_to 7997
  154.4637  140.1979  156.0190 H   0  0  0  0  0  0  0  0  0  0  0  0  # atno 8010 bound_to 7997
  140.7036  143.6053  150.8757 H   0  0  0  0  0  0  0  0  0  0  0  0  # atno 10167 bound_to 10162
  157.4257  131.1043  151.0305 H   0  0  0  0  0  0  0  0  0  0  0  0  # atno 10718 bound_to 10713
  154.8738  135.3781  154.4495 H   0  0  0  0  0  0  0  0  0  0  0  0  # atno 10763 bound_to 10752
  153.5173  135.7029  153.5755 H   0  0  0  0  0  0  0  0  0  0  0  0  # atno 10764 bound_to 10752
  153.4017  135.3946  155.1958 H   0  0  0  0  0  0  0  0  0  0  0  0  # atno 10765 bound_to 10752
  139.9978  134.9490  157.0004 H   0  0  0  0  0  0  0  0  0  0  0  0  # atno 11005 bound_to 11000
  146.2624  140.5009  142.8848 LP  0  0  0  0  0  0  0  0  0  0  0  0  # atno 17320 bound_to 7965
  144.8204  140.6540  143.6357 LP  0  0  0  0  0  0  0  0  0  0  0  0  # atno 17321 bound_to 7965
  139.9777  143.5986  152.2953 LP  0  0  0  0  0  0  0  0  0  0  0  0  # atno 17342 bound_to 10162
  139.6595  144.7662  151.1989 LP  0  0  0  0  0  0  0  0  0  0  0  0  # atno 17343 bound_to 10162
  157.1220  130.6066  149.5507 LP  0  0  0  0  0  0  0  0  0  0  0  0  # atno 17370 bound_to 10713
  155.9895  130.4943  150.7219 LP  0  0  0  0  0  0  0  0  0  0  0  0  # atno 17371 bound_to 10713
  140.4784  134.1314  155.7213 LP  0  0  0  0  0  0  0  0  0  0  0  0  # atno 17394 bound_to 11000
  141.1618  133.8778  157.1826 LP  0  0  0  0  0  0  0  0  0  0  0  0  # atno 17395 bound_to 11000

$$$$
