AV-unprocessed.smi:3348|AV-procd|sdf|12920|dock9
  -GOLD-   2272019343D 1   1.00000     0.00000
 Structure written by MMmdl.
 47 48  0  0  0  0  0  0  0  0  2 V2000
  148.8521  132.9292  153.3316 C   0  0  0  0  0  0  0  0  0  0  0  0
  147.6451  133.3209  152.4692 C   0  0  1  0  0  0  0  0  0  0  0  0
  146.5641  132.2217  152.4936 C   0  0  0  0  0  0  0  0  0  0  0  0
  145.6693  132.2941  151.3517 N   0  0  0  0  0  0  0  0  0  0  0  0
  145.9685  132.1260  150.0161 C   0  0  0  0  0  0  0  0  0  0  0  0
  144.8084  132.2959  149.3163 C   0  0  0  0  0  0  0  0  0  0  0  0
  143.8408  132.5658  150.3240 C   0  0  0  0  0  0  0  0  0  0  0  0
  144.3593  132.5657  151.5415 N   0  0  0  0  0  0  0  0  0  0  0  0
  147.0938  134.6086  152.9469 N   0  3  0  0  0  0  0  0  0  0  0  0
  147.1391  134.7982  154.4112 C   0  0  0  0  0  0  0  0  0  0  0  0
  146.6136  136.1830  154.7974 C   0  0  0  0  0  0  0  0  0  0  0  0
  147.6151  137.1454  154.5060 O   0  0  0  0  0  0  0  0  0  0  0  0
  148.0785  137.8720  155.6391 C   0  0  2  0  0  0  0  0  0  0  0  0
  147.2503  139.1667  155.7371 C   0  0  0  0  0  0  0  0  0  0  0  0
  147.5202  140.1127  154.5550 C   0  0  0  0  0  0  0  0  0  0  0  0
  149.0183  140.4231  154.4211 C   0  0  0  0  0  0  0  0  0  0  0  0
  149.8469  139.1338  154.3056 C   0  0  0  0  0  0  0  0  0  0  0  0
  149.5867  138.1851  155.4928 C   0  0  2  0  0  0  0  0  0  0  0  0
  150.4495  136.9168  155.4056 C   0  0  0  0  0  0  0  0  0  0  0  0
  149.2983  131.9975  152.9825 H   0  0  0  0  0  0  0  0  0  0  0  0
  148.5678  132.7905  154.3755 H   0  0  0  0  0  0  0  0  0  0  0  0
  149.6257  133.6969  153.2959 H   0  0  0  0  0  0  0  0  0  0  0  0
  147.9996  133.4349  151.4429 H   0  0  0  0  0  0  0  0  0  0  0  0
  147.0329  131.2367  152.4889 H   0  0  0  0  0  0  0  0  0  0  0  0
  145.9747  132.2787  153.4104 H   0  0  0  0  0  0  0  0  0  0  0  0
  146.9701  131.9033  149.6784 H   0  0  0  0  0  0  0  0  0  0  0  0
  144.6711  132.2350  148.2469 H   0  0  0  0  0  0  0  0  0  0  0  0
  142.7849  132.7611  150.2076 H   0  0  0  0  0  0  0  0  0  0  0  0
  147.6172  135.3547  152.5108 H   0  0  0  0  0  0  0  0  0  0  0  0
  146.5553  134.0191  154.9028 H   0  0  0  0  0  0  0  0  0  0  0  0
  148.1699  134.6954  154.7526 H   0  0  0  0  0  0  0  0  0  0  0  0
  145.7141  136.4104  154.2238 H   0  0  0  0  0  0  0  0  0  0  0  0
  146.3429  136.2041  155.8539 H   0  0  0  0  0  0  0  0  0  0  0  0
  147.9192  137.3027  156.5573 H   0  0  0  0  0  0  0  0  0  0  0  0
  146.1878  138.9268  155.7871 H   0  0  0  0  0  0  0  0  0  0  0  0
  147.4920  139.6793  156.6691 H   0  0  0  0  0  0  0  0  0  0  0  0
  147.1566  139.6609  153.6312 H   0  0  0  0  0  0  0  0  0  0  0  0
  146.9599  141.0387  154.6857 H   0  0  0  0  0  0  0  0  0  0  0  0
  149.1905  141.0543  153.5489 H   0  0  0  0  0  0  0  0  0  0  0  0
  149.3514  140.9956  155.2876 H   0  0  0  0  0  0  0  0  0  0  0  0
  149.6093  138.6295  153.3679 H   0  0  0  0  0  0  0  0  0  0  0  0
  150.9064  139.3878  154.2579 H   0  0  0  0  0  0  0  0  0  0  0  0
  149.8940  138.7101  156.3987 H   0  0  0  0  0  0  0  0  0  0  0  0
  150.2312  136.3453  154.5033 H   0  0  0  0  0  0  0  0  0  0  0  0
  150.2812  136.2670  156.2646 H   0  0  0  0  0  0  0  0  0  0  0  0
  151.5104  137.1674  155.3872 H   0  0  0  0  0  0  0  0  0  0  0  0
  146.1306  134.6775  152.6505 H   0  0  0  0  0  0  0  0  0  0  0  0
  1  2  1  0  0  0  0
  1 20  1  0  0  0  0
  1 21  1  0  0  0  0
  1 22  1  0  0  0  0
  2  3  1  0  0  0  0
  2  9  1  0  0  0  0
  2 23  1  0  0  0  0
  3  4  1  0  0  0  0
  3 24  1  0  0  0  0
  3 25  1  0  0  0  0
  4  8  1  0  0  0  0
  4  5  1  0  0  0  0
  5  6  2  0  0  0  0
  5 26  1  0  0  0  0
  6  7  1  0  0  0  0
  6 27  1  0  0  0  0
  7  8  2  0  0  0  0
  7 28  1  0  0  0  0
  9 10  1  0  0  0  0
  9 29  1  0  0  0  0
  9 47  1  0  0  0  0
 10 11  1  0  0  0  0
 10 30  1  0  0  0  0
 10 31  1  0  0  0  0
 11 12  1  0  0  0  0
 11 32  1  0  0  0  0
 11 33  1  0  0  0  0
 12 13  1  0  0  0  0
 13 18  1  0  0  0  0
 13 14  1  0  0  0  0
 13 34  1  0  0  0  0
 14 15  1  0  0  0  0
 14 35  1  0  0  0  0
 14 36  1  0  0  0  0
 15 16  1  0  0  0  0
 15 37  1  0  0  0  0
 15 38  1  0  0  0  0
 16 17  1  0  0  0  0
 16 39  1  0  0  0  0
 16 40  1  0  0  0  0
 17 18  1  0  0  0  0
 17 41  1  0  0  0  0
 17 42  1  0  0  0  0
 18 19  1  0  0  0  0
 18 43  1  0  0  0  0
 19 44  1  0  0  0  0
 19 45  1  0  0  0  0
 19 46  1  0  0  0  0
M  CHG  1   9   1
M  END
> <s_m_source_file>
AV-unprocessed.smi

> <i_m_source_file_index>
3348

> <i_lp_mmshare_version>
43012

> <i_f3d_flags>
0

> <s_epik_input>
bjFbY0hdW2NIXVtjSF1uMVtDSDJdW0NAQEhdKFtDSDNdKVtOSF1bQ0gyXVtDSDJdT1tDQEBIXTJbQ0gyXVtDSDJdW0NIMl1bQ0gyXVtDQEhdMltDSDNd

> <s_epik_cmdline>
J2VwaWtfcHl0aG9uJywgJy1waCcsICc3LjAnLCAnLXRuJywgJzgnLCAnLW1hJywgJzIwMCcsICctbWV0YWxfYmluZGluZycsICctaW1hZScsICc8aW5maWxlLm1hZT4nLCAnLW9tYWUnLCAnPG91dGZpbGUubWFlPic=

> <r_lp_tautomer_probability>
1

> <r_epik_Ionization_Penalty>
0.00925088

> <r_epik_Ionization_Penalty_Charging>
0.00924645

> <r_epik_Ionization_Penalty_Neutral>
4.42413e-06

> <r_epik_State_Penalty>
0.0070118

> <r_epik_Charging_Adjusted_Penalty>
0.0162583

> <i_epik_Tot_Q>
1

> <i_epik_Tot_abs_Q>
1

> <r_epik_Metal_State_Penalty>
0.00701222

> <b_epik_Metal_Only>
0

> <s_lp_Force_Field>
OPLS_2005

> <r_lp_Energy>
18.0188

> <b_lp_Chiralities_Consistent>
1

> <s_lp_Variant>
AV-unprocessed.smi:3348-6

> <Gold.Version>
5.8.1

> <Gold.Id.Protein>
6NUR|6NUR_protein|mol2

> <Gold.PLP.Fitness>
40.7351

> <Gold.PLP.PLP>
-31.4316

> <Gold.PLP.part.hbond>
-1.0000

> <Gold.PLP.part.metal>
0.0000

> <Gold.PLP.part.buried>
-4.0383

> <Gold.PLP.part.nonpolar>
-26.8064

> <Gold.PLP.part.repulsive>
1.4260

> <Gold.PLP.ligand.clash>
0.0000

> <Gold.PLP.ligand.torsion>
1.3917

> <Gold.PLP.Chemscore.Hbond>
2.0000

> <Gold.PLP.Chemscore.CHOScore>
2.0000

> <Gold.PLP.Chemscore.Metal>
0.0000

> <Gold.Chemscore.Hbonds>
donor molecule, donor type, donor heavy atom, donor atom, acceptor molecule, acceptor atom, score
      L1  H     9    29       P1  7948  2.00
      L1  C     5    26       P1 10747  1.00
      L1  C     7    28       P1 10186  1.00

> <Gold.PLP.Chemscore.Internal.Correction>
0.0870

> <Gold.Rescore>
     Score         DG    S(hbond)    S(metal)    S(lipo)     H(rot)  DE(clash)    DE(int)     intcor
     12.43     -13.95       0.99        0.00      83.91       1.82       0.43       1.10       ----

> <Gold.Chemscore.Fitness>
12.4280

> <Gold.Chemscore.DG>
-13.9498

> <Gold.Chemscore.ZeroCoef>
-5.4800

> <Gold.Chemscore.Hbond>
0.9887

> <Gold.Chemscore.Metal>
0.0000

> <Gold.Chemscore.Lipo>
83.9078

> <Gold.Chemscore.Internal_Hbond>
0.0000

> <Gold.Chemscore.DEClash>
0.4253

> <Gold.Chemscore.DEInternal>
1.0965

> <Gold.Chemscore.Rot>
1.8163

> <Gold.Chemscore.Internal.Correction>
   9.000000E+99

> <Gold.Chemscore.Hbonds>
donor molecule, donor type, donor heavy atom, donor atom, acceptor molecule, acceptor atom, score
      L1  H     9    29       P1  7948  0.99

> <Gold.Chemscore.Hbond.Weighted>
-3.3023

> <Gold.Chemscore.Metal.Weighted>
-0.0000

> <Gold.Chemscore.Lipo.Weighted>
-9.8172

> <Gold.Chemscore.Internal_Hbond.Weighted>
0.0000

> <Gold.Chemscore.DEClash.Weighted>
0.4253

> <Gold.Chemscore.DEInternal.Weighted>
1.0965

> <Gold.Chemscore.Rot.Weighted>
4.6497

> <Gold.Chemscore.Internal.Correction.Weighted>
   9.000000E+99

> <Gold.Protein.RotatedTorsions>
[ 6907 6896 6895 6894 ] final  -44.76 input  -60.11 | X-H torsion
[ 7974 7965 7964 7962 ] final   97.71 input  175.53 | X-H torsion
[ 8008 7997 7996 7995 ] final -170.08 input   59.86 | X-H torsion
[ 10167 10162 10161 10158 ] final  148.87 input  -65.29 | X-H torsion
[ 10718 10713 10712 10709 ] final   30.27 input   66.30 | X-H torsion
[ 10763 10752 10751 10750 ] final  -13.24 input  -60.55 | X-H torsion
[ 11005 11000 10999 10996 ] final -164.98 input  -57.11 | X-H torsion

> <Gold.Protein.ActiveResidues>
 VAL166  LYS551  ARG553  GLY616  TRP617  ASP618  TYR619  PRO620  LYS621  CYS622 
 ASP623  PHE694  ASN695  SER759  ASP760  ASP761  ALA762  ILE779  LEU786  VAL792 
 PHE793  MET794  SER795  GLU796  ALA797  LYS798  CYS799  TRP800  GLU811  SER814 

> <Gold.Protein.RotatedAtoms>
  150.9293  134.8708  159.7540 H   0  0  0  0  0  0  0  0  0  0  0  0  # atno 6907 bound_to 6896
  152.5030  134.4103  159.9456 H   0  0  0  0  0  0  0  0  0  0  0  0  # atno 6908 bound_to 6896
  151.4131  133.3681  159.2781 H   0  0  0  0  0  0  0  0  0  0  0  0  # atno 6909 bound_to 6896
  145.4218  139.2320  143.3192 H   0  0  0  0  0  0  0  0  0  0  0  0  # atno 7974 bound_to 7965
  155.9135  140.1061  157.1261 H   0  0  0  0  0  0  0  0  0  0  0  0  # atno 8008 bound_to 7997
  154.4043  140.1269  156.4653 H   0  0  0  0  0  0  0  0  0  0  0  0  # atno 8009 bound_to 7997
  155.7281  140.3469  155.5049 H   0  0  0  0  0  0  0  0  0  0  0  0  # atno 8010 bound_to 7997
  139.4869  144.5646  151.7169 H   0  0  0  0  0  0  0  0  0  0  0  0  # atno 10167 bound_to 10162
  157.2574  130.7144  149.6436 H   0  0  0  0  0  0  0  0  0  0  0  0  # atno 10718 bound_to 10713
  153.5104  135.7016  153.5784 H   0  0  0  0  0  0  0  0  0  0  0  0  # atno 10763 bound_to 10752
  153.3877  135.3904  155.1901 H   0  0  0  0  0  0  0  0  0  0  0  0  # atno 10764 bound_to 10752
  154.8703  135.3850  154.4583 H   0  0  0  0  0  0  0  0  0  0  0  0  # atno 10765 bound_to 10752
  140.5808  134.5143  157.5178 H   0  0  0  0  0  0  0  0  0  0  0  0  # atno 11005 bound_to 11000
  146.2652  140.4944  142.8837 LP  0  0  0  0  0  0  0  0  0  0  0  0  # atno 17320 bound_to 7965
  144.8240  140.6597  143.6334 LP  0  0  0  0  0  0  0  0  0  0  0  0  # atno 17321 bound_to 7965
  140.5222  144.0862  150.6026 LP  0  0  0  0  0  0  0  0  0  0  0  0  # atno 17342 bound_to 10162
  140.3823  143.2796  152.0156 LP  0  0  0  0  0  0  0  0  0  0  0  0  # atno 17343 bound_to 10162
  155.9664  130.4408  150.5315 LP  0  0  0  0  0  0  0  0  0  0  0  0  # atno 17370 bound_to 10713
  157.3212  131.0682  151.1930 LP  0  0  0  0  0  0  0  0  0  0  0  0  # atno 17371 bound_to 10713
  139.9318  134.7949  156.0910 LP  0  0  0  0  0  0  0  0  0  0  0  0  # atno 17394 bound_to 11000
  141.0997  133.6682  156.2726 LP  0  0  0  0  0  0  0  0  0  0  0  0  # atno 17395 bound_to 11000

$$$$
