#       Name:                AV-unprocessed.smi:1047
#       Creating user name   scv26
#       Creation time:       Fri Mar 27 03:09:23 2020


#       File generated by GOLD software.
#

@<TRIPOS>MOLECULE
AV-unprocessed.smi:1047
    62    64     1
SMALL
NO_CHARGES


@<TRIPOS>ATOM
      1 ****        -2.0798   4.8406   1.1549 C.3            1 S1                 0.0000
      2 ****        -3.4121   4.2440   1.6314 C.3            1 S1                 0.0000
      3 ****        -4.0906   3.4476   0.5742 N.4            1 S1                 1.0000
      4 ****        -5.5419   3.2589   0.8152 C.3            1 S1                 0.0000
      5 ****        -5.7933   2.1669   1.8703 C.3            1 S1                 0.0000
      6 ****        -5.1725   0.9552   1.4569 O.3            1 S1                 0.0000
      7 ****        -3.7595   1.0782   1.3357 C.3            1 S1                 0.0000
      8 ****        -3.2017  -0.3038   0.9619 C.3            1 S1                 0.0000
      9 ****        -1.7479  -0.3396   1.0883 N.3            1 S1                 0.0000
     10 ****        -1.1634  -1.6256   0.7222 C.3            1 S1                 0.0000
     11 ****         0.3666  -1.6099   0.8743 C.3            1 S1                 0.0000
     12 ****         0.8315  -2.9332   0.7044 O.3            1 S1                 0.0000
     13 ****         1.0590  -0.6838  -0.1481 C.3            1 S1                 0.0000
     14 ****         2.5208  -0.6618   0.0039 N.pl3          1 S1                 0.0000
     15 ****         3.2910   0.0613   0.8612 C.2            1 S1                 0.0000
     16 ****         4.5910  -0.2622   0.6189 N.pl3          1 S1                 1.0000
     17 ****         4.6523  -1.2093  -0.4056 C.ar           1 S1                 0.0000
     18 ****         5.7406  -1.8405  -0.9961 C.ar           1 S1                 0.0000
     19 ****         5.4671  -2.7691  -2.0254 C.ar           1 S1                 0.0000
     20 ****         6.6342  -3.4771  -2.6920 C.3            1 S1                 0.0000
     21 ****         4.1341  -3.0377  -2.4309 C.ar           1 S1                 0.0000
     22 ****         3.8514  -4.0393  -3.5379 C.3            1 S1                 0.0000
     23 ****         3.0409  -2.3844  -1.8182 C.ar           1 S1                 0.0000
     24 ****         3.3273  -1.4712  -0.8056 C.ar           1 S1                 0.0000
     25 ****        -3.4462   2.1462   0.2618 C.3            1 S1                 0.0000
     26 ****        -1.6635   5.5011   1.9160 H              1 S1                 0.0000
     27 ****        -2.2133   5.4283   0.2461 H              1 S1                 0.0000
     28 ****        -1.3335   4.0724   0.9541 H              1 S1                 0.0000
     29 ****        -3.2613   3.6503   2.5328 H              1 S1                 0.0000
     30 ****        -4.0599   5.0734   1.9182 H              1 S1                 0.0000
     31 ****        -6.0116   4.1987   1.1080 H              1 S1                 0.0000
     32 ****        -6.0101   2.9638  -0.1249 H              1 S1                 0.0000
     33 ****        -5.4219   2.4684   2.8507 H              1 S1                 0.0000
     34 ****        -6.8641   1.9930   1.9782 H              1 S1                 0.0000
     35 ****        -3.3501   1.3700   2.3043 H              1 S1                 0.0000
     36 ****        -3.6380  -1.0545   1.6219 H              1 S1                 0.0000
     37 ****        -3.5056  -0.5683  -0.0517 H              1 S1                 0.0000
     38 ****        -1.4820  -0.1053   2.0396 H              1 S1                 0.0000
     39 ****        -1.5801  -2.4057   1.3614 H              1 S1                 0.0000
     40 ****        -1.4335  -1.8861  -0.3021 H              1 S1                 0.0000
     41 ****         0.6292  -1.2989   1.8865 H              1 S1                 0.0000
     42 ****         0.5757  -3.2344  -0.1538 H              1 S1                 0.0000
     43 ****         0.8033  -0.9582  -1.1716 H              1 S1                 0.0000
     44 ****         0.7148   0.3426  -0.0160 H              1 S1                 0.0000
     45 ****         2.9357   0.7647   1.6003 H              1 S1                 0.0000
     46 ****         6.7524  -1.6318  -0.6805 H              1 S1                 0.0000
     47 ****         6.6594  -3.2521  -3.7586 H              1 S1                 0.0000
     48 ****         6.5503  -4.5570  -2.5666 H              1 S1                 0.0000
     49 ****         7.5873  -3.1656  -2.2632 H              1 S1                 0.0000
     50 ****         2.7815  -4.1348  -3.7262 H              1 S1                 0.0000
     51 ****         4.2309  -5.0252  -3.2689 H              1 S1                 0.0000
     52 ****         4.3266  -3.7259  -4.4678 H              1 S1                 0.0000
     53 ****         2.0278  -2.5941  -2.1267 H              1 S1                 0.0000
     54 ****        -3.8268   1.8079  -0.7029 H              1 S1                 0.0000
     55 ****        -2.3714   2.2648   0.1324 H              1 S1                 0.0000
     56 ****        -4.0215   4.0103  -0.2620 H              1 S1                 0.0000
     57 ****         5.3765   0.1353   1.1178 H              1 S1                 0.0000
     58 ****        -5.5483   0.6894   0.5691 LP             1 S1                 0.0000
     59 ****        -5.3756   0.2450   2.1309 LP             1 S1                 0.0000
     60 ****        -1.3889   0.3344   0.4427 LP             1 S1                 0.0000
     61 ****         0.4283  -3.5243   1.4030 LP             1 S1                 0.0000
     62 ****         1.8280  -2.9532   0.7854 LP             1 S1                 0.0000
@<TRIPOS>BOND
    1    1    2 1     
    2    1   26 1     
    3    1   27 1     
    4    1   28 1     
    5    2    3 1     
    6    2   29 1     
    7    2   30 1     
    8    3   25 1     
    9    3    4 1     
   10    3   56 1     
   11    4    5 1     
   12    4   31 1     
   13    4   32 1     
   14    5    6 1     
   15    5   33 1     
   16    5   34 1     
   17    6    7 1     
   18    7    8 1     
   19    7   25 1     
   20    7   35 1     
   21    8    9 1     
   22    8   36 1     
   23    8   37 1     
   24    9   10 1     
   25    9   38 1     
   26   10   11 1     
   27   10   39 1     
   28   10   40 1     
   29   11   12 1     
   30   11   13 1     
   31   11   41 1     
   32   12   42 1     
   33   13   14 1     
   34   13   43 1     
   35   13   44 1     
   36   14   24 1     
   37   14   15 1     
   38   15   16 2     
   39   15   45 1     
   40   16   17 1     
   41   16   57 1     
   42   17   24 ar    
   43   17   18 ar    
   44   18   19 ar    
   45   18   46 1     
   46   19   20 1     
   47   19   21 ar    
   48   20   47 1     
   49   20   48 1     
   50   20   49 1     
   51   21   22 1     
   52   21   23 ar    
   53   22   50 1     
   54   22   51 1     
   55   22   52 1     
   56   23   24 ar    
   57   23   53 1     
   58   25   54 1     
   59   25   55 1     
   60    6   58 1     
   61    6   59 1     
   62    9   60 1     
   63   12   61 1     
   64   12   62 1     
@<TRIPOS>SUBSTRUCTURE
      1 S1             1
@<TRIPOS>SET
LONE_PAIRS      STATIC     ATOMS    <user>   **** ""
5 58 59 60 61 62
DONOR_HYDROGENS      STATIC     ATOMS    <user>   **** ""
4 56 38 42 57
ATOM$BLUE        STATIC     ATOMS    COLORGROUP SYSTEM
5 58 59 60 61 62
ATOM$RED        STATIC     ATOMS    COLORGROUP SYSTEM
4 56 38 42 57
