AV-unprocessed.smi:1615|AV-procd|sdf|6481|dock8
  -GOLD-   22720 7143D 1   1.00000     0.00000
 Structure written by MMmdl.
 32 33  0  0  0  0  0  0  0  0  1 V2000
  151.7008  140.9582  157.2877 O   0  0  0  0  0  0  0  0  0  0  0  0
  150.9201  141.7743  156.7991 C   0  0  0  0  0  0  0  0  0  0  0  0
  149.9205  141.3281  155.7316 C   0  0  0  0  0  0  0  0  0  0  0  0
  150.0595  139.9108  155.4475 N   0  0  0  0  0  0  0  0  0  0  0  0
  149.7672  138.8411  156.2728 C   0  0  0  0  0  0  0  0  0  0  0  0
  150.0760  137.7300  155.5496 C   0  0  0  0  0  0  0  0  0  0  0  0
  149.9045  135.9213  156.1135 Br  0  0  0  0  0  0  0  0  0  0  0  0
  150.5515  138.1873  154.2945 C   0  0  0  0  0  0  0  0  0  0  0  0
  150.5374  139.5111  154.2404 N   0  0  0  0  0  0  0  0  0  0  0  0
  150.8769  143.0693  157.1503 N   0  0  0  0  0  0  0  0  0  0  0  0
  151.7041  143.7102  158.1684 C   0  0  0  0  0  0  0  0  0  0  0  0
  151.8097  142.7901  159.3993 C   0  0  0  0  0  0  0  0  0  0  0  0
  152.5942  143.4604  160.5386 C   0  0  0  0  0  0  0  0  0  0  0  0
  151.9794  144.8175  160.9153 C   0  0  0  0  0  0  0  0  0  0  0  0
  151.8863  145.7408  159.6904 C   0  0  0  0  0  0  0  0  0  0  0  0
  151.1001  145.0758  158.5487 C   0  0  0  0  0  0  0  0  0  0  0  0
  148.9002  141.5239  156.0647 H   0  0  0  0  0  0  0  0  0  0  0  0
  150.0733  141.8997  154.8147 H   0  0  0  0  0  0  0  0  0  0  0  0
  149.3786  138.9616  157.2733 H   0  0  0  0  0  0  0  0  0  0  0  0
  150.8971  137.6198  153.4431 H   0  0  0  0  0  0  0  0  0  0  0  0
  150.2030  143.6590  156.6839 H   0  0  0  0  0  0  0  0  0  0  0  0
  152.7126  143.8807  157.7873 H   0  0  0  0  0  0  0  0  0  0  0  0
  150.8114  142.5304  159.7544 H   0  0  0  0  0  0  0  0  0  0  0  0
  152.2926  141.8517  159.1232 H   0  0  0  0  0  0  0  0  0  0  0  0
  152.6149  142.8064  161.4107 H   0  0  0  0  0  0  0  0  0  0  0  0
  153.6319  143.6019  160.2335 H   0  0  0  0  0  0  0  0  0  0  0  0
  150.9846  144.6650  161.3358 H   0  0  0  0  0  0  0  0  0  0  0  0
  152.5754  145.2926  161.6951 H   0  0  0  0  0  0  0  0  0  0  0  0
  151.4122  146.6821  159.9692 H   0  0  0  0  0  0  0  0  0  0  0  0
  152.8903  145.9908  159.3448 H   0  0  0  0  0  0  0  0  0  0  0  0
  151.0884  145.7340  157.6789 H   0  0  0  0  0  0  0  0  0  0  0  0
  150.0606  144.9488  158.8544 H   0  0  0  0  0  0  0  0  0  0  0  0
  1  2  2  0  0  0  0
  2  3  1  0  0  0  0
  2 10  1  0  0  0  0
  3  4  1  0  0  0  0
  3 17  1  0  0  0  0
  3 18  1  0  0  0  0
  4  9  1  0  0  0  0
  4  5  1  0  0  0  0
  5  6  2  0  0  0  0
  5 19  1  0  0  0  0
  6  7  1  0  0  0  0
  6  8  1  0  0  0  0
  8  9  2  0  0  0  0
  8 20  1  0  0  0  0
 10 11  1  0  0  0  0
 10 21  1  0  0  0  0
 11 16  1  0  0  0  0
 11 12  1  0  0  0  0
 11 22  1  0  0  0  0
 12 13  1  0  0  0  0
 12 23  1  0  0  0  0
 12 24  1  0  0  0  0
 13 14  1  0  0  0  0
 13 25  1  0  0  0  0
 13 26  1  0  0  0  0
 14 15  1  0  0  0  0
 14 27  1  0  0  0  0
 14 28  1  0  0  0  0
 15 16  1  0  0  0  0
 15 29  1  0  0  0  0
 15 30  1  0  0  0  0
 16 31  1  0  0  0  0
 16 32  1  0  0  0  0
M  END
> <s_m_source_file>
AV-unprocessed.smi

> <i_m_source_file_index>
1615

> <i_lp_mmshare_version>
43012

> <i_f3d_flags>
0

> <s_epik_input>
bjFbY0hdYyhCcilbY0hdbjFbQ0gyXUMoPU8pW05IXVtDSF0yW0NIMl1bQ0gyXVtDSDJdW0NIMl1bQ0gyXTI=

> <s_epik_cmdline>
J2VwaWtfcHl0aG9uJywgJy1waCcsICc3LjAnLCAnLXRuJywgJzgnLCAnLW1hJywgJzIwMCcsICctbWV0YWxfYmluZGluZycsICctaW1hZScsICc8aW5maWxlLm1hZT4nLCAnLW9tYWUnLCAnPG91dGZpbGUubWFlPic=

> <r_lp_tautomer_probability>
1

> <r_epik_Ionization_Penalty>
2.45271e-07

> <r_epik_Ionization_Penalty_Charging>
0

> <r_epik_Ionization_Penalty_Neutral>
2.45271e-07

> <r_epik_State_Penalty>
-0

> <r_epik_Charging_Adjusted_Penalty>
0

> <i_epik_Tot_Q>
0

> <i_epik_Tot_abs_Q>
0

> <r_epik_Metal_State_Penalty>
-0

> <b_epik_Metal_Only>
0

> <s_lp_Force_Field>
OPLS_2005

> <r_lp_Energy>
11.9835

> <b_lp_Chiralities_Consistent>
1

> <s_lp_Variant>
AV-unprocessed.smi:1615-1

> <Gold.Version>
5.8.1

> <Gold.Id.Protein>
6NUR|6NUR_protein|mol2

> <Gold.PLP.Fitness>
45.1202

> <Gold.PLP.PLP>
-36.4855

> <Gold.PLP.part.hbond>
-2.0000

> <Gold.PLP.part.metal>
0.0000

> <Gold.PLP.part.buried>
-4.8973

> <Gold.PLP.part.nonpolar>
-30.1714

> <Gold.PLP.part.repulsive>
0.3117

> <Gold.PLP.ligand.clash>
0.0000

> <Gold.PLP.ligand.torsion>
0.2848

> <Gold.PLP.Chemscore.Hbond>
2.0000

> <Gold.PLP.Chemscore.CHOScore>
1.0671

> <Gold.PLP.Chemscore.Metal>
0.0000

> <Gold.Chemscore.Hbonds>
donor molecule, donor type, donor heavy atom, donor atom, acceptor molecule, acceptor atom, score
      L1  H    10    21       P1  8028  1.00
      P1  H  7989  7998       L1     9  1.00
      L1  C     8    20       P1  7948  0.10
      L1  C     8    20       P1  7949  0.91

> <Gold.PLP.Chemscore.Internal.Correction>
0.0030

> <Gold.Rescore>
     Score         DG    S(hbond)    S(metal)    S(lipo)     H(rot)  DE(clash)    DE(int)     intcor
     18.97     -19.26       1.85        0.00      95.56       1.40       0.04       0.25       ----

> <Gold.Chemscore.Fitness>
18.9746

> <Gold.Chemscore.DG>
-19.2605

> <Gold.Chemscore.ZeroCoef>
-5.4800

> <Gold.Chemscore.Hbond>
1.8486

> <Gold.Chemscore.Metal>
0.0000

> <Gold.Chemscore.Lipo>
95.5634

> <Gold.Chemscore.Internal_Hbond>
0.0000

> <Gold.Chemscore.DEClash>
0.0373

> <Gold.Chemscore.DEInternal>
0.2487

> <Gold.Chemscore.Rot>
1.3963

> <Gold.Chemscore.Internal.Correction>
   9.000000E+99

> <Gold.Chemscore.Hbonds>
donor molecule, donor type, donor heavy atom, donor atom, acceptor molecule, acceptor atom, score
      L1  H    10    21       P1  8028  0.98
      P1  H  7989  7998       L1     9  0.78

> <Gold.Chemscore.Hbond.Weighted>
-6.1742

> <Gold.Chemscore.Metal.Weighted>
-0.0000

> <Gold.Chemscore.Lipo.Weighted>
-11.1809

> <Gold.Chemscore.Internal_Hbond.Weighted>
0.0000

> <Gold.Chemscore.DEClash.Weighted>
0.0373

> <Gold.Chemscore.DEInternal.Weighted>
0.2487

> <Gold.Chemscore.Rot.Weighted>
3.5746

> <Gold.Chemscore.Internal.Correction.Weighted>
   9.000000E+99

> <Gold.Protein.RotatedTorsions>
[ 6907 6896 6895 6894 ] final   67.77 input  -60.11 | X-H torsion
[ 7974 7965 7964 7962 ] final    9.65 input  175.53 | X-H torsion
[ 8008 7997 7996 7995 ] final   71.75 input   59.86 | X-H torsion
[ 10167 10162 10161 10158 ] final  164.64 input  -65.29 | X-H torsion
[ 10718 10713 10712 10709 ] final   73.49 input   66.30 | X-H torsion
[ 10763 10752 10751 10750 ] final   50.48 input  -60.55 | X-H torsion
[ 11005 11000 10999 10996 ] final   54.43 input  -57.11 | X-H torsion

> <Gold.Protein.ActiveResidues>
 VAL166  LYS551  ARG553  GLY616  TRP617  ASP618  TYR619  PRO620  LYS621  CYS622 
 ASP623  PHE694  ASN695  SER759  ASP760  ASP761  ALA762  ILE779  LEU786  VAL792 
 PHE793  MET794  SER795  GLU796  ALA797  LYS798  CYS799  TRP800  GLU811  SER814 

> <Gold.Protein.RotatedAtoms>
  152.4575  134.5260  159.9796 H   0  0  0  0  0  0  0  0  0  0  0  0  # atno 6907 bound_to 6896
  151.5317  133.3442  159.2927 H   0  0  0  0  0  0  0  0  0  0  0  0  # atno 6908 bound_to 6896
  150.8524  134.7883  159.7082 H   0  0  0  0  0  0  0  0  0  0  0  0  # atno 6909 bound_to 6896
  146.2400  139.9751  142.8442 H   0  0  0  0  0  0  0  0  0  0  0  0  # atno 7974 bound_to 7965
  155.7586  140.3487  155.5186 H   0  0  0  0  0  0  0  0  0  0  0  0  # atno 8008 bound_to 7997
  155.8935  140.1022  157.1422 H   0  0  0  0  0  0  0  0  0  0  0  0  # atno 8009 bound_to 7997
  154.4036  140.1299  156.4333 H   0  0  0  0  0  0  0  0  0  0  0  0  # atno 8010 bound_to 7997
  139.4892  144.4214  151.9182 H   0  0  0  0  0  0  0  0  0  0  0  0  # atno 10167 bound_to 10162
  157.6550  130.9631  150.1077 H   0  0  0  0  0  0  0  0  0  0  0  0  # atno 10718 bound_to 10713
  152.9784  135.5877  154.4258 H   0  0  0  0  0  0  0  0  0  0  0  0  # atno 10763 bound_to 10752
  154.3877  135.2767  155.2175 H   0  0  0  0  0  0  0  0  0  0  0  0  # atno 10764 bound_to 10752
  154.4061  135.6092  153.5979 H   0  0  0  0  0  0  0  0  0  0  0  0  # atno 10765 bound_to 10752
  140.0687  134.5500  155.9070 H   0  0  0  0  0  0  0  0  0  0  0  0  # atno 11005 bound_to 11000
  145.1644  140.9689  143.4358 LP  0  0  0  0  0  0  0  0  0  0  0  0  # atno 17320 bound_to 7965
  145.0086  139.3531  143.6131 LP  0  0  0  0  0  0  0  0  0  0  0  0  # atno 17321 bound_to 7965
  140.3658  144.2916  150.5927 LP  0  0  0  0  0  0  0  0  0  0  0  0  # atno 17342 bound_to 10162
  140.5362  143.2232  151.8158 LP  0  0  0  0  0  0  0  0  0  0  0  0  # atno 17343 bound_to 10162
  156.1982  130.3658  149.8822 LP  0  0  0  0  0  0  0  0  0  0  0  0  # atno 17370 bound_to 10713
  156.6732  130.8829  151.3565 LP  0  0  0  0  0  0  0  0  0  0  0  0  # atno 17371 bound_to 10713
  141.2003  133.6612  156.5890 LP  0  0  0  0  0  0  0  0  0  0  0  0  # atno 17394 bound_to 11000
  140.3659  134.7647  157.4566 LP  0  0  0  0  0  0  0  0  0  0  0  0  # atno 17395 bound_to 11000

$$$$
