AV-unprocessed.smi:1146|AV-procd|sdf|4886|dock7
  -GOLD-   22720 3463D 1   1.00000     0.00000
 Structure written by MMmdl.
 46 47  0  0  0  0  0  0  0  0  1 V2000
  151.7377  144.2242  160.9472 C   0  0  0  0  0  0  0  0  0  0  0  0
  152.2002  143.8837  159.5250 C   0  0  0  0  0  0  0  0  0  0  0  0
  152.4318  142.4495  159.3719 N   0  0  0  0  0  0  0  0  0  0  0  0
  153.0790  141.6410  160.2432 C   0  0  0  0  0  0  0  0  0  0  0  0
  153.5823  141.9875  161.3116 O   0  0  0  0  0  0  0  0  0  0  0  0
  153.0786  140.3859  159.7348 N   0  0  0  0  0  0  0  0  0  0  0  0
  153.6820  139.2005  160.3503 C   0  0  0  0  0  0  0  0  0  0  0  0
  155.2290  139.1469  160.2408 C   0  0  0  0  0  0  0  0  0  0  0  0
  155.9587  140.2534  161.0272 C   0  0  0  0  0  0  0  0  0  0  0  0
  155.7352  137.7620  160.6790 C   0  0  0  0  0  0  0  0  0  0  0  0
  155.5817  139.2617  158.8763 O   0  0  0  0  0  0  0  0  0  0  0  0
  152.4228  140.3956  158.4931 C   0  0  0  0  0  0  0  0  0  0  0  0
  152.1587  139.3624  157.5765 C   0  0  0  0  0  0  0  0  0  0  0  0
  151.4584  139.7171  156.3992 C   0  0  0  0  0  0  0  0  0  0  0  0
  151.0892  138.4666  155.1764 S   0  0  0  0  0  0  0  0  0  0  0  0
  150.6887  139.1125  153.9162 O   0  0  0  0  0  0  0  0  0  0  0  0
  152.1943  137.4956  155.1962 O   0  0  0  0  0  0  0  0  0  0  0  0
  149.6889  137.6969  155.8466 N   0  0  0  0  0  0  0  0  0  0  0  0
  149.8332  136.3306  156.3597 C   0  0  0  0  0  0  0  0  0  0  0  0
  148.3986  137.9627  155.2033 C   0  0  0  0  0  0  0  0  0  0  0  0
  151.0517  141.0545  156.1550 C   0  0  0  0  0  0  0  0  0  0  0  0
  151.3300  142.0712  157.0976 C   0  0  0  0  0  0  0  0  0  0  0  0
  152.0190  141.6956  158.2646 C   0  0  0  0  0  0  0  0  0  0  0  0
  151.5634  145.2953  161.0516 H   0  0  0  0  0  0  0  0  0  0  0  0
  152.4864  143.9357  161.6856 H   0  0  0  0  0  0  0  0  0  0  0  0
  150.8075  143.7113  161.1932 H   0  0  0  0  0  0  0  0  0  0  0  0
  151.4522  144.2162  158.8036 H   0  0  0  0  0  0  0  0  0  0  0  0
  153.1119  144.4318  159.2865 H   0  0  0  0  0  0  0  0  0  0  0  0
  153.3959  139.1878  161.4018 H   0  0  0  0  0  0  0  0  0  0  0  0
  153.2366  138.2980  159.9276 H   0  0  0  0  0  0  0  0  0  0  0  0
  155.7095  140.2110  162.0877 H   0  0  0  0  0  0  0  0  0  0  0  0
  155.7041  141.2497  160.6649 H   0  0  0  0  0  0  0  0  0  0  0  0
  157.0408  140.1492  160.9414 H   0  0  0  0  0  0  0  0  0  0  0  0
  155.5133  137.5762  161.7305 H   0  0  0  0  0  0  0  0  0  0  0  0
  156.8149  137.6724  160.5517 H   0  0  0  0  0  0  0  0  0  0  0  0
  155.2688  136.9644  160.0988 H   0  0  0  0  0  0  0  0  0  0  0  0
  156.4258  138.8561  158.7472 H   0  0  0  0  0  0  0  0  0  0  0  0
  152.4718  138.3464  157.7637 H   0  0  0  0  0  0  0  0  0  0  0  0
  148.9367  136.0239  156.8994 H   0  0  0  0  0  0  0  0  0  0  0  0
  150.6756  136.2675  157.0483 H   0  0  0  0  0  0  0  0  0  0  0  0
  150.0019  135.6354  155.5367 H   0  0  0  0  0  0  0  0  0  0  0  0
  147.5756  137.6645  155.8537 H   0  0  0  0  0  0  0  0  0  0  0  0
  148.3236  137.4107  154.2660 H   0  0  0  0  0  0  0  0  0  0  0  0
  148.2924  139.0261  154.9884 H   0  0  0  0  0  0  0  0  0  0  0  0
  150.5248  141.2988  155.2443 H   0  0  0  0  0  0  0  0  0  0  0  0
  151.0246  143.0922  156.9232 H   0  0  0  0  0  0  0  0  0  0  0  0
  1  2  1  0  0  0  0
  1 24  1  0  0  0  0
  1 25  1  0  0  0  0
  1 26  1  0  0  0  0
  2  3  1  0  0  0  0
  2 27  1  0  0  0  0
  2 28  1  0  0  0  0
  3 23  1  0  0  0  0
  3  4  1  0  0  0  0
  4  5  2  0  0  0  0
  4  6  1  0  0  0  0
  6  7  1  0  0  0  0
  6 12  1  0  0  0  0
  7  8  1  0  0  0  0
  7 29  1  0  0  0  0
  7 30  1  0  0  0  0
  8  9  1  0  0  0  0
  8 10  1  0  0  0  0
  8 11  1  0  0  0  0
  9 31  1  0  0  0  0
  9 32  1  0  0  0  0
  9 33  1  0  0  0  0
 10 34  1  0  0  0  0
 10 35  1  0  0  0  0
 10 36  1  0  0  0  0
 11 37  1  0  0  0  0
 12 23  2  0  0  0  0
 12 13  1  0  0  0  0
 13 14  2  0  0  0  0
 13 38  1  0  0  0  0
 14 15  1  0  0  0  0
 14 21  1  0  0  0  0
 15 16  2  0  0  0  0
 15 17  2  0  0  0  0
 15 18  1  0  0  0  0
 18 19  1  0  0  0  0
 18 20  1  0  0  0  0
 19 39  1  0  0  0  0
 19 40  1  0  0  0  0
 19 41  1  0  0  0  0
 20 42  1  0  0  0  0
 20 43  1  0  0  0  0
 20 44  1  0  0  0  0
 21 22  2  0  0  0  0
 21 45  1  0  0  0  0
 22 23  1  0  0  0  0
 22 46  1  0  0  0  0
M  END
> <s_m_source_file>
AV-unprocessed.smi

> <i_m_source_file_index>
1146

> <i_lp_mmshare_version>
43012

> <i_f3d_flags>
0

> <s_epik_input>
W0NIM11DKFtDSDNdKShbT0hdKVtDSDJdbjFjKD1PKW4oW0NIMl1bQ0gzXSljKGMxMilbY0hdW2NIXWMoW2NIXTIpUyg9TykoPU8pTihbQ0gzXSlbQ0gzXQ==

> <s_epik_cmdline>
J2VwaWtfcHl0aG9uJywgJy1waCcsICc3LjAnLCAnLXRuJywgJzgnLCAnLW1hJywgJzIwMCcsICctbWV0YWxfYmluZGluZycsICctaW1hZScsICc8aW5maWxlLm1hZT4nLCAnLW9tYWUnLCAnPG91dGZpbGUubWFlPic=

> <r_lp_tautomer_probability>
1

> <r_epik_Ionization_Penalty>
3.29736e-08

> <r_epik_Ionization_Penalty_Charging>
1.95861e-09

> <r_epik_Ionization_Penalty_Neutral>
3.1015e-08

> <r_epik_State_Penalty>
-0

> <r_epik_Charging_Adjusted_Penalty>
1.95861e-09

> <i_epik_Tot_Q>
0

> <i_epik_Tot_abs_Q>
0

> <r_epik_Metal_State_Penalty>
-0

> <b_epik_Metal_Only>
0

> <s_lp_Force_Field>
OPLS_2005

> <r_lp_Energy>
36.7985

> <b_lp_Chiralities_Consistent>
1

> <s_lp_Variant>
AV-unprocessed.smi:1146-1

> <Gold.Version>
5.8.1

> <Gold.Id.Protein>
6NUR|6NUR_protein|mol2

> <Gold.PLP.Fitness>
44.5111

> <Gold.PLP.PLP>
-37.5310

> <Gold.PLP.part.hbond>
-3.0000

> <Gold.PLP.part.metal>
0.0000

> <Gold.PLP.part.buried>
-3.9190

> <Gold.PLP.part.nonpolar>
-31.1343

> <Gold.PLP.part.repulsive>
0.7600

> <Gold.PLP.ligand.clash>
0.0000

> <Gold.PLP.ligand.torsion>
1.8527

> <Gold.PLP.Chemscore.Hbond>
2.6240

> <Gold.PLP.Chemscore.CHOScore>
0.0000

> <Gold.PLP.Chemscore.Metal>
0.0000

> <Gold.Chemscore.Hbonds>
donor molecule, donor type, donor heavy atom, donor atom, acceptor molecule, acceptor atom, score
      P1  H  7989  7998       L1    16  1.00
      P1  H  7997  8009       L1    11  0.95
      P1  H 10752 10765       L1    17  0.60

> <Gold.PLP.Chemscore.Internal.Correction>
2.8134

> <Gold.Rescore>
     Score         DG    S(hbond)    S(metal)    S(lipo)     H(rot)  DE(clash)    DE(int)     intcor
     13.94     -17.40       1.97        0.00      90.27       2.04       0.53       2.92       ----

> <Gold.Chemscore.Fitness>
13.9448

> <Gold.Chemscore.DG>
-17.3964

> <Gold.Chemscore.ZeroCoef>
-5.4800

> <Gold.Chemscore.Hbond>
1.9680

> <Gold.Chemscore.Metal>
0.0000

> <Gold.Chemscore.Lipo>
90.2677

> <Gold.Chemscore.Internal_Hbond>
0.0000

> <Gold.Chemscore.DEClash>
0.5346

> <Gold.Chemscore.DEInternal>
2.9170

> <Gold.Chemscore.Rot>
2.0383

> <Gold.Chemscore.Internal.Correction>
   9.000000E+99

> <Gold.Chemscore.Hbonds>
donor molecule, donor type, donor heavy atom, donor atom, acceptor molecule, acceptor atom, score
      P1  H  7989  7998       L1    16  0.84
      P1  H  7997  8009       L1    11  0.22
      P1  H 10752 10765       L1    17  0.60

> <Gold.Chemscore.Hbond.Weighted>
-6.5732

> <Gold.Chemscore.Metal.Weighted>
-0.0000

> <Gold.Chemscore.Lipo.Weighted>
-10.5613

> <Gold.Chemscore.Internal_Hbond.Weighted>
0.0000

> <Gold.Chemscore.DEClash.Weighted>
0.5346

> <Gold.Chemscore.DEInternal.Weighted>
2.9170

> <Gold.Chemscore.Rot.Weighted>
5.2181

> <Gold.Chemscore.Internal.Correction.Weighted>
   9.000000E+99

> <Gold.Protein.RotatedTorsions>
[ 6907 6896 6895 6894 ] final   91.26 input  -60.11 | X-H torsion
[ 7974 7965 7964 7962 ] final -154.82 input  175.53 | X-H torsion
[ 8008 7997 7996 7995 ] final  103.39 input   59.86 | X-H torsion
[ 10167 10162 10161 10158 ] final  124.89 input  -65.29 | X-H torsion
[ 10718 10713 10712 10709 ] final   20.60 input   66.30 | X-H torsion
[ 10763 10752 10751 10750 ] final -179.66 input  -60.55 | X-H torsion
[ 11005 11000 10999 10996 ] final    6.27 input  -57.11 | X-H torsion

> <Gold.Protein.ActiveResidues>
 VAL166  LYS551  ARG553  GLY616  TRP617  ASP618  TYR619  PRO620  LYS621  CYS622 
 ASP623  PHE694  ASN695  SER759  ASP760  ASP761  ALA762  ILE779  LEU786  VAL792 
 PHE793  MET794  SER795  GLU796  ALA797  LYS798  CYS799  TRP800  GLU811  SER814 

> <Gold.Protein.RotatedAtoms>
  152.5449  134.1684  159.8586 H   0  0  0  0  0  0  0  0  0  0  0  0  # atno 6907 bound_to 6896
  151.1696  133.4785  159.2601 H   0  0  0  0  0  0  0  0  0  0  0  0  # atno 6908 bound_to 6896
  151.1288  135.0130  159.8628 H   0  0  0  0  0  0  0  0  0  0  0  0  # atno 6909 bound_to 6896
  144.7670  140.4335  143.5935 H   0  0  0  0  0  0  0  0  0  0  0  0  # atno 7974 bound_to 7965
  156.1480  140.3165  155.8601 H   0  0  0  0  0  0  0  0  0  0  0  0  # atno 8008 bound_to 7997
  155.4026  140.0500  157.3053 H   0  0  0  0  0  0  0  0  0  0  0  0  # atno 8009 bound_to 7997
  154.5033  140.2137  155.9313 H   0  0  0  0  0  0  0  0  0  0  0  0  # atno 8010 bound_to 7997
  139.5716  144.6942  151.3763 H   0  0  0  0  0  0  0  0  0  0  0  0  # atno 10167 bound_to 10162
  157.1268  130.6573  149.5940 H   0  0  0  0  0  0  0  0  0  0  0  0  # atno 10718 bound_to 10713
  154.5322  135.2800  155.1170 H   0  0  0  0  0  0  0  0  0  0  0  0  # atno 10763 bound_to 10752
  154.2685  135.6308  153.5305 H   0  0  0  0  0  0  0  0  0  0  0  0  # atno 10764 bound_to 10752
  152.9959  135.5622  154.5839 H   0  0  0  0  0  0  0  0  0  0  0  0  # atno 10765 bound_to 10752
  140.5613  134.0189  155.7973 H   0  0  0  0  0  0  0  0  0  0  0  0  # atno 11005 bound_to 11000
  145.6439  139.1554  143.2900 LP  0  0  0  0  0  0  0  0  0  0  0  0  # atno 17320 bound_to 7965
  146.1786  140.6534  142.9200 LP  0  0  0  0  0  0  0  0  0  0  0  0  # atno 17321 bound_to 7965
  140.7000  143.7654  150.7388 LP  0  0  0  0  0  0  0  0  0  0  0  0  # atno 17342 bound_to 10162
  140.1162  143.4654  152.2341 LP  0  0  0  0  0  0  0  0  0  0  0  0  # atno 17343 bound_to 10162
  155.9816  130.4825  150.6839 LP  0  0  0  0  0  0  0  0  0  0  0  0  # atno 17370 bound_to 10713
  157.4428  131.0863  151.0926 LP  0  0  0  0  0  0  0  0  0  0  0  0  # atno 17371 bound_to 10713
  141.1112  133.9613  157.2906 LP  0  0  0  0  0  0  0  0  0  0  0  0  # atno 17394 bound_to 11000
  139.9406  135.0191  156.8696 LP  0  0  0  0  0  0  0  0  0  0  0  0  # atno 17395 bound_to 11000

$$$$
