AV-unprocessed.smi:668|AV-procd|sdf|3261|dock1
  -GOLD-   22720 0213D 1   1.00000     0.00000
 Structure written by MMmdl.
 38 39  0  0  0  0  0  0  0  0  1 V2000
  151.2866  141.4365  158.1226 C   0  0  0  0  0  0  0  0  0  0  0  0
  151.2883  141.3697  156.7009 O   0  0  0  0  0  0  0  0  0  0  0  0
  150.5899  140.3470  156.0924 C   0  0  0  0  0  0  0  0  0  0  0  0
  149.6555  139.6206  156.8562 C   0  0  0  0  0  0  0  0  0  0  0  0
  148.9341  138.5785  156.2420 C   0  0  0  0  0  0  0  0  0  0  0  0
  149.1738  138.2916  154.8760 C   0  0  0  0  0  0  0  0  0  0  0  0
  148.5133  137.2795  154.1250 N   0  0  0  0  0  0  0  0  0  0  0  0
  147.5401  136.4314  154.5004 C   0  0  0  0  0  0  0  0  0  0  0  0
  147.0427  136.3591  155.6232 O   0  0  0  0  0  0  0  0  0  0  0  0
  147.1720  135.6436  153.4804 N   0  0  0  0  0  0  0  0  0  0  0  0
  146.1403  134.6052  153.5424 C   0  0  2  0  0  0  0  0  0  0  0  0
  146.6135  133.2872  152.8915 C   0  0  0  0  0  0  0  0  0  0  0  0
  145.5383  132.8777  151.8816 C   0  0  0  0  0  0  0  0  0  0  0  0
  144.2880  133.6560  152.2905 C   0  0  0  0  0  0  0  0  0  0  0  0
  144.8000  134.9909  152.8544 C   0  0  2  0  0  0  0  0  0  0  0  0
  144.9072  136.0520  151.7375 C   0  0  0  0  0  0  0  0  0  0  0  0
  144.1926  137.1696  151.8932 N   0  0  0  0  0  0  0  0  0  0  0  0
  145.6227  135.8715  150.7536 O   0  0  0  0  0  0  0  0  0  0  0  0
  150.1295  139.0801  154.2018 C   0  0  0  0  0  0  0  0  0  0  0  0
  150.8236  140.0803  154.7839 N   0  0  0  0  0  0  0  0  0  0  0  0
  151.8860  142.2878  158.4447 H   0  0  0  0  0  0  0  0  0  0  0  0
  151.7227  140.5395  158.5647 H   0  0  0  0  0  0  0  0  0  0  0  0
  150.2778  141.5748  158.5140 H   0  0  0  0  0  0  0  0  0  0  0  0
  149.4910  139.8611  157.8962 H   0  0  0  0  0  0  0  0  0  0  0  0
  148.2145  138.0366  156.8336 H   0  0  0  0  0  0  0  0  0  0  0  0
  148.8320  137.1818  153.1722 H   0  0  0  0  0  0  0  0  0  0  0  0
  147.6415  135.7619  152.5945 H   0  0  0  0  0  0  0  0  0  0  0  0
  145.9188  134.4075  154.5932 H   0  0  0  0  0  0  0  0  0  0  0  0
  147.5826  133.3830  152.3993 H   0  0  0  0  0  0  0  0  0  0  0  0
  146.7221  132.5198  153.6588 H   0  0  0  0  0  0  0  0  0  0  0  0
  145.8462  133.1725  150.8778 H   0  0  0  0  0  0  0  0  0  0  0  0
  145.3699  131.8006  151.8667 H   0  0  0  0  0  0  0  0  0  0  0  0
  143.5914  133.7743  151.4590 H   0  0  0  0  0  0  0  0  0  0  0  0
  143.7596  133.1123  153.0748 H   0  0  0  0  0  0  0  0  0  0  0  0
  144.0994  135.3620  153.6047 H   0  0  0  0  0  0  0  0  0  0  0  0
  144.2296  137.8953  151.1921 H   0  0  0  0  0  0  0  0  0  0  0  0
  143.6178  137.2853  152.7153 H   0  0  0  0  0  0  0  0  0  0  0  0
  150.3456  138.9045  153.1579 H   0  0  0  0  0  0  0  0  0  0  0  0
  1  2  1  0  0  0  0
  1 21  1  0  0  0  0
  1 22  1  0  0  0  0
  1 23  1  0  0  0  0
  2  3  1  0  0  0  0
  3 20  1  0  0  0  0
  3  4  2  0  0  0  0
  4  5  1  0  0  0  0
  4 24  1  0  0  0  0
  5  6  2  0  0  0  0
  5 25  1  0  0  0  0
  6  7  1  0  0  0  0
  6 19  1  0  0  0  0
  7  8  1  0  0  0  0
  7 26  1  0  0  0  0
  8  9  2  0  0  0  0
  8 10  1  0  0  0  0
 10 11  1  0  0  0  0
 10 27  1  0  0  0  0
 11 15  1  0  0  0  0
 11 12  1  0  0  0  0
 11 28  1  0  0  0  0
 12 13  1  0  0  0  0
 12 29  1  0  0  0  0
 12 30  1  0  0  0  0
 13 14  1  0  0  0  0
 13 31  1  0  0  0  0
 13 32  1  0  0  0  0
 14 15  1  0  0  0  0
 14 33  1  0  0  0  0
 14 34  1  0  0  0  0
 15 16  1  0  0  0  0
 15 35  1  0  0  0  0
 16 17  1  0  0  0  0
 16 18  2  0  0  0  0
 17 36  1  0  0  0  0
 17 37  1  0  0  0  0
 19 20  2  0  0  0  0
 19 38  1  0  0  0  0
M  END
> <s_m_source_file>
AV-unprocessed.smi

> <i_m_source_file_index>
668

> <i_lp_mmshare_version>
43012

> <i_f3d_flags>
0

> <s_epik_input>
W0NIM11PYzFbY0hdW2NIXWMoW2NIXW4xKVtOSF1DKD1PKVtOSF1bQ0BASF0yW0NIMl1bQ0gyXVtDSDJdW0NASF0yQyg9TylbTkgyXQ==

> <s_epik_cmdline>
J2VwaWtfcHl0aG9uJywgJy1waCcsICc3LjAnLCAnLXRuJywgJzgnLCAnLW1hJywgJzIwMCcsICctbWV0YWxfYmluZGluZycsICctaW1hZScsICc8aW5maWxlLm1hZT4nLCAnLW9tYWUnLCAnPG91dGZpbGUubWFlPic=

> <r_lp_tautomer_probability>
1

> <r_epik_Ionization_Penalty>
9.0916e-05

> <r_epik_Ionization_Penalty_Charging>
0

> <r_epik_Ionization_Penalty_Neutral>
9.0916e-05

> <r_epik_State_Penalty>
-0

> <r_epik_Charging_Adjusted_Penalty>
0

> <i_epik_Tot_Q>
0

> <i_epik_Tot_abs_Q>
0

> <r_epik_Metal_State_Penalty>
-0

> <b_epik_Metal_Only>
0

> <s_lp_Force_Field>
OPLS_2005

> <r_lp_Energy>
18.8655

> <b_lp_Chiralities_Consistent>
1

> <s_lp_Variant>
AV-unprocessed.smi:668-3

> <Gold.Version>
5.8.1

> <Gold.Id.Protein>
6NUR|6NUR_protein|mol2

> <Gold.PLP.Fitness>
36.3089

> <Gold.PLP.PLP>
-22.1161

> <Gold.PLP.part.hbond>
-3.5834

> <Gold.PLP.part.metal>
0.0000

> <Gold.PLP.part.buried>
-3.8447

> <Gold.PLP.part.nonpolar>
-15.1936

> <Gold.PLP.part.repulsive>
0.4485

> <Gold.PLP.ligand.clash>
0.0025

> <Gold.PLP.ligand.torsion>
0.3732

> <Gold.PLP.Chemscore.Hbond>
3.9680

> <Gold.PLP.Chemscore.CHOScore>
0.9997

> <Gold.PLP.Chemscore.Metal>
0.0000

> <Gold.Chemscore.Hbonds>
donor molecule, donor type, donor heavy atom, donor atom, acceptor molecule, acceptor atom, score
      L1  H     7    26       P1  7948  0.98
      L1  H    10    27       P1  7948  0.94
      L1  H    17    36       P1 10171  1.00
      P1  H  7989  7998       L1    20  1.00
      L1  C    19    38       P1  7957  1.00

> <Gold.PLP.Chemscore.Internal.Correction>
0.0385

> <Gold.Rescore>
     Score         DG    S(hbond)    S(metal)    S(lipo)     H(rot)  DE(clash)    DE(int)     intcor
     16.55     -18.09       3.77        0.00      40.95       1.86       0.04       1.50       ----

> <Gold.Chemscore.Fitness>
16.5464

> <Gold.Chemscore.DG>
-18.0855

> <Gold.Chemscore.ZeroCoef>
-5.4800

> <Gold.Chemscore.Hbond>
3.7689

> <Gold.Chemscore.Metal>
0.0000

> <Gold.Chemscore.Lipo>
40.9516

> <Gold.Chemscore.Internal_Hbond>
0.0000

> <Gold.Chemscore.DEClash>
0.0402

> <Gold.Chemscore.DEInternal>
1.4988

> <Gold.Chemscore.Rot>
1.8648

> <Gold.Chemscore.Internal.Correction>
   9.000000E+99

> <Gold.Chemscore.Hbonds>
donor molecule, donor type, donor heavy atom, donor atom, acceptor molecule, acceptor atom, score
      L1  H     7    26       P1  7948  0.92
      L1  H    10    27       P1  7948  0.87
      L1  H    17    36       P1 10171  0.96
      P1  H  7989  7998       L1    20  0.50

> <Gold.Chemscore.Hbond.Weighted>
-12.5880

> <Gold.Chemscore.Metal.Weighted>
-0.0000

> <Gold.Chemscore.Lipo.Weighted>
-4.7913

> <Gold.Chemscore.Internal_Hbond.Weighted>
0.0000

> <Gold.Chemscore.DEClash.Weighted>
0.0402

> <Gold.Chemscore.DEInternal.Weighted>
1.4988

> <Gold.Chemscore.Rot.Weighted>
4.7739

> <Gold.Chemscore.Internal.Correction.Weighted>
   9.000000E+99

> <Gold.Protein.RotatedTorsions>
[ 6907 6896 6895 6894 ] final   25.03 input  -60.11 | X-H torsion
[ 7974 7965 7964 7962 ] final  -85.86 input  175.53 | X-H torsion
[ 8008 7997 7996 7995 ] final -150.59 input   59.86 | X-H torsion
[ 10167 10162 10161 10158 ] final  155.17 input  -65.29 | X-H torsion
[ 10718 10713 10712 10709 ] final   40.71 input   66.30 | X-H torsion
[ 10763 10752 10751 10750 ] final -179.85 input  -60.55 | X-H torsion
[ 11005 11000 10999 10996 ] final -132.86 input  -57.11 | X-H torsion

> <Gold.Protein.ActiveResidues>
 VAL166  LYS551  ARG553  GLY616  TRP617  ASP618  TYR619  PRO620  LYS621  CYS622 
 ASP623  PHE694  ASN695  SER759  ASP760  ASP761  ALA762  ILE779  LEU786  VAL792 
 PHE793  MET794  SER795  GLU796  ALA797  LYS798  CYS799  TRP800  GLU811  SER814 

> <Gold.Protein.RotatedAtoms>
  151.9663  135.0098  160.0550 H   0  0  0  0  0  0  0  0  0  0  0  0  # atno 6907 bound_to 6896
  152.1823  133.4711  159.4973 H   0  0  0  0  0  0  0  0  0  0  0  0  # atno 6908 bound_to 6896
  150.6919  134.1735  159.4264 H   0  0  0  0  0  0  0  0  0  0  0  0  # atno 6909 bound_to 6896
  145.4876  140.9554  143.1830 H   0  0  0  0  0  0  0  0  0  0  0  0  # atno 7974 bound_to 7965
  155.6259  140.0686  157.2664 H   0  0  0  0  0  0  0  0  0  0  0  0  # atno 8008 bound_to 7997
  154.4218  140.1776  156.1469 H   0  0  0  0  0  0  0  0  0  0  0  0  # atno 8009 bound_to 7997
  155.9972  140.3339  155.6813 H   0  0  0  0  0  0  0  0  0  0  0  0  # atno 8010 bound_to 7997
  139.4822  144.5122  151.8007 H   0  0  0  0  0  0  0  0  0  0  0  0  # atno 10167 bound_to 10162
  157.3852  130.7776  149.7225 H   0  0  0  0  0  0  0  0  0  0  0  0  # atno 10718 bound_to 10713
  154.5298  135.2799  155.1190 H   0  0  0  0  0  0  0  0  0  0  0  0  # atno 10763 bound_to 10752
  154.2715  135.6303  153.5315 H   0  0  0  0  0  0  0  0  0  0  0  0  # atno 10764 bound_to 10752
  152.9954  135.5629  154.5808 H   0  0  0  0  0  0  0  0  0  0  0  0  # atno 10765 bound_to 10752
  140.9132  134.1540  157.4373 H   0  0  0  0  0  0  0  0  0  0  0  0  # atno 11005 bound_to 11000
  144.7852  139.6441  143.7137 LP  0  0  0  0  0  0  0  0  0  0  0  0  # atno 17320 bound_to 7965
  146.2304  139.5802  142.9559 LP  0  0  0  0  0  0  0  0  0  0  0  0  # atno 17321 bound_to 7965
  140.4626  144.1700  150.5908 LP  0  0  0  0  0  0  0  0  0  0  0  0  # atno 17342 bound_to 10162
  140.4468  143.2503  151.9400 LP  0  0  0  0  0  0  0  0  0  0  0  0  # atno 17343 bound_to 10162
  155.9785  130.4050  150.3645 LP  0  0  0  0  0  0  0  0  0  0  0  0  # atno 17370 bound_to 10713
  157.1754  131.0379  151.2775 LP  0  0  0  0  0  0  0  0  0  0  0  0  # atno 17371 bound_to 10713
  139.8761  134.9944  156.5690 LP  0  0  0  0  0  0  0  0  0  0  0  0  # atno 17394 bound_to 11000
  140.8083  133.8450  155.8787 LP  0  0  0  0  0  0  0  0  0  0  0  0  # atno 17395 bound_to 11000

$$$$
