AV-unprocessed.smi:74|AV-procd|sdf|763|dock10
  -GOLD-   2262017103D 1   1.00000     0.00000
 Structure written by MMmdl.
 58 62  0  0  0  0  0  0  0  0  1 V2000
  144.9362  132.4486  148.3833 O   0  0  0  0  0  0  0  0  0  0  0  0
  145.5369  132.4274  149.6621 C   0  0  0  0  0  0  0  0  0  0  0  0
  144.7076  133.2282  150.6795 C   0  0  0  0  0  0  0  0  0  0  0  0
  143.3258  132.5630  150.8425 C   0  0  0  0  0  0  0  0  0  0  0  0
  142.7411  132.2719  149.5892 O   0  0  0  0  0  0  0  0  0  0  0  0
  145.4310  133.5775  151.9999 C   0  0  0  0  0  0  0  0  0  0  0  0
  144.8217  134.9802  151.9551 C   0  0  0  0  0  0  0  0  0  0  0  0
  145.5326  136.1117  152.4734 N   0  0  0  0  0  0  0  0  0  0  0  0
  145.7059  137.3298  151.8561 C   0  0  0  0  0  0  0  0  0  0  0  0
  146.3550  138.2204  152.5550 N   0  0  0  0  0  0  0  0  0  0  0  0
  146.6230  137.5794  153.7591 C   0  0  0  0  0  0  0  0  0  0  0  0
  147.2745  137.9656  154.9650 C   0  0  0  0  0  0  0  0  0  0  0  0
  147.8417  139.1875  155.1343 N   0  0  0  0  0  0  0  0  0  0  0  0
  147.1283  140.3518  154.6145 C   0  0  0  0  0  0  0  0  0  0  0  0
  148.0393  141.5895  154.6485 C   0  0  0  0  0  0  0  0  0  0  0  0
  148.5198  141.7954  155.9730 O   0  0  0  0  0  0  0  0  0  0  0  0
  149.2840  140.6901  156.4487 C   0  0  1  0  0  0  0  0  0  0  0  0
  149.8513  141.0379  157.8319 C   0  0  0  0  0  0  0  0  0  0  0  0
  151.1398  141.6151  157.6931 O   0  0  0  0  0  0  0  0  0  0  0  0
  151.1087  143.0312  157.6841 C   0  0  0  0  0  0  0  0  0  0  0  0
  152.0280  143.5486  158.7695 C   0  0  0  0  0  0  0  0  0  0  0  0
  151.4811  144.3535  159.9267 C   0  0  0  0  0  0  0  0  0  0  0  0
  152.3255  145.0271  158.8753 C   0  0  0  0  0  0  0  0  0  0  0  0
  148.4186  139.4143  156.4556 C   0  0  0  0  0  0  0  0  0  0  0  0
  147.3123  137.0527  155.9730 N   0  0  0  0  0  0  0  0  0  0  0  0
  146.7631  135.8452  155.8137 C   0  0  0  0  0  0  0  0  0  0  0  0
  146.1366  135.3486  154.7458 N   0  0  0  0  0  0  0  0  0  0  0  0
  146.0904  136.2591  153.7315 C   0  0  0  0  0  0  0  0  0  0  0  0
  144.6787  134.7552  150.4478 C   0  0  0  0  0  0  0  0  0  0  0  0
  144.9689  133.3329  148.0513 H   0  0  0  0  0  0  0  0  0  0  0  0
  145.6680  131.3915  149.9755 H   0  0  0  0  0  0  0  0  0  0  0  0
  146.5396  132.8447  149.5652 H   0  0  0  0  0  0  0  0  0  0  0  0
  143.4012  131.6279  151.3978 H   0  0  0  0  0  0  0  0  0  0  0  0
  142.6426  133.1958  151.4094 H   0  0  0  0  0  0  0  0  0  0  0  0
  142.0676  132.9116  149.4161 H   0  0  0  0  0  0  0  0  0  0  0  0
  145.1302  132.9852  152.8647 H   0  0  0  0  0  0  0  0  0  0  0  0
  146.5181  133.5941  151.9009 H   0  0  0  0  0  0  0  0  0  0  0  0
  143.8439  134.9913  152.4394 H   0  0  0  0  0  0  0  0  0  0  0  0
  145.3384  137.5386  150.8617 H   0  0  0  0  0  0  0  0  0  0  0  0
  146.8012  140.1664  153.5905 H   0  0  0  0  0  0  0  0  0  0  0  0
  146.2358  140.5316  155.2158 H   0  0  0  0  0  0  0  0  0  0  0  0
  148.8775  141.4745  153.9594 H   0  0  0  0  0  0  0  0  0  0  0  0
  147.4849  142.4725  154.3304 H   0  0  0  0  0  0  0  0  0  0  0  0
  150.1273  140.5440  155.7711 H   0  0  0  0  0  0  0  0  0  0  0  0
  149.1867  141.7442  158.3324 H   0  0  0  0  0  0  0  0  0  0  0  0
  149.9011  140.1418  158.4524 H   0  0  0  0  0  0  0  0  0  0  0  0
  151.4496  143.4125  156.7206 H   0  0  0  0  0  0  0  0  0  0  0  0
  150.0940  143.3959  157.8514 H   0  0  0  0  0  0  0  0  0  0  0  0
  152.8603  142.8843  158.9945 H   0  0  0  0  0  0  0  0  0  0  0  0
  150.4155  144.5746  159.9326 H   0  0  0  0  0  0  0  0  0  0  0  0
  151.9284  144.1912  160.9052 H   0  0  0  0  0  0  0  0  0  0  0  0
  153.3370  145.3171  159.1525 H   0  0  0  0  0  0  0  0  0  0  0  0
  151.8219  145.6976  158.1817 H   0  0  0  0  0  0  0  0  0  0  0  0
  147.6052  139.5111  157.1761 H   0  0  0  0  0  0  0  0  0  0  0  0
  149.0250  138.5685  156.7772 H   0  0  0  0  0  0  0  0  0  0  0  0
  146.8389  135.1821  156.6629 H   0  0  0  0  0  0  0  0  0  0  0  0
  145.5440  135.1146  149.8873 H   0  0  0  0  0  0  0  0  0  0  0  0
  143.7510  135.1365  150.0201 H   0  0  0  0  0  0  0  0  0  0  0  0
  1  2  1  0  0  0  0
  1 30  1  0  0  0  0
  2  3  1  0  0  0  0
  2 31  1  0  0  0  0
  2 32  1  0  0  0  0
  3 29  1  0  0  0  0
  3  4  1  0  0  0  0
  3  6  1  0  0  0  0
  4  5  1  0  0  0  0
  4 33  1  0  0  0  0
  4 34  1  0  0  0  0
  5 35  1  0  0  0  0
  6  7  1  0  0  0  0
  6 36  1  0  0  0  0
  6 37  1  0  0  0  0
  7  8  1  0  0  0  0
  7 29  1  0  0  0  0
  7 38  1  0  0  0  0
  8 28  1  0  0  0  0
  8  9  1  0  0  0  0
  9 10  2  0  0  0  0
  9 39  1  0  0  0  0
 10 11  1  0  0  0  0
 11 28  2  0  0  0  0
 11 12  1  0  0  0  0
 12 13  1  0  0  0  0
 12 25  2  0  0  0  0
 13 24  1  0  0  0  0
 13 14  1  0  0  0  0
 14 15  1  0  0  0  0
 14 40  1  0  0  0  0
 14 41  1  0  0  0  0
 15 16  1  0  0  0  0
 15 42  1  0  0  0  0
 15 43  1  0  0  0  0
 16 17  1  0  0  0  0
 17 18  1  0  0  0  0
 17 24  1  0  0  0  0
 17 44  1  0  0  0  0
 18 19  1  0  0  0  0
 18 45  1  0  0  0  0
 18 46  1  0  0  0  0
 19 20  1  0  0  0  0
 20 21  1  0  0  0  0
 20 47  1  0  0  0  0
 20 48  1  0  0  0  0
 21 23  1  0  0  0  0
 21 22  1  0  0  0  0
 21 49  1  0  0  0  0
 22 23  1  0  0  0  0
 22 50  1  0  0  0  0
 22 51  1  0  0  0  0
 23 52  1  0  0  0  0
 23 53  1  0  0  0  0
 24 54  1  0  0  0  0
 24 55  1  0  0  0  0
 25 26  1  0  0  0  0
 26 27  2  0  0  0  0
 26 56  1  0  0  0  0
 27 28  1  0  0  0  0
 29 57  1  0  0  0  0
 29 58  1  0  0  0  0
M  END
> <s_m_source_file>
AV-unprocessed.smi

> <i_m_source_file_index>
74

> <i_lp_mmshare_version>
43012

> <i_f3d_flags>
0

> <s_epik_input>
W09IXVtDSDJdQzEoW0NIMl1bT0hdKVtDSDJdW0NIXShbQ0gyXTEpbihbY0hdbjIpYyhjMjMpbltjSF1uYzNONFtDSDJdW0NIMl1PW0NASF0oW0NIMl00KVtDSDJdT1tDSDJdW0NIXTVbQ0gyXVtDSDJdNQ==

> <s_epik_cmdline>
J2VwaWtfcHl0aG9uJywgJy1waCcsICc3LjAnLCAnLXRuJywgJzgnLCAnLW1hJywgJzIwMCcsICctbWV0YWxfYmluZGluZycsICctaW1hZScsICc8aW5maWxlLm1hZT4nLCAnLW9tYWUnLCAnPG91dGZpbGUubWFlPic=

> <r_lp_tautomer_probability>
1

> <r_epik_Ionization_Penalty>
5.89322e-05

> <r_epik_Ionization_Penalty_Charging>
0

> <r_epik_Ionization_Penalty_Neutral>
5.89322e-05

> <r_epik_State_Penalty>
-0

> <r_epik_Charging_Adjusted_Penalty>
0

> <i_epik_Tot_Q>
0

> <i_epik_Tot_abs_Q>
0

> <r_epik_Metal_State_Penalty>
-0

> <b_epik_Metal_Only>
0

> <s_lp_Force_Field>
OPLS_2005

> <r_lp_Energy>
49.0423

> <b_lp_Chiralities_Consistent>
1

> <s_lp_Variant>
AV-unprocessed.smi:74-1

> <Gold.Version>
5.8.1

> <Gold.Id.Protein>
6NUR|6NUR_protein|mol2

> <Gold.PLP.Fitness>
53.9823

> <Gold.PLP.PLP>
-46.0281

> <Gold.PLP.part.hbond>
-4.8561

> <Gold.PLP.part.metal>
0.0000

> <Gold.PLP.part.buried>
-3.7243

> <Gold.PLP.part.nonpolar>
-37.8539

> <Gold.PLP.part.repulsive>
1.5571

> <Gold.PLP.ligand.clash>
0.0000

> <Gold.PLP.ligand.torsion>
2.3701

> <Gold.PLP.Chemscore.Hbond>
2.6908

> <Gold.PLP.Chemscore.CHOScore>
1.0000

> <Gold.PLP.Chemscore.Metal>
0.0000

> <Gold.Chemscore.Hbonds>
donor molecule, donor type, donor heavy atom, donor atom, acceptor molecule, acceptor atom, score
      L1  H     1    30       P1  7921  0.90
      L1  H     5    35       P1 10186  1.00
      P1  H 10785 10796       L1     5  0.23
      L1  C     9    39       P1 10171  1.00

> <Gold.PLP.Chemscore.Internal.Correction>
1.6221

> <Gold.Rescore>
     Score         DG    S(hbond)    S(metal)    S(lipo)     H(rot)  DE(clash)    DE(int)     intcor
     10.54     -12.93       1.34        0.00     112.07       3.97       0.21       2.17       ----

> <Gold.Chemscore.Fitness>
10.5442

> <Gold.Chemscore.DG>
-12.9262

> <Gold.Chemscore.ZeroCoef>
-5.4800

> <Gold.Chemscore.Hbond>
1.3432

> <Gold.Chemscore.Metal>
0.0000

> <Gold.Chemscore.Lipo>
112.0740

> <Gold.Chemscore.Internal_Hbond>
0.0000

> <Gold.Chemscore.DEClash>
0.2117

> <Gold.Chemscore.DEInternal>
2.1703

> <Gold.Chemscore.Rot>
3.9660

> <Gold.Chemscore.Internal.Correction>
   9.000000E+99

> <Gold.Chemscore.Hbonds>
donor molecule, donor type, donor heavy atom, donor atom, acceptor molecule, acceptor atom, score
      L1  H     1    30       P1  7921  0.48
      L1  H     5    35       P1 10186  1.00
      P1  H 10785 10796       L1     5  0.23

> <Gold.Chemscore.Hbond.Weighted>
-4.4864

> <Gold.Chemscore.Metal.Weighted>
-0.0000

> <Gold.Chemscore.Lipo.Weighted>
-13.1127

> <Gold.Chemscore.Internal_Hbond.Weighted>
0.0000

> <Gold.Chemscore.DEClash.Weighted>
0.2117

> <Gold.Chemscore.DEInternal.Weighted>
2.1703

> <Gold.Chemscore.Rot.Weighted>
10.1529

> <Gold.Chemscore.Internal.Correction.Weighted>
   9.000000E+99

> <Gold.Protein.RotatedTorsions>
[ 6907 6896 6895 6894 ] final  -72.87 input  -60.11 | X-H torsion
[ 7974 7965 7964 7962 ] final  172.61 input  175.53 | X-H torsion
[ 8008 7997 7996 7995 ] final   93.39 input   59.86 | X-H torsion
[ 10167 10162 10161 10158 ] final   45.17 input  -65.29 | X-H torsion
[ 10718 10713 10712 10709 ] final   97.90 input   66.30 | X-H torsion
[ 10763 10752 10751 10750 ] final   89.90 input  -60.55 | X-H torsion
[ 11005 11000 10999 10996 ] final -102.82 input  -57.11 | X-H torsion

> <Gold.Protein.ActiveResidues>
 VAL166  LYS551  ARG553  GLY616  TRP617  ASP618  TYR619  PRO620  LYS621  CYS622 
 ASP623  PHE694  ASN695  SER759  ASP760  ASP761  ALA762  ILE779  LEU786  VAL792 
 PHE793  MET794  SER795  GLU796  ALA797  LYS798  CYS799  TRP800  GLU811  SER814 

> <Gold.Protein.RotatedAtoms>
  150.7152  134.5100  159.5602 H   0  0  0  0  0  0  0  0  0  0  0  0  # atno 6907 bound_to 6896
  152.2679  134.7962  160.0428 H   0  0  0  0  0  0  0  0  0  0  0  0  # atno 6908 bound_to 6896
  151.8652  133.3429  159.3753 H   0  0  0  0  0  0  0  0  0  0  0  0  # atno 6909 bound_to 6896
  144.7264  139.9524  143.6432 H   0  0  0  0  0  0  0  0  0  0  0  0  # atno 7974 bound_to 7965
  156.0462  140.3313  155.7299 H   0  0  0  0  0  0  0  0  0  0  0  0  # atno 8008 bound_to 7997
  155.5670  140.0624  157.2833 H   0  0  0  0  0  0  0  0  0  0  0  0  # atno 8009 bound_to 7997
  154.4415  140.1867  156.0829 H   0  0  0  0  0  0  0  0  0  0  0  0  # atno 8010 bound_to 7997
  140.3268  144.2637  150.6174 H   0  0  0  0  0  0  0  0  0  0  0  0  # atno 10167 bound_to 10162
  157.6905  131.0623  150.4714 H   0  0  0  0  0  0  0  0  0  0  0  0  # atno 10718 bound_to 10713
  153.1919  135.4453  155.0160 H   0  0  0  0  0  0  0  0  0  0  0  0  # atno 10763 bound_to 10752
  154.8095  135.3288  154.7345 H   0  0  0  0  0  0  0  0  0  0  0  0  # atno 10764 bound_to 10752
  153.7798  135.6978  153.4946 H   0  0  0  0  0  0  0  0  0  0  0  0  # atno 10765 bound_to 10752
  141.1173  133.8589  157.1407 H   0  0  0  0  0  0  0  0  0  0  0  0  # atno 11005 bound_to 11000
  146.0701  139.3690  143.0528 LP  0  0  0  0  0  0  0  0  0  0  0  0  # atno 17320 bound_to 7965
  145.7979  140.9784  143.1014 LP  0  0  0  0  0  0  0  0  0  0  0  0  # atno 17321 bound_to 7965
  140.5433  143.2219  151.8048 LP  0  0  0  0  0  0  0  0  0  0  0  0  # atno 17342 bound_to 10162
  139.4864  144.4572  151.9584 LP  0  0  0  0  0  0  0  0  0  0  0  0  # atno 17343 bound_to 10162
  156.5051  130.4126  149.6331 LP  0  0  0  0  0  0  0  0  0  0  0  0  # atno 17370 bound_to 10713
  156.3292  130.7322  151.2248 LP  0  0  0  0  0  0  0  0  0  0  0  0  # atno 17371 bound_to 10713
  140.0104  134.9990  157.0382 LP  0  0  0  0  0  0  0  0  0  0  0  0  # atno 17394 bound_to 11000
  140.4610  134.1484  155.7191 LP  0  0  0  0  0  0  0  0  0  0  0  0  # atno 17395 bound_to 11000

$$$$
