AV-unprocessed.smi:612|AV-procd|sdf|3063|dock9
  -GOLD-   2262023583D 1   1.00000     0.00000
 Structure written by MMmdl.
 50 52  0  0  0  0  0  0  0  0  2 V2000
  154.4206  140.9137  160.9055 C   0  0  0  0  0  0  0  0  0  0  0  0
  153.3762  141.6132  160.1527 N   0  0  0  0  0  0  0  0  0  0  0  0
  152.9754  142.8766  160.6184 C   0  0  0  0  0  0  0  0  0  0  0  0
  152.0253  143.5867  159.9949 C   0  0  0  0  0  0  0  0  0  0  0  0
  151.4093  143.0243  158.8172 C   0  0  0  0  0  0  0  0  0  0  0  0
  151.7848  141.8079  158.3461 C   0  0  0  0  0  0  0  0  0  0  0  0
  151.2373  141.1791  157.2129 N   0  0  0  0  0  0  0  0  0  0  0  0
  149.9819  141.2183  156.7287 C   0  0  0  0  0  0  0  0  0  0  0  0
  149.0436  141.8564  157.2046 O   0  0  0  0  0  0  0  0  0  0  0  0
  149.8751  140.4671  155.6226 N   0  0  0  0  0  0  0  0  0  0  0  0
  148.6641  140.2907  154.8245 C   0  0  2  0  0  0  0  0  0  0  0  0
  148.4360  141.5190  153.9259 C   0  0  0  0  0  0  0  0  0  0  0  0
  147.0942  141.4164  153.1743 C   0  0  0  0  0  0  0  0  0  0  0  0
  145.9448  141.2254  154.1026 N   0  3  2  0  0  0  0  0  0  0  0  0
  145.5577  142.4485  154.8682 C   0  0  0  0  0  0  0  0  0  0  0  0
  144.2373  142.3039  155.6374 C   0  0  0  0  0  0  0  0  0  0  0  0
  143.7850  143.7389  155.9209 C   0  0  0  0  0  0  0  0  0  0  0  0
  144.4126  144.6067  154.8220 C   0  0  0  0  0  0  0  0  0  0  0  0
  145.2793  143.6671  153.9762 C   0  0  0  0  0  0  0  0  0  0  0  0
  146.1447  140.0084  154.9379 C   0  0  0  0  0  0  0  0  0  0  0  0
  147.4534  140.0730  155.7478 C   0  0  0  0  0  0  0  0  0  0  0  0
  152.8279  141.0309  159.0448 C   0  0  0  0  0  0  0  0  0  0  0  0
  153.1949  139.9169  158.6621 O   0  0  0  0  0  0  0  0  0  0  0  0
  154.7940  141.4954  161.7491 H   0  0  0  0  0  0  0  0  0  0  0  0
  155.2741  140.6915  160.2632 H   0  0  0  0  0  0  0  0  0  0  0  0
  154.0391  139.9720  161.3029 H   0  0  0  0  0  0  0  0  0  0  0  0
  153.4820  143.2283  161.5054 H   0  0  0  0  0  0  0  0  0  0  0  0
  151.7269  144.5564  160.3649 H   0  0  0  0  0  0  0  0  0  0  0  0
  150.6370  143.6092  158.3462 H   0  0  0  0  0  0  0  0  0  0  0  0
  151.9037  140.6418  156.6773 H   0  0  0  0  0  0  0  0  0  0  0  0
  150.7007  139.9798  155.3056 H   0  0  0  0  0  0  0  0  0  0  0  0
  148.7556  139.4129  154.1823 H   0  0  0  0  0  0  0  0  0  0  0  0
  148.4598  142.4323  154.5218 H   0  0  0  0  0  0  0  0  0  0  0  0
  149.2510  141.6058  153.2064 H   0  0  0  0  0  0  0  0  0  0  0  0
  146.9470  142.2855  152.5343 H   0  0  0  0  0  0  0  0  0  0  0  0
  147.1298  140.5613  152.4980 H   0  0  0  0  0  0  0  0  0  0  0  0
  146.3434  142.7096  155.5778 H   0  0  0  0  0  0  0  0  0  0  0  0
  143.4930  141.8056  155.0141 H   0  0  0  0  0  0  0  0  0  0  0  0
  144.3420  141.7280  156.5574 H   0  0  0  0  0  0  0  0  0  0  0  0
  142.6978  143.8221  155.9409 H   0  0  0  0  0  0  0  0  0  0  0  0
  144.1540  144.0587  156.8962 H   0  0  0  0  0  0  0  0  0  0  0  0
  143.6544  145.0978  154.2110 H   0  0  0  0  0  0  0  0  0  0  0  0
  145.0246  145.3892  155.2721 H   0  0  0  0  0  0  0  0  0  0  0  0
  146.1911  144.1589  153.6356 H   0  0  0  0  0  0  0  0  0  0  0  0
  144.7182  143.3611  153.0918 H   0  0  0  0  0  0  0  0  0  0  0  0
  145.2947  139.8332  155.5960 H   0  0  0  0  0  0  0  0  0  0  0  0
  146.1790  139.1435  154.2741 H   0  0  0  0  0  0  0  0  0  0  0  0
  147.5804  139.1473  156.3103 H   0  0  0  0  0  0  0  0  0  0  0  0
  147.3938  140.8720  156.4878 H   0  0  0  0  0  0  0  0  0  0  0  0
  145.1483  141.0247  153.5144 H   0  0  0  0  0  0  0  0  0  0  0  0
  1  2  1  0  0  0  0
  1 24  1  0  0  0  0
  1 25  1  0  0  0  0
  1 26  1  0  0  0  0
  2 22  1  0  0  0  0
  2  3  1  0  0  0  0
  3  4  2  0  0  0  0
  3 27  1  0  0  0  0
  4  5  1  0  0  0  0
  4 28  1  0  0  0  0
  5  6  2  0  0  0  0
  5 29  1  0  0  0  0
  6  7  1  0  0  0  0
  6 22  1  0  0  0  0
  7  8  1  0  0  0  0
  7 30  1  0  0  0  0
  8  9  2  0  0  0  0
  8 10  1  0  0  0  0
 10 11  1  0  0  0  0
 10 31  1  0  0  0  0
 11 21  1  0  0  0  0
 11 12  1  0  0  0  0
 11 32  1  0  0  0  0
 12 13  1  0  0  0  0
 12 33  1  0  0  0  0
 12 34  1  0  0  0  0
 13 14  1  0  0  0  0
 13 35  1  0  0  0  0
 13 36  1  0  0  0  0
 14 15  1  0  0  0  0
 14 20  1  0  0  0  0
 14 50  1  0  0  0  0
 15 19  1  0  0  0  0
 15 16  1  0  0  0  0
 15 37  1  0  0  0  0
 16 17  1  0  0  0  0
 16 38  1  0  0  0  0
 16 39  1  0  0  0  0
 17 18  1  0  0  0  0
 17 40  1  0  0  0  0
 17 41  1  0  0  0  0
 18 19  1  0  0  0  0
 18 42  1  0  0  0  0
 18 43  1  0  0  0  0
 19 44  1  0  0  0  0
 19 45  1  0  0  0  0
 20 21  1  0  0  0  0
 20 46  1  0  0  0  0
 20 47  1  0  0  0  0
 21 48  1  0  0  0  0
 21 49  1  0  0  0  0
 22 23  2  0  0  0  0
M  CHG  1  14   1
M  END
> <s_m_source_file>
AV-unprocessed.smi

> <i_m_source_file_index>
612

> <i_lp_mmshare_version>
43012

> <i_f3d_flags>
0

> <s_epik_input>
W0NIM11uMVtjSF1bY0hdW2NIXWMoYzE9TylbTkhdQyg9TylbTkhdW0NIXTJbQ0gyXVtDSDJdTihbQ0gyXVtDSDJdMilbQ0hdM1tDSDJdW0NIMl1bQ0gyXVtDSDJdMw==

> <s_epik_cmdline>
J2VwaWtfcHl0aG9uJywgJy1waCcsICc3LjAnLCAnLXRuJywgJzgnLCAnLW1hJywgJzIwMCcsICctbWV0YWxfYmluZGluZycsICctaW1hZScsICc8aW5maWxlLm1hZT4nLCAnLW9tYWUnLCAnPG91dGZpbGUubWFlPic=

> <r_lp_tautomer_probability>
1

> <r_epik_Ionization_Penalty>
0.00200366

> <r_epik_Ionization_Penalty_Charging>
0.00198522

> <r_epik_Ionization_Penalty_Neutral>
1.84356e-05

> <r_epik_State_Penalty>
0.00135242

> <r_epik_Charging_Adjusted_Penalty>
0.00333764

> <i_epik_Tot_Q>
1

> <i_epik_Tot_abs_Q>
1

> <r_epik_Metal_State_Penalty>
-0

> <b_epik_Metal_Only>
0

> <s_lp_Force_Field>
OPLS_2005

> <r_lp_Energy>
52.136

> <b_lp_Chiralities_Consistent>
1

> <s_lp_Variant>
AV-unprocessed.smi:612-2

> <Gold.Version>
5.8.1

> <Gold.Id.Protein>
6NUR|6NUR_protein|mol2

> <Gold.PLP.Fitness>
48.8041

> <Gold.PLP.PLP>
-40.7551

> <Gold.PLP.part.hbond>
-2.0000

> <Gold.PLP.part.metal>
0.0000

> <Gold.PLP.part.buried>
-5.3493

> <Gold.PLP.part.nonpolar>
-33.4737

> <Gold.PLP.part.repulsive>
0.2960

> <Gold.PLP.ligand.clash>
0.0000

> <Gold.PLP.ligand.torsion>
0.5034

> <Gold.PLP.Chemscore.Hbond>
3.0000

> <Gold.PLP.Chemscore.CHOScore>
0.0000

> <Gold.PLP.Chemscore.Metal>
0.0000

> <Gold.Chemscore.Hbonds>
donor molecule, donor type, donor heavy atom, donor atom, acceptor molecule, acceptor atom, score
      L1  H    14    50       P1 10175  2.00
      P1  H  7997  8010       L1    23  0.65

> <Gold.PLP.Chemscore.Internal.Correction>
0.0558

> <Gold.Rescore>
     Score         DG    S(hbond)    S(metal)    S(lipo)     H(rot)  DE(clash)    DE(int)     intcor
     16.47     -18.60       1.57        0.00      93.73       1.21       0.17       1.96       ----

> <Gold.Chemscore.Fitness>
16.4661

> <Gold.Chemscore.DG>
-18.6004

> <Gold.Chemscore.ZeroCoef>
-5.4800

> <Gold.Chemscore.Hbond>
1.5690

> <Gold.Chemscore.Metal>
0.0000

> <Gold.Chemscore.Lipo>
93.7286

> <Gold.Chemscore.Internal_Hbond>
0.0000

> <Gold.Chemscore.DEClash>
0.1696

> <Gold.Chemscore.DEInternal>
1.9646

> <Gold.Chemscore.Rot>
1.2056

> <Gold.Chemscore.Internal.Correction>
   9.000000E+99

> <Gold.Chemscore.Hbonds>
donor molecule, donor type, donor heavy atom, donor atom, acceptor molecule, acceptor atom, score
      L1  H    14    50       P1 10175  0.60
      P1  H  7997  8010       L1    23  0.51

> <Gold.Chemscore.Hbond.Weighted>
-5.2404

> <Gold.Chemscore.Metal.Weighted>
-0.0000

> <Gold.Chemscore.Lipo.Weighted>
-10.9662

> <Gold.Chemscore.Internal_Hbond.Weighted>
0.0000

> <Gold.Chemscore.DEClash.Weighted>
0.1696

> <Gold.Chemscore.DEInternal.Weighted>
1.9646

> <Gold.Chemscore.Rot.Weighted>
3.0862

> <Gold.Chemscore.Internal.Correction.Weighted>
   9.000000E+99

> <Gold.Protein.RotatedTorsions>
[ 6907 6896 6895 6894 ] final  -53.31 input  -60.11 | X-H torsion
[ 7974 7965 7964 7962 ] final  116.02 input  175.53 | X-H torsion
[ 8008 7997 7996 7995 ] final   18.28 input   59.86 | X-H torsion
[ 10167 10162 10161 10158 ] final    1.90 input  -65.29 | X-H torsion
[ 10718 10713 10712 10709 ] final   85.43 input   66.30 | X-H torsion
[ 10763 10752 10751 10750 ] final  111.72 input  -60.55 | X-H torsion
[ 11005 11000 10999 10996 ] final   67.54 input  -57.11 | X-H torsion

> <Gold.Protein.ActiveResidues>
 VAL166  LYS551  ARG553  GLY616  TRP617  ASP618  TYR619  PRO620  LYS621  CYS622 
 ASP623  PHE694  ASN695  SER759  ASP760  ASP761  ALA762  ILE779  LEU786  VAL792 
 PHE793  MET794  SER795  GLU796  ALA797  LYS798  CYS799  TRP800  GLU811  SER814 

> <Gold.Protein.RotatedAtoms>
  150.8439  134.7740  159.6954 H   0  0  0  0  0  0  0  0  0  0  0  0  # atno 6907 bound_to 6896
  152.4520  134.5370  159.9837 H   0  0  0  0  0  0  0  0  0  0  0  0  # atno 6908 bound_to 6896
  151.5504  133.3380  159.2988 H   0  0  0  0  0  0  0  0  0  0  0  0  # atno 6909 bound_to 6896
  145.1848  139.3031  143.4399 H   0  0  0  0  0  0  0  0  0  0  0  0  # atno 7974 bound_to 7965
  154.9038  140.3004  155.5303 H   0  0  0  0  0  0  0  0  0  0  0  0  # atno 8008 bound_to 7997
  156.3017  140.2402  156.4004 H   0  0  0  0  0  0  0  0  0  0  0  0  # atno 8009 bound_to 7997
  154.8495  140.0410  157.1583 H   0  0  0  0  0  0  0  0  0  0  0  0  # atno 8010 bound_to 7997
  140.6661  143.7176  150.7829 H   0  0  0  0  0  0  0  0  0  0  0  0  # atno 10167 bound_to 10162
  157.6914  131.0174  150.2822 H   0  0  0  0  0  0  0  0  0  0  0  0  # atno 10718 bound_to 10713
  153.4674  135.3708  155.2372 H   0  0  0  0  0  0  0  0  0  0  0  0  # atno 10763 bound_to 10752
  154.8757  135.3923  154.3852 H   0  0  0  0  0  0  0  0  0  0  0  0  # atno 10764 bound_to 10752
  153.4435  135.7084  153.6218 H   0  0  0  0  0  0  0  0  0  0  0  0  # atno 10765 bound_to 10752
  139.9765  134.6814  156.0345 H   0  0  0  0  0  0  0  0  0  0  0  0  # atno 11005 bound_to 11000
  146.3447  140.2040  142.8589 LP  0  0  0  0  0  0  0  0  0  0  0  0  # atno 17320 bound_to 7965
  145.0100  140.8706  143.5230 LP  0  0  0  0  0  0  0  0  0  0  0  0  # atno 17321 bound_to 7965
  140.0853  143.4929  152.2508 LP  0  0  0  0  0  0  0  0  0  0  0  0  # atno 17342 bound_to 10162
  139.5910  144.7550  151.3401 LP  0  0  0  0  0  0  0  0  0  0  0  0  # atno 17343 bound_to 10162
  156.3366  130.3809  149.7444 LP  0  0  0  0  0  0  0  0  0  0  0  0  # atno 17370 bound_to 10713
  156.4967  130.8110  151.3116 LP  0  0  0  0  0  0  0  0  0  0  0  0  # atno 17371 bound_to 10713
  141.1441  133.6559  156.3816 LP  0  0  0  0  0  0  0  0  0  0  0  0  # atno 17394 bound_to 11000
  140.5185  134.6327  157.5309 LP  0  0  0  0  0  0  0  0  0  0  0  0  # atno 17395 bound_to 11000

$$$$
