AV-unprocessed.smi:107|AV-procd|sdf|1020|dock7
  -GOLD-   2262018 23D 1   1.00000     0.00000
 Structure written by MMmdl.
 31 32  0  0  0  0  0  0  0  0  1 V2000
  150.6200  144.4106  158.9617 C   0  0  0  0  0  0  0  0  0  0  0  0
  151.2296  143.0626  158.6133 C   0  0  0  0  0  0  0  0  0  0  0  0
  151.0144  142.4530  157.4190 C   0  0  0  0  0  0  0  0  0  0  0  0
  151.5547  141.2187  157.0743 N   0  0  0  0  0  0  0  0  0  0  0  0
  151.3104  140.5589  155.7294 C   0  0  1  0  0  0  0  0  0  0  0  0
  150.6052  139.1995  155.9033 C   0  0  0  0  0  0  0  0  0  0  0  0
  149.3655  139.3325  155.0350 C   0  0  2  0  0  0  0  0  0  0  0  0
  149.6010  138.8026  153.7433 O   0  0  0  0  0  0  0  0  0  0  0  0
  149.1381  140.8473  155.0017 C   0  0  2  0  0  0  0  0  0  0  0  0
  148.2949  141.3693  153.8261 C   0  0  0  0  0  0  0  0  0  0  0  0
  147.8455  142.6792  154.0999 O   0  0  0  0  0  0  0  0  0  0  0  0
  150.4670  141.3547  154.9495 O   0  0  0  0  0  0  0  0  0  0  0  0
  152.3985  140.5589  157.9920 C   0  0  0  0  0  0  0  0  0  0  0  0
  152.9308  139.4769  157.7467 O   0  0  0  0  0  0  0  0  0  0  0  0
  152.6167  141.1824  159.2185 N   0  0  0  0  0  0  0  0  0  0  0  0
  152.0807  142.4103  159.6121 C   0  0  0  0  0  0  0  0  0  0  0  0
  152.3443  142.8590  160.7265 O   0  0  0  0  0  0  0  0  0  0  0  0
  153.2156  140.7078  159.8782 H   0  0  0  0  0  0  0  0  0  0  0  0
  150.0394  144.8189  158.1340 H   0  0  0  0  0  0  0  0  0  0  0  0
  151.4007  145.1310  159.2082 H   0  0  0  0  0  0  0  0  0  0  0  0
  149.9564  144.3162  159.8217 H   0  0  0  0  0  0  0  0  0  0  0  0
  150.3879  142.9733  156.7110 H   0  0  0  0  0  0  0  0  0  0  0  0
  152.2904  140.4956  155.2525 H   0  0  0  0  0  0  0  0  0  0  0  0
  151.2601  138.3773  155.6121 H   0  0  0  0  0  0  0  0  0  0  0  0
  150.3166  139.0587  156.9461 H   0  0  0  0  0  0  0  0  0  0  0  0
  148.5130  138.8084  155.4683 H   0  0  0  0  0  0  0  0  0  0  0  0
  149.5404  139.5042  153.1132 H   0  0  0  0  0  0  0  0  0  0  0  0
  148.6797  141.1388  155.9487 H   0  0  0  0  0  0  0  0  0  0  0  0
  148.8572  141.3497  152.8920 H   0  0  0  0  0  0  0  0  0  0  0  0
  147.4122  140.7438  153.6901 H   0  0  0  0  0  0  0  0  0  0  0  0
  148.4622  143.0929  154.6846 H   0  0  0  0  0  0  0  0  0  0  0  0
  1  2  1  0  0  0  0
  1 19  1  0  0  0  0
  1 20  1  0  0  0  0
  1 21  1  0  0  0  0
  2 16  1  0  0  0  0
  2  3  2  0  0  0  0
  3  4  1  0  0  0  0
  3 22  1  0  0  0  0
  4  5  1  0  0  0  0
  4 13  1  0  0  0  0
  5 12  1  0  0  0  0
  5  6  1  0  0  0  0
  5 23  1  0  0  0  0
  6  7  1  0  0  0  0
  6 24  1  0  0  0  0
  6 25  1  0  0  0  0
  7  8  1  0  0  0  0
  7  9  1  0  0  0  0
  7 26  1  0  0  0  0
  8 27  1  0  0  0  0
  9 10  1  0  0  0  0
  9 12  1  0  0  0  0
  9 28  1  0  0  0  0
 10 11  1  0  0  0  0
 10 29  1  0  0  0  0
 10 30  1  0  0  0  0
 11 31  1  0  0  0  0
 13 14  2  0  0  0  0
 13 15  1  0  0  0  0
 15 18  1  0  0  0  0
 15 16  1  0  0  0  0
 16 17  2  0  0  0  0
M  END
> <s_m_source_file>
AV-unprocessed.smi

> <i_m_source_file_index>
107

> <i_lp_mmshare_version>
43012

> <i_f3d_flags>
0

> <s_epik_input>
Tz1jMVtuSF1jKD1PKW4oW2NIXWMxW0NIM10pW0NAQEhdMltDSDJdW0NAQEhdKFtPSF0pW0NASF0oTzIpW0NIMl1bT0hd

> <s_epik_cmdline>
J2VwaWtfcHl0aG9uJywgJy1waCcsICc3LjAnLCAnLXRuJywgJzgnLCAnLW1hJywgJzIwMCcsICctbWV0YWxfYmluZGluZycsICctaW1hZScsICc8aW5maWxlLm1hZT4nLCAnLW9tYWUnLCAnPG91dGZpbGUubWFlPic=

> <r_lp_tautomer_probability>
0.999537

> <r_epik_Ionization_Penalty>
0.00121888

> <r_epik_Ionization_Penalty_Charging>
0.00121876

> <r_epik_Ionization_Penalty_Neutral>
1.19946e-07

> <r_epik_State_Penalty>
0.000805124

> <r_epik_Charging_Adjusted_Penalty>
0.00202389

> <i_epik_Tot_Q>
0

> <i_epik_Tot_abs_Q>
0

> <r_epik_Metal_State_Penalty>
0.662472

> <b_epik_Metal_Only>
0

> <s_epik_Chemistry_Notes>
This compound contains an acetal/aminal-like group ( X-CH(R)-Y where X, Y are N, S, or O) that may be acid/base labile, releasing an aldehyde.

> <s_lp_Force_Field>
OPLS_2005

> <r_lp_Energy>
28.0991

> <b_lp_Chiralities_Consistent>
1

> <s_lp_Variant>
AV-unprocessed.smi:107-8

> <Gold.Version>
5.8.1

> <Gold.Id.Protein>
6NUR|6NUR_protein|mol2

> <Gold.PLP.Fitness>
40.5816

> <Gold.PLP.PLP>
-28.9643

> <Gold.PLP.part.hbond>
-6.1661

> <Gold.PLP.part.metal>
0.0000

> <Gold.PLP.part.buried>
-0.0454

> <Gold.PLP.part.nonpolar>
-21.4048

> <Gold.PLP.part.repulsive>
0.2841

> <Gold.PLP.ligand.clash>
0.0000

> <Gold.PLP.ligand.torsion>
0.1649

> <Gold.PLP.Chemscore.Hbond>
2.9789

> <Gold.PLP.Chemscore.CHOScore>
0.9997

> <Gold.PLP.Chemscore.Metal>
0.0000

> <Gold.Chemscore.Hbonds>
donor molecule, donor type, donor heavy atom, donor atom, acceptor molecule, acceptor atom, score
      L1  H     8    27       P1  7957  0.93
      L1  H    11    31       P1  8028  0.86
      P1  H  7989  7998       L1    12  0.15
      P1  H  7997  8008       L1    14  1.00
      L1  C     3    22       P1  8028  1.00

> <Gold.PLP.Chemscore.Internal.Correction>
0.0111

> <Gold.Rescore>
     Score         DG    S(hbond)    S(metal)    S(lipo)     H(rot)  DE(clash)    DE(int)     intcor
     11.50     -13.08       2.67        0.00      48.43       2.73       1.28       0.31       ----

> <Gold.Chemscore.Fitness>
11.4963

> <Gold.Chemscore.DG>
-13.0842

> <Gold.Chemscore.ZeroCoef>
-5.4800

> <Gold.Chemscore.Hbond>
2.6690

> <Gold.Chemscore.Metal>
0.0000

> <Gold.Chemscore.Lipo>
48.4324

> <Gold.Chemscore.Internal_Hbond>
0.0000

> <Gold.Chemscore.DEClash>
1.2815

> <Gold.Chemscore.DEInternal>
0.3064

> <Gold.Chemscore.Rot>
2.7253

> <Gold.Chemscore.Internal.Correction>
   9.000000E+99

> <Gold.Chemscore.Hbonds>
donor molecule, donor type, donor heavy atom, donor atom, acceptor molecule, acceptor atom, score
      L1  H     8    27       P1  7957  0.84
      L1  H    11    31       P1  8028  0.85
      P1  H  7997  8008       L1    14  0.30

> <Gold.Chemscore.Hbond.Weighted>
-8.9145

> <Gold.Chemscore.Metal.Weighted>
-0.0000

> <Gold.Chemscore.Lipo.Weighted>
-5.6666

> <Gold.Chemscore.Internal_Hbond.Weighted>
0.0000

> <Gold.Chemscore.DEClash.Weighted>
1.2815

> <Gold.Chemscore.DEInternal.Weighted>
0.3064

> <Gold.Chemscore.Rot.Weighted>
6.9769

> <Gold.Chemscore.Internal.Correction.Weighted>
   9.000000E+99

> <Gold.Protein.RotatedTorsions>
[ 6907 6896 6895 6894 ] final  -80.59 input  -60.11 | X-H torsion
[ 7974 7965 7964 7962 ] final  -82.73 input  175.53 | X-H torsion
[ 8008 7997 7996 7995 ] final  -80.89 input   59.86 | X-H torsion
[ 10167 10162 10161 10158 ] final   99.04 input  -65.29 | X-H torsion
[ 10718 10713 10712 10709 ] final  -40.91 input   66.30 | X-H torsion
[ 10763 10752 10751 10750 ] final  -80.22 input  -60.55 | X-H torsion
[ 11005 11000 10999 10996 ] final  -91.03 input  -57.11 | X-H torsion

> <Gold.Protein.ActiveResidues>
 VAL166  LYS551  ARG553  GLY616  TRP617  ASP618  TYR619  PRO620  LYS621  CYS622 
 ASP623  PHE694  ASN695  SER759  ASP760  ASP761  ALA762  ILE779  LEU786  VAL792 
 PHE793  MET794  SER795  GLU796  ALA797  LYS798  CYS799  TRP800  GLU811  SER814 

> <Gold.Protein.RotatedAtoms>
  150.6927  134.3947  159.5091 H   0  0  0  0  0  0  0  0  0  0  0  0  # atno 6907 bound_to 6896
  152.1730  134.8816  160.0542 H   0  0  0  0  0  0  0  0  0  0  0  0  # atno 6908 bound_to 6896
  151.9835  133.3731  159.4153 H   0  0  0  0  0  0  0  0  0  0  0  0  # atno 6909 bound_to 6896
  145.5294  140.9523  143.1611 H   0  0  0  0  0  0  0  0  0  0  0  0  # atno 7974 bound_to 7965
  154.5928  140.0656  156.9262 H   0  0  0  0  0  0  0  0  0  0  0  0  # atno 8008 bound_to 7997
  155.2266  140.3334  155.4290 H   0  0  0  0  0  0  0  0  0  0  0  0  # atno 8009 bound_to 7997
  156.2267  140.1822  156.7329 H   0  0  0  0  0  0  0  0  0  0  0  0  # atno 8010 bound_to 7997
  139.7654  144.6940  151.0232 H   0  0  0  0  0  0  0  0  0  0  0  0  # atno 10167 bound_to 10162
  156.2761  130.4212  149.8386 H   0  0  0  0  0  0  0  0  0  0  0  0  # atno 10718 bound_to 10713
  154.5485  135.5668  153.6901 H   0  0  0  0  0  0  0  0  0  0  0  0  # atno 10763 bound_to 10752
  152.9983  135.6245  154.2406 H   0  0  0  0  0  0  0  0  0  0  0  0  # atno 10764 bound_to 10752
  154.2340  135.2865  155.2859 H   0  0  0  0  0  0  0  0  0  0  0  0  # atno 10765 bound_to 10752
  141.1553  133.7729  156.9821 H   0  0  0  0  0  0  0  0  0  0  0  0  # atno 11005 bound_to 11000
  144.7633  139.6903  143.7225 LP  0  0  0  0  0  0  0  0  0  0  0  0  # atno 17320 bound_to 7965
  146.2054  139.5374  142.9716 LP  0  0  0  0  0  0  0  0  0  0  0  0  # atno 17321 bound_to 7965
  140.7810  143.4649  151.0226 LP  0  0  0  0  0  0  0  0  0  0  0  0  # atno 17342 bound_to 10162
  139.8334  143.7660  152.3180 LP  0  0  0  0  0  0  0  0  0  0  0  0  # atno 17343 bound_to 10162
  156.5850  130.8482  151.3393 LP  0  0  0  0  0  0  0  0  0  0  0  0  # atno 17370 bound_to 10713
  157.7300  130.9678  150.1811 LP  0  0  0  0  0  0  0  0  0  0  0  0  # atno 17371 bound_to 10713
  140.1059  134.9507  157.1993 LP  0  0  0  0  0  0  0  0  0  0  0  0  # atno 17394 bound_to 11000
  140.3257  134.2866  155.7237 LP  0  0  0  0  0  0  0  0  0  0  0  0  # atno 17395 bound_to 11000

$$$$
