#       Name:                AV-unprocessed.smi:2856
#       Creating user name   scv26
#       Creation time:       Fri Mar 27 15:45:08 2020


#       File generated by GOLD software.
#

@<TRIPOS>MOLECULE
AV-unprocessed.smi:2856
    42    43     1
SMALL
NO_CHARGES


@<TRIPOS>ATOM
      1 ****        -0.4009  -1.3991   2.9786 C.3            1 S1                 0.0000
      2 ****        -1.8839  -0.4425   2.5597 S.3            1 S1                 0.0000
      3 ****        -2.2876  -1.1213   0.9182 C.3            1 S1                 0.0000
      4 ****        -3.8117  -1.3107   0.8015 C.3            1 S1                 0.0000
      5 ****        -4.2170  -1.8544  -0.5761 C.3            1 S1                 0.0000
      6 ****        -3.7065  -0.9389  -1.6970 C.3            1 S1                 0.0000
      7 ****        -2.1847  -0.7549  -1.6062 C.3            1 S1                 0.0000
      8 ****        -1.7514  -0.2231  -0.2239 C.3            1 S1                 0.0000
      9 ****        -0.2934  -0.1512  -0.1689 N.am           1 S1                 0.0000
     10 ****         0.4480   0.9144  -0.5031 C.2            1 S1                 0.0000
     11 ****        -0.0233   1.9611  -0.9483 O.2            1 S1                 0.0000
     12 ****         1.7531   0.6837  -0.2827 N.am           1 S1                 0.0000
     13 ****         2.8348   1.5799  -0.4753 C.2            1 S1                 0.0000
     14 ****         4.1634   1.1970  -0.1502 C.2            1 S1                 0.0000
     15 ****         4.8904   2.3100  -0.4668 C.2            1 S1                 0.0000
     16 ****         6.3438   2.6292  -0.3834 C.3            1 S1                 0.0000
     17 ****         4.0748   3.2884  -0.9455 O.3            1 S1                 0.0000
     18 ****         2.7577   2.8140  -0.9494 N.2            1 S1                 0.0000
     19 ****        -0.0381  -1.1107   3.9649 H              1 S1                 0.0000
     20 ****         0.3958  -1.2217   2.2572 H              1 S1                 0.0000
     21 ****        -0.6269  -2.4653   2.9936 H              1 S1                 0.0000
     22 ****        -1.8269  -2.1072   0.8421 H              1 S1                 0.0000
     23 ****        -4.1617  -1.9898   1.5799 H              1 S1                 0.0000
     24 ****        -4.3147  -0.3583   0.9756 H              1 S1                 0.0000
     25 ****        -3.8130  -2.8590  -0.7080 H              1 S1                 0.0000
     26 ****        -5.3019  -1.9457  -0.6357 H              1 S1                 0.0000
     27 ****        -3.9739  -1.3550  -2.6687 H              1 S1                 0.0000
     28 ****        -4.1979   0.0326  -1.6299 H              1 S1                 0.0000
     29 ****        -1.6962  -1.7104  -1.8032 H              1 S1                 0.0000
     30 ****        -1.8536  -0.0729  -2.3903 H              1 S1                 0.0000
     31 ****        -2.1713   0.7761  -0.0903 H              1 S1                 0.0000
     32 ****         0.1838  -0.9682   0.1822 H              1 S1                 0.0000
     33 ****         1.9977  -0.2247   0.0822 H              1 S1                 0.0000
     34 ****         4.5263   0.2624   0.2510 H              1 S1                 0.0000
     35 ****         6.9357   1.7208  -0.2689 H              1 S1                 0.0000
     36 ****         6.5483   3.2766   0.4694 H              1 S1                 0.0000
     37 ****         6.6811   3.1399  -1.2856 H              1 S1                 0.0000
     38 ****        -1.0108   2.0493  -1.0782 LP             1 S1                 0.0000
     39 ****         0.5816   2.7230  -1.1799 LP             1 S1                 0.0000
     40 ****         4.3486   3.5287  -1.8768 LP             1 S1                 0.0000
     41 ****         4.1395   4.0965  -0.3600 LP             1 S1                 0.0000
     42 ****         1.9365   3.3014  -1.2459 LP             1 S1                 0.0000
@<TRIPOS>BOND
    1    1    2 1     
    2    1   19 1     
    3    1   20 1     
    4    1   21 1     
    5    2    3 1     
    6    3    8 1     
    7    3    4 1     
    8    3   22 1     
    9    4    5 1     
   10    4   23 1     
   11    4   24 1     
   12    5    6 1     
   13    5   25 1     
   14    5   26 1     
   15    6    7 1     
   16    6   27 1     
   17    6   28 1     
   18    7    8 1     
   19    7   29 1     
   20    7   30 1     
   21    8    9 1     
   22    8   31 1     
   23    9   10 am    
   24    9   32 1     
   25   10   11 2     
   26   10   12 am    
   27   12   13 1     
   28   12   33 1     
   29   13   18 2     
   30   13   14 1     
   31   14   15 2     
   32   14   34 1     
   33   15   16 1     
   34   15   17 1     
   35   16   35 1     
   36   16   36 1     
   37   16   37 1     
   38   17   18 1     
   39   11   38 1     
   40   11   39 1     
   41   17   40 1     
   42   17   41 1     
   43   18   42 1     
@<TRIPOS>SUBSTRUCTURE
      1 S1             1
@<TRIPOS>SET
LONE_PAIRS      STATIC     ATOMS    <user>   **** ""
5 38 39 40 41 42
DONOR_HYDROGENS      STATIC     ATOMS    <user>   **** ""
2 32 33
ATOM$BLUE        STATIC     ATOMS    COLORGROUP SYSTEM
5 38 39 40 41 42
ATOM$RED        STATIC     ATOMS    COLORGROUP SYSTEM
2 32 33
