AV-unprocessed.smi:2381|AV-procd|sdf|9457|dock8
  -GOLD-   2272013 83D 1   1.00000     0.00000
 Structure written by MMmdl.
 30 31  0  0  0  0  0  0  0  0  1 V2000
  152.9658  138.3117  155.6872 C   0  0  0  0  0  0  0  0  0  0  0  0
  151.7543  139.1544  155.3472 C   0  0  0  0  0  0  0  0  0  0  0  0
  150.8273  138.7307  154.3758 C   0  0  0  0  0  0  0  0  0  0  0  0
  149.7228  139.5595  154.1060 C   0  0  0  0  0  0  0  0  0  0  0  0
  149.5116  140.7364  154.7315 N   0  0  0  0  0  0  0  0  0  0  0  0
  150.3980  141.1561  155.6688 C   0  0  0  0  0  0  0  0  0  0  0  0
  150.2725  142.3784  156.3817 N   0  0  0  0  0  0  0  0  0  0  0  0
  150.6267  142.6395  157.6525 C   0  0  0  0  0  0  0  0  0  0  0  0
  151.1533  141.8377  158.4248 O   0  0  0  0  0  0  0  0  0  0  0  0
  150.3328  143.9040  157.9888 N   0  0  0  0  0  0  0  0  0  0  0  0
  150.5792  144.4978  159.2967 C   0  0  0  0  0  0  0  0  0  0  0  0
  152.0319  144.5026  159.7347 C   0  0  0  0  0  0  0  0  0  0  0  0
  153.0986  143.8247  158.9068 C   0  0  0  0  0  0  0  0  0  0  0  0
  152.6855  143.2357  160.2344 C   0  0  0  0  0  0  0  0  0  0  0  0
  151.5344  140.3839  156.0005 C   0  0  0  0  0  0  0  0  0  0  0  0
  152.9759  137.3831  155.1159 H   0  0  0  0  0  0  0  0  0  0  0  0
  152.9651  138.0595  156.7480 H   0  0  0  0  0  0  0  0  0  0  0  0
  153.8814  138.8598  155.4643 H   0  0  0  0  0  0  0  0  0  0  0  0
  150.9542  137.7964  153.8488 H   0  0  0  0  0  0  0  0  0  0  0  0
  148.9894  139.2700  153.3681 H   0  0  0  0  0  0  0  0  0  0  0  0
  149.8566  143.1401  155.8667 H   0  0  0  0  0  0  0  0  0  0  0  0
  149.9023  144.4961  157.2941 H   0  0  0  0  0  0  0  0  0  0  0  0
  150.2092  145.5244  159.3052 H   0  0  0  0  0  0  0  0  0  0  0  0
  149.9847  143.9548  160.0320 H   0  0  0  0  0  0  0  0  0  0  0  0
  152.3314  145.4120  160.2523 H   0  0  0  0  0  0  0  0  0  0  0  0
  152.7863  143.3003  158.0058 H   0  0  0  0  0  0  0  0  0  0  0  0
  154.0723  144.3072  158.8511 H   0  0  0  0  0  0  0  0  0  0  0  0
  153.3840  143.3253  161.0639 H   0  0  0  0  0  0  0  0  0  0  0  0
  152.0989  142.3193  160.2153 H   0  0  0  0  0  0  0  0  0  0  0  0
  152.2334  140.7288  156.7490 H   0  0  0  0  0  0  0  0  0  0  0  0
  1  2  1  0  0  0  0
  1 16  1  0  0  0  0
  1 17  1  0  0  0  0
  1 18  1  0  0  0  0
  2 15  1  0  0  0  0
  2  3  2  0  0  0  0
  3  4  1  0  0  0  0
  3 19  1  0  0  0  0
  4  5  2  0  0  0  0
  4 20  1  0  0  0  0
  5  6  1  0  0  0  0
  6  7  1  0  0  0  0
  6 15  2  0  0  0  0
  7  8  1  0  0  0  0
  7 21  1  0  0  0  0
  8  9  2  0  0  0  0
  8 10  1  0  0  0  0
 10 11  1  0  0  0  0
 10 22  1  0  0  0  0
 11 12  1  0  0  0  0
 11 23  1  0  0  0  0
 11 24  1  0  0  0  0
 12 14  1  0  0  0  0
 12 13  1  0  0  0  0
 12 25  1  0  0  0  0
 13 14  1  0  0  0  0
 13 26  1  0  0  0  0
 13 27  1  0  0  0  0
 14 28  1  0  0  0  0
 14 29  1  0  0  0  0
 15 30  1  0  0  0  0
M  END
> <s_m_source_file>
AV-unprocessed.smi

> <i_m_source_file_index>
2381

> <i_lp_mmshare_version>
43012

> <i_f3d_flags>
0

> <s_epik_input>
W0NIM11jMVtjSF1bY0hdbmMoW2NIXTEpW05IXUMoPU8pW05IXVtDSDJdW0NIXTJbQ0gyXVtDSDJdMg==

> <s_epik_cmdline>
J2VwaWtfcHl0aG9uJywgJy1waCcsICc3LjAnLCAnLXRuJywgJzgnLCAnLW1hJywgJzIwMCcsICctbWV0YWxfYmluZGluZycsICctaW1hZScsICc8aW5maWxlLm1hZT4nLCAnLW9tYWUnLCAnPG91dGZpbGUubWFlPic=

> <r_lp_tautomer_probability>
1

> <r_epik_Ionization_Penalty>
9.40607e-05

> <r_epik_Ionization_Penalty_Charging>
0

> <r_epik_Ionization_Penalty_Neutral>
9.40607e-05

> <r_epik_State_Penalty>
-0

> <r_epik_Charging_Adjusted_Penalty>
0

> <i_epik_Tot_Q>
0

> <i_epik_Tot_abs_Q>
0

> <r_epik_Metal_State_Penalty>
-0

> <b_epik_Metal_Only>
0

> <s_lp_Force_Field>
OPLS_2005

> <r_lp_Energy>
14.347

> <b_lp_Chiralities_Consistent>
1

> <s_lp_Variant>
AV-unprocessed.smi:2381-1

> <Gold.Version>
5.8.1

> <Gold.Id.Protein>
6NUR|6NUR_protein|mol2

> <Gold.PLP.Fitness>
43.5865

> <Gold.PLP.PLP>
-36.4861

> <Gold.PLP.part.hbond>
-2.5959

> <Gold.PLP.part.metal>
0.0000

> <Gold.PLP.part.buried>
-2.9596

> <Gold.PLP.part.nonpolar>
-31.5011

> <Gold.PLP.part.repulsive>
0.2503

> <Gold.PLP.ligand.clash>
0.0000

> <Gold.PLP.ligand.torsion>
0.6685

> <Gold.PLP.Chemscore.Hbond>
2.0000

> <Gold.PLP.Chemscore.CHOScore>
0.6343

> <Gold.PLP.Chemscore.Metal>
0.0000

> <Gold.Chemscore.Hbonds>
donor molecule, donor type, donor heavy atom, donor atom, acceptor molecule, acceptor atom, score
      L1  H     7    21       P1  8028  1.00
      L1  H    10    22       P1  8028  1.00
      L1  C     4    20       P1  7957  0.63

> <Gold.PLP.Chemscore.Internal.Correction>
0.5344

> <Gold.Rescore>
     Score         DG    S(hbond)    S(metal)    S(lipo)     H(rot)  DE(clash)    DE(int)     intcor
     15.15     -17.43       1.47        0.00      86.33       1.20       0.19       2.09       ----

> <Gold.Chemscore.Fitness>
15.1460

> <Gold.Chemscore.DG>
-17.4265

> <Gold.Chemscore.ZeroCoef>
-5.4800

> <Gold.Chemscore.Hbond>
1.4694

> <Gold.Chemscore.Metal>
0.0000

> <Gold.Chemscore.Lipo>
86.3323

> <Gold.Chemscore.Internal_Hbond>
0.0000

> <Gold.Chemscore.DEClash>
0.1883

> <Gold.Chemscore.DEInternal>
2.0922

> <Gold.Chemscore.Rot>
1.1962

> <Gold.Chemscore.Internal.Correction>
   9.000000E+99

> <Gold.Chemscore.Hbonds>
donor molecule, donor type, donor heavy atom, donor atom, acceptor molecule, acceptor atom, score
      L1  H     7    21       P1  8028  0.98
      L1  H    10    22       P1  8028  0.25

> <Gold.Chemscore.Hbond.Weighted>
-4.9078

> <Gold.Chemscore.Metal.Weighted>
-0.0000

> <Gold.Chemscore.Lipo.Weighted>
-10.1009

> <Gold.Chemscore.Internal_Hbond.Weighted>
0.0000

> <Gold.Chemscore.DEClash.Weighted>
0.1883

> <Gold.Chemscore.DEInternal.Weighted>
2.0922

> <Gold.Chemscore.Rot.Weighted>
3.0622

> <Gold.Chemscore.Internal.Correction.Weighted>
   9.000000E+99

> <Gold.Protein.RotatedTorsions>
[ 6907 6896 6895 6894 ] final   59.69 input  -60.11 | X-H torsion
[ 7974 7965 7964 7962 ] final -115.00 input  175.53 | X-H torsion
[ 8008 7997 7996 7995 ] final   -8.38 input   59.86 | X-H torsion
[ 10167 10162 10161 10158 ] final   -9.74 input  -65.29 | X-H torsion
[ 10718 10713 10712 10709 ] final -176.33 input   66.30 | X-H torsion
[ 10763 10752 10751 10750 ] final -154.17 input  -60.55 | X-H torsion
[ 11005 11000 10999 10996 ] final  175.30 input  -57.11 | X-H torsion

> <Gold.Protein.ActiveResidues>
 VAL166  LYS551  ARG553  GLY616  TRP617  ASP618  TYR619  PRO620  LYS621  CYS622 
 ASP623  PHE694  ASN695  SER759  ASP760  ASP761  ALA762  ILE779  LEU786  VAL792 
 PHE793  MET794  SER795  GLU796  ALA797  LYS798  CYS799  TRP800  GLU811  SER814 

> <Gold.Protein.RotatedAtoms>
  152.3937  134.6399  160.0097 H   0  0  0  0  0  0  0  0  0  0  0  0  # atno 6907 bound_to 6896
  151.6625  133.3311  159.3185 H   0  0  0  0  0  0  0  0  0  0  0  0  # atno 6908 bound_to 6896
  150.7849  134.6868  159.6519 H   0  0  0  0  0  0  0  0  0  0  0  0  # atno 6909 bound_to 6896
  145.1135  140.8626  143.3856 H   0  0  0  0  0  0  0  0  0  0  0  0  # atno 7974 bound_to 7965
  154.5747  140.2382  155.8141 H   0  0  0  0  0  0  0  0  0  0  0  0  # atno 8008 bound_to 7997
  156.2133  140.3019  155.9740 H   0  0  0  0  0  0  0  0  0  0  0  0  # atno 8009 bound_to 7997
  155.2649  140.0416  157.2991 H   0  0  0  0  0  0  0  0  0  0  0  0  # atno 8010 bound_to 7997
  140.7095  143.5825  150.8978 H   0  0  0  0  0  0  0  0  0  0  0  0  # atno 10167 bound_to 10162
  156.8131  130.9593  151.3115 H   0  0  0  0  0  0  0  0  0  0  0  0  # atno 10718 bound_to 10713
  154.7877  135.3196  154.7848 H   0  0  0  0  0  0  0  0  0  0  0  0  # atno 10763 bound_to 10752
  153.8544  135.6859  153.4793 H   0  0  0  0  0  0  0  0  0  0  0  0  # atno 10764 bound_to 10752
  153.1535  135.4689  154.9611 H   0  0  0  0  0  0  0  0  0  0  0  0  # atno 10765 bound_to 10752
  140.3607  134.7116  157.4329 H   0  0  0  0  0  0  0  0  0  0  0  0  # atno 11005 bound_to 11000
  145.0820  139.2953  143.5779 LP  0  0  0  0  0  0  0  0  0  0  0  0  # atno 17320 bound_to 7965
  146.3525  140.0329  142.8649 LP  0  0  0  0  0  0  0  0  0  0  0  0  # atno 17321 bound_to 7965
  139.9550  143.6228  152.3018 LP  0  0  0  0  0  0  0  0  0  0  0  0  # atno 17342 bound_to 10162
  139.6760  144.7658  151.1694 LP  0  0  0  0  0  0  0  0  0  0  0  0  # atno 17343 bound_to 10162
  157.6496  130.8873  149.9606 LP  0  0  0  0  0  0  0  0  0  0  0  0  # atno 17370 bound_to 10713
  156.1033  130.3654  150.0179 LP  0  0  0  0  0  0  0  0  0  0  0  0  # atno 17371 bound_to 10713
  140.0629  134.5970  155.8728 LP  0  0  0  0  0  0  0  0  0  0  0  0  # atno 17394 bound_to 11000
  141.1985  133.6602  156.5795 LP  0  0  0  0  0  0  0  0  0  0  0  0  # atno 17395 bound_to 11000

$$$$
