#       Name:                AV-unprocessed.smi:1916
#       Creating user name   scv26
#       Creation time:       Fri Mar 27 09:50:52 2020


#       File generated by GOLD software.
#

@<TRIPOS>MOLECULE
AV-unprocessed.smi:1916
    50    52     1
SMALL
NO_CHARGES


@<TRIPOS>ATOM
      1 ****         1.4593   1.5992  -1.3905 O.2            1 S1                 0.0000
      2 ****         1.4278   0.4839  -1.9119 C.2            1 S1                 0.0000
      3 ****         2.5298  -0.2242  -2.2058 N.am           1 S1                 0.0000
      4 ****         3.8991   0.1714  -1.8828 C.3            1 S1                 0.0000
      5 ****         4.3981  -0.4641  -0.5685 C.3            1 S1                 0.0000
      6 ****         3.5342  -0.1386   0.6395 C.ar           1 S1                 0.0000
      7 ****         2.6340  -1.0927   1.1624 C.ar           1 S1                 0.0000
      8 ****         1.8278  -0.7256   2.2571 C.ar           1 S1                 0.0000
      9 ****         1.9530   0.5732   2.7861 C.ar           1 S1                 0.0000
     10 ****         2.8880   1.4487   2.1985 C.ar           1 S1                 0.0000
     11 ****         3.6676   1.1063   1.1500 N.ar           1 S1                 0.0000
     12 ****         0.0800  -0.1886  -2.2159 C.3            1 S1                 0.0000
     13 ****        -0.8792   0.7503  -2.9690 C.3            1 S1                 0.0000
     14 ****        -1.9381   1.0935  -1.9339 C.2            1 S1                 0.0000
     15 ****        -2.7946   1.9551  -2.1276 O.2            1 S1                 0.0000
     16 ****        -1.7909   0.3635  -0.8191 N.am           1 S1                 0.0000
     17 ****        -2.5972   0.5266   0.4025 C.3            1 S1                 0.0000
     18 ****        -2.1583  -0.3323   1.6062 C.3            1 S1                 0.0000
     19 ****        -3.4363  -0.5427   2.4121 C.3            1 S1                 0.0000
     20 ****        -4.5113  -0.7254   1.3440 C.3            1 S1                 0.0000
     21 ****        -4.0882   0.1832   0.1831 C.3            1 S1                 0.0000
     22 ****        -0.6699  -0.5629  -0.9217 C.3            1 S1                 0.0000
     23 ****         2.4085  -1.1293  -2.6368 H              1 S1                 0.0000
     24 ****         4.5444  -0.1389  -2.7047 H              1 S1                 0.0000
     25 ****         3.9827   1.2583  -1.8283 H              1 S1                 0.0000
     26 ****         4.4501  -1.5473  -0.6849 H              1 S1                 0.0000
     27 ****         5.4185  -0.1350  -0.3686 H              1 S1                 0.0000
     28 ****         2.5503  -2.0772   0.7263 H              1 S1                 0.0000
     29 ****         1.1209  -1.4250   2.6785 H              1 S1                 0.0000
     30 ****         1.3478   0.8909   3.6223 H              1 S1                 0.0000
     31 ****         3.0121   2.4514   2.5800 H              1 S1                 0.0000
     32 ****         0.2576  -1.0863  -2.8106 H              1 S1                 0.0000
     33 ****        -0.4030   1.6551  -3.3502 H              1 S1                 0.0000
     34 ****        -1.3492   0.2390  -3.8097 H              1 S1                 0.0000
     35 ****        -2.5325   1.5728   0.7076 H              1 S1                 0.0000
     36 ****        -1.8043  -1.3147   1.2935 H              1 S1                 0.0000
     37 ****        -1.3653   0.1371   2.1893 H              1 S1                 0.0000
     38 ****        -3.3701  -1.3931   3.0914 H              1 S1                 0.0000
     39 ****        -3.6501   0.3467   3.0063 H              1 S1                 0.0000
     40 ****        -4.5173  -1.7639   1.0098 H              1 S1                 0.0000
     41 ****        -5.5103  -0.4930   1.7140 H              1 S1                 0.0000
     42 ****        -4.6821   1.0979   0.1738 H              1 S1                 0.0000
     43 ****        -4.2654  -0.3216  -0.7678 H              1 S1                 0.0000
     44 ****        -1.0494  -1.5838  -0.9819 H              1 S1                 0.0000
     45 ****        -0.0283  -0.4985  -0.0420 H              1 S1                 0.0000
     46 ****         2.3374   2.0210  -1.1647 LP             1 S1                 0.0000
     47 ****         0.6067   2.0831  -1.1930 LP             1 S1                 0.0000
     48 ****         4.3238   1.7541   0.7629 LP             1 S1                 0.0000
     49 ****        -2.8109   2.4587  -2.9914 LP             1 S1                 0.0000
     50 ****        -3.4746   2.1519  -1.4213 LP             1 S1                 0.0000
@<TRIPOS>BOND
    1    1    2 2     
    2    2    3 am    
    3    2   12 1     
    4    3    4 1     
    5    3   23 1     
    6    4    5 1     
    7    4   24 1     
    8    4   25 1     
    9    5    6 1     
   10    5   26 1     
   11    5   27 1     
   12    6   11 ar    
   13    6    7 ar    
   14    7    8 ar    
   15    7   28 1     
   16    8    9 ar    
   17    8   29 1     
   18    9   10 ar    
   19    9   30 1     
   20   10   11 ar    
   21   10   31 1     
   22   12   22 1     
   23   12   13 1     
   24   12   32 1     
   25   13   14 1     
   26   13   33 1     
   27   13   34 1     
   28   14   15 2     
   29   14   16 am    
   30   16   17 1     
   31   16   22 1     
   32   17   21 1     
   33   17   18 1     
   34   17   35 1     
   35   18   19 1     
   36   18   36 1     
   37   18   37 1     
   38   19   20 1     
   39   19   38 1     
   40   19   39 1     
   41   20   21 1     
   42   20   40 1     
   43   20   41 1     
   44   21   42 1     
   45   21   43 1     
   46   22   44 1     
   47   22   45 1     
   48    1   46 1     
   49    1   47 1     
   50   11   48 1     
   51   15   49 1     
   52   15   50 1     
@<TRIPOS>SUBSTRUCTURE
      1 S1             1
@<TRIPOS>SET
LONE_PAIRS      STATIC     ATOMS    <user>   **** ""
5 46 47 48 49 50
DONOR_HYDROGENS      STATIC     ATOMS    <user>   **** ""
1 23
ATOM$BLUE        STATIC     ATOMS    COLORGROUP SYSTEM
5 46 47 48 49 50
ATOM$RED        STATIC     ATOMS    COLORGROUP SYSTEM
1 23
