#       Name:                AV-unprocessed.smi:1437
#       Creating user name   scv26
#       Creation time:       Fri Mar 27 05:53:55 2020


#       File generated by GOLD software.
#

@<TRIPOS>MOLECULE
AV-unprocessed.smi:1437
    41    42     1
SMALL
NO_CHARGES


@<TRIPOS>ATOM
      1 ****        -6.6628  -1.4519  -0.4791 C.3            1 S1                 0.0000
      2 ****        -5.3441  -0.7703  -0.3475 C.2            1 S1                 0.0000
      3 ****        -4.1153  -1.1962   0.0725 C.2            1 S1                 0.0000
      4 ****        -3.3132  -0.0310  -0.0529 C.2            1 S1                 0.0000
      5 ****        -1.9380  -0.0533   0.2934 N.am           1 S1                 0.0000
      6 ****        -1.0633   0.9654   0.2345 C.2            1 S1                 0.0000
      7 ****        -1.3266   2.1066  -0.1450 O.2            1 S1                 0.0000
      8 ****         0.1561   0.5860   0.6441 N.am           1 S1                 0.0000
      9 ****         1.3285   1.4574   0.7231 C.3            1 S1                 0.0000
     10 ****         1.9605   1.7008  -0.6628 C.3            1 S1                 0.0000
     11 ****         2.6582   0.4420  -1.2076 C.3            1 S1                 0.0000
     12 ****         3.6695  -0.0639  -0.2465 N.4            1 S1                 1.0000
     13 ****         4.4474  -1.1972  -0.7914 C.3            1 S1                 0.0000
     14 ****         3.0741  -0.3736   1.0771 C.3            1 S1                 0.0000
     15 ****         2.3792   0.8624   1.6778 C.3            1 S1                 0.0000
     16 ****        -3.9903   1.0116  -0.5089 N.2            1 S1                 0.0000
     17 ****        -5.2956   0.5434  -0.6996 O.3            1 S1                 0.0000
     18 ****        -6.5369  -2.5328  -0.5432 H              1 S1                 0.0000
     19 ****        -7.1849  -1.1195  -1.3766 H              1 S1                 0.0000
     20 ****        -7.2954  -1.2351   0.3817 H              1 S1                 0.0000
     21 ****        -3.8398  -2.1827   0.4148 H              1 S1                 0.0000
     22 ****        -1.5860  -0.9382   0.6268 H              1 S1                 0.0000
     23 ****         0.2775  -0.3708   0.9423 H              1 S1                 0.0000
     24 ****         1.0048   2.4155   1.1343 H              1 S1                 0.0000
     25 ****         1.2109   2.0509  -1.3733 H              1 S1                 0.0000
     26 ****         2.6938   2.5045  -0.5825 H              1 S1                 0.0000
     27 ****         1.9247  -0.3390  -1.4145 H              1 S1                 0.0000
     28 ****         3.1426   0.6791  -2.1557 H              1 S1                 0.0000
     29 ****         3.8046  -2.0577  -0.9817 H              1 S1                 0.0000
     30 ****         5.2267  -1.5007  -0.0914 H              1 S1                 0.0000
     31 ****         4.9327  -0.9180  -1.7272 H              1 S1                 0.0000
     32 ****         2.3645  -1.1963   0.9757 H              1 S1                 0.0000
     33 ****         3.8560  -0.7141   1.7570 H              1 S1                 0.0000
     34 ****         3.1322   1.6210   1.8961 H              1 S1                 0.0000
     35 ****         1.9216   0.6078   2.6347 H              1 S1                 0.0000
     36 ****         4.3268   0.6890  -0.0984 H              1 S1                 0.0000
     37 ****        -2.2544   2.3334  -0.4412 LP             1 S1                 0.0000
     38 ****        -0.6127   2.8067  -0.1570 LP             1 S1                 0.0000
     39 ****        -3.6440   1.9340  -0.6800 LP             1 S1                 0.0000
     40 ****        -5.9279   1.0680  -0.1296 LP             1 S1                 0.0000
     41 ****        -5.5520   0.6437  -1.6610 LP             1 S1                 0.0000
@<TRIPOS>BOND
    1    1    2 1     
    2    1   18 1     
    3    1   19 1     
    4    1   20 1     
    5    2   17 1     
    6    2    3 2     
    7    3    4 1     
    8    3   21 1     
    9    4    5 1     
   10    4   16 2     
   11    5    6 am    
   12    5   22 1     
   13    6    7 2     
   14    6    8 am    
   15    8    9 1     
   16    8   23 1     
   17    9   15 1     
   18    9   10 1     
   19    9   24 1     
   20   10   11 1     
   21   10   25 1     
   22   10   26 1     
   23   11   12 1     
   24   11   27 1     
   25   11   28 1     
   26   12   13 1     
   27   12   14 1     
   28   12   36 1     
   29   13   29 1     
   30   13   30 1     
   31   13   31 1     
   32   14   15 1     
   33   14   32 1     
   34   14   33 1     
   35   15   34 1     
   36   15   35 1     
   37   16   17 1     
   38    7   37 1     
   39    7   38 1     
   40   16   39 1     
   41   17   40 1     
   42   17   41 1     
@<TRIPOS>SUBSTRUCTURE
      1 S1             1
@<TRIPOS>SET
LONE_PAIRS      STATIC     ATOMS    <user>   **** ""
5 37 38 39 40 41
DONOR_HYDROGENS      STATIC     ATOMS    <user>   **** ""
3 22 23 36
ATOM$BLUE        STATIC     ATOMS    COLORGROUP SYSTEM
5 37 38 39 40 41
ATOM$RED        STATIC     ATOMS    COLORGROUP SYSTEM
3 22 23 36
