#       Name:                AV-unprocessed.smi:2932
#       Creating user name   scv26
#       Creation time:       Fri Mar 27 16:14:30 2020


#       File generated by GOLD software.
#

@<TRIPOS>MOLECULE
AV-unprocessed.smi:2932
    37    37     1
SMALL
NO_CHARGES


@<TRIPOS>ATOM
      1 ****        -3.0024   2.2998   1.4114 C.3            1 S1                 0.0000
      2 ****        -2.3538   1.4161   0.3860 C.2            1 S1                 0.0000
      3 ****        -2.0443   0.1653   0.6910 N.2            1 S1                 0.0000
      4 ****        -1.4724  -0.3490  -0.4278 N.pl3          1 S1                 0.0000
      5 ****        -1.0005  -1.7263  -0.4079 C.3            1 S1                 0.0000
      6 ****         0.5266  -1.7996  -0.3327 C.2            1 S1                 0.0000
      7 ****         1.1548  -2.3954  -1.2078 O.2            1 S1                 0.0000
      8 ****         1.1073  -1.1880   0.7116 N.am           1 S1                 0.0000
      9 ****         2.5415  -1.1142   0.9724 C.3            1 S1                 0.0000
     10 ****         3.1925  -0.0032   0.1314 C.3            1 S1                 0.0000
     11 ****         2.7976  -0.9765   2.4758 C.2            1 S1                 0.0000
     12 ****         3.4880  -1.8630   3.0246 O.co2          1 S1                 0.0000
     13 ****         2.2979   0.0145   3.0538 O.co2          1 S1                -1.0000
     14 ****        -1.4226   0.5741  -1.4611 C.2            1 S1                 0.0000
     15 ****        -0.8439   0.2733  -2.8059 C.3            1 S1                 0.0000
     16 ****        -1.9805   1.7089  -0.9513 C.2            1 S1                 0.0000
     17 ****        -2.1880   3.2135  -1.7715 Cl             1 S1                 0.0000
     18 ****         2.9885  -2.0622   0.6660 H              1 S1                 0.0000
     19 ****        -3.4834   3.1598   0.9454 H              1 S1                 0.0000
     20 ****        -2.2668   2.6753   2.1229 H              1 S1                 0.0000
     21 ****        -3.7651   1.7603   1.9735 H              1 S1                 0.0000
     22 ****        -1.4309  -2.2508   0.4466 H              1 S1                 0.0000
     23 ****        -1.3579  -2.2328  -1.3052 H              1 S1                 0.0000
     24 ****         0.5097  -0.7292   1.3849 H              1 S1                 0.0000
     25 ****         4.2631   0.0612   0.3284 H              1 S1                 0.0000
     26 ****         2.7542   0.9708   0.3523 H              1 S1                 0.0000
     27 ****         3.0667  -0.1893  -0.9355 H              1 S1                 0.0000
     28 ****        -1.0198   1.0934  -3.5019 H              1 S1                 0.0000
     29 ****        -1.2900  -0.6260  -3.2305 H              1 S1                 0.0000
     30 ****         0.2329   0.1184  -2.7375 H              1 S1                 0.0000
     31 ****        -2.1991  -0.3018   1.5615 LP             1 S1                 0.0000
     32 ****         0.6675  -2.8299  -1.9653 LP             1 S1                 0.0000
     33 ****         2.1525  -2.4449  -1.1613 LP             1 S1                 0.0000
     34 ****         3.6796  -1.8123   4.0047 LP             1 S1                 0.0000
     35 ****         3.8486  -2.6226   2.4832 LP             1 S1                 0.0000
     36 ****         2.4391   0.1447   4.0352 LP             1 S1                 0.0000
     37 ****         1.7574   0.6763   2.5343 LP             1 S1                 0.0000
@<TRIPOS>BOND
    1    1    2 1     
    2    1   19 1     
    3    1   20 1     
    4    1   21 1     
    5    2   16 1     
    6    2    3 2     
    7    3    4 1     
    8    4    5 1     
    9    4   14 1     
   10    5    6 1     
   11    5   22 1     
   12    5   23 1     
   13    6    7 2     
   14    6    8 am    
   15    8    9 1     
   16    8   24 1     
   17    9   18 1     
   18    9   10 1     
   19    9   11 1     
   20   10   25 1     
   21   10   26 1     
   22   10   27 1     
   23   11   12 ar    
   24   11   13 ar    
   25   14   15 1     
   26   14   16 2     
   27   15   28 1     
   28   15   29 1     
   29   15   30 1     
   30   16   17 1     
   31    3   31 1     
   32    7   32 1     
   33    7   33 1     
   34   12   34 1     
   35   12   35 1     
   36   13   36 1     
   37   13   37 1     
@<TRIPOS>SUBSTRUCTURE
      1 S1             1
@<TRIPOS>SET
LONE_PAIRS      STATIC     ATOMS    <user>   **** ""
7 31 32 33 34 35 36 37
DONOR_HYDROGENS      STATIC     ATOMS    <user>   **** ""
1 24
ATOM$BLUE        STATIC     ATOMS    COLORGROUP SYSTEM
7 31 32 33 34 35 36 37
ATOM$RED        STATIC     ATOMS    COLORGROUP SYSTEM
1 24
