AV-unprocessed.smi:290|AV-procd|sdf|2234|dock3
  -GOLD-   2262022103D 1   1.00000     0.00000
 Structure written by MMmdl.
 59 62  0  0  0  0  0  0  0  0  2 V2000
  152.3013  141.0201  158.7347 C   0  0  0  0  0  0  0  0  0  0  0  0
  151.7196  142.3907  159.1138 C   0  0  1  0  0  0  0  0  0  0  0  0
  152.7200  143.1092  159.8301 O   0  0  0  0  0  0  0  0  0  0  0  0
  152.5092  144.4953  159.6312 C   0  0  0  0  0  0  0  0  0  0  0  0
  152.1622  144.5597  158.1519 C   0  0  0  0  0  0  0  0  0  0  0  0
  151.2901  143.3228  157.9447 C   0  0  2  0  0  0  0  0  0  0  0  0
  149.9424  143.7007  158.1702 O   0  0  0  0  0  0  0  0  0  0  0  0
  151.3910  142.7277  156.5154 C   0  0  0  0  0  0  0  0  0  0  0  0
  150.6517  141.4844  156.3520 N   0  0  0  0  0  0  0  0  0  0  0  0
  149.2903  141.3173  156.4502 C   0  0  0  0  0  0  0  0  0  0  0  0
  148.8675  140.0974  156.2667 N   0  0  0  0  0  0  0  0  0  0  0  0
  150.0198  139.3623  156.0054 C   0  0  0  0  0  0  0  0  0  0  0  0
  150.2978  137.9901  155.7218 C   0  0  0  0  0  0  0  0  0  0  0  0
  149.3738  136.9966  155.6232 N   0  0  0  0  0  0  0  0  0  0  0  0
  147.9773  137.2720  155.9182 C   0  0  0  0  0  0  0  0  0  0  0  0
  147.1915  136.4005  154.9477 C   0  0  0  0  0  0  0  0  0  0  0  0
  148.1014  135.1850  154.7065 C   0  0  1  0  0  0  0  0  0  0  0  0
  147.7791  134.5008  153.4165 N   0  3  1  0  0  0  0  0  0  0  0  0
  148.5414  133.2529  153.1682 C   0  0  0  0  0  0  0  0  0  0  0  0
  146.3194  134.2902  153.2161 C   0  0  0  0  0  0  0  0  0  0  0  0
  145.8344  132.9898  153.8775 C   0  0  0  0  0  0  0  0  0  0  0  0
  145.0998  133.2920  155.0449 O   0  0  0  0  0  0  0  0  0  0  0  0
  149.5204  135.8073  154.7881 C   0  0  2  0  0  0  0  0  0  0  0  0
  150.5732  134.8570  155.3995 C   0  0  0  0  0  0  0  0  0  0  0  0
  151.5996  137.6484  155.5330 N   0  0  0  0  0  0  0  0  0  0  0  0
  152.5643  138.5688  155.6065 C   0  0  0  0  0  0  0  0  0  0  0  0
  152.4523  139.8729  155.8580 N   0  0  0  0  0  0  0  0  0  0  0  0
  151.1516  140.2282  156.0561 C   0  0  0  0  0  0  0  0  0  0  0  0
  147.9720  134.4806  155.5304 H   0  0  0  0  0  0  0  0  0  0  0  0
  149.8177  136.1268  153.7903 H   0  0  0  0  0  0  0  0  0  0  0  0
  151.5756  140.4170  158.1889 H   0  0  0  0  0  0  0  0  0  0  0  0
  152.5809  140.4620  159.6286 H   0  0  0  0  0  0  0  0  0  0  0  0
  153.1965  141.1192  158.1207 H   0  0  0  0  0  0  0  0  0  0  0  0
  150.8829  142.2299  159.7967 H   0  0  0  0  0  0  0  0  0  0  0  0
  151.6768  144.8374  160.2483 H   0  0  0  0  0  0  0  0  0  0  0  0
  153.3943  145.0789  159.8840 H   0  0  0  0  0  0  0  0  0  0  0  0
  151.6811  145.4955  157.8639 H   0  0  0  0  0  0  0  0  0  0  0  0
  153.0839  144.4697  157.5757 H   0  0  0  0  0  0  0  0  0  0  0  0
  149.7001  144.3495  157.5272 H   0  0  0  0  0  0  0  0  0  0  0  0
  151.0056  143.4349  155.7807 H   0  0  0  0  0  0  0  0  0  0  0  0
  152.4329  142.5437  156.2503 H   0  0  0  0  0  0  0  0  0  0  0  0
  148.6159  142.1324  156.6700 H   0  0  0  0  0  0  0  0  0  0  0  0
  147.7726  136.9866  156.9505 H   0  0  0  0  0  0  0  0  0  0  0  0
  147.7181  138.3246  155.7953 H   0  0  0  0  0  0  0  0  0  0  0  0
  146.2095  136.1438  155.3446 H   0  0  0  0  0  0  0  0  0  0  0  0
  147.0429  136.9468  154.0147 H   0  0  0  0  0  0  0  0  0  0  0  0
  148.3767  132.5296  153.9678 H   0  0  0  0  0  0  0  0  0  0  0  0
  149.6097  133.4480  153.0823 H   0  0  0  0  0  0  0  0  0  0  0  0
  148.2387  132.7855  152.2317 H   0  0  0  0  0  0  0  0  0  0  0  0
  145.7704  135.1444  153.6156 H   0  0  0  0  0  0  0  0  0  0  0  0
  146.0582  134.2504  152.1595 H   0  0  0  0  0  0  0  0  0  0  0  0
  145.2221  132.3909  153.2038 H   0  0  0  0  0  0  0  0  0  0  0  0
  146.6898  132.3759  154.1605 H   0  0  0  0  0  0  0  0  0  0  0  0
  144.2993  132.7888  155.0373 H   0  0  0  0  0  0  0  0  0  0  0  0
  150.7305  133.9640  154.7988 H   0  0  0  0  0  0  0  0  0  0  0  0
  150.2733  134.5310  156.3959 H   0  0  0  0  0  0  0  0  0  0  0  0
  151.5438  135.3414  155.5006 H   0  0  0  0  0  0  0  0  0  0  0  0
  153.5690  138.2089  155.4399 H   0  0  0  0  0  0  0  0  0  0  0  0
  148.0618  135.1498  152.6955 H   0  0  0  0  0  0  0  0  0  0  0  0
  1  2  1  0  0  0  0
  1 31  1  0  0  0  0
  1 32  1  0  0  0  0
  1 33  1  0  0  0  0
  2  6  1  0  0  0  0
  2  3  1  0  0  0  0
  2 34  1  0  0  0  0
  3  4  1  0  0  0  0
  4  5  1  0  0  0  0
  4 35  1  0  0  0  0
  4 36  1  0  0  0  0
  5  6  1  0  0  0  0
  5 37  1  0  0  0  0
  5 38  1  0  0  0  0
  6  7  1  0  0  0  0
  6  8  1  0  0  0  0
  7 39  1  0  0  0  0
  8  9  1  0  0  0  0
  8 40  1  0  0  0  0
  8 41  1  0  0  0  0
  9 28  1  0  0  0  0
  9 10  1  0  0  0  0
 10 11  2  0  0  0  0
 10 42  1  0  0  0  0
 11 12  1  0  0  0  0
 12 28  2  0  0  0  0
 12 13  1  0  0  0  0
 13 14  1  0  0  0  0
 13 25  2  0  0  0  0
 14 23  1  0  0  0  0
 14 15  1  0  0  0  0
 15 16  1  0  0  0  0
 15 43  1  0  0  0  0
 15 44  1  0  0  0  0
 16 17  1  0  0  0  0
 16 45  1  0  0  0  0
 16 46  1  0  0  0  0
 17 29  1  0  0  0  0
 17 18  1  0  0  0  0
 17 23  1  0  0  0  0
 18 19  1  0  0  0  0
 18 20  1  0  0  0  0
 18 59  1  0  0  0  0
 19 47  1  0  0  0  0
 19 48  1  0  0  0  0
 19 49  1  0  0  0  0
 20 21  1  0  0  0  0
 20 50  1  0  0  0  0
 20 51  1  0  0  0  0
 21 22  1  0  0  0  0
 21 52  1  0  0  0  0
 21 53  1  0  0  0  0
 22 54  1  0  0  0  0
 23 30  1  0  0  0  0
 23 24  1  0  0  0  0
 24 55  1  0  0  0  0
 24 56  1  0  0  0  0
 24 57  1  0  0  0  0
 25 26  1  0  0  0  0
 26 27  2  0  0  0  0
 26 58  1  0  0  0  0
 27 28  1  0  0  0  0
M  CHG  1  18   1
M  END
> <s_m_source_file>
AV-unprocessed.smi

> <i_m_source_file_index>
290

> <i_lp_mmshare_version>
43012

> <i_f3d_flags>
0

> <s_epik_input>
W0NIMl0xW0NIMl1PW0NAQEhdKFtDSDNdKVtDQEBdMShbT0hdKVtDSDJdbihbY0hdbjIpYyhjMjMpbltjSF1uYzNONFtDSDJdW0NIMl1bQ0BIXShbQ0BIXTRbQ0gzXSlOKFtDSDNdKVtDSDJdW0NIMl1bT0hd

> <s_epik_cmdline>
J2VwaWtfcHl0aG9uJywgJy1waCcsICc3LjAnLCAnLXRuJywgJzgnLCAnLW1hJywgJzIwMCcsICctbWV0YWxfYmluZGluZycsICctaW1hZScsICc8aW5maWxlLm1hZT4nLCAnLW9tYWUnLCAnPG91dGZpbGUubWFlPic=

> <r_lp_tautomer_probability>
1

> <r_epik_Ionization_Penalty>
0.0036983

> <r_epik_Ionization_Penalty_Charging>
0.0032725

> <r_epik_Ionization_Penalty_Neutral>
0.000425798

> <r_epik_State_Penalty>
-0

> <r_epik_Charging_Adjusted_Penalty>
0.0032725

> <i_epik_Tot_Q>
1

> <i_epik_Tot_abs_Q>
1

> <r_epik_Metal_State_Penalty>
-0

> <b_epik_Metal_Only>
0

> <s_lp_Force_Field>
OPLS_2005

> <r_lp_Energy>
60.3603

> <b_lp_Chiralities_Consistent>
1

> <s_lp_Variant>
AV-unprocessed.smi:290-20

> <Gold.Version>
5.8.1

> <Gold.Id.Protein>
6NUR|6NUR_protein|mol2

> <Gold.PLP.Fitness>
56.1524

> <Gold.PLP.PLP>
-41.1952

> <Gold.PLP.part.hbond>
-4.7827

> <Gold.PLP.part.metal>
0.0000

> <Gold.PLP.part.buried>
-6.1293

> <Gold.PLP.part.nonpolar>
-30.4181

> <Gold.PLP.part.repulsive>
0.0271

> <Gold.PLP.ligand.clash>
0.0000

> <Gold.PLP.ligand.torsion>
0.8891

> <Gold.PLP.Chemscore.Hbond>
4.9920

> <Gold.PLP.Chemscore.CHOScore>
0.4457

> <Gold.PLP.Chemscore.Metal>
0.0000

> <Gold.Chemscore.Hbonds>
donor molecule, donor type, donor heavy atom, donor atom, acceptor molecule, acceptor atom, score
      L1  H     7    39       P1  8028  0.81
      L1  H    18    59       P1  7948  2.00
      L1  H    22    54       P1 10957  1.00
      P1  H  7997  8010       L1    27  0.59
      L1  C    10    42       P1  8028  0.33

> <Gold.PLP.Chemscore.Internal.Correction>
0.4225

> <Gold.Rescore>
     Score         DG    S(hbond)    S(metal)    S(lipo)     H(rot)  DE(clash)    DE(int)     intcor
     11.13     -19.20       3.45        0.00      92.08       3.35       1.71       6.36       ----

> <Gold.Chemscore.Fitness>
11.1291

> <Gold.Chemscore.DG>
-19.2008

> <Gold.Chemscore.ZeroCoef>
-5.4800

> <Gold.Chemscore.Hbond>
3.4516

> <Gold.Chemscore.Metal>
0.0000

> <Gold.Chemscore.Lipo>
92.0785

> <Gold.Chemscore.Internal_Hbond>
0.0000

> <Gold.Chemscore.DEClash>
1.7118

> <Gold.Chemscore.DEInternal>
6.3600

> <Gold.Chemscore.Rot>
3.3518

> <Gold.Chemscore.Internal.Correction>
   9.000000E+99

> <Gold.Chemscore.Hbonds>
donor molecule, donor type, donor heavy atom, donor atom, acceptor molecule, acceptor atom, score
      L1  H     7    39       P1  8028  0.12
      L1  H    18    59       P1  7948  0.94
      L1  H    22    54       P1 10957  0.99
      P1  H  7997  8010       L1    27  0.07

> <Gold.Chemscore.Hbond.Weighted>
-11.5282

> <Gold.Chemscore.Metal.Weighted>
-0.0000

> <Gold.Chemscore.Lipo.Weighted>
-10.7732

> <Gold.Chemscore.Internal_Hbond.Weighted>
0.0000

> <Gold.Chemscore.DEClash.Weighted>
1.7118

> <Gold.Chemscore.DEInternal.Weighted>
6.3600

> <Gold.Chemscore.Rot.Weighted>
8.5806

> <Gold.Chemscore.Internal.Correction.Weighted>
   9.000000E+99

> <Gold.Protein.RotatedTorsions>
[ 6907 6896 6895 6894 ] final  102.13 input  -60.11 | X-H torsion
[ 7974 7965 7964 7962 ] final  148.23 input  175.53 | X-H torsion
[ 8008 7997 7996 7995 ] final   60.42 input   59.86 | X-H torsion
[ 10167 10162 10161 10158 ] final -118.06 input  -65.29 | X-H torsion
[ 10718 10713 10712 10709 ] final  147.27 input   66.30 | X-H torsion
[ 10763 10752 10751 10750 ] final -178.14 input  -60.55 | X-H torsion
[ 11005 11000 10999 10996 ] final   -1.58 input  -57.11 | X-H torsion

> <Gold.Protein.ActiveResidues>
 VAL166  LYS551  ARG553  GLY616  TRP617  ASP618  TYR619  PRO620  LYS621  CYS622 
 ASP623  PHE694  ASN695  SER759  ASP760  ASP761  ALA762  ILE779  LEU786  VAL792 
 PHE793  MET794  SER795  GLU796  ALA797  LYS798  CYS799  TRP800  GLU811  SER814 

> <Gold.Protein.RotatedAtoms>
  152.5332  134.0022  159.7899 H   0  0  0  0  0  0  0  0  0  0  0  0  # atno 6907 bound_to 6896
  151.0239  133.5844  159.2675 H   0  0  0  0  0  0  0  0  0  0  0  0  # atno 6908 bound_to 6896
  151.2873  135.0738  159.9245 H   0  0  0  0  0  0  0  0  0  0  0  0  # atno 6909 bound_to 6896
  144.8530  139.6128  143.5965 H   0  0  0  0  0  0  0  0  0  0  0  0  # atno 7974 bound_to 7965
  155.5820  140.3491  155.4543 H   0  0  0  0  0  0  0  0  0  0  0  0  # atno 8008 bound_to 7997
  156.0366  140.1286  157.0226 H   0  0  0  0  0  0  0  0  0  0  0  0  # atno 8009 bound_to 7997
  154.4374  140.1032  156.6161 H   0  0  0  0  0  0  0  0  0  0  0  0  # atno 8010 bound_to 7997
  140.0616  143.4962  152.2028 H   0  0  0  0  0  0  0  0  0  0  0  0  # atno 10167 bound_to 10162
  157.3230  131.0907  151.1225 H   0  0  0  0  0  0  0  0  0  0  0  0  # atno 10718 bound_to 10713
  154.5514  135.2813  155.1005 H   0  0  0  0  0  0  0  0  0  0  0  0  # atno 10763 bound_to 10752
  154.2449  135.6350  153.5224 H   0  0  0  0  0  0  0  0  0  0  0  0  # atno 10764 bound_to 10752
  153.0004  135.5569  154.6081 H   0  0  0  0  0  0  0  0  0  0  0  0  # atno 10765 bound_to 10752
  140.6488  133.9423  155.8368 H   0  0  0  0  0  0  0  0  0  0  0  0  # atno 11005 bound_to 11000
  146.2800  139.6852  142.9236 LP  0  0  0  0  0  0  0  0  0  0  0  0  # atno 17320 bound_to 7965
  145.4463  141.0425  143.2829 LP  0  0  0  0  0  0  0  0  0  0  0  0  # atno 17321 bound_to 7965
  139.5890  144.7543  151.3447 LP  0  0  0  0  0  0  0  0  0  0  0  0  # atno 17342 bound_to 10162
  140.7169  143.7242  150.7673 LP  0  0  0  0  0  0  0  0  0  0  0  0  # atno 17343 bound_to 10162
  157.2503  130.6611  149.5928 LP  0  0  0  0  0  0  0  0  0  0  0  0  # atno 17370 bound_to 10713
  155.9687  130.4540  150.5835 LP  0  0  0  0  0  0  0  0  0  0  0  0  # atno 17371 bound_to 10713
  141.0552  134.0427  157.3732 LP  0  0  0  0  0  0  0  0  0  0  0  0  # atno 17394 bound_to 11000
  139.9053  135.0177  156.7457 LP  0  0  0  0  0  0  0  0  0  0  0  0  # atno 17395 bound_to 11000

$$$$
