AV-unprocessed.smi:1079|AV-procd|sdf|4704|dock8
  -GOLD-   22720 3233D 1   1.00000     0.00000
 Structure written by MMmdl.
 44 45  0  0  0  0  0  0  0  0  1 V2000
  148.0509  132.2853  153.4817 C   0  0  0  0  0  0  0  0  0  0  0  0
  149.2337  132.8843  153.9794 O   0  0  0  0  0  0  0  0  0  0  0  0
  148.9702  133.9233  154.9079 C   0  0  0  0  0  0  0  0  0  0  0  0
  150.2788  134.6621  155.2347 C   0  0  0  0  0  0  0  0  0  0  0  0
  150.0630  135.9193  155.9256 N   0  0  0  0  0  0  0  0  0  0  0  0
  150.2970  137.1736  155.3529 C   0  0  0  0  0  0  0  0  0  0  0  0
  150.7688  137.2188  154.0491 N   0  0  0  0  0  0  0  0  0  0  0  0
  150.1031  138.3303  156.0542 C   0  0  0  0  0  0  0  0  0  0  0  0
  150.3045  139.5931  155.4652 N   0  0  0  0  0  0  0  0  0  0  0  0
  151.6152  140.2272  155.6770 C   0  0  0  0  0  0  0  0  0  0  0  0
  151.6976  140.9824  156.9927 C   0  0  0  0  0  0  0  0  0  0  0  0
  151.0028  142.2000  157.1520 C   0  0  0  0  0  0  0  0  0  0  0  0
  151.0653  142.8973  158.3737 C   0  0  0  0  0  0  0  0  0  0  0  0
  151.8243  142.3804  159.4413 C   0  0  0  0  0  0  0  0  0  0  0  0
  152.5197  141.1657  159.2866 C   0  0  0  0  0  0  0  0  0  0  0  0
  152.4569  140.4678  158.0647 C   0  0  0  0  0  0  0  0  0  0  0  0
  149.3298  140.2224  154.7584 C   0  0  0  0  0  0  0  0  0  0  0  0
  147.9344  139.5922  154.6748 C   0  0  0  0  0  0  0  0  0  0  0  0
  149.5084  141.3037  154.1977 O   0  0  0  0  0  0  0  0  0  0  0  0
  149.6109  138.2910  157.4386 C   0  0  0  0  0  0  0  0  0  0  0  0
  149.3697  139.2701  158.1437 O   0  0  0  0  0  0  0  0  0  0  0  0
  149.4147  137.0131  157.9545 N   0  0  0  0  0  0  0  0  0  0  0  0
  149.6292  135.8227  157.2696 C   0  0  0  0  0  0  0  0  0  0  0  0
  149.4375  134.7518  157.8469 O   0  0  0  0  0  0  0  0  0  0  0  0
  149.0913  136.9450  158.9086 H   0  0  0  0  0  0  0  0  0  0  0  0
  148.3096  131.4984  152.7732 H   0  0  0  0  0  0  0  0  0  0  0  0
  147.4271  133.0145  152.9630 H   0  0  0  0  0  0  0  0  0  0  0  0
  147.4688  131.8350  154.2867 H   0  0  0  0  0  0  0  0  0  0  0  0
  148.2553  134.6245  154.4753 H   0  0  0  0  0  0  0  0  0  0  0  0
  148.5181  133.5193  155.8150 H   0  0  0  0  0  0  0  0  0  0  0  0
  150.9392  134.0542  155.8519 H   0  0  0  0  0  0  0  0  0  0  0  0
  150.8562  134.8765  154.3335 H   0  0  0  0  0  0  0  0  0  0  0  0
  150.9413  136.3752  153.5210 H   0  0  0  0  0  0  0  0  0  0  0  0
  150.7791  138.0814  153.5236 H   0  0  0  0  0  0  0  0  0  0  0  0
  152.4198  139.4917  155.6245 H   0  0  0  0  0  0  0  0  0  0  0  0
  151.8257  140.9315  154.8710 H   0  0  0  0  0  0  0  0  0  0  0  0
  150.4154  142.5992  156.3380 H   0  0  0  0  0  0  0  0  0  0  0  0
  150.5303  143.8278  158.4924 H   0  0  0  0  0  0  0  0  0  0  0  0
  151.8720  142.9154  160.3783 H   0  0  0  0  0  0  0  0  0  0  0  0
  153.1010  140.7682  160.1055 H   0  0  0  0  0  0  0  0  0  0  0  0
  152.9900  139.5349  157.9545 H   0  0  0  0  0  0  0  0  0  0  0  0
  147.5703  139.3058  155.6620 H   0  0  0  0  0  0  0  0  0  0  0  0
  147.9450  138.7106  154.0341 H   0  0  0  0  0  0  0  0  0  0  0  0
  147.2207  140.3008  154.2528 H   0  0  0  0  0  0  0  0  0  0  0  0
  1  2  1  0  0  0  0
  1 26  1  0  0  0  0
  1 27  1  0  0  0  0
  1 28  1  0  0  0  0
  2  3  1  0  0  0  0
  3  4  1  0  0  0  0
  3 29  1  0  0  0  0
  3 30  1  0  0  0  0
  4  5  1  0  0  0  0
  4 31  1  0  0  0  0
  4 32  1  0  0  0  0
  5 23  1  0  0  0  0
  5  6  1  0  0  0  0
  6  7  1  0  0  0  0
  6  8  2  0  0  0  0
  7 33  1  0  0  0  0
  7 34  1  0  0  0  0
  8  9  1  0  0  0  0
  8 20  1  0  0  0  0
  9 10  1  0  0  0  0
  9 17  1  0  0  0  0
 10 11  1  0  0  0  0
 10 35  1  0  0  0  0
 10 36  1  0  0  0  0
 11 16  1  0  0  0  0
 11 12  2  0  0  0  0
 12 13  1  0  0  0  0
 12 37  1  0  0  0  0
 13 14  2  0  0  0  0
 13 38  1  0  0  0  0
 14 15  1  0  0  0  0
 14 39  1  0  0  0  0
 15 16  2  0  0  0  0
 15 40  1  0  0  0  0
 16 41  1  0  0  0  0
 17 18  1  0  0  0  0
 17 19  2  0  0  0  0
 18 42  1  0  0  0  0
 18 43  1  0  0  0  0
 18 44  1  0  0  0  0
 20 21  2  0  0  0  0
 20 22  1  0  0  0  0
 22 25  1  0  0  0  0
 22 23  1  0  0  0  0
 23 24  2  0  0  0  0
M  END
> <s_m_source_file>
AV-unprocessed.smi

> <i_m_source_file_index>
1079

> <i_lp_mmshare_version>
43012

> <i_f3d_flags>
0

> <s_epik_input>
W0NIM11PW0NIMl1bQ0gyXW4xYyhbTkgyXSljKGMoPU8pW25IXWMxPU8pTihDKD1PKVtDSDNdKVtDSDJdYzJbY0hdW2NIXVtjSF1bY0hdW2NIXTI=

> <s_epik_cmdline>
J2VwaWtfcHl0aG9uJywgJy1waCcsICc3LjAnLCAnLXRuJywgJzgnLCAnLW1hJywgJzIwMCcsICctbWV0YWxfYmluZGluZycsICctaW1hZScsICc8aW5maWxlLm1hZT4nLCAnLW9tYWUnLCAnPG91dGZpbGUubWFlPic=

> <r_lp_tautomer_probability>
1

> <r_epik_Ionization_Penalty>
1.40243e-05

> <r_epik_Ionization_Penalty_Charging>
7.95939e-06

> <r_epik_Ionization_Penalty_Neutral>
6.06489e-06

> <r_epik_State_Penalty>
-0

> <r_epik_Charging_Adjusted_Penalty>
7.95939e-06

> <i_epik_Tot_Q>
0

> <i_epik_Tot_abs_Q>
0

> <r_epik_Metal_State_Penalty>
0.00752988

> <b_epik_Metal_Only>
0

> <s_epik_Chemistry_Notes>
This compound has an imine and may undergo hydrolysis.

> <s_lp_Force_Field>
OPLS_2005

> <r_lp_Energy>
29.3793

> <b_lp_Chiralities_Consistent>
1

> <s_lp_Variant>
AV-unprocessed.smi:1079-1

> <Gold.Version>
5.8.1

> <Gold.Id.Protein>
6NUR|6NUR_protein|mol2

> <Gold.PLP.Fitness>
40.7171

> <Gold.PLP.PLP>
-35.8059

> <Gold.PLP.part.hbond>
-4.9959

> <Gold.PLP.part.metal>
0.0000

> <Gold.PLP.part.buried>
-4.7949

> <Gold.PLP.part.nonpolar>
-26.3260

> <Gold.PLP.part.repulsive>
0.4873

> <Gold.PLP.ligand.clash>
0.0000

> <Gold.PLP.ligand.torsion>
2.1556

> <Gold.PLP.Chemscore.Hbond>
2.2778

> <Gold.PLP.Chemscore.CHOScore>
0.0000

> <Gold.PLP.Chemscore.Metal>
0.0000

> <Gold.Chemscore.Hbonds>
donor molecule, donor type, donor heavy atom, donor atom, acceptor molecule, acceptor atom, score
      L1  H     7    33       P1  7949  0.54
      P1  H  6896  6908       L1    24  0.86
      P1  H  7989  7998       L1    19  0.15
      P1  H  8011  8017       L1    19  0.43

> <Gold.PLP.Chemscore.Internal.Correction>
2.3892

> <Gold.Rescore>
     Score         DG    S(hbond)    S(metal)    S(lipo)     H(rot)  DE(clash)    DE(int)     intcor
     12.99     -15.13       1.70        0.00      77.95       2.02       0.06       2.08       ----

> <Gold.Chemscore.Fitness>
12.9911

> <Gold.Chemscore.DG>
-15.1256

> <Gold.Chemscore.ZeroCoef>
-5.4800

> <Gold.Chemscore.Hbond>
1.7034

> <Gold.Chemscore.Metal>
0.0000

> <Gold.Chemscore.Lipo>
77.9489

> <Gold.Chemscore.Internal_Hbond>
0.0000

> <Gold.Chemscore.DEClash>
0.0566

> <Gold.Chemscore.DEInternal>
2.0780

> <Gold.Chemscore.Rot>
2.0170

> <Gold.Chemscore.Internal.Correction>
   9.000000E+99

> <Gold.Chemscore.Hbonds>
donor molecule, donor type, donor heavy atom, donor atom, acceptor molecule, acceptor atom, score
      L1  H     7    33       P1  7949  0.10
      P1  H  6896  6908       L1    24  0.80
      P1  H  7989  7998       L1    19  0.03
      P1  H  8011  8017       L1    19  0.42

> <Gold.Chemscore.Hbond.Weighted>
-5.6892

> <Gold.Chemscore.Metal.Weighted>
-0.0000

> <Gold.Chemscore.Lipo.Weighted>
-9.1200

> <Gold.Chemscore.Internal_Hbond.Weighted>
0.0000

> <Gold.Chemscore.DEClash.Weighted>
0.0566

> <Gold.Chemscore.DEInternal.Weighted>
2.0780

> <Gold.Chemscore.Rot.Weighted>
5.1636

> <Gold.Chemscore.Internal.Correction.Weighted>
   9.000000E+99

> <Gold.Protein.RotatedTorsions>
[ 6907 6896 6895 6894 ] final  130.81 input  -60.11 | X-H torsion
[ 7974 7965 7964 7962 ] final  178.50 input  175.53 | X-H torsion
[ 8008 7997 7996 7995 ] final -144.35 input   59.86 | X-H torsion
[ 10167 10162 10161 10158 ] final  115.06 input  -65.29 | X-H torsion
[ 10718 10713 10712 10709 ] final -162.82 input   66.30 | X-H torsion
[ 10763 10752 10751 10750 ] final  179.81 input  -60.55 | X-H torsion
[ 11005 11000 10999 10996 ] final  -30.54 input  -57.11 | X-H torsion

> <Gold.Protein.ActiveResidues>
 VAL166  LYS551  ARG553  GLY616  TRP617  ASP618  TYR619  PRO620  LYS621  CYS622 
 ASP623  PHE694  ASN695  SER759  ASP760  ASP761  ALA762  ILE779  LEU786  VAL792 
 PHE793  MET794  SER795  GLU796  ALA797  LYS798  CYS799  TRP800  GLU811  SER814 

> <Gold.Protein.RotatedAtoms>
  152.3489  133.6156  159.5930 H   0  0  0  0  0  0  0  0  0  0  0  0  # atno 6907 bound_to 6896
  150.7525  133.9605  159.3523 H   0  0  0  0  0  0  0  0  0  0  0  0  # atno 6908 bound_to 6896
  151.7459  135.0844  160.0374 H   0  0  0  0  0  0  0  0  0  0  0  0  # atno 6909 bound_to 6896
  144.7155  140.0407  143.6437 H   0  0  0  0  0  0  0  0  0  0  0  0  # atno 7974 bound_to 7965
  155.5255  140.0595  157.2899 H   0  0  0  0  0  0  0  0  0  0  0  0  # atno 8008 bound_to 7997
  154.4502  140.1945  156.0487 H   0  0  0  0  0  0  0  0  0  0  0  0  # atno 8009 bound_to 7997
  156.0688  140.3263  155.7555 H   0  0  0  0  0  0  0  0  0  0  0  0  # atno 8010 bound_to 7997
  139.6344  144.7118  151.2366 H   0  0  0  0  0  0  0  0  0  0  0  0  # atno 10167 bound_to 10162
  156.6159  130.8870  151.2947 H   0  0  0  0  0  0  0  0  0  0  0  0  # atno 10718 bound_to 10713
  154.5254  135.2796  155.1226 H   0  0  0  0  0  0  0  0  0  0  0  0  # atno 10763 bound_to 10752
  154.2767  135.6293  153.5335 H   0  0  0  0  0  0  0  0  0  0  0  0  # atno 10764 bound_to 10752
  152.9945  135.5641  154.5754 H   0  0  0  0  0  0  0  0  0  0  0  0  # atno 10765 bound_to 10752
  140.9391  133.7290  156.1050 H   0  0  0  0  0  0  0  0  0  0  0  0  # atno 11005 bound_to 11000
  146.0026  139.3103  143.0918 LP  0  0  0  0  0  0  0  0  0  0  0  0  # atno 17320 bound_to 7965
  145.8776  140.9382  143.0618 LP  0  0  0  0  0  0  0  0  0  0  0  0  # atno 17321 bound_to 7965
  140.7457  143.6423  150.8324 LP  0  0  0  0  0  0  0  0  0  0  0  0  # atno 17342 bound_to 10162
  140.0052  143.5701  152.2860 LP  0  0  0  0  0  0  0  0  0  0  0  0  # atno 17343 bound_to 10162
  157.7241  130.9599  150.1561 LP  0  0  0  0  0  0  0  0  0  0  0  0  # atno 17370 bound_to 10713
  156.2352  130.3685  149.8400 LP  0  0  0  0  0  0  0  0  0  0  0  0  # atno 17371 bound_to 10713
  140.7758  134.3781  157.5498 LP  0  0  0  0  0  0  0  0  0  0  0  0  # atno 17394 bound_to 11000
  139.8816  134.9051  156.2891 LP  0  0  0  0  0  0  0  0  0  0  0  0  # atno 17395 bound_to 11000

$$$$
