AV-unprocessed.smi:2346|AV-procd|sdf|9367|dock4
  -GOLD-   2272012593D 1   1.00000     0.00000
 Structure written by MMmdl.
 45 47  0  0  0  0  0  0  0  0  2 V2000
  147.5507  136.7088  162.6063 C   0  0  0  0  0  0  0  0  0  0  0  0
  148.0785  137.1990  161.3826 O   0  0  0  0  0  0  0  0  0  0  0  0
  148.2513  136.3113  160.3405 C   0  0  0  0  0  0  0  0  0  0  0  0
  147.9958  134.9200  160.4436 C   0  0  0  0  0  0  0  0  0  0  0  0
  148.1940  134.0716  159.3370 C   0  0  0  0  0  0  0  0  0  0  0  0
  147.9310  132.6470  159.4540 C   0  0  0  0  0  0  0  0  0  0  0  0
  147.7215  131.5130  159.5475 N   0  0  0  0  0  0  0  0  0  0  0  0
  148.6489  134.6063  158.1179 C   0  0  0  0  0  0  0  0  0  0  0  0
  148.9038  135.9848  158.0056 C   0  0  0  0  0  0  0  0  0  0  0  0
  148.7067  136.8470  159.1136 C   0  0  0  0  0  0  0  0  0  0  0  0
  148.9358  138.2069  159.0745 O   0  0  0  0  0  0  0  0  0  0  0  0
  149.1658  138.8197  157.8145 C   0  0  0  0  0  0  0  0  0  0  0  0
  150.6062  139.3437  157.7885 C   0  0  0  0  0  0  0  0  0  0  0  0
  150.6526  140.8018  157.6162 N   0  0  0  0  0  0  0  0  0  0  0  0
  149.9869  141.6099  156.7401 C   0  0  0  0  0  0  0  0  0  0  0  0
  148.9842  141.1866  155.7102 C   0  0  2  0  0  0  0  0  0  0  0  0
  149.6038  140.2526  154.6599 C   0  0  0  0  0  0  0  0  0  0  0  0
  148.4188  142.2974  155.0491 O   0  0  0  0  0  0  0  0  0  0  0  0
  150.3684  142.8914  157.0101 N   0  3  0  0  0  0  0  0  0  0  0  0
  151.3072  142.9005  158.0417 C   0  0  0  0  0  0  0  0  0  0  0  0
  151.9854  143.9539  158.6469 C   0  0  0  0  0  0  0  0  0  0  0  0
  152.8877  143.6167  159.6771 C   0  0  0  0  0  0  0  0  0  0  0  0
  153.0869  142.2768  160.0688 C   0  0  0  0  0  0  0  0  0  0  0  0
  152.3905  141.2174  159.4496 C   0  0  0  0  0  0  0  0  0  0  0  0
  151.4991  141.5599  158.4330 C   0  0  0  0  0  0  0  0  0  0  0  0
  147.4767  137.5298  163.3193 H   0  0  0  0  0  0  0  0  0  0  0  0
  148.1993  135.9494  163.0448 H   0  0  0  0  0  0  0  0  0  0  0  0
  146.5494  136.2971  162.4729 H   0  0  0  0  0  0  0  0  0  0  0  0
  147.6461  134.4837  161.3674 H   0  0  0  0  0  0  0  0  0  0  0  0
  148.8056  133.9642  157.2628 H   0  0  0  0  0  0  0  0  0  0  0  0
  149.2526  136.3562  157.0541 H   0  0  0  0  0  0  0  0  0  0  0  0
  149.0169  138.0992  157.0088 H   0  0  0  0  0  0  0  0  0  0  0  0
  148.4714  139.6485  157.6665 H   0  0  0  0  0  0  0  0  0  0  0  0
  151.1129  139.1014  158.7231 H   0  0  0  0  0  0  0  0  0  0  0  0
  151.1851  138.8683  156.9962 H   0  0  0  0  0  0  0  0  0  0  0  0
  148.1747  140.6510  156.2062 H   0  0  0  0  0  0  0  0  0  0  0  0
  150.0282  139.3640  155.1285 H   0  0  0  0  0  0  0  0  0  0  0  0
  150.3979  140.7461  154.0986 H   0  0  0  0  0  0  0  0  0  0  0  0
  148.8534  139.9178  153.9430 H   0  0  0  0  0  0  0  0  0  0  0  0
  148.8021  143.0852  155.4041 H   0  0  0  0  0  0  0  0  0  0  0  0
  151.8349  144.9809  158.3475 H   0  0  0  0  0  0  0  0  0  0  0  0
  153.4382  144.4013  160.1760 H   0  0  0  0  0  0  0  0  0  0  0  0
  153.7874  142.0565  160.8613 H   0  0  0  0  0  0  0  0  0  0  0  0
  152.5515  140.1949  159.7577 H   0  0  0  0  0  0  0  0  0  0  0  0
  150.0108  143.6992  156.5168 H   0  0  0  0  0  0  0  0  0  0  0  0
  1  2  1  0  0  0  0
  1 26  1  0  0  0  0
  1 27  1  0  0  0  0
  1 28  1  0  0  0  0
  2  3  1  0  0  0  0
  3 10  1  0  0  0  0
  3  4  2  0  0  0  0
  4  5  1  0  0  0  0
  4 29  1  0  0  0  0
  5  6  1  0  0  0  0
  5  8  2  0  0  0  0
  6  7  3  0  0  0  0
  8  9  1  0  0  0  0
  8 30  1  0  0  0  0
  9 10  2  0  0  0  0
  9 31  1  0  0  0  0
 10 11  1  0  0  0  0
 11 12  1  0  0  0  0
 12 13  1  0  0  0  0
 12 32  1  0  0  0  0
 12 33  1  0  0  0  0
 13 14  1  0  0  0  0
 13 34  1  0  0  0  0
 13 35  1  0  0  0  0
 14 25  1  0  0  0  0
 14 15  1  0  0  0  0
 15 16  1  0  0  0  0
 15 19  2  0  0  0  0
 16 17  1  0  0  0  0
 16 18  1  0  0  0  0
 16 36  1  0  0  0  0
 17 37  1  0  0  0  0
 17 38  1  0  0  0  0
 17 39  1  0  0  0  0
 18 40  1  0  0  0  0
 19 20  1  0  0  0  0
 19 45  1  0  0  0  0
 20 25  2  0  0  0  0
 20 21  1  0  0  0  0
 21 22  2  0  0  0  0
 21 41  1  0  0  0  0
 22 23  1  0  0  0  0
 22 42  1  0  0  0  0
 23 24  2  0  0  0  0
 23 43  1  0  0  0  0
 24 25  1  0  0  0  0
 24 44  1  0  0  0  0
M  CHG  1  19   1
M  END
> <s_m_source_file>
AV-unprocessed.smi

> <i_m_source_file_index>
2346

> <i_lp_mmshare_version>
43012

> <i_f3d_flags>
0

> <s_epik_input>
W0NIM11PYzFbY0hdYyhDI04pW2NIXVtjSF1jMU9bQ0gyXVtDSDJdbihjKG4yKVtDQEhdKFtDSDNdKVtPSF0pYyhjMjMpW2NIXVtjSF1bY0hdW2NIXTM=

> <s_epik_cmdline>
J2VwaWtfcHl0aG9uJywgJy1waCcsICc3LjAnLCAnLXRuJywgJzgnLCAnLW1hJywgJzIwMCcsICctbWV0YWxfYmluZGluZycsICctaW1hZScsICc8aW5maWxlLm1hZT4nLCAnLW9tYWUnLCAnPG91dGZpbGUubWFlPic=

> <r_epik_Ionization_Penalty>
1.58928

> <r_epik_Ionization_Penalty_Charging>
1.58925

> <r_epik_Ionization_Penalty_Neutral>
2.92192e-05

> <r_epik_State_Penalty>
1.68649

> <r_epik_Charging_Adjusted_Penalty>
3.27574

> <i_epik_Tot_Q>
1

> <i_epik_Tot_abs_Q>
1

> <r_epik_Metal_State_Penalty>
5.74385

> <b_epik_Metal_Only>
0

> <s_lp_Force_Field>
OPLS_2005

> <r_lp_Energy>
24.6554

> <b_lp_Chiralities_Consistent>
1

> <s_lp_Variant>
AV-unprocessed.smi:2346-3

> <Gold.Version>
5.8.1

> <Gold.Id.Protein>
6NUR|6NUR_protein|mol2

> <Gold.PLP.Fitness>
59.0004

> <Gold.PLP.PLP>
-46.7609

> <Gold.PLP.part.hbond>
-5.5004

> <Gold.PLP.part.metal>
0.0000

> <Gold.PLP.part.buried>
-4.9465

> <Gold.PLP.part.nonpolar>
-36.5502

> <Gold.PLP.part.repulsive>
0.0174

> <Gold.PLP.ligand.clash>
0.0000

> <Gold.PLP.ligand.torsion>
1.0386

> <Gold.PLP.Chemscore.Hbond>
4.7360

> <Gold.PLP.Chemscore.CHOScore>
0.0000

> <Gold.PLP.Chemscore.Metal>
0.0000

> <Gold.Chemscore.Hbonds>
donor molecule, donor type, donor heavy atom, donor atom, acceptor molecule, acceptor atom, score
      L1  H    18    40       P1  8028  1.00
      L1  H    19    45       P1  8028  2.00
      P1  H  6931  6943       L1     2  0.96
      P1  H  6934  6947       L1     2  0.57

> <Gold.PLP.Chemscore.Internal.Correction>
0.1086

> <Gold.Rescore>
     Score         DG    S(hbond)    S(metal)    S(lipo)     H(rot)  DE(clash)    DE(int)     intcor
     21.29     -22.56       3.23        0.00     111.84       2.65       0.15       1.12       ----

> <Gold.Chemscore.Fitness>
21.2887

> <Gold.Chemscore.DG>
-22.5637

> <Gold.Chemscore.ZeroCoef>
-5.4800

> <Gold.Chemscore.Hbond>
3.2256

> <Gold.Chemscore.Metal>
0.0000

> <Gold.Chemscore.Lipo>
111.8434

> <Gold.Chemscore.Internal_Hbond>
0.0000

> <Gold.Chemscore.DEClash>
0.1538

> <Gold.Chemscore.DEInternal>
1.1212

> <Gold.Chemscore.Rot>
2.6467

> <Gold.Chemscore.Internal.Correction>
   9.000000E+99

> <Gold.Chemscore.Hbonds>
donor molecule, donor type, donor heavy atom, donor atom, acceptor molecule, acceptor atom, score
      L1  H    18    40       P1  8028  0.97
      L1  H    19    45       P1  8028  1.00
      P1  H  6931  6943       L1     2  0.23
      P1  H  6934  6947       L1     2  0.37

> <Gold.Chemscore.Hbond.Weighted>
-10.7736

> <Gold.Chemscore.Metal.Weighted>
-0.0000

> <Gold.Chemscore.Lipo.Weighted>
-13.0857

> <Gold.Chemscore.Internal_Hbond.Weighted>
0.0000

> <Gold.Chemscore.DEClash.Weighted>
0.1538

> <Gold.Chemscore.DEInternal.Weighted>
1.1212

> <Gold.Chemscore.Rot.Weighted>
6.7756

> <Gold.Chemscore.Internal.Correction.Weighted>
   9.000000E+99

> <Gold.Protein.RotatedTorsions>
[ 6907 6896 6895 6894 ] final  -19.49 input  -60.11 | X-H torsion
[ 7974 7965 7964 7962 ] final  -51.90 input  175.53 | X-H torsion
[ 8008 7997 7996 7995 ] final  169.83 input   59.86 | X-H torsion
[ 10167 10162 10161 10158 ] final -141.43 input  -65.29 | X-H torsion
[ 10718 10713 10712 10709 ] final   -0.24 input   66.30 | X-H torsion
[ 10763 10752 10751 10750 ] final  -96.22 input  -60.55 | X-H torsion
[ 11005 11000 10999 10996 ] final  149.96 input  -57.11 | X-H torsion

> <Gold.Protein.ActiveResidues>
 VAL166  LYS551  ARG553  GLY616  TRP617  ASP618  TYR619  PRO620  LYS621  CYS622 
 ASP623  PHE694  ASN695  SER759  ASP760  ASP761  ALA762  ILE779  LEU786  VAL792 
 PHE793  MET794  SER795  GLU796  ALA797  LYS798  CYS799  TRP800  GLU811  SER814 

> <Gold.Protein.RotatedAtoms>
  151.2624  135.0658  159.9102 H   0  0  0  0  0  0  0  0  0  0  0  0  # atno 6907 bound_to 6896
  152.5364  134.0217  159.7995 H   0  0  0  0  0  0  0  0  0  0  0  0  # atno 6908 bound_to 6896
  151.0442  133.5630  159.2679 H   0  0  0  0  0  0  0  0  0  0  0  0  # atno 6909 bound_to 6896
  145.9139  140.7892  142.9681 H   0  0  0  0  0  0  0  0  0  0  0  0  # atno 7974 bound_to 7965
  156.1422  140.1554  156.8903 H   0  0  0  0  0  0  0  0  0  0  0  0  # atno 8008 bound_to 7997
  154.4997  140.0828  156.7810 H   0  0  0  0  0  0  0  0  0  0  0  0  # atno 8009 bound_to 7997
  155.4057  140.3416  155.4262 H   0  0  0  0  0  0  0  0  0  0  0  0  # atno 8010 bound_to 7997
  139.8186  143.7605  152.2665 H   0  0  0  0  0  0  0  0  0  0  0  0  # atno 10167 bound_to 10162
  156.8234  130.5464  149.5694 H   0  0  0  0  0  0  0  0  0  0  0  0  # atno 10718 bound_to 10713
  154.7220  135.5091  153.8827 H   0  0  0  0  0  0  0  0  0  0  0  0  # atno 10763 bound_to 10752
  153.0871  135.6648  153.9937 H   0  0  0  0  0  0  0  0  0  0  0  0  # atno 10764 bound_to 10752
  153.9757  135.3034  155.3403 H   0  0  0  0  0  0  0  0  0  0  0  0  # atno 10765 bound_to 10752
  140.1090  134.8936  157.1908 H   0  0  0  0  0  0  0  0  0  0  0  0  # atno 11005 bound_to 11000
  144.6746  140.1869  143.7400 LP  0  0  0  0  0  0  0  0  0  0  0  0  # atno 17320 bound_to 7965
  145.8636  139.2235  143.1702 LP  0  0  0  0  0  0  0  0  0  0  0  0  # atno 17321 bound_to 7965
  139.7776  144.7455  151.0134 LP  0  0  0  0  0  0  0  0  0  0  0  0  # atno 17342 bound_to 10162
  140.7814  143.4577  151.0322 LP  0  0  0  0  0  0  0  0  0  0  0  0  # atno 17343 bound_to 10162
  156.0976  130.5944  150.9839 LP  0  0  0  0  0  0  0  0  0  0  0  0  # atno 17370 bound_to 10713
  157.6445  131.0906  150.8182 LP  0  0  0  0  0  0  0  0  0  0  0  0  # atno 17371 bound_to 10713
  140.3117  134.3016  155.7265 LP  0  0  0  0  0  0  0  0  0  0  0  0  # atno 17394 bound_to 11000
  141.2125  133.7654  156.9785 LP  0  0  0  0  0  0  0  0  0  0  0  0  # atno 17395 bound_to 11000

$$$$
