AV-unprocessed.smi:114|AV-procd|sdf|1120|dock1
  -GOLD-   2262018243D 1   1.00000     0.00000
 Structure written by MMmdl.
 32 34  0  0  0  0  0  0  0  0  1 V2000
  152.8327  143.7821  159.9677 N   0  0  0  0  0  0  0  0  0  0  0  0
  152.6253  142.5055  159.6151 C   0  0  0  0  0  0  0  0  0  0  0  0
  153.2271  141.5309  160.3366 N   0  0  0  0  0  0  0  0  0  0  0  0
  153.0473  140.2429  160.0168 C   0  0  0  0  0  0  0  0  0  0  0  0
  153.6870  139.3363  160.7923 F   0  0  0  0  0  0  0  0  0  0  0  0
  152.3074  139.7504  159.0168 N   0  0  0  0  0  0  0  0  0  0  0  0
  151.6995  140.7319  158.2901 C   0  0  0  0  0  0  0  0  0  0  0  0
  151.8071  142.1281  158.5225 C   0  0  0  0  0  0  0  0  0  0  0  0
  151.0546  142.8220  157.5845 N   0  0  0  0  0  0  0  0  0  0  0  0
  150.5346  141.8820  156.8400 C   0  0  0  0  0  0  0  0  0  0  0  0
  150.8779  140.5929  157.1934 N   0  0  0  0  0  0  0  0  0  0  0  0
  150.4697  139.2902  156.5722 C   0  0  1  0  0  0  0  0  0  0  0  0
  149.2255  139.4618  155.9630 O   0  0  0  0  0  0  0  0  0  0  0  0
  149.3939  139.5992  154.5566 C   0  0  2  0  0  0  0  0  0  0  0  0
  148.0806  139.3192  153.8064 C   0  0  0  0  0  0  0  0  0  0  0  0
  147.6804  137.9828  154.0201 O   0  0  0  0  0  0  0  0  0  0  0  0
  150.5452  138.6279  154.2678 C   0  0  2  0  0  0  0  0  0  0  0  0
  150.0815  137.2913  154.1999 O   0  0  0  0  0  0  0  0  0  0  0  0
  151.4561  138.8168  155.4753 C   0  0  1  0  0  0  0  0  0  0  0  0
  152.4719  139.7558  155.1647 O   0  0  0  0  0  0  0  0  0  0  0  0
  150.3837  138.6002  157.4124 H   0  0  0  0  0  0  0  0  0  0  0  0
  149.7415  140.6098  154.3345 H   0  0  0  0  0  0  0  0  0  0  0  0
  151.0433  138.8577  153.3248 H   0  0  0  0  0  0  0  0  0  0  0  0
  151.9311  137.8851  155.7860 H   0  0  0  0  0  0  0  0  0  0  0  0
  152.3943  144.5253  159.4427 H   0  0  0  0  0  0  0  0  0  0  0  0
  153.4269  143.9986  160.7550 H   0  0  0  0  0  0  0  0  0  0  0  0
  149.8822  142.1116  156.0103 H   0  0  0  0  0  0  0  0  0  0  0  0
  147.2864  139.9623  154.1866 H   0  0  0  0  0  0  0  0  0  0  0  0
  148.1803  139.5175  152.7388 H   0  0  0  0  0  0  0  0  0  0  0  0
  147.9750  137.4600  153.2901 H   0  0  0  0  0  0  0  0  0  0  0  0
  149.6823  137.1537  153.3545 H   0  0  0  0  0  0  0  0  0  0  0  0
  152.0987  140.4239  154.6098 H   0  0  0  0  0  0  0  0  0  0  0  0
  1  2  1  0  0  0  0
  1 25  1  0  0  0  0
  1 26  1  0  0  0  0
  2  8  1  0  0  0  0
  2  3  2  0  0  0  0
  3  4  1  0  0  0  0
  4  5  1  0  0  0  0
  4  6  2  0  0  0  0
  6  7  1  0  0  0  0
  7 11  1  0  0  0  0
  7  8  2  0  0  0  0
  8  9  1  0  0  0  0
  9 10  2  0  0  0  0
 10 11  1  0  0  0  0
 10 27  1  0  0  0  0
 11 12  1  0  0  0  0
 12 21  1  0  0  0  0
 12 19  1  0  0  0  0
 12 13  1  0  0  0  0
 13 14  1  0  0  0  0
 14 22  1  0  0  0  0
 14 15  1  0  0  0  0
 14 17  1  0  0  0  0
 15 16  1  0  0  0  0
 15 28  1  0  0  0  0
 15 29  1  0  0  0  0
 16 30  1  0  0  0  0
 17 23  1  0  0  0  0
 17 18  1  0  0  0  0
 17 19  1  0  0  0  0
 18 31  1  0  0  0  0
 19 24  1  0  0  0  0
 19 20  1  0  0  0  0
 20 32  1  0  0  0  0
M  END
> <s_m_source_file>
AV-unprocessed.smi

> <i_m_source_file_index>
114

> <i_lp_mmshare_version>
43012

> <i_f3d_flags>
0

> <s_epik_input>
RmMobjEpbmMoW05IMl0pYyhjMTIpbltjSF1uMltDQEBIXTNPW0NASF0oW0NIMl1bT0hdKVtDQEBIXShbT0hdKVtDQEBIXTNbT0hd

> <s_epik_cmdline>
J2VwaWtfcHl0aG9uJywgJy1waCcsICc3LjAnLCAnLXRuJywgJzgnLCAnLW1hJywgJzIwMCcsICctbWV0YWxfYmluZGluZycsICctaW1hZScsICc8aW5maWxlLm1hZT4nLCAnLW9tYWUnLCAnPG91dGZpbGUubWFlPic=

> <r_lp_tautomer_probability>
1

> <r_epik_Ionization_Penalty>
1.13199e-05

> <r_epik_Ionization_Penalty_Charging>
0

> <r_epik_Ionization_Penalty_Neutral>
1.13199e-05

> <r_epik_State_Penalty>
-0

> <r_epik_Charging_Adjusted_Penalty>
0

> <i_epik_Tot_Q>
0

> <i_epik_Tot_abs_Q>
0

> <r_epik_Metal_State_Penalty>
-0

> <b_epik_Metal_Only>
0

> <s_epik_Chemistry_Notes>
This compound contains an acetal/aminal-like group ( X-CH(R)-Y where X, Y are N, S, or O) that may be acid/base labile, releasing an aldehyde.

> <s_lp_Force_Field>
OPLS_2005

> <r_lp_Energy>
38.7556

> <b_lp_Chiralities_Consistent>
1

> <s_lp_Variant>
AV-unprocessed.smi:114-14

> <Gold.Version>
5.8.1

> <Gold.Id.Protein>
6NUR|6NUR_protein|mol2

> <Gold.PLP.Fitness>
41.1752

> <Gold.PLP.PLP>
-33.0057

> <Gold.PLP.part.hbond>
-4.9913

> <Gold.PLP.part.metal>
0.0000

> <Gold.PLP.part.buried>
-4.6589

> <Gold.PLP.part.nonpolar>
-23.9144

> <Gold.PLP.part.repulsive>
0.1342

> <Gold.PLP.ligand.clash>
0.0000

> <Gold.PLP.ligand.torsion>
0.7559

> <Gold.PLP.Chemscore.Hbond>
3.0000

> <Gold.PLP.Chemscore.CHOScore>
0.1968

> <Gold.PLP.Chemscore.Metal>
0.0000

> <Gold.Chemscore.Hbonds>
donor molecule, donor type, donor heavy atom, donor atom, acceptor molecule, acceptor atom, score
      L1  H    16    30       P1  7948  0.78
      L1  H    18    31       P1  7948  1.00
      P1  H  7997  8010       L1    20  0.68
      L1  C    10    27       P1  8028  0.24

> <Gold.PLP.Chemscore.Internal.Correction>
0.0908

> <Gold.Rescore>
     Score         DG    S(hbond)    S(metal)    S(lipo)     H(rot)  DE(clash)    DE(int)     intcor
      7.41      -7.98       2.55        0.00      36.61       4.03       0.00       0.56       ----

> <Gold.Chemscore.Fitness>
7.4124

> <Gold.Chemscore.DG>
-7.9764

> <Gold.Chemscore.ZeroCoef>
-5.4800

> <Gold.Chemscore.Hbond>
2.5519

> <Gold.Chemscore.Metal>
0.0000

> <Gold.Chemscore.Lipo>
36.6143

> <Gold.Chemscore.Internal_Hbond>
0.0000

> <Gold.Chemscore.DEClash>
0.0000

> <Gold.Chemscore.DEInternal>
0.5640

> <Gold.Chemscore.Rot>
4.0277

> <Gold.Chemscore.Internal.Correction>
   9.000000E+99

> <Gold.Chemscore.Hbonds>
donor molecule, donor type, donor heavy atom, donor atom, acceptor molecule, acceptor atom, score
      L1  H    16    30       P1  7948  0.77
      L1  H    18    31       P1  7948  0.65
      P1  H  7997  8010       L1    20  0.61

> <Gold.Chemscore.Hbond.Weighted>
-8.5235

> <Gold.Chemscore.Metal.Weighted>
-0.0000

> <Gold.Chemscore.Lipo.Weighted>
-4.2839

> <Gold.Chemscore.Internal_Hbond.Weighted>
0.0000

> <Gold.Chemscore.DEClash.Weighted>
0.0000

> <Gold.Chemscore.DEInternal.Weighted>
0.5640

> <Gold.Chemscore.Rot.Weighted>
10.3110

> <Gold.Chemscore.Internal.Correction.Weighted>
   9.000000E+99

> <Gold.Protein.RotatedTorsions>
[ 6907 6896 6895 6894 ] final -113.68 input  -60.11 | X-H torsion
[ 7974 7965 7964 7962 ] final  -81.96 input  175.53 | X-H torsion
[ 8008 7997 7996 7995 ] final  105.52 input   59.86 | X-H torsion
[ 10167 10162 10161 10158 ] final -147.68 input  -65.29 | X-H torsion
[ 10718 10713 10712 10709 ] final  -59.21 input   66.30 | X-H torsion
[ 10763 10752 10751 10750 ] final   59.62 input  -60.55 | X-H torsion
[ 11005 11000 10999 10996 ] final -177.74 input  -57.11 | X-H torsion

> <Gold.Protein.ActiveResidues>
 VAL166  LYS551  ARG553  GLY616  TRP617  ASP618  TYR619  PRO620  LYS621  CYS622 
 ASP623  PHE694  ASN695  SER759  ASP760  ASP761  ALA762  ILE779  LEU786  VAL792 
 PHE793  MET794  SER795  GLU796  ALA797  LYS798  CYS799  TRP800  GLU811  SER814 

> <Gold.Protein.RotatedAtoms>
  150.7847  133.8909  159.3312 H   0  0  0  0  0  0  0  0  0  0  0  0  # atno 6907 bound_to 6896
  151.6763  135.0967  160.0217 H   0  0  0  0  0  0  0  0  0  0  0  0  # atno 6908 bound_to 6896
  152.3908  133.6637  159.6271 H   0  0  0  0  0  0  0  0  0  0  0  0  # atno 6909 bound_to 6896
  145.5397  140.9511  143.1557 H   0  0  0  0  0  0  0  0  0  0  0  0  # atno 7974 bound_to 7965
  156.1666  140.3129  155.8899 H   0  0  0  0  0  0  0  0  0  0  0  0  # atno 8008 bound_to 7997
  155.3674  140.0480  157.3063 H   0  0  0  0  0  0  0  0  0  0  0  0  # atno 8009 bound_to 7997
  154.5198  140.2194  155.9007 H   0  0  0  0  0  0  0  0  0  0  0  0  # atno 8010 bound_to 7997
  139.7600  143.8391  152.2605 H   0  0  0  0  0  0  0  0  0  0  0  0  # atno 10167 bound_to 10162
  156.1078  130.4178  150.0684 H   0  0  0  0  0  0  0  0  0  0  0  0  # atno 10718 bound_to 10713
  152.9899  135.5565  154.5742 H   0  0  0  0  0  0  0  0  0  0  0  0  # atno 10763 bound_to 10752
  154.5136  135.2803  155.1324 H   0  0  0  0  0  0  0  0  0  0  0  0  # atno 10764 bound_to 10752
  154.2705  135.6364  153.5361 H   0  0  0  0  0  0  0  0  0  0  0  0  # atno 10765 bound_to 10752
  140.4375  134.6462  157.4742 H   0  0  0  0  0  0  0  0  0  0  0  0  # atno 11005 bound_to 11000
  144.7583  139.7019  143.7245 LP  0  0  0  0  0  0  0  0  0  0  0  0  # atno 17320 bound_to 7965
  146.1989  139.5272  142.9756 LP  0  0  0  0  0  0  0  0  0  0  0  0  # atno 17321 bound_to 7965
  139.8394  144.7217  150.9350 LP  0  0  0  0  0  0  0  0  0  0  0  0  # atno 17342 bound_to 10162
  140.7806  143.3997  151.1170 LP  0  0  0  0  0  0  0  0  0  0  0  0  # atno 17343 bound_to 10162
  156.8655  130.9506  151.3614 LP  0  0  0  0  0  0  0  0  0  0  0  0  # atno 17370 bound_to 10713
  157.6257  130.8689  149.9185 LP  0  0  0  0  0  0  0  0  0  0  0  0  # atno 17371 bound_to 10713
  140.0092  134.6717  155.9407 LP  0  0  0  0  0  0  0  0  0  0  0  0  # atno 17394 bound_to 11000
  141.1719  133.6538  156.4685 LP  0  0  0  0  0  0  0  0  0  0  0  0  # atno 17395 bound_to 11000

$$$$
