AV-unprocessed.smi:3249|AV-procd|sdf|12423|dock3
  -GOLD-   2272018313D 1   1.00000     0.00000
 Structure written by MMmdl.
 44 45  0  0  0  0  0  0  0  0  2 V2000
  146.6928  138.6999  152.2862 C   0  0  0  0  0  0  0  0  0  0  0  0
  147.3238  139.7146  153.1953 C   0  0  0  0  0  0  0  0  0  0  0  0
  146.9186  141.0606  153.4193 C   0  0  0  0  0  0  0  0  0  0  0  0
  147.6856  141.6885  154.2954 N   0  0  0  0  0  0  0  0  0  0  0  0
  148.6172  140.7769  154.6491 N   0  0  0  0  0  0  0  0  0  0  0  0
  149.6255  141.1251  155.6446 C   0  0  2  0  0  0  0  0  0  0  0  0
  150.5521  139.9196  155.8909 C   0  0  0  0  0  0  0  0  0  0  0  0
  148.9558  141.6668  156.9345 C   0  0  1  0  0  0  0  0  0  0  0  0
  148.7192  140.5677  157.9874 C   0  0  0  0  0  0  0  0  0  0  0  0
  149.7880  142.7475  157.5144 N   0  3  0  0  0  0  0  0  0  0  0  0
  151.2483  142.5335  157.4426 C   0  0  0  0  0  0  0  0  0  0  0  0
  151.9525  143.1758  158.6454 C   0  0  1  0  0  0  0  0  0  0  0  0
  151.3988  144.5805  158.9538 C   0  0  0  0  0  0  0  0  0  0  0  0
  152.0601  145.1562  160.2112 C   0  0  0  0  0  0  0  0  0  0  0  0
  151.9250  144.1608  161.3680 C   0  0  0  0  0  0  0  0  0  0  0  0
  152.4377  142.7755  160.9440 C   0  0  0  0  0  0  0  0  0  0  0  0
  151.7443  142.3364  159.7794 O   0  0  0  0  0  0  0  0  0  0  0  0
  148.4144  139.5723  154.0053 C   0  0  0  0  0  0  0  0  0  0  0  0
  145.9353  139.1475  151.6425 H   0  0  0  0  0  0  0  0  0  0  0  0
  146.2057  137.9038  152.8496 H   0  0  0  0  0  0  0  0  0  0  0  0
  147.4295  138.2299  151.6347 H   0  0  0  0  0  0  0  0  0  0  0  0
  146.0897  141.5950  152.9787 H   0  0  0  0  0  0  0  0  0  0  0  0
  150.2424  141.9211  155.2224 H   0  0  0  0  0  0  0  0  0  0  0  0
  151.4198  140.1942  156.4902 H   0  0  0  0  0  0  0  0  0  0  0  0
  150.9321  139.5218  154.9493 H   0  0  0  0  0  0  0  0  0  0  0  0
  150.0321  139.1119  156.4067 H   0  0  0  0  0  0  0  0  0  0  0  0
  147.9903  142.0926  156.6555 H   0  0  0  0  0  0  0  0  0  0  0  0
  148.0357  139.8015  157.6230 H   0  0  0  0  0  0  0  0  0  0  0  0
  148.2745  140.9710  158.8970 H   0  0  0  0  0  0  0  0  0  0  0  0
  149.6527  140.0774  158.2650 H   0  0  0  0  0  0  0  0  0  0  0  0
  149.5540  143.6223  157.0667 H   0  0  0  0  0  0  0  0  0  0  0  0
  151.4431  141.4602  157.4387 H   0  0  0  0  0  0  0  0  0  0  0  0
  151.6472  142.9369  156.5117 H   0  0  0  0  0  0  0  0  0  0  0  0
  153.0217  143.2466  158.4359 H   0  0  0  0  0  0  0  0  0  0  0  0
  151.5647  145.2485  158.1079 H   0  0  0  0  0  0  0  0  0  0  0  0
  150.3192  144.5265  159.1019 H   0  0  0  0  0  0  0  0  0  0  0  0
  153.1153  145.3515  160.0153 H   0  0  0  0  0  0  0  0  0  0  0  0
  151.6080  146.1123  160.4764 H   0  0  0  0  0  0  0  0  0  0  0  0
  152.4743  144.5173  162.2398 H   0  0  0  0  0  0  0  0  0  0  0  0
  150.8786  144.0853  161.6665 H   0  0  0  0  0  0  0  0  0  0  0  0
  153.5119  142.7988  160.7539 H   0  0  0  0  0  0  0  0  0  0  0  0
  152.2723  142.0545  161.7446 H   0  0  0  0  0  0  0  0  0  0  0  0
  149.0542  138.7191  154.1771 H   0  0  0  0  0  0  0  0  0  0  0  0
  149.5461  142.8193  158.4930 H   0  0  0  0  0  0  0  0  0  0  0  0
  1  2  1  0  0  0  0
  1 19  1  0  0  0  0
  1 20  1  0  0  0  0
  1 21  1  0  0  0  0
  2 18  2  0  0  0  0
  2  3  1  0  0  0  0
  3  4  2  0  0  0  0
  3 22  1  0  0  0  0
  4  5  1  0  0  0  0
  5  6  1  0  0  0  0
  5 18  1  0  0  0  0
  6  7  1  0  0  0  0
  6  8  1  0  0  0  0
  6 23  1  0  0  0  0
  7 24  1  0  0  0  0
  7 25  1  0  0  0  0
  7 26  1  0  0  0  0
  8  9  1  0  0  0  0
  8 10  1  0  0  0  0
  8 27  1  0  0  0  0
  9 28  1  0  0  0  0
  9 29  1  0  0  0  0
  9 30  1  0  0  0  0
 10 11  1  0  0  0  0
 10 31  1  0  0  0  0
 10 44  1  0  0  0  0
 11 12  1  0  0  0  0
 11 32  1  0  0  0  0
 11 33  1  0  0  0  0
 12 17  1  0  0  0  0
 12 13  1  0  0  0  0
 12 34  1  0  0  0  0
 13 14  1  0  0  0  0
 13 35  1  0  0  0  0
 13 36  1  0  0  0  0
 14 15  1  0  0  0  0
 14 37  1  0  0  0  0
 14 38  1  0  0  0  0
 15 16  1  0  0  0  0
 15 39  1  0  0  0  0
 15 40  1  0  0  0  0
 16 17  1  0  0  0  0
 16 41  1  0  0  0  0
 16 42  1  0  0  0  0
 18 43  1  0  0  0  0
M  CHG  1  10   1
M  END
> <s_m_source_file>
AV-unprocessed.smi

> <i_m_source_file_index>
3249

> <i_lp_mmshare_version>
43012

> <i_f3d_flags>
0

> <s_epik_input>
W0NIM11jMVtjSF1ubihbY0hdMSlbQ0BIXShbQ0gzXSlbQ0BIXShbQ0gzXSlbTkhdW0NIMl1bQ0BASF0yW0NIMl1bQ0gyXVtDSDJdW0NIMl1PMg==

> <s_epik_cmdline>
J2VwaWtfcHl0aG9uJywgJy1waCcsICc3LjAnLCAnLXRuJywgJzgnLCAnLW1hJywgJzIwMCcsICctbWV0YWxfYmluZGluZycsICctaW1hZScsICc8aW5maWxlLm1hZT4nLCAnLW9tYWUnLCAnPG91dGZpbGUubWFlPic=

> <r_lp_tautomer_probability>
1

> <r_epik_Ionization_Penalty>
0.00659207

> <r_epik_Ionization_Penalty_Charging>
0.00656881

> <r_epik_Ionization_Penalty_Neutral>
2.32662e-05

> <r_epik_State_Penalty>
0.0048654

> <r_epik_Charging_Adjusted_Penalty>
0.0114342

> <i_epik_Tot_Q>
1

> <i_epik_Tot_abs_Q>
1

> <r_epik_Metal_State_Penalty>
-0

> <b_epik_Metal_Only>
0

> <s_lp_Force_Field>
OPLS_2005

> <r_lp_Energy>
17.4327

> <b_lp_Chiralities_Consistent>
1

> <s_lp_Variant>
AV-unprocessed.smi:3249-7

> <Gold.Version>
5.8.1

> <Gold.Id.Protein>
6NUR|6NUR_protein|mol2

> <Gold.PLP.Fitness>
47.5526

> <Gold.PLP.PLP>
-42.2550

> <Gold.PLP.part.hbond>
-1.0000

> <Gold.PLP.part.metal>
0.0000

> <Gold.PLP.part.buried>
-1.3032

> <Gold.PLP.part.nonpolar>
-39.9396

> <Gold.PLP.part.repulsive>
0.1703

> <Gold.PLP.ligand.clash>
0.0000

> <Gold.PLP.ligand.torsion>
1.4855

> <Gold.PLP.Chemscore.Hbond>
2.0000

> <Gold.PLP.Chemscore.CHOScore>
0.7198

> <Gold.PLP.Chemscore.Metal>
0.0000

> <Gold.Chemscore.Hbonds>
donor molecule, donor type, donor heavy atom, donor atom, acceptor molecule, acceptor atom, score
      L1  H    10    31       P1  8028  2.00
      L1  C     3    22       P1 10175  0.31

> <Gold.PLP.Chemscore.Internal.Correction>
0.1091

> <Gold.Rescore>
     Score         DG    S(hbond)    S(metal)    S(lipo)     H(rot)  DE(clash)    DE(int)     intcor
     16.49     -18.08       0.99        0.00     112.93       1.53       0.23       1.36       ----

> <Gold.Chemscore.Fitness>
16.4942

> <Gold.Chemscore.DG>
-18.0791

> <Gold.Chemscore.ZeroCoef>
-5.4800

> <Gold.Chemscore.Hbond>
0.9915

> <Gold.Chemscore.Metal>
0.0000

> <Gold.Chemscore.Lipo>
112.9299

> <Gold.Chemscore.Internal_Hbond>
0.0000

> <Gold.Chemscore.DEClash>
0.2250

> <Gold.Chemscore.DEInternal>
1.3598

> <Gold.Chemscore.Rot>
1.5333

> <Gold.Chemscore.Internal.Correction>
   9.000000E+99

> <Gold.Chemscore.Hbonds>
donor molecule, donor type, donor heavy atom, donor atom, acceptor molecule, acceptor atom, score
      L1  H    10    31       P1  8028  0.89

> <Gold.Chemscore.Hbond.Weighted>
-3.3115

> <Gold.Chemscore.Metal.Weighted>
-0.0000

> <Gold.Chemscore.Lipo.Weighted>
-13.2128

> <Gold.Chemscore.Internal_Hbond.Weighted>
0.0000

> <Gold.Chemscore.DEClash.Weighted>
0.2250

> <Gold.Chemscore.DEInternal.Weighted>
1.3598

> <Gold.Chemscore.Rot.Weighted>
3.9252

> <Gold.Chemscore.Internal.Correction.Weighted>
   9.000000E+99

> <Gold.Protein.RotatedTorsions>
[ 6907 6896 6895 6894 ] final   74.89 input  -60.11 | X-H torsion
[ 7974 7965 7964 7962 ] final   -7.00 input  175.53 | X-H torsion
[ 8008 7997 7996 7995 ] final -132.10 input   59.86 | X-H torsion
[ 10167 10162 10161 10158 ] final  -49.82 input  -65.29 | X-H torsion
[ 10718 10713 10712 10709 ] final  -31.61 input   66.30 | X-H torsion
[ 10763 10752 10751 10750 ] final  166.34 input  -60.55 | X-H torsion
[ 11005 11000 10999 10996 ] final   18.96 input  -57.11 | X-H torsion

> <Gold.Protein.ActiveResidues>
 VAL166  LYS551  ARG553  GLY616  TRP617  ASP618  TYR619  PRO620  LYS621  CYS622 
 ASP623  PHE694  ASN695  SER759  ASP760  ASP761  ALA762  ILE779  LEU786  VAL792 
 PHE793  MET794  SER795  GLU796  ALA797  LYS798  CYS799  TRP800  GLU811  SER814 

> <Gold.Protein.RotatedAtoms>
  152.4999  134.4203  159.9477 H   0  0  0  0  0  0  0  0  0  0  0  0  # atno 6907 bound_to 6896
  151.4175  133.3702  159.2759 H   0  0  0  0  0  0  0  0  0  0  0  0  # atno 6908 bound_to 6896
  150.9246  134.8686  159.7571 H   0  0  0  0  0  0  0  0  0  0  0  0  # atno 6909 bound_to 6896
  146.2317  140.2254  142.8338 H   0  0  0  0  0  0  0  0  0  0  0  0  # atno 7974 bound_to 7965
  155.3232  140.0463  157.3040 H   0  0  0  0  0  0  0  0  0  0  0  0  # atno 8008 bound_to 7997
  154.5368  140.2275  155.8674 H   0  0  0  0  0  0  0  0  0  0  0  0  # atno 8009 bound_to 7997
  156.1843  140.3066  155.9214 H   0  0  0  0  0  0  0  0  0  0  0  0  # atno 8010 bound_to 7997
  140.6667  143.2682  151.4271 H   0  0  0  0  0  0  0  0  0  0  0  0  # atno 10167 bound_to 10162
  156.3851  130.4363  149.7438 H   0  0  0  0  0  0  0  0  0  0  0  0  # atno 10718 bound_to 10713
  154.3375  135.2754  155.2440 H   0  0  0  0  0  0  0  0  0  0  0  0  # atno 10763 bound_to 10752
  154.4725  135.5879  153.6335 H   0  0  0  0  0  0  0  0  0  0  0  0  # atno 10764 bound_to 10752
  152.9860  135.6091  154.3573 H   0  0  0  0  0  0  0  0  0  0  0  0  # atno 10765 bound_to 10752
  140.4190  134.1539  155.7671 H   0  0  0  0  0  0  0  0  0  0  0  0  # atno 11005 bound_to 11000
  144.9599  140.8265  143.5519 LP  0  0  0  0  0  0  0  0  0  0  0  0  # atno 17320 bound_to 7965
  145.2223  139.2153  143.5086 LP  0  0  0  0  0  0  0  0  0  0  0  0  # atno 17321 bound_to 7965
  139.5918  144.1482  152.2097 LP  0  0  0  0  0  0  0  0  0  0  0  0  # atno 17342 bound_to 10162
  140.0839  144.5677  150.7102 LP  0  0  0  0  0  0  0  0  0  0  0  0  # atno 17343 bound_to 10162
  156.4514  130.7908  151.2929 LP  0  0  0  0  0  0  0  0  0  0  0  0  # atno 17370 bound_to 10713
  157.7495  131.0094  150.3267 LP  0  0  0  0  0  0  0  0  0  0  0  0  # atno 17371 bound_to 10713
  141.1791  133.8451  157.1319 LP  0  0  0  0  0  0  0  0  0  0  0  0  # atno 17394 bound_to 11000
  140.0214  134.9944  157.0598 LP  0  0  0  0  0  0  0  0  0  0  0  0  # atno 17395 bound_to 11000

$$$$
