#       Name:                AV-unprocessed.smi:1313
#       Creating user name   scv26
#       Creation time:       Fri Mar 27 05:02:19 2020


#       File generated by GOLD software.
#

@<TRIPOS>MOLECULE
AV-unprocessed.smi:1313
    42    43     1
SMALL
NO_CHARGES


@<TRIPOS>ATOM
      1 ****        -5.7418  -1.5603  -0.9761 C.3            1 S1                 0.0000
      2 ****        -4.2290  -1.5937  -0.9664 C.2            1 S1                 0.0000
      3 ****        -3.6446  -0.3542  -1.1664 N.pl3          1 S1                 0.0000
      4 ****        -2.2627  -0.2840  -1.1782 C.2            1 S1                 0.0000
      5 ****        -1.7053   1.1105  -1.4064 C.3            1 S1                 0.0000
      6 ****        -1.5013  -1.3930  -0.9954 C.2            1 S1                 0.0000
      7 ****         0.0257  -1.3569  -1.0008 C.3            1 S1                 0.0000
      8 ****         0.6699  -0.9016   0.3098 C.2            1 S1                 0.0000
      9 ****         0.4365  -1.5101   1.3538 O.2            1 S1                 0.0000
     10 ****         1.4695   0.1739   0.2440 N.am           1 S1                 0.0000
     11 ****         2.1499   0.7874   1.3812 C.3            1 S1                 0.0000
     12 ****         2.5509   2.2401   1.0591 C.3            1 S1                 0.0000
     13 ****         4.0189   2.3758   1.4675 C.3            1 S1                 0.0000
     14 ****         4.5923   0.9741   1.2868 C.3            1 S1                 0.0000
     15 ****         3.4582   0.0477   1.7253 C.3            1 S1                 0.0000
     16 ****        -2.1845  -2.6903  -0.7775 C.2            1 S1                 0.0000
     17 ****        -1.5519  -3.7289  -0.5914 O.2            1 S1                 0.0000
     18 ****        -3.5888  -2.7080  -0.7826 N.2            1 S1                 0.0000
     19 ****        -4.1730   0.4951  -1.3046 H              1 S1                 0.0000
     20 ****        -6.1551  -2.5590  -0.8301 H              1 S1                 0.0000
     21 ****        -6.1079  -1.1761  -1.9286 H              1 S1                 0.0000
     22 ****        -6.1125  -0.9179  -0.1768 H              1 S1                 0.0000
     23 ****        -1.0894   1.1337  -2.3054 H              1 S1                 0.0000
     24 ****        -1.0936   1.4205  -0.5592 H              1 S1                 0.0000
     25 ****        -2.5013   1.8460  -1.5284 H              1 S1                 0.0000
     26 ****         0.3520  -0.7013  -1.8090 H              1 S1                 0.0000
     27 ****         0.4351  -2.3336  -1.2602 H              1 S1                 0.0000
     28 ****         1.6060   0.6085  -0.6571 H              1 S1                 0.0000
     29 ****         1.4885   0.7792   2.2497 H              1 S1                 0.0000
     30 ****         2.4613   2.4373  -0.0104 H              1 S1                 0.0000
     31 ****         1.9180   2.9646   1.5724 H              1 S1                 0.0000
     32 ****         4.5503   3.1267   0.8820 H              1 S1                 0.0000
     33 ****         4.0835   2.6651   2.5172 H              1 S1                 0.0000
     34 ****         4.8205   0.8036   0.2339 H              1 S1                 0.0000
     35 ****         5.5081   0.8163   1.8572 H              1 S1                 0.0000
     36 ****         3.5121  -0.0990   2.8049 H              1 S1                 0.0000
     37 ****         3.5361  -0.9387   1.2661 H              1 S1                 0.0000
     38 ****        -0.1742  -2.3019   1.3452 LP             1 S1                 0.0000
     39 ****         0.8575  -1.2127   2.2107 LP             1 S1                 0.0000
     40 ****        -0.5521  -3.7110  -0.5846 LP             1 S1                 0.0000
     41 ****        -2.0375  -4.5910  -0.4469 LP             1 S1                 0.0000
     42 ****        -4.0871  -3.5643  -0.6470 LP             1 S1                 0.0000
@<TRIPOS>BOND
    1    1   20 1     
    2    1   21 1     
    3    1   22 1     
    4    1    2 1     
    5    2    3 1     
    6    2   18 2     
    7    3    4 1     
    8    3   19 1     
    9    4    6 2     
   10    4    5 1     
   11    5   23 1     
   12    5   24 1     
   13    5   25 1     
   14    6   16 1     
   15    6    7 1     
   16    7    8 1     
   17    7   26 1     
   18    7   27 1     
   19    8    9 2     
   20    8   10 am    
   21   10   11 1     
   22   10   28 1     
   23   11   15 1     
   24   11   12 1     
   25   11   29 1     
   26   12   13 1     
   27   12   30 1     
   28   12   31 1     
   29   13   14 1     
   30   13   32 1     
   31   13   33 1     
   32   14   15 1     
   33   14   34 1     
   34   14   35 1     
   35   15   36 1     
   36   15   37 1     
   37   16   17 2     
   38   16   18 1     
   39    9   38 1     
   40    9   39 1     
   41   17   40 1     
   42   17   41 1     
   43   18   42 1     
@<TRIPOS>SUBSTRUCTURE
      1 S1             1
@<TRIPOS>SET
LONE_PAIRS      STATIC     ATOMS    <user>   **** ""
5 38 39 40 41 42
DONOR_HYDROGENS      STATIC     ATOMS    <user>   **** ""
2 19 28
ATOM$BLUE        STATIC     ATOMS    COLORGROUP SYSTEM
5 38 39 40 41 42
ATOM$RED        STATIC     ATOMS    COLORGROUP SYSTEM
2 19 28
