AV-unprocessed.smi:2223|AV-procd|sdf|8990|dock2
  -GOLD-   2272012203D 1   1.00000     0.00000
 Structure written by MMmdl.
 46 47  0  0  0  0  0  0  0  0  1 V2000
  145.7052  131.0739  151.7685 C   0  0  0  0  0  0  0  0  0  0  0  0
  146.9511  131.3252  152.5918 C   0  0  0  0  0  0  0  0  0  0  0  0
  147.6780  130.2516  153.1402 C   0  0  0  0  0  0  0  0  0  0  0  0
  148.8315  130.5455  153.8935 C   0  0  0  0  0  0  0  0  0  0  0  0
  149.6612  129.4395  154.5112 C   0  0  0  0  0  0  0  0  0  0  0  0
  149.2703  131.8042  154.1077 N   0  0  0  0  0  0  0  0  0  0  0  0
  148.5798  132.8465  153.5821 C   0  0  0  0  0  0  0  0  0  0  0  0
  148.9574  134.2057  153.7492 N   0  0  0  0  0  0  0  0  0  0  0  0
  149.6309  134.7605  154.7726 C   0  0  0  0  0  0  0  0  0  0  0  0
  150.0479  134.1579  155.7622 O   0  0  0  0  0  0  0  0  0  0  0  0
  149.8068  136.0764  154.5835 N   0  0  0  0  0  0  0  0  0  0  0  0
  150.5147  136.9618  155.5046 C   0  0  1  0  0  0  0  0  0  0  0  0
  151.7745  137.5715  154.8827 C   0  0  0  0  0  0  0  0  0  0  0  0
  151.6838  139.0408  155.2554 C   0  0  0  0  0  0  0  0  0  0  0  0
  152.6064  139.8212  155.0239 O   0  0  0  0  0  0  0  0  0  0  0  0
  150.5074  139.3404  155.8390 N   0  0  0  0  0  0  0  0  0  0  0  0
  150.0573  140.6804  156.3010 C   0  0  0  0  0  0  0  0  0  0  0  0
  149.8294  141.6097  155.0876 C   0  0  0  0  0  0  0  0  0  0  0  0
  151.1025  141.3566  157.2203 C   0  0  0  0  0  0  0  0  0  0  0  0
  148.7458  140.5419  157.1061 C   0  0  0  0  0  0  0  0  0  0  0  0
  149.6424  138.1620  155.9035 C   0  0  0  0  0  0  0  0  0  0  0  0
  147.4097  132.6389  152.8175 C   0  0  0  0  0  0  0  0  0  0  0  0
  145.2277  130.1379  152.0605 H   0  0  0  0  0  0  0  0  0  0  0  0
  145.9599  131.0150  150.7103 H   0  0  0  0  0  0  0  0  0  0  0  0
  144.9825  131.8789  151.9045 H   0  0  0  0  0  0  0  0  0  0  0  0
  147.3605  129.2304  152.9862 H   0  0  0  0  0  0  0  0  0  0  0  0
  149.1386  128.4837  154.4680 H   0  0  0  0  0  0  0  0  0  0  0  0
  149.8766  129.6610  155.5569 H   0  0  0  0  0  0  0  0  0  0  0  0
  150.6072  129.3372  153.9791 H   0  0  0  0  0  0  0  0  0  0  0  0
  148.6900  134.8252  152.9989 H   0  0  0  0  0  0  0  0  0  0  0  0
  149.4330  136.4939  153.7440 H   0  0  0  0  0  0  0  0  0  0  0  0
  150.7904  136.4119  156.4070 H   0  0  0  0  0  0  0  0  0  0  0  0
  152.6847  137.1178  155.2764 H   0  0  0  0  0  0  0  0  0  0  0  0
  151.7854  137.4820  153.7955 H   0  0  0  0  0  0  0  0  0  0  0  0
  149.5652  142.6180  155.4082 H   0  0  0  0  0  0  0  0  0  0  0  0
  149.0212  141.2646  154.4433 H   0  0  0  0  0  0  0  0  0  0  0  0
  150.7288  141.6876  154.4756 H   0  0  0  0  0  0  0  0  0  0  0  0
  152.0459  141.5339  156.7029 H   0  0  0  0  0  0  0  0  0  0  0  0
  151.3092  140.7628  158.1114 H   0  0  0  0  0  0  0  0  0  0  0  0
  150.7488  142.3288  157.5657 H   0  0  0  0  0  0  0  0  0  0  0  0
  148.4253  141.5043  157.5065 H   0  0  0  0  0  0  0  0  0  0  0  0
  148.8709  139.8628  157.9502 H   0  0  0  0  0  0  0  0  0  0  0  0
  147.9231  140.1647  156.4992 H   0  0  0  0  0  0  0  0  0  0  0  0
  148.8090  138.2985  155.2119 H   0  0  0  0  0  0  0  0  0  0  0  0
  149.2336  138.0079  156.9023 H   0  0  0  0  0  0  0  0  0  0  0  0
  146.8689  133.4780  152.4038 H   0  0  0  0  0  0  0  0  0  0  0  0
  1  2  1  0  0  0  0
  1 23  1  0  0  0  0
  1 24  1  0  0  0  0
  1 25  1  0  0  0  0
  2 22  1  0  0  0  0
  2  3  2  0  0  0  0
  3  4  1  0  0  0  0
  3 26  1  0  0  0  0
  4  5  1  0  0  0  0
  4  6  2  0  0  0  0
  5 27  1  0  0  0  0
  5 28  1  0  0  0  0
  5 29  1  0  0  0  0
  6  7  1  0  0  0  0
  7  8  1  0  0  0  0
  7 22  2  0  0  0  0
  8  9  1  0  0  0  0
  8 30  1  0  0  0  0
  9 10  2  0  0  0  0
  9 11  1  0  0  0  0
 11 12  1  0  0  0  0
 11 31  1  0  0  0  0
 12 21  1  0  0  0  0
 12 13  1  0  0  0  0
 12 32  1  0  0  0  0
 13 14  1  0  0  0  0
 13 33  1  0  0  0  0
 13 34  1  0  0  0  0
 14 15  2  0  0  0  0
 14 16  1  0  0  0  0
 16 17  1  0  0  0  0
 16 21  1  0  0  0  0
 17 18  1  0  0  0  0
 17 19  1  0  0  0  0
 17 20  1  0  0  0  0
 18 35  1  0  0  0  0
 18 36  1  0  0  0  0
 18 37  1  0  0  0  0
 19 38  1  0  0  0  0
 19 39  1  0  0  0  0
 19 40  1  0  0  0  0
 20 41  1  0  0  0  0
 20 42  1  0  0  0  0
 20 43  1  0  0  0  0
 21 44  1  0  0  0  0
 21 45  1  0  0  0  0
 22 46  1  0  0  0  0
M  END
> <s_m_source_file>
AV-unprocessed.smi

> <i_m_source_file_index>
2223

> <i_lp_mmshare_version>
43012

> <i_f3d_flags>
0

> <s_epik_input>
W0NIM11jMVtjSF1jKFtDSDNdKW5jKFtjSF0xKVtOSF1DKD1PKVtOSF1bQ0BASF0yW0NIMl1DKD1PKU4oW0NIMl0yKUMoW0NIM10pKFtDSDNdKVtDSDNd

> <s_epik_cmdline>
J2VwaWtfcHl0aG9uJywgJy1waCcsICc3LjAnLCAnLXRuJywgJzgnLCAnLW1hJywgJzIwMCcsICctbWV0YWxfYmluZGluZycsICctaW1hZScsICc8aW5maWxlLm1hZT4nLCAnLW9tYWUnLCAnPG91dGZpbGUubWFlPic=

> <r_lp_tautomer_probability>
1

> <r_epik_Ionization_Penalty>
0.000228403

> <r_epik_Ionization_Penalty_Charging>
0

> <r_epik_Ionization_Penalty_Neutral>
0.000228403

> <r_epik_State_Penalty>
-0

> <r_epik_Charging_Adjusted_Penalty>
0

> <i_epik_Tot_Q>
0

> <i_epik_Tot_abs_Q>
0

> <r_epik_Metal_State_Penalty>
-0

> <b_epik_Metal_Only>
0

> <s_lp_Force_Field>
OPLS_2005

> <r_lp_Energy>
29.0753

> <b_lp_Chiralities_Consistent>
1

> <s_lp_Variant>
AV-unprocessed.smi:2223-2

> <Gold.Version>
5.8.1

> <Gold.Id.Protein>
6NUR|6NUR_protein|mol2

> <Gold.PLP.Fitness>
44.2848

> <Gold.PLP.PLP>
-35.4647

> <Gold.PLP.part.hbond>
-3.7293

> <Gold.PLP.part.metal>
0.0000

> <Gold.PLP.part.buried>
-2.6903

> <Gold.PLP.part.nonpolar>
-28.8780

> <Gold.PLP.part.repulsive>
0.1535

> <Gold.PLP.ligand.clash>
0.0000

> <Gold.PLP.ligand.torsion>
0.4883

> <Gold.PLP.Chemscore.Hbond>
3.2555

> <Gold.PLP.Chemscore.CHOScore>
0.0000

> <Gold.PLP.Chemscore.Metal>
0.0000

> <Gold.Chemscore.Hbonds>
donor molecule, donor type, donor heavy atom, donor atom, acceptor molecule, acceptor atom, score
      L1  H     8    30       P1  7948  1.00
      L1  H    11    31       P1  7948  0.91
      P1  H  7989  7998       L1    15  0.45
      P1  H  7997  8008       L1    15  0.91

> <Gold.PLP.Chemscore.Internal.Correction>
0.0303

> <Gold.Rescore>
     Score         DG    S(hbond)    S(metal)    S(lipo)     H(rot)  DE(clash)    DE(int)     intcor
     17.06     -18.50       2.43        0.00      68.27       1.21       0.05       1.39       ----

> <Gold.Chemscore.Fitness>
17.0596

> <Gold.Chemscore.DG>
-18.4984

> <Gold.Chemscore.ZeroCoef>
-5.4800

> <Gold.Chemscore.Hbond>
2.4303

> <Gold.Chemscore.Metal>
0.0000

> <Gold.Chemscore.Lipo>
68.2673

> <Gold.Chemscore.Internal_Hbond>
0.0000

> <Gold.Chemscore.DEClash>
0.0456

> <Gold.Chemscore.DEInternal>
1.3933

> <Gold.Chemscore.Rot>
1.2055

> <Gold.Chemscore.Internal.Correction>
   9.000000E+99

> <Gold.Chemscore.Hbonds>
donor molecule, donor type, donor heavy atom, donor atom, acceptor molecule, acceptor atom, score
      L1  H     8    30       P1  7948  0.29
      L1  H    11    31       P1  7948  0.73
      P1  H  7989  7998       L1    15  0.07
      P1  H  7997  8008       L1    15  0.87

> <Gold.Chemscore.Hbond.Weighted>
-8.1172

> <Gold.Chemscore.Metal.Weighted>
-0.0000

> <Gold.Chemscore.Lipo.Weighted>
-7.9873

> <Gold.Chemscore.Internal_Hbond.Weighted>
0.0000

> <Gold.Chemscore.DEClash.Weighted>
0.0456

> <Gold.Chemscore.DEInternal.Weighted>
1.3933

> <Gold.Chemscore.Rot.Weighted>
3.0861

> <Gold.Chemscore.Internal.Correction.Weighted>
   9.000000E+99

> <Gold.Protein.RotatedTorsions>
[ 6907 6896 6895 6894 ] final  108.89 input  -60.11 | X-H torsion
[ 7974 7965 7964 7962 ] final -138.04 input  175.53 | X-H torsion
[ 8008 7997 7996 7995 ] final  -21.58 input   59.86 | X-H torsion
[ 10167 10162 10161 10158 ] final  -61.29 input  -65.29 | X-H torsion
[ 10718 10713 10712 10709 ] final -124.89 input   66.30 | X-H torsion
[ 10763 10752 10751 10750 ] final  -18.17 input  -60.55 | X-H torsion
[ 11005 11000 10999 10996 ] final  155.86 input  -57.11 | X-H torsion

> <Gold.Protein.ActiveResidues>
 VAL166  LYS551  ARG553  GLY616  TRP617  ASP618  TYR619  PRO620  LYS621  CYS622 
 ASP623  PHE694  ASN695  SER759  ASP760  ASP761  ALA762  ILE779  LEU786  VAL792 
 PHE793  MET794  SER795  GLU796  ALA797  LYS798  CYS799  TRP800  GLU811  SER814 

> <Gold.Protein.RotatedAtoms>
  152.5092  133.9024  159.7447 H   0  0  0  0  0  0  0  0  0  0  0  0  # atno 6907 bound_to 6896
  150.9436  133.6619  159.2792 H   0  0  0  0  0  0  0  0  0  0  0  0  # atno 6908 bound_to 6896
  151.3922  135.0963  159.9582 H   0  0  0  0  0  0  0  0  0  0  0  0  # atno 6909 bound_to 6896
  144.8792  140.6482  143.5217 H   0  0  0  0  0  0  0  0  0  0  0  0  # atno 7974 bound_to 7965
  154.4697  140.2031  156.0027 H   0  0  0  0  0  0  0  0  0  0  0  0  # atno 8008 bound_to 7997
  156.0989  140.3247  155.7885 H   0  0  0  0  0  0  0  0  0  0  0  0  # atno 8009 bound_to 7997
  155.4831  140.0540  157.2955 H   0  0  0  0  0  0  0  0  0  0  0  0  # atno 8010 bound_to 7997
  140.6015  143.2363  151.5917 H   0  0  0  0  0  0  0  0  0  0  0  0  # atno 10167 bound_to 10162
  156.1627  130.6613  151.0072 H   0  0  0  0  0  0  0  0  0  0  0  0  # atno 10718 bound_to 10713
  153.5851  135.7004  153.5447 H   0  0  0  0  0  0  0  0  0  0  0  0  # atno 10763 bound_to 10752
  153.3227  135.4069  155.1430 H   0  0  0  0  0  0  0  0  0  0  0  0  # atno 10764 bound_to 10752
  154.8610  135.3699  154.5380 H   0  0  0  0  0  0  0  0  0  0  0  0  # atno 10765 bound_to 10752
  140.1621  134.8602  157.2587 H   0  0  0  0  0  0  0  0  0  0  0  0  # atno 11005 bound_to 11000
  145.3986  139.1602  143.4190 LP  0  0  0  0  0  0  0  0  0  0  0  0  # atno 17320 bound_to 7965
  146.2983  140.4081  142.8713 LP  0  0  0  0  0  0  0  0  0  0  0  0  # atno 17321 bound_to 7965
  139.5294  144.2960  152.1113 LP  0  0  0  0  0  0  0  0  0  0  0  0  # atno 17342 bound_to 10162
  140.2141  144.4532  150.6372 LP  0  0  0  0  0  0  0  0  0  0  0  0  # atno 17343 bound_to 10162
  157.6745  131.0854  150.7530 LP  0  0  0  0  0  0  0  0  0  0  0  0  # atno 17370 bound_to 10713
  156.7592  130.4793  149.5440 LP  0  0  0  0  0  0  0  0  0  0  0  0  # atno 17371 bound_to 10713
  140.2477  134.3720  155.7454 LP  0  0  0  0  0  0  0  0  0  0  0  0  # atno 17394 bound_to 11000
  141.2210  133.7299  156.8887 LP  0  0  0  0  0  0  0  0  0  0  0  0  # atno 17395 bound_to 11000

$$$$
