#       Name:                AV-unprocessed.smi:1893
#       Creating user name   scv26
#       Creation time:       Fri Mar 27 09:41:11 2020


#       File generated by GOLD software.
#

@<TRIPOS>MOLECULE
AV-unprocessed.smi:1893
    47    48     1
SMALL
NO_CHARGES


@<TRIPOS>ATOM
      1 ****        -2.2946   2.1964   0.6033 C.3            1 S1                 0.0000
      2 ****        -2.0398   1.9369  -0.8976 C.3            1 S1                 0.0000
      3 ****        -3.2819   2.2344  -1.7637 C.3            1 S1                 0.0000
      4 ****        -4.3712   1.1645  -1.5976 C.3            1 S1                 0.0000
      5 ****        -3.7874  -0.2270  -1.8709 C.3            1 S1                 0.0000
      6 ****        -2.5519  -0.4946  -0.9959 C.3            1 S1                 0.0000
      7 ****        -1.5228   0.5648  -1.1841 N.4            1 S1                 1.0000
      8 ****        -0.2316   0.2633  -0.5151 C.3            1 S1                 0.0000
      9 ****         0.6078  -0.7648  -1.2974 C.3            1 S1                 0.0000
     10 ****         1.8854  -1.0102  -0.6403 N.am           1 S1                 0.0000
     11 ****         2.0538  -1.7812   0.4458 C.2            1 S1                 0.0000
     12 ****         1.1301  -2.3961   0.9803 O.2            1 S1                 0.0000
     13 ****         3.4772  -1.8473   1.0197 C.3            1 S1                 0.0000
     14 ****         3.7773  -3.1957   1.7060 C.3            1 S1                 0.0000
     15 ****         3.7081  -0.7095   1.9017 N.pl3          1 S1                 0.0000
     16 ****         4.2292   0.4900   1.6335 C.2            1 S1                 0.0000
     17 ****         4.2383   1.3180   2.6686 N.2            1 S1                 0.0000
     18 ****         3.6600   0.5134   3.6090 C.2            1 S1                 0.0000
     19 ****         3.3086  -0.7048   3.1982 N.2            1 S1                 0.0000
     20 ****        -2.6489   3.2154   0.7614 H              1 S1                 0.0000
     21 ****        -1.3857   2.0831   1.1942 H              1 S1                 0.0000
     22 ****        -3.0452   1.5260   1.0202 H              1 S1                 0.0000
     23 ****        -1.2666   2.6393  -1.2124 H              1 S1                 0.0000
     24 ****        -3.6844   3.2195  -1.5246 H              1 S1                 0.0000
     25 ****        -2.9849   2.2771  -2.8126 H              1 S1                 0.0000
     26 ****        -4.7861   1.2022  -0.5900 H              1 S1                 0.0000
     27 ****        -5.1987   1.3640  -2.2792 H              1 S1                 0.0000
     28 ****        -4.5447  -0.9907  -1.6904 H              1 S1                 0.0000
     29 ****        -3.5129  -0.3069  -2.9237 H              1 S1                 0.0000
     30 ****        -2.8370  -0.5602   0.0546 H              1 S1                 0.0000
     31 ****        -2.1427  -1.4684  -1.2621 H              1 S1                 0.0000
     32 ****         0.3548   1.1798  -0.4311 H              1 S1                 0.0000
     33 ****        -0.4184  -0.0778   0.5043 H              1 S1                 0.0000
     34 ****         0.0778  -1.7100  -1.4173 H              1 S1                 0.0000
     35 ****         0.8095  -0.3926  -2.3022 H              1 S1                 0.0000
     36 ****         2.6959  -0.5452  -1.0236 H              1 S1                 0.0000
     37 ****         4.1740  -1.7500   0.1853 H              1 S1                 0.0000
     38 ****         3.6502  -4.0263   1.0109 H              1 S1                 0.0000
     39 ****         3.1239  -3.3784   2.5602 H              1 S1                 0.0000
     40 ****         4.8061  -3.2269   2.0658 H              1 S1                 0.0000
     41 ****         4.6026   0.7659   0.6580 H              1 S1                 0.0000
     42 ****         3.4835   0.8384   4.6239 H              1 S1                 0.0000
     43 ****        -1.3150   0.5704  -2.1724 H              1 S1                 0.0000
     44 ****         0.2049  -2.3332   0.6060 LP             1 S1                 0.0000
     45 ****         1.3053  -2.9582   1.7886 LP             1 S1                 0.0000
     46 ****         4.5715   2.2582   2.7402 LP             1 S1                 0.0000
     47 ****         2.8617  -1.4338   3.7166 LP             1 S1                 0.0000
@<TRIPOS>BOND
    1    1    2 1     
    2    1   20 1     
    3    1   21 1     
    4    1   22 1     
    5    2    7 1     
    6    2    3 1     
    7    2   23 1     
    8    3    4 1     
    9    3   24 1     
   10    3   25 1     
   11    4    5 1     
   12    4   26 1     
   13    4   27 1     
   14    5    6 1     
   15    5   28 1     
   16    5   29 1     
   17    6    7 1     
   18    6   30 1     
   19    6   31 1     
   20    7    8 1     
   21    7   43 1     
   22    8    9 1     
   23    8   32 1     
   24    8   33 1     
   25    9   10 1     
   26    9   34 1     
   27    9   35 1     
   28   10   11 am    
   29   10   36 1     
   30   11   12 2     
   31   11   13 1     
   32   13   14 1     
   33   13   15 1     
   34   13   37 1     
   35   14   38 1     
   36   14   39 1     
   37   14   40 1     
   38   15   19 1     
   39   15   16 1     
   40   16   17 2     
   41   16   41 1     
   42   17   18 1     
   43   18   19 2     
   44   18   42 1     
   45   12   44 1     
   46   12   45 1     
   47   17   46 1     
   48   19   47 1     
@<TRIPOS>SUBSTRUCTURE
      1 S1             1
@<TRIPOS>SET
LONE_PAIRS      STATIC     ATOMS    <user>   **** ""
4 44 45 46 47
DONOR_HYDROGENS      STATIC     ATOMS    <user>   **** ""
2 43 36
ATOM$BLUE        STATIC     ATOMS    COLORGROUP SYSTEM
4 44 45 46 47
ATOM$RED        STATIC     ATOMS    COLORGROUP SYSTEM
2 43 36
