AV-unprocessed.smi:668|AV-procd|sdf|3259|dock4
  -GOLD-   22720 0213D 1   1.00000     0.00000
 Structure written by MMmdl.
 38 39  0  0  0  0  0  0  0  0  1 V2000
  153.6407  136.7498  157.6301 C   0  0  0  0  0  0  0  0  0  0  0  0
  152.6739  135.7399  157.8971 O   0  0  0  0  0  0  0  0  0  0  0  0
  151.7316  135.4624  156.9282 C   0  0  0  0  0  0  0  0  0  0  0  0
  150.7761  134.4592  157.1849 C   0  0  0  0  0  0  0  0  0  0  0  0
  149.8054  134.1758  156.2054 C   0  0  0  0  0  0  0  0  0  0  0  0
  149.8180  134.9126  154.9974 C   0  0  0  0  0  0  0  0  0  0  0  0
  148.9008  134.7103  153.9318 N   0  0  0  0  0  0  0  0  0  0  0  0
  147.9959  133.7268  153.7916 C   0  0  0  0  0  0  0  0  0  0  0  0
  147.8151  132.8072  154.5896 O   0  0  0  0  0  0  0  0  0  0  0  0
  147.2836  133.8803  152.6669 N   0  0  0  0  0  0  0  0  0  0  0  0
  146.1959  133.0040  152.2386 C   0  0  2  0  0  0  0  0  0  0  0  0
  146.6086  131.5238  152.2304 C   0  0  0  0  0  0  0  0  0  0  0  0
  145.8094  130.9050  151.0882 C   0  0  0  0  0  0  0  0  0  0  0  0
  145.7805  131.9989  150.0230 C   0  0  0  0  0  0  0  0  0  0  0  0
  145.7485  133.3363  150.7906 C   0  0  1  0  0  0  0  0  0  0  0  0
  144.3629  134.0016  150.7510 C   0  0  0  0  0  0  0  0  0  0  0  0
  143.9234  134.4237  149.5627 N   0  0  0  0  0  0  0  0  0  0  0  0
  143.6964  134.1290  151.7764 O   0  0  0  0  0  0  0  0  0  0  0  0
  150.8289  135.8812  154.8295 C   0  0  0  0  0  0  0  0  0  0  0  0
  151.7600  136.1602  155.7658 N   0  0  0  0  0  0  0  0  0  0  0  0
  154.3033  136.8508  158.4896 H   0  0  0  0  0  0  0  0  0  0  0  0
  153.1676  137.7184  157.4624 H   0  0  0  0  0  0  0  0  0  0  0  0
  154.2567  136.4973  156.7657 H   0  0  0  0  0  0  0  0  0  0  0  0
  150.7881  133.9146  158.1175 H   0  0  0  0  0  0  0  0  0  0  0  0
  149.0836  133.3962  156.3937 H   0  0  0  0  0  0  0  0  0  0  0  0
  148.8760  135.4412  153.2361 H   0  0  0  0  0  0  0  0  0  0  0  0
  147.4985  134.6649  152.0695 H   0  0  0  0  0  0  0  0  0  0  0  0
  145.3570  133.1203  152.9288 H   0  0  0  0  0  0  0  0  0  0  0  0
  147.6738  131.4271  152.0136 H   0  0  0  0  0  0  0  0  0  0  0  0
  146.4209  131.0333  153.1861 H   0  0  0  0  0  0  0  0  0  0  0  0
  146.2458  129.9743  150.7245 H   0  0  0  0  0  0  0  0  0  0  0  0
  144.7940  130.6898  151.4241 H   0  0  0  0  0  0  0  0  0  0  0  0
  146.6918  131.9478  149.4255 H   0  0  0  0  0  0  0  0  0  0  0  0
  144.9436  131.8687  149.3348 H   0  0  0  0  0  0  0  0  0  0  0  0
  146.4652  134.0092  150.3150 H   0  0  0  0  0  0  0  0  0  0  0  0
  143.0201  134.8681  149.4861 H   0  0  0  0  0  0  0  0  0  0  0  0
  144.4997  134.2969  148.7433 H   0  0  0  0  0  0  0  0  0  0  0  0
  150.8888  136.4586  153.9185 H   0  0  0  0  0  0  0  0  0  0  0  0
  1  2  1  0  0  0  0
  1 21  1  0  0  0  0
  1 22  1  0  0  0  0
  1 23  1  0  0  0  0
  2  3  1  0  0  0  0
  3 20  1  0  0  0  0
  3  4  2  0  0  0  0
  4  5  1  0  0  0  0
  4 24  1  0  0  0  0
  5  6  2  0  0  0  0
  5 25  1  0  0  0  0
  6  7  1  0  0  0  0
  6 19  1  0  0  0  0
  7  8  1  0  0  0  0
  7 26  1  0  0  0  0
  8  9  2  0  0  0  0
  8 10  1  0  0  0  0
 10 11  1  0  0  0  0
 10 27  1  0  0  0  0
 11 15  1  0  0  0  0
 11 12  1  0  0  0  0
 11 28  1  0  0  0  0
 12 13  1  0  0  0  0
 12 29  1  0  0  0  0
 12 30  1  0  0  0  0
 13 14  1  0  0  0  0
 13 31  1  0  0  0  0
 13 32  1  0  0  0  0
 14 15  1  0  0  0  0
 14 33  1  0  0  0  0
 14 34  1  0  0  0  0
 15 16  1  0  0  0  0
 15 35  1  0  0  0  0
 16 17  1  0  0  0  0
 16 18  2  0  0  0  0
 17 36  1  0  0  0  0
 17 37  1  0  0  0  0
 19 20  2  0  0  0  0
 19 38  1  0  0  0  0
M  END
> <s_m_source_file>
AV-unprocessed.smi

> <i_m_source_file_index>
668

> <i_lp_mmshare_version>
43012

> <i_f3d_flags>
0

> <s_epik_input>
W0NIM11PYzFbY0hdW2NIXWMoW2NIXW4xKVtOSF1DKD1PKVtOSF1bQ0BASF0yW0NIMl1bQ0gyXVtDSDJdW0NASF0yQyg9TylbTkgyXQ==

> <s_epik_cmdline>
J2VwaWtfcHl0aG9uJywgJy1waCcsICc3LjAnLCAnLXRuJywgJzgnLCAnLW1hJywgJzIwMCcsICctbWV0YWxfYmluZGluZycsICctaW1hZScsICc8aW5maWxlLm1hZT4nLCAnLW9tYWUnLCAnPG91dGZpbGUubWFlPic=

> <r_lp_tautomer_probability>
1

> <r_epik_Ionization_Penalty>
9.0916e-05

> <r_epik_Ionization_Penalty_Charging>
0

> <r_epik_Ionization_Penalty_Neutral>
9.0916e-05

> <r_epik_State_Penalty>
-0

> <r_epik_Charging_Adjusted_Penalty>
0

> <i_epik_Tot_Q>
0

> <i_epik_Tot_abs_Q>
0

> <r_epik_Metal_State_Penalty>
-0

> <b_epik_Metal_Only>
0

> <s_lp_Force_Field>
OPLS_2005

> <r_lp_Energy>
16.4016

> <b_lp_Chiralities_Consistent>
1

> <s_lp_Variant>
AV-unprocessed.smi:668-1

> <Gold.Version>
5.8.1

> <Gold.Id.Protein>
6NUR|6NUR_protein|mol2

> <Gold.PLP.Fitness>
40.8660

> <Gold.PLP.PLP>
-24.7224

> <Gold.PLP.part.hbond>
-6.0000

> <Gold.PLP.part.metal>
0.0000

> <Gold.PLP.part.buried>
1.3777

> <Gold.PLP.part.nonpolar>
-21.0822

> <Gold.PLP.part.repulsive>
0.3231

> <Gold.PLP.ligand.clash>
0.0000

> <Gold.PLP.ligand.torsion>
0.1536

> <Gold.PLP.Chemscore.Hbond>
4.5340

> <Gold.PLP.Chemscore.CHOScore>
0.9482

> <Gold.PLP.Chemscore.Metal>
0.0000

> <Gold.Chemscore.Hbonds>
donor molecule, donor type, donor heavy atom, donor atom, acceptor molecule, acceptor atom, score
      L1  H     7    26       P1  7948  1.00
      L1  H    10    27       P1  7948  0.68
      L1  H    17    36       P1 10186  0.81
      L1  H    17    37       P1  7921  0.99
      P1  H  6896  6908       L1     2  0.05
      P1  H 10752 10763       L1    20  0.95
      L1  C    19    38       P1  7948  0.07
      L1  C    19    38       P1  7949  0.89

> <Gold.PLP.Chemscore.Internal.Correction>
0.0042

> <Gold.Rescore>
     Score         DG    S(hbond)    S(metal)    S(lipo)     H(rot)  DE(clash)    DE(int)     intcor
     14.84     -18.67       3.17        0.00      62.90       1.86       1.25       2.59       ----

> <Gold.Chemscore.Fitness>
14.8351

> <Gold.Chemscore.DG>
-18.6664

> <Gold.Chemscore.ZeroCoef>
-5.4800

> <Gold.Chemscore.Hbond>
3.1740

> <Gold.Chemscore.Metal>
0.0000

> <Gold.Chemscore.Lipo>
62.8983

> <Gold.Chemscore.Internal_Hbond>
0.0000

> <Gold.Chemscore.DEClash>
1.2461

> <Gold.Chemscore.DEInternal>
2.5851

> <Gold.Chemscore.Rot>
1.8648

> <Gold.Chemscore.Internal.Correction>
   9.000000E+99

> <Gold.Chemscore.Hbonds>
donor molecule, donor type, donor heavy atom, donor atom, acceptor molecule, acceptor atom, score
      L1  H     7    26       P1  7948  0.71
      L1  H    10    27       P1  7948  0.49
      L1  H    17    36       P1 10186  0.62
      L1  H    17    37       P1  7921  0.88
      P1  H  6896  6908       L1     2  0.04
      P1  H 10752 10763       L1    20  0.06

> <Gold.Chemscore.Hbond.Weighted>
-10.6012

> <Gold.Chemscore.Metal.Weighted>
-0.0000

> <Gold.Chemscore.Lipo.Weighted>
-7.3591

> <Gold.Chemscore.Internal_Hbond.Weighted>
0.0000

> <Gold.Chemscore.DEClash.Weighted>
1.2461

> <Gold.Chemscore.DEInternal.Weighted>
2.5851

> <Gold.Chemscore.Rot.Weighted>
4.7739

> <Gold.Chemscore.Internal.Correction.Weighted>
   9.000000E+99

> <Gold.Protein.RotatedTorsions>
[ 6907 6896 6895 6894 ] final  -95.57 input  -60.11 | X-H torsion
[ 7974 7965 7964 7962 ] final  126.65 input  175.53 | X-H torsion
[ 8008 7997 7996 7995 ] final   20.21 input   59.86 | X-H torsion
[ 10167 10162 10161 10158 ] final  135.71 input  -65.29 | X-H torsion
[ 10718 10713 10712 10709 ] final  149.49 input   66.30 | X-H torsion
[ 10763 10752 10751 10750 ] final   91.99 input  -60.55 | X-H torsion
[ 11005 11000 10999 10996 ] final  -58.20 input  -57.11 | X-H torsion

> <Gold.Protein.ActiveResidues>
 VAL166  LYS551  ARG553  GLY616  TRP617  ASP618  TYR619  PRO620  LYS621  CYS622 
 ASP623  PHE694  ASN695  SER759  ASP760  ASP761  ALA762  ILE779  LEU786  VAL792 
 PHE793  MET794  SER795  GLU796  ALA797  LYS798  CYS799  TRP800  GLU811  SER814 

> <Gold.Protein.RotatedAtoms>
  150.6967  134.1637  159.4185 H   0  0  0  0  0  0  0  0  0  0  0  0  # atno 6907 bound_to 6896
  151.9617  135.0118  160.0557 H   0  0  0  0  0  0  0  0  0  0  0  0  # atno 6908 bound_to 6896
  152.1921  133.4745  159.5050 H   0  0  0  0  0  0  0  0  0  0  0  0  # atno 6909 bound_to 6896
  145.0593  139.3818  143.5014 H   0  0  0  0  0  0  0  0  0  0  0  0  # atno 7974 bound_to 7965
  154.9322  140.3042  155.5162 H   0  0  0  0  0  0  0  0  0  0  0  0  # atno 8008 bound_to 7997
  156.3002  140.2352  156.4319 H   0  0  0  0  0  0  0  0  0  0  0  0  # atno 8009 bound_to 7997
  154.8227  140.0422  157.1410 H   0  0  0  0  0  0  0  0  0  0  0  0  # atno 8010 bound_to 7997
  139.5207  144.6503  151.5322 H   0  0  0  0  0  0  0  0  0  0  0  0  # atno 10167 bound_to 10162
  157.2954  131.0861  151.1430 H   0  0  0  0  0  0  0  0  0  0  0  0  # atno 10718 bound_to 10713
  153.2143  135.4377  155.0416 H   0  0  0  0  0  0  0  0  0  0  0  0  # atno 10763 bound_to 10752
  154.8216  135.3340  154.7022 H   0  0  0  0  0  0  0  0  0  0  0  0  # atno 10764 bound_to 10752
  153.7458  135.7001  153.5012 H   0  0  0  0  0  0  0  0  0  0  0  0  # atno 10765 bound_to 10752
  141.1197  133.6612  156.4884 H   0  0  0  0  0  0  0  0  0  0  0  0  # atno 11005 bound_to 11000
  146.3523  140.0284  142.8652 LP  0  0  0  0  0  0  0  0  0  0  0  0  # atno 17320 bound_to 7965
  145.1428  140.9581  143.4478 LP  0  0  0  0  0  0  0  0  0  0  0  0  # atno 17321 bound_to 7965
  140.6305  143.9086  150.6601 LP  0  0  0  0  0  0  0  0  0  0  0  0  # atno 17342 bound_to 10162
  140.2388  143.3679  152.1504 LP  0  0  0  0  0  0  0  0  0  0  0  0  # atno 17343 bound_to 10162
  157.2810  130.6750  149.6066 LP  0  0  0  0  0  0  0  0  0  0  0  0  # atno 17370 bound_to 10713
  155.9669  130.4450  150.5482 LP  0  0  0  0  0  0  0  0  0  0  0  0  # atno 17371 bound_to 10713
  140.4543  134.6900  157.5055 LP  0  0  0  0  0  0  0  0  0  0  0  0  # atno 17394 bound_to 11000
  140.0145  134.6640  155.9330 LP  0  0  0  0  0  0  0  0  0  0  0  0  # atno 17395 bound_to 11000

$$$$
