#       Name:                AV-unprocessed.smi:254
#       Creating user name   scv26
#       Creation time:       Thu Mar 26 21:07:55 2020


#       File generated by GOLD software.
#

@<TRIPOS>MOLECULE
AV-unprocessed.smi:254
    59    62     1
SMALL
NO_CHARGES


@<TRIPOS>ATOM
      1 ****        -5.5251   2.8317  -2.4916 O.2            1 S1                 0.0000
      2 ****        -4.4681   2.2644  -2.2200 C.2            1 S1                 0.0000
      3 ****        -3.2887   2.9723  -1.5784 C.3            1 S1                 0.0000
      4 ****        -2.3273   1.8825  -1.4627 N.pl3          1 S1                 0.0000
      5 ****        -1.1068   2.0269  -0.8847 C.ar           1 S1                 0.0000
      6 ****        -0.7600   3.2560  -0.4200 N.ar           1 S1                 0.0000
      7 ****         0.4287   3.4552   0.1551 C.ar           1 S1                 0.0000
      8 ****         1.4089   2.5768   0.3669 N.ar           1 S1                 0.0000
      9 ****         1.0717   1.3382  -0.0923 C.ar           1 S1                 0.0000
     10 ****        -0.1515   0.9780  -0.7292 C.ar           1 S1                 0.0000
     11 ****        -0.1176  -0.3711  -1.0646 N.2            1 S1                 0.0000
     12 ****         1.0502  -0.7805  -0.6528 C.2            1 S1                 0.0000
     13 ****         1.8256   0.1774  -0.0406 N.pl3          1 S1                 0.0000
     14 ****         3.1617   0.0018   0.5118 C.3            1 S1                 0.0000
     15 ****         3.1884  -0.5123   1.9776 C.3            1 S1                 0.0000
     16 ****         2.4516   0.4411   2.9477 C.3            1 S1                 0.0000
     17 ****         3.0595   1.7154   2.9656 O.3            1 S1                 0.0000
     18 ****         2.6582  -1.9651   2.1043 C.3            1 S1                 0.0000
     19 ****         2.7765  -2.5748   3.4913 C.3            1 S1                 0.0000
     20 ****         2.6515  -4.0680   3.2066 C.3            1 S1                 0.0000
     21 ****         3.1893  -4.2608   1.9035 O.3            1 S1                 0.0000
     22 ****         3.4449  -3.0009   1.2931 C.3            1 S1                 0.0000
     23 ****        -2.8537   0.6182  -1.9577 C.3            1 S1                 0.0000
     24 ****        -4.1831   0.9736  -2.4261 N.am           1 S1                 0.0000
     25 ****        -5.0668  -0.0353  -3.0059 C.3            1 S1                 0.0000
     26 ****        -5.0837   0.0131  -4.5440 C.3            1 S1                 0.0000
     27 ****        -5.8630  -0.9668  -4.9996 F              1 S1                 0.0000
     28 ****        -5.5650   1.1750  -4.9854 F              1 S1                 0.0000
     29 ****        -3.8537  -0.1635  -5.0265 F              1 S1                 0.0000
     30 ****        -2.9168   3.7709  -2.2211 H              1 S1                 0.0000
     31 ****        -3.5625   3.3765  -0.6030 H              1 S1                 0.0000
     32 ****         0.6211   4.4623   0.4947 H              1 S1                 0.0000
     33 ****         1.3747  -1.8019  -0.7838 H              1 S1                 0.0000
     34 ****         3.7140  -0.6732  -0.1419 H              1 S1                 0.0000
     35 ****         3.6850   0.9560   0.4435 H              1 S1                 0.0000
     36 ****         4.2357  -0.5303   2.2836 H              1 S1                 0.0000
     37 ****         1.3980   0.5415   2.6869 H              1 S1                 0.0000
     38 ****         2.4876   0.0624   3.9683 H              1 S1                 0.0000
     39 ****         2.9586   2.1074   2.1110 H              1 S1                 0.0000
     40 ****         1.6091  -2.0055   1.8087 H              1 S1                 0.0000
     41 ****         3.7556  -2.3577   3.9213 H              1 S1                 0.0000
     42 ****         2.0128  -2.2240   4.1857 H              1 S1                 0.0000
     43 ****         3.1699  -4.6772   3.9473 H              1 S1                 0.0000
     44 ****         1.6028  -4.3671   3.1954 H              1 S1                 0.0000
     45 ****         3.1665  -3.0173   0.2400 H              1 S1                 0.0000
     46 ****         4.5164  -2.8042   1.3527 H              1 S1                 0.0000
     47 ****        -2.2483   0.2310  -2.7784 H              1 S1                 0.0000
     48 ****        -2.9126  -0.1253  -1.1614 H              1 S1                 0.0000
     49 ****        -4.7418  -1.0223  -2.6742 H              1 S1                 0.0000
     50 ****        -6.0773   0.0981  -2.6163 H              1 S1                 0.0000
     51 ****        -6.2751   2.3186  -2.9091 LP             1 S1                 0.0000
     52 ****        -5.6345   3.8061  -2.2949 LP             1 S1                 0.0000
     53 ****        -1.4009   4.0184  -0.5095 LP             1 S1                 0.0000
     54 ****         2.2796   2.7980   0.8061 LP             1 S1                 0.0000
     55 ****        -0.8289  -0.9070  -1.5194 LP             1 S1                 0.0000
     56 ****         4.0314   1.6227   3.1817 LP             1 S1                 0.0000
     57 ****         2.6182   2.2902   3.6547 LP             1 S1                 0.0000
     58 ****         2.5344  -4.7720   1.3469 LP             1 S1                 0.0000
     59 ****         4.0437  -4.7761   1.9704 LP             1 S1                 0.0000
@<TRIPOS>BOND
    1    1    2 2     
    2    2   24 am    
    3    2    3 1     
    4    3    4 1     
    5    3   30 1     
    6    3   31 1     
    7    4    5 1     
    8    4   23 1     
    9    5   10 ar    
   10    5    6 ar    
   11    6    7 ar    
   12    7    8 ar    
   13    7   32 1     
   14    8    9 ar    
   15    9   13 1     
   16    9   10 ar    
   17   10   11 1     
   18   11   12 2     
   19   12   13 1     
   20   12   33 1     
   21   13   14 1     
   22   14   15 1     
   23   14   34 1     
   24   14   35 1     
   25   15   16 1     
   26   15   18 1     
   27   15   36 1     
   28   16   17 1     
   29   16   37 1     
   30   16   38 1     
   31   17   39 1     
   32   18   22 1     
   33   18   19 1     
   34   18   40 1     
   35   19   20 1     
   36   19   41 1     
   37   19   42 1     
   38   20   21 1     
   39   20   43 1     
   40   20   44 1     
   41   21   22 1     
   42   22   45 1     
   43   22   46 1     
   44   23   24 1     
   45   23   47 1     
   46   23   48 1     
   47   24   25 1     
   48   25   26 1     
   49   25   49 1     
   50   25   50 1     
   51   26   27 1     
   52   26   28 1     
   53   26   29 1     
   54    1   51 1     
   55    1   52 1     
   56    6   53 1     
   57    8   54 1     
   58   11   55 1     
   59   17   56 1     
   60   17   57 1     
   61   21   58 1     
   62   21   59 1     
@<TRIPOS>SUBSTRUCTURE
      1 S1             1
@<TRIPOS>SET
LONE_PAIRS      STATIC     ATOMS    <user>   **** ""
9 51 52 53 54 55 56 57 58 59
DONOR_HYDROGENS      STATIC     ATOMS    <user>   **** ""
1 39
ATOM$BLUE        STATIC     ATOMS    COLORGROUP SYSTEM
9 51 52 53 54 55 56 57 58 59
ATOM$RED        STATIC     ATOMS    COLORGROUP SYSTEM
1 39
