AV-unprocessed.smi:930|AV-procd|sdf|4197|dock9
  -GOLD-   22720 2103D 1   1.00000     0.00000
 Structure written by MMmdl.
 31 32  0  0  0  0  0  0  0  0  2 V2000
  146.2793  138.2649  152.3705 C   0  0  0  0  0  0  0  0  0  0  0  0
  147.2364  139.1070  153.1419 C   0  0  0  0  0  0  0  0  0  0  0  0
  148.2492  138.5918  153.8426 N   0  0  0  0  0  0  0  0  0  0  0  0
  149.0025  139.5730  154.4712 N   0  0  0  0  0  0  0  0  0  0  0  0
  148.5562  140.8138  154.2302 C   0  0  0  0  0  0  0  0  0  0  0  0
  149.1456  141.9039  154.7488 N   0  5  0  0  0  0  0  0  0  0  0  0
  150.2153  141.7700  155.5659 C   0  0  0  0  0  0  0  0  0  0  0  0
  150.9871  140.8090  155.6062 O   0  0  0  0  0  0  0  0  0  0  0  0
  150.4020  142.8146  156.3860 N   0  0  0  0  0  0  0  0  0  0  0  0
  151.4734  142.9576  157.3688 C   0  0  0  0  0  0  0  0  0  0  0  0
  151.3219  141.9149  158.4962 C   0  0  0  0  0  0  0  0  0  0  0  0
  152.3961  142.0998  159.5804 C   0  0  0  0  0  0  0  0  0  0  0  0
  152.3795  143.5287  160.1458 C   0  0  0  0  0  0  0  0  0  0  0  0
  152.5354  144.5692  159.0260 C   0  0  0  0  0  0  0  0  0  0  0  0
  151.4600  144.3870  157.9424 C   0  0  0  0  0  0  0  0  0  0  0  0
  147.1252  140.8580  153.2003 S   0  0  0  0  0  0  0  0  0  0  0  0
  146.7250  137.9704  151.4203 H   0  0  0  0  0  0  0  0  0  0  0  0
  145.3627  138.8199  152.1710 H   0  0  0  0  0  0  0  0  0  0  0  0
  146.0264  137.3666  152.9344 H   0  0  0  0  0  0  0  0  0  0  0  0
  149.7421  143.5755  156.3197 H   0  0  0  0  0  0  0  0  0  0  0  0
  152.4335  142.8037  156.8727 H   0  0  0  0  0  0  0  0  0  0  0  0
  150.3327  142.0014  158.9481 H   0  0  0  0  0  0  0  0  0  0  0  0
  151.3866  140.9056  158.0882 H   0  0  0  0  0  0  0  0  0  0  0  0
  152.2401  141.3798  160.3841 H   0  0  0  0  0  0  0  0  0  0  0  0
  153.3787  141.8849  159.1588 H   0  0  0  0  0  0  0  0  0  0  0  0
  151.4425  143.7005  160.6770 H   0  0  0  0  0  0  0  0  0  0  0  0
  153.1776  143.6480  160.8789 H   0  0  0  0  0  0  0  0  0  0  0  0
  152.4770  145.5753  159.4421 H   0  0  0  0  0  0  0  0  0  0  0  0
  153.5251  144.4770  158.5769 H   0  0  0  0  0  0  0  0  0  0  0  0
  151.6188  145.1116  157.1430 H   0  0  0  0  0  0  0  0  0  0  0  0
  150.4793  144.6059  158.3673 H   0  0  0  0  0  0  0  0  0  0  0  0
  1  2  1  0  0  0  0
  1 17  1  0  0  0  0
  1 18  1  0  0  0  0
  1 19  1  0  0  0  0
  2 16  1  0  0  0  0
  2  3  2  0  0  0  0
  3  4  1  0  0  0  0
  4  5  2  0  0  0  0
  5  6  1  0  0  0  0
  5 16  1  0  0  0  0
  6  7  1  0  0  0  0
  7  8  2  0  0  0  0
  7  9  1  0  0  0  0
  9 10  1  0  0  0  0
  9 20  1  0  0  0  0
 10 15  1  0  0  0  0
 10 11  1  0  0  0  0
 10 21  1  0  0  0  0
 11 12  1  0  0  0  0
 11 22  1  0  0  0  0
 11 23  1  0  0  0  0
 12 13  1  0  0  0  0
 12 24  1  0  0  0  0
 12 25  1  0  0  0  0
 13 14  1  0  0  0  0
 13 26  1  0  0  0  0
 13 27  1  0  0  0  0
 14 15  1  0  0  0  0
 14 28  1  0  0  0  0
 14 29  1  0  0  0  0
 15 30  1  0  0  0  0
 15 31  1  0  0  0  0
M  CHG  1   6  -1
M  END
> <s_m_source_file>
AV-unprocessed.smi

> <i_m_source_file_index>
930

> <i_lp_mmshare_version>
43012

> <i_f3d_flags>
0

> <s_epik_input>
W0NIM11jMW5uYyhzMSlbTkhdQyg9TylbTkhdW0NIXTJbQ0gyXVtDSDJdW0NIMl1bQ0gyXVtDSDJdMg==

> <s_epik_cmdline>
J2VwaWtfcHl0aG9uJywgJy1waCcsICc3LjAnLCAnLXRuJywgJzgnLCAnLW1hJywgJzIwMCcsICctbWV0YWxfYmluZGluZycsICctaW1hZScsICc8aW5maWxlLm1hZT4nLCAnLW9tYWUnLCAnPG91dGZpbGUubWFlPic=

> <r_lp_tautomer_probability>
1

> <r_epik_Ionization_Penalty>
4.57239

> <r_epik_Ionization_Penalty_Charging>
4.41779

> <r_epik_Ionization_Penalty_Neutral>
0.154599

> <r_epik_State_Penalty>
4.41745

> <r_epik_Charging_Adjusted_Penalty>
8.83524

> <i_epik_Tot_Q>
-1

> <i_epik_Tot_abs_Q>
1

> <r_epik_Metal_State_Penalty>
0.779681

> <b_epik_Metal_Only>
1

> <s_lp_Force_Field>
OPLS_2005

> <r_lp_Energy>
6.76033

> <b_lp_Chiralities_Consistent>
1

> <s_lp_Variant>
AV-unprocessed.smi:930-2

> <Gold.Version>
5.8.1

> <Gold.Id.Protein>
6NUR|6NUR_protein|mol2

> <Gold.PLP.Fitness>
38.9591

> <Gold.PLP.PLP>
-34.7008

> <Gold.PLP.part.hbond>
-2.5464

> <Gold.PLP.part.metal>
0.0000

> <Gold.PLP.part.buried>
-4.8190

> <Gold.PLP.part.nonpolar>
-29.7409

> <Gold.PLP.part.repulsive>
1.9289

> <Gold.PLP.ligand.clash>
0.0000

> <Gold.PLP.ligand.torsion>
0.1784

> <Gold.PLP.Chemscore.Hbond>
1.5366

> <Gold.PLP.Chemscore.CHOScore>
0.0000

> <Gold.PLP.Chemscore.Metal>
0.0000

> <Gold.Chemscore.Hbonds>
donor molecule, donor type, donor heavy atom, donor atom, acceptor molecule, acceptor atom, score
      L1  H     9    20       P1  8028  1.00
      P1  H  7989  7998       L1     8  0.39

> <Gold.PLP.Chemscore.Internal.Correction>
0.0053

> <Gold.Rescore>
     Score         DG    S(hbond)    S(metal)    S(lipo)     H(rot)  DE(clash)    DE(int)     intcor
     14.64     -17.10       1.16        0.00      88.17       1.00       0.60       1.86       ----

> <Gold.Chemscore.Fitness>
14.6379

> <Gold.Chemscore.DG>
-17.0989

> <Gold.Chemscore.ZeroCoef>
-5.4800

> <Gold.Chemscore.Hbond>
1.1566

> <Gold.Chemscore.Metal>
0.0000

> <Gold.Chemscore.Lipo>
88.1708

> <Gold.Chemscore.Internal_Hbond>
0.0000

> <Gold.Chemscore.DEClash>
0.6042

> <Gold.Chemscore.DEInternal>
1.8568

> <Gold.Chemscore.Rot>
1.0000

> <Gold.Chemscore.Internal.Correction>
   9.000000E+99

> <Gold.Chemscore.Hbonds>
donor molecule, donor type, donor heavy atom, donor atom, acceptor molecule, acceptor atom, score
      L1  H     9    20       P1  8028  0.96
      P1  H  7989  7998       L1     8  0.07

> <Gold.Chemscore.Hbond.Weighted>
-3.8629

> <Gold.Chemscore.Metal.Weighted>
-0.0000

> <Gold.Chemscore.Lipo.Weighted>
-10.3160

> <Gold.Chemscore.Internal_Hbond.Weighted>
0.0000

> <Gold.Chemscore.DEClash.Weighted>
0.6042

> <Gold.Chemscore.DEInternal.Weighted>
1.8568

> <Gold.Chemscore.Rot.Weighted>
2.5600

> <Gold.Chemscore.Internal.Correction.Weighted>
   9.000000E+99

> <Gold.Protein.RotatedTorsions>
[ 6907 6896 6895 6894 ] final  177.59 input  -60.11 | X-H torsion
[ 7974 7965 7964 7962 ] final   44.05 input  175.53 | X-H torsion
[ 8008 7997 7996 7995 ] final  165.39 input   59.86 | X-H torsion
[ 10167 10162 10161 10158 ] final  -69.46 input  -65.29 | X-H torsion
[ 10718 10713 10712 10709 ] final -164.41 input   66.30 | X-H torsion
[ 10763 10752 10751 10750 ] final -155.06 input  -60.55 | X-H torsion
[ 11005 11000 10999 10996 ] final   -5.67 input  -57.11 | X-H torsion

> <Gold.Protein.ActiveResidues>
 VAL166  LYS551  ARG553  GLY616  TRP617  ASP618  TYR619  PRO620  LYS621  CYS622 
 ASP623  PHE694  ASN695  SER759  ASP760  ASP761  ALA762  ILE779  LEU786  VAL792 
 PHE793  MET794  SER795  GLU796  ALA797  LYS798  CYS799  TRP800  GLU811  SER814 

> <Gold.Protein.RotatedAtoms>
  151.7015  133.3311  159.3267 H   0  0  0  0  0  0  0  0  0  0  0  0  # atno 6907 bound_to 6896
  150.7734  134.6612  159.6350 H   0  0  0  0  0  0  0  0  0  0  0  0  # atno 6908 bound_to 6896
  152.3767  134.6656  160.0209 H   0  0  0  0  0  0  0  0  0  0  0  0  # atno 6909 bound_to 6896
  146.0602  139.5118  142.9663 H   0  0  0  0  0  0  0  0  0  0  0  0  # atno 7974 bound_to 7965
  156.1804  140.1671  156.8285 H   0  0  0  0  0  0  0  0  0  0  0  0  # atno 8008 bound_to 7997
  154.5353  140.0748  156.8450 H   0  0  0  0  0  0  0  0  0  0  0  0  # atno 8009 bound_to 7997
  155.3323  140.3380  155.4242 H   0  0  0  0  0  0  0  0  0  0  0  0  # atno 8010 bound_to 7997
  140.5428  143.2314  151.7057 H   0  0  0  0  0  0  0  0  0  0  0  0  # atno 10167 bound_to 10162
  156.6386  130.8959  151.2991 H   0  0  0  0  0  0  0  0  0  0  0  0  # atno 10718 bound_to 10713
  154.7814  135.3176  154.7981 H   0  0  0  0  0  0  0  0  0  0  0  0  # atno 10763 bound_to 10752
  153.8691  135.6846  153.4780 H   0  0  0  0  0  0  0  0  0  0  0  0  # atno 10764 bound_to 10752
  153.1452  135.4722  154.9493 H   0  0  0  0  0  0  0  0  0  0  0  0  # atno 10765 bound_to 10752
  140.6936  133.9050  155.8635 H   0  0  0  0  0  0  0  0  0  0  0  0  # atno 11005 bound_to 11000
  145.6573  141.0249  143.1728 LP  0  0  0  0  0  0  0  0  0  0  0  0  # atno 17320 bound_to 7965
  144.7170  139.8160  143.7395 LP  0  0  0  0  0  0  0  0  0  0  0  0  # atno 17321 bound_to 7965
  139.4995  144.3941  152.0249 LP  0  0  0  0  0  0  0  0  0  0  0  0  # atno 17342 bound_to 10162
  140.3052  144.3601  150.6049 LP  0  0  0  0  0  0  0  0  0  0  0  0  # atno 17343 bound_to 10162
  157.7178  130.9519  150.1321 LP  0  0  0  0  0  0  0  0  0  0  0  0  # atno 17370 bound_to 10713
  156.2177  130.3671  149.8593 LP  0  0  0  0  0  0  0  0  0  0  0  0  # atno 17371 bound_to 10713
  141.0221  134.0874  157.4109 LP  0  0  0  0  0  0  0  0  0  0  0  0  # atno 17394 bound_to 11000
  139.8916  135.0120  156.6802 LP  0  0  0  0  0  0  0  0  0  0  0  0  # atno 17395 bound_to 11000

$$$$
