AV-unprocessed.smi:1552|AV-procd|sdf|6234|dock4
  -GOLD-   22720 6413D 1   1.00000     0.00000
 Structure written by MMmdl.
 50 51  0  0  0  0  0  0  0  0  2 V2000
  147.8340  141.8007  157.3177 C   0  0  0  0  0  0  0  0  0  0  0  0
  148.8303  142.2693  156.3251 N   0  3  0  0  0  0  0  0  0  0  0  0
  148.4122  141.9701  154.9356 C   0  0  0  0  0  0  0  0  0  0  0  0
  150.2558  141.9172  156.6143 C   0  0  2  0  0  0  0  0  0  0  0  0
  150.4444  140.4238  157.0034 C   0  0  0  0  0  0  0  0  0  0  0  0
  150.7726  139.5725  155.8626 N   0  0  0  0  0  0  0  0  0  0  0  0
  151.9997  139.2787  155.4056 C   0  0  0  0  0  0  0  0  0  0  0  0
  152.9986  139.7260  155.9668 O   0  0  0  0  0  0  0  0  0  0  0  0
  152.1402  138.3549  154.1800 C   0  0  0  0  0  0  0  0  0  0  0  0
  151.5139  137.0383  154.3720 N   0  0  0  0  0  0  0  0  0  0  0  0
  150.4718  136.6316  153.5503 C   0  0  0  0  0  0  0  0  0  0  0  0
  149.8439  135.4386  153.6773 C   0  0  0  0  0  0  0  0  0  0  0  0
  150.2477  134.4982  154.7171 C   0  0  0  0  0  0  0  0  0  0  0  0
  149.7420  133.3949  154.9108 O   0  0  0  0  0  0  0  0  0  0  0  0
  151.2970  134.9446  155.5251 N   0  0  0  0  0  0  0  0  0  0  0  0
  151.9470  136.1734  155.4010 C   0  0  0  0  0  0  0  0  0  0  0  0
  152.8594  136.4714  156.1710 O   0  0  0  0  0  0  0  0  0  0  0  0
  150.9153  142.9362  157.5925 C   0  0  0  0  0  0  0  0  0  0  0  0
  152.2806  142.4290  158.1203 C   0  0  0  0  0  0  0  0  0  0  0  0
  152.9362  143.4284  159.0865 C   0  0  0  0  0  0  0  0  0  0  0  0
  152.0099  143.7508  160.2660 C   0  0  0  0  0  0  0  0  0  0  0  0
  150.6529  144.2641  159.7674 C   0  0  0  0  0  0  0  0  0  0  0  0
  149.9998  143.2662  158.7974 C   0  0  0  0  0  0  0  0  0  0  0  0
  151.6089  134.3276  156.2610 H   0  0  0  0  0  0  0  0  0  0  0  0
  147.6976  140.7202  157.2674 H   0  0  0  0  0  0  0  0  0  0  0  0
  146.8662  142.2644  157.1249 H   0  0  0  0  0  0  0  0  0  0  0  0
  148.1236  142.0672  158.3336 H   0  0  0  0  0  0  0  0  0  0  0  0
  148.3636  140.8967  154.7521 H   0  0  0  0  0  0  0  0  0  0  0  0
  149.1007  142.4119  154.2149 H   0  0  0  0  0  0  0  0  0  0  0  0
  147.4243  142.3878  154.7393 H   0  0  0  0  0  0  0  0  0  0  0  0
  150.7843  142.0454  155.6683 H   0  0  0  0  0  0  0  0  0  0  0  0
  151.2002  140.3226  157.7821 H   0  0  0  0  0  0  0  0  0  0  0  0
  149.5184  140.0484  157.4405 H   0  0  0  0  0  0  0  0  0  0  0  0
  149.9925  139.1571  155.3739 H   0  0  0  0  0  0  0  0  0  0  0  0
  151.6944  138.8559  153.3194 H   0  0  0  0  0  0  0  0  0  0  0  0
  153.1939  138.2246  153.9268 H   0  0  0  0  0  0  0  0  0  0  0  0
  150.1357  137.2977  152.7685 H   0  0  0  0  0  0  0  0  0  0  0  0
  149.0375  135.1788  153.0065 H   0  0  0  0  0  0  0  0  0  0  0  0
  151.0982  143.8692  157.0589 H   0  0  0  0  0  0  0  0  0  0  0  0
  152.1482  141.4712  158.6254 H   0  0  0  0  0  0  0  0  0  0  0  0
  152.9704  142.2486  157.2960 H   0  0  0  0  0  0  0  0  0  0  0  0
  153.8792  143.0242  159.4560 H   0  0  0  0  0  0  0  0  0  0  0  0
  153.1823  144.3467  158.5519 H   0  0  0  0  0  0  0  0  0  0  0  0
  151.8636  142.8568  160.8736 H   0  0  0  0  0  0  0  0  0  0  0  0
  152.4756  144.4937  160.9144 H   0  0  0  0  0  0  0  0  0  0  0  0
  149.9911  144.4445  160.6152 H   0  0  0  0  0  0  0  0  0  0  0  0
  150.7848  145.2256  159.2692 H   0  0  0  0  0  0  0  0  0  0  0  0
  149.0540  143.6898  158.4609 H   0  0  0  0  0  0  0  0  0  0  0  0
  149.7514  142.3496  159.3338 H   0  0  0  0  0  0  0  0  0  0  0  0
  148.8065  143.2775  156.3842 H   0  0  0  0  0  0  0  0  0  0  0  0
  1  2  1  0  0  0  0
  1 25  1  0  0  0  0
  1 26  1  0  0  0  0
  1 27  1  0  0  0  0
  2  3  1  0  0  0  0
  2  4  1  0  0  0  0
  2 50  1  0  0  0  0
  3 28  1  0  0  0  0
  3 29  1  0  0  0  0
  3 30  1  0  0  0  0
  4  5  1  0  0  0  0
  4 18  1  0  0  0  0
  4 31  1  0  0  0  0
  5  6  1  0  0  0  0
  5 32  1  0  0  0  0
  5 33  1  0  0  0  0
  6  7  1  0  0  0  0
  6 34  1  0  0  0  0
  7  8  2  0  0  0  0
  7  9  1  0  0  0  0
  9 10  1  0  0  0  0
  9 35  1  0  0  0  0
  9 36  1  0  0  0  0
 10 16  1  0  0  0  0
 10 11  1  0  0  0  0
 11 12  2  0  0  0  0
 11 37  1  0  0  0  0
 12 13  1  0  0  0  0
 12 38  1  0  0  0  0
 13 14  2  0  0  0  0
 13 15  1  0  0  0  0
 15 24  1  0  0  0  0
 15 16  1  0  0  0  0
 16 17  2  0  0  0  0
 18 23  1  0  0  0  0
 18 19  1  0  0  0  0
 18 39  1  0  0  0  0
 19 20  1  0  0  0  0
 19 40  1  0  0  0  0
 19 41  1  0  0  0  0
 20 21  1  0  0  0  0
 20 42  1  0  0  0  0
 20 43  1  0  0  0  0
 21 22  1  0  0  0  0
 21 44  1  0  0  0  0
 21 45  1  0  0  0  0
 22 23  1  0  0  0  0
 22 46  1  0  0  0  0
 22 47  1  0  0  0  0
 23 48  1  0  0  0  0
 23 49  1  0  0  0  0
M  CHG  1   2   1
M  END
> <s_m_source_file>
AV-unprocessed.smi

> <i_m_source_file_index>
1552

> <i_lp_mmshare_version>
43012

> <i_f3d_flags>
0

> <s_epik_input>
W0NIMl0xW0NIMl1bQ0gyXVtDSDJdW0NIMl1bQ0hdMVtDQEhdKE4oW0NIM10pW0NIM10pW0NIMl1bTkhdQyg9TylbQ0gyXW4yW2NIXVtjSF1jKD1PKVtuSF1jMj1P

> <s_epik_cmdline>
J2VwaWtfcHl0aG9uJywgJy1waCcsICc3LjAnLCAnLXRuJywgJzgnLCAnLW1hJywgJzIwMCcsICctbWV0YWxfYmluZGluZycsICctaW1hZScsICc8aW5maWxlLm1hZT4nLCAnLW9tYWUnLCAnPG91dGZpbGUubWFlPic=

> <r_lp_tautomer_probability>
1

> <r_epik_Ionization_Penalty>
0.00705217

> <r_epik_Ionization_Penalty_Charging>
0.00705209

> <r_epik_Ionization_Penalty_Neutral>
7.66101e-08

> <r_epik_State_Penalty>
-0

> <r_epik_Charging_Adjusted_Penalty>
0.00705209

> <i_epik_Tot_Q>
1

> <i_epik_Tot_abs_Q>
1

> <r_epik_Metal_State_Penalty>
0.375122

> <b_epik_Metal_Only>
0

> <s_lp_Force_Field>
OPLS_2005

> <r_lp_Energy>
35.9588

> <b_lp_Chiralities_Consistent>
1

> <s_lp_Variant>
AV-unprocessed.smi:1552-1

> <Gold.Version>
5.8.1

> <Gold.Id.Protein>
6NUR|6NUR_protein|mol2

> <Gold.PLP.Fitness>
42.3134

> <Gold.PLP.PLP>
-33.4015

> <Gold.PLP.part.hbond>
-2.4719

> <Gold.PLP.part.metal>
0.0000

> <Gold.PLP.part.buried>
-2.7655

> <Gold.PLP.part.nonpolar>
-29.7056

> <Gold.PLP.part.repulsive>
0.3073

> <Gold.PLP.ligand.clash>
0.0000

> <Gold.PLP.ligand.torsion>
1.5867

> <Gold.PLP.Chemscore.Hbond>
2.8800

> <Gold.PLP.Chemscore.CHOScore>
1.0000

> <Gold.PLP.Chemscore.Metal>
0.0000

> <Gold.Chemscore.Hbonds>
donor molecule, donor type, donor heavy atom, donor atom, acceptor molecule, acceptor atom, score
      L1  H     2    50       P1  8028  2.00
      P1  H  7997  8008       L1     8  0.34
      P1  H 10752 10764       L1    17  0.21
      L1  C    11    37       P1  7948  0.08

> <Gold.PLP.Chemscore.Internal.Correction>
0.4453

> <Gold.Rescore>
     Score         DG    S(hbond)    S(metal)    S(lipo)     H(rot)  DE(clash)    DE(int)     intcor
     14.35     -18.18       2.25        0.00      98.79       2.50       0.57       3.26       ----

> <Gold.Chemscore.Fitness>
14.3537

> <Gold.Chemscore.DG>
-18.1757

> <Gold.Chemscore.ZeroCoef>
-5.4800

> <Gold.Chemscore.Hbond>
2.2541

> <Gold.Chemscore.Metal>
0.0000

> <Gold.Chemscore.Lipo>
98.7933

> <Gold.Chemscore.Internal_Hbond>
0.0000

> <Gold.Chemscore.DEClash>
0.5662

> <Gold.Chemscore.DEInternal>
3.2558

> <Gold.Chemscore.Rot>
2.4968

> <Gold.Chemscore.Internal.Correction>
   9.000000E+99

> <Gold.Chemscore.Hbonds>
donor molecule, donor type, donor heavy atom, donor atom, acceptor molecule, acceptor atom, score
      L1  H     2    50       P1  8028  0.89
      P1  H  7997  8008       L1     8  0.34
      P1  H 10752 10764       L1    17  0.01

> <Gold.Chemscore.Hbond.Weighted>
-7.5286

> <Gold.Chemscore.Metal.Weighted>
-0.0000

> <Gold.Chemscore.Lipo.Weighted>
-11.5588

> <Gold.Chemscore.Internal_Hbond.Weighted>
0.0000

> <Gold.Chemscore.DEClash.Weighted>
0.5662

> <Gold.Chemscore.DEInternal.Weighted>
3.2558

> <Gold.Chemscore.Rot.Weighted>
6.3917

> <Gold.Chemscore.Internal.Correction.Weighted>
   9.000000E+99

> <Gold.Protein.RotatedTorsions>
[ 6907 6896 6895 6894 ] final  -56.51 input  -60.11 | X-H torsion
[ 7974 7965 7964 7962 ] final   52.91 input  175.53 | X-H torsion
[ 8008 7997 7996 7995 ] final  -80.29 input   59.86 | X-H torsion
[ 10167 10162 10161 10158 ] final  161.37 input  -65.29 | X-H torsion
[ 10718 10713 10712 10709 ] final  -78.66 input   66.30 | X-H torsion
[ 10763 10752 10751 10750 ] final   16.90 input  -60.55 | X-H torsion
[ 11005 11000 10999 10996 ] final   96.50 input  -57.11 | X-H torsion

> <Gold.Protein.ActiveResidues>
 VAL166  LYS551  ARG553  GLY616  TRP617  ASP618  TYR619  PRO620  LYS621  CYS622 
 ASP623  PHE694  ASN695  SER759  ASP760  ASP761  ALA762  ILE779  LEU786  VAL792 
 PHE793  MET794  SER795  GLU796  ALA797  LYS798  CYS799  TRP800  GLU811  SER814 

> <Gold.Protein.RotatedAtoms>
  150.8162  134.7344  159.6731 H   0  0  0  0  0  0  0  0  0  0  0  0  # atno 6907 bound_to 6896
  152.4280  134.5828  159.9962 H   0  0  0  0  0  0  0  0  0  0  0  0  # atno 6908 bound_to 6896
  151.6025  133.3318  159.3086 H   0  0  0  0  0  0  0  0  0  0  0  0  # atno 6909 bound_to 6896
  145.9766  139.4201  143.0158 H   0  0  0  0  0  0  0  0  0  0  0  0  # atno 7974 bound_to 7965
  154.5869  140.0665  156.9184 H   0  0  0  0  0  0  0  0  0  0  0  0  # atno 8008 bound_to 7997
  155.2364  140.3341  155.4279 H   0  0  0  0  0  0  0  0  0  0  0  0  # atno 8009 bound_to 7997
  156.2229  140.1806  156.7419 H   0  0  0  0  0  0  0  0  0  0  0  0  # atno 8010 bound_to 7997
  139.4849  144.4543  151.8789 H   0  0  0  0  0  0  0  0  0  0  0  0  # atno 10167 bound_to 10162
  156.0112  130.4524  150.3529 H   0  0  0  0  0  0  0  0  0  0  0  0  # atno 10718 bound_to 10713
  153.1388  135.6755  153.9060 H   0  0  0  0  0  0  0  0  0  0  0  0  # atno 10763 bound_to 10752
  153.8523  135.3091  155.3434 H   0  0  0  0  0  0  0  0  0  0  0  0  # atno 10764 bound_to 10752
  154.7770  135.4909  153.9848 H   0  0  0  0  0  0  0  0  0  0  0  0  # atno 10765 bound_to 10752
  139.8781  134.8954  156.4169 H   0  0  0  0  0  0  0  0  0  0  0  0  # atno 11005 bound_to 11000
  145.7830  140.9848  143.1089 LP  0  0  0  0  0  0  0  0  0  0  0  0  # atno 17320 bound_to 7965
  144.6850  139.9588  143.7480 LP  0  0  0  0  0  0  0  0  0  0  0  0  # atno 17321 bound_to 7965
  140.4001  144.2504  150.5893 LP  0  0  0  0  0  0  0  0  0  0  0  0  # atno 17342 bound_to 10162
  140.5065  143.2303  151.8601 LP  0  0  0  0  0  0  0  0  0  0  0  0  # atno 17343 bound_to 10162
  157.1621  131.0347  151.2836 LP  0  0  0  0  0  0  0  0  0  0  0  0  # atno 17370 bound_to 10713
  157.4302  130.7486  149.6984 LP  0  0  0  0  0  0  0  0  0  0  0  0  # atno 17371 bound_to 10713
  140.9161  133.7677  155.9850 LP  0  0  0  0  0  0  0  0  0  0  0  0  # atno 17394 bound_to 11000
  140.8492  134.2975  157.5282 LP  0  0  0  0  0  0  0  0  0  0  0  0  # atno 17395 bound_to 11000

$$$$
