AV-unprocessed.smi:3012|AV-procd|sdf|11463|dock3
  -GOLD-   2272016403D 1   1.00000     0.00000
 Structure written by MMmdl.
 16 16  0  0  0  0  0  0  0  0  3 V2000
  152.3181  136.6391  156.5227 O   0  0  0  0  0  0  0  0  0  0  0  0
  152.4873  137.8638  156.3295 C   0  0  0  0  0  0  0  0  0  0  0  0
  153.1594  138.6199  157.0664 O   0  5  0  0  0  0  0  0  0  0  0  0
  151.8328  138.4569  155.0742 C   0  0  0  0  0  0  0  0  0  0  0  0
  150.9587  139.6873  155.3155 C   0  0  0  0  0  0  0  0  0  0  0  0
  150.7317  140.1424  156.6080 C   0  0  0  0  0  0  0  0  0  0  0  0
  149.8675  141.2995  156.8121 C   0  0  0  0  0  0  0  0  0  0  0  0
  149.6089  141.7872  157.9110 O   0  0  0  0  0  0  0  0  0  0  0  0
  149.3528  141.8099  155.6660 N   0  0  0  0  0  0  0  0  0  0  0  0
  149.5650  141.3483  154.4063 C   0  0  0  0  0  0  0  0  0  0  0  0
  149.0045  141.9396  153.4858 O   0  0  0  0  0  0  0  0  0  0  0  0
  150.3755  140.2647  154.2313 N   0  5  0  0  0  0  0  0  0  0  0  0
  148.7486  142.6129  155.7574 H   0  0  0  0  0  0  0  0  0  0  0  0
  152.6294  138.6875  154.3655 H   0  0  0  0  0  0  0  0  0  0  0  0
  151.2302  137.6812  154.5999 H   0  0  0  0  0  0  0  0  0  0  0  0
  151.1884  139.6537  157.4561 H   0  0  0  0  0  0  0  0  0  0  0  0
  1  2  2  0  0  0  0
  2  3  1  0  0  0  0
  2  4  1  0  0  0  0
  4  5  1  0  0  0  0
  4 14  1  0  0  0  0
  4 15  1  0  0  0  0
  5 12  1  0  0  0  0
  5  6  2  0  0  0  0
  6  7  1  0  0  0  0
  6 16  1  0  0  0  0
  7  8  2  0  0  0  0
  7  9  1  0  0  0  0
  9 13  1  0  0  0  0
  9 10  1  0  0  0  0
 10 11  2  0  0  0  0
 10 12  1  0  0  0  0
M  CHG  1   3  -1
M  CHG  1  12  -1
M  END
> <s_m_source_file>
AV-unprocessed.smi

> <i_m_source_file_index>
3012

> <i_lp_mmshare_version>
43012

> <i_f3d_flags>
0

> <s_epik_input>
Tz1DKFtPSF0pW0NIMl1jMVtjSF1jKD1PKVtuSF1jKD1PKVtuSF0x

> <s_epik_cmdline>
J2VwaWtfcHl0aG9uJywgJy1waCcsICc3LjAnLCAnLXRuJywgJzgnLCAnLW1hJywgJzIwMCcsICctbWV0YWxfYmluZGluZycsICctaW1hZScsICc8aW5maWxlLm1hZT4nLCAnLW9tYWUnLCAnPG91dGZpbGUubWFlPic=

> <r_lp_tautomer_probability>
1

> <r_epik_Ionization_Penalty>
4.12951

> <r_epik_Ionization_Penalty_Charging>
0.000885541

> <r_epik_Ionization_Penalty_Neutral>
4.12862

> <r_epik_State_Penalty>
4.12806

> <r_epik_Charging_Adjusted_Penalty>
4.12895

> <i_epik_Tot_Q>
-2

> <i_epik_Tot_abs_Q>
2

> <r_epik_Metal_State_Penalty>
0.707998

> <b_epik_Metal_Only>
1

> <s_lp_Force_Field>
OPLS_2005

> <r_lp_Energy>
11.7888

> <b_lp_Chiralities_Consistent>
1

> <s_lp_Variant>
AV-unprocessed.smi:3012-3

> <Gold.Version>
5.8.1

> <Gold.Id.Protein>
6NUR|6NUR_protein|mol2

> <Gold.PLP.Fitness>
37.5243

> <Gold.PLP.PLP>
-21.4988

> <Gold.PLP.part.hbond>
-4.7677

> <Gold.PLP.part.metal>
0.0000

> <Gold.PLP.part.buried>
-2.9832

> <Gold.PLP.part.nonpolar>
-14.4009

> <Gold.PLP.part.repulsive>
0.5019

> <Gold.PLP.ligand.clash>
0.0000

> <Gold.PLP.ligand.torsion>
0.0610

> <Gold.PLP.Chemscore.Hbond>
5.3808

> <Gold.PLP.Chemscore.CHOScore>
0.0000

> <Gold.PLP.Chemscore.Metal>
0.0000

> <Gold.Chemscore.Hbonds>
donor molecule, donor type, donor heavy atom, donor atom, acceptor molecule, acceptor atom, score
      L1  H     9    13       P1  8028  0.64
      P1  H  7989  7998       L1    12  1.00
      P1  H  7997  8009       L1     3  1.79
      P1  H  8011  8017       L1    11  0.47
      P1  H 10752 10765       L1     1  1.95

> <Gold.PLP.Chemscore.Internal.Correction>
0.0051

> <Gold.Rescore>
     Score         DG    S(hbond)    S(metal)    S(lipo)     H(rot)  DE(clash)    DE(int)     intcor
     12.39     -14.13       3.17        0.00      20.12       1.68       0.06       1.68       ----

> <Gold.Chemscore.Fitness>
12.3949

> <Gold.Chemscore.DG>
-14.1256

> <Gold.Chemscore.ZeroCoef>
-5.4800

> <Gold.Chemscore.Hbond>
3.1748

> <Gold.Chemscore.Metal>
0.0000

> <Gold.Chemscore.Lipo>
20.1219

> <Gold.Chemscore.Internal_Hbond>
0.0000

> <Gold.Chemscore.DEClash>
0.0557

> <Gold.Chemscore.DEInternal>
1.6750

> <Gold.Chemscore.Rot>
1.6846

> <Gold.Chemscore.Internal.Correction>
   9.000000E+99

> <Gold.Chemscore.Hbonds>
donor molecule, donor type, donor heavy atom, donor atom, acceptor molecule, acceptor atom, score
      L1  H     9    13       P1  8028  0.62
      P1  H  7989  7998       L1    12  0.13
      P1  H  7997  8009       L1     3  0.84
      P1  H  8011  8017       L1    11  0.46
      P1  H 10752 10765       L1     1  0.74

> <Gold.Chemscore.Hbond.Weighted>
-10.6040

> <Gold.Chemscore.Metal.Weighted>
-0.0000

> <Gold.Chemscore.Lipo.Weighted>
-2.3543

> <Gold.Chemscore.Internal_Hbond.Weighted>
0.0000

> <Gold.Chemscore.DEClash.Weighted>
0.0557

> <Gold.Chemscore.DEInternal.Weighted>
1.6750

> <Gold.Chemscore.Rot.Weighted>
4.3126

> <Gold.Chemscore.Internal.Correction.Weighted>
   9.000000E+99

> <Gold.Protein.RotatedTorsions>
[ 6907 6896 6895 6894 ] final  148.54 input  -60.11 | X-H torsion
[ 7974 7965 7964 7962 ] final -141.36 input  175.53 | X-H torsion
[ 8008 7997 7996 7995 ] final -165.02 input   59.86 | X-H torsion
[ 10167 10162 10161 10158 ] final -147.67 input  -65.29 | X-H torsion
[ 10718 10713 10712 10709 ] final   11.86 input   66.30 | X-H torsion
[ 10763 10752 10751 10750 ] final -150.41 input  -60.55 | X-H torsion
[ 11005 11000 10999 10996 ] final  -94.90 input  -57.11 | X-H torsion

> <Gold.Protein.ActiveResidues>
 VAL166  LYS551  ARG553  GLY616  TRP617  ASP618  TYR619  PRO620  LYS621  CYS622 
 ASP623  PHE694  ASN695  SER759  ASP760  ASP761  ALA762  ILE779  LEU786  VAL792 
 PHE793  MET794  SER795  GLU796  ALA797  LYS798  CYS799  TRP800  GLU811  SER814 

> <Gold.Protein.RotatedAtoms>
  152.1401  133.4459  159.4762 H   0  0  0  0  0  0  0  0  0  0  0  0  # atno 6907 bound_to 6896
  150.6885  134.2316  159.4445 H   0  0  0  0  0  0  0  0  0  0  0  0  # atno 6908 bound_to 6896
  152.0206  134.9824  160.0621 H   0  0  0  0  0  0  0  0  0  0  0  0  # atno 6909 bound_to 6896
  144.8525  140.6089  143.5381 H   0  0  0  0  0  0  0  0  0  0  0  0  # atno 7974 bound_to 7965
  155.8438  140.0952  157.1718 H   0  0  0  0  0  0  0  0  0  0  0  0  # atno 8008 bound_to 7997
  154.3983  140.1396  156.3822 H   0  0  0  0  0  0  0  0  0  0  0  0  # atno 8009 bound_to 7997
  155.8035  140.3452  155.5419 H   0  0  0  0  0  0  0  0  0  0  0  0  # atno 8010 bound_to 7997
  139.7601  143.8390  152.2605 H   0  0  0  0  0  0  0  0  0  0  0  0  # atno 10167 bound_to 10162
  157.0017  130.6082  149.5697 H   0  0  0  0  0  0  0  0  0  0  0  0  # atno 10718 bound_to 10713
  154.8120  135.3285  154.7279 H   0  0  0  0  0  0  0  0  0  0  0  0  # atno 10763 bound_to 10752
  153.7926  135.6910  153.4873 H   0  0  0  0  0  0  0  0  0  0  0  0  # atno 10764 bound_to 10752
  153.1906  135.4552  155.0091 H   0  0  0  0  0  0  0  0  0  0  0  0  # atno 10765 bound_to 10752
  141.1457  133.7988  157.0362 H   0  0  0  0  0  0  0  0  0  0  0  0  # atno 11005 bound_to 11000
  145.4471  139.1528  143.3939 LP  0  0  0  0  0  0  0  0  0  0  0  0  # atno 17320 bound_to 7965
  146.2796  140.4595  142.8781 LP  0  0  0  0  0  0  0  0  0  0  0  0  # atno 17321 bound_to 7965
  139.8394  144.7217  150.9350 LP  0  0  0  0  0  0  0  0  0  0  0  0  # atno 17342 bound_to 10162
  140.7806  143.3997  151.1169 LP  0  0  0  0  0  0  0  0  0  0  0  0  # atno 17343 bound_to 10162
  156.0168  130.5263  150.8159 LP  0  0  0  0  0  0  0  0  0  0  0  0  # atno 17370 bound_to 10713
  157.5385  131.0940  150.9859 LP  0  0  0  0  0  0  0  0  0  0  0  0  # atno 17371 bound_to 10713
  140.0722  134.9696  157.1487 LP  0  0  0  0  0  0  0  0  0  0  0  0  # atno 17394 bound_to 11000
  140.3694  134.2407  155.7179 LP  0  0  0  0  0  0  0  0  0  0  0  0  # atno 17395 bound_to 11000

$$$$
