AV-unprocessed.smi:2046|AV-procd|sdf|8311|dock3
  -GOLD-   2272010573D 1   1.00000     0.00000
 Structure written by MMmdl.
 30 31  0  0  0  0  0  0  0  0  1 V2000
  150.0606  140.6231  156.8984 O   0  0  0  0  0  0  0  0  0  0  0  0
  149.8834  141.7122  156.3514 C   0  0  0  0  0  0  0  0  0  0  0  0
  150.4709  142.8675  156.7096 N   0  0  0  0  0  0  0  0  0  0  0  0
  151.3975  143.0953  157.7614 C   0  0  0  0  0  0  0  0  0  0  0  0
  151.8283  144.3141  158.1238 N   0  0  0  0  0  0  0  0  0  0  0  0
  152.7300  144.2540  159.1787 N   0  0  0  0  0  0  0  0  0  0  0  0
  152.9433  142.9945  159.5699 C   0  0  0  0  0  0  0  0  0  0  0  0
  152.0636  141.7581  158.6879 S   0  0  0  0  0  0  0  0  0  0  0  0
  149.0643  141.8901  155.3047 N   0  0  0  0  0  0  0  0  0  0  0  0
  148.2459  140.8539  154.6746 C   0  0  2  0  0  0  0  0  0  0  0  0
  147.1206  140.3857  155.6330 C   0  0  0  0  0  0  0  0  0  0  0  0
  146.5640  138.9681  155.3841 C   0  0  0  0  0  0  0  0  0  0  0  0
  146.0852  138.6854  153.9456 C   0  0  0  0  0  0  0  0  0  0  0  0
  147.1093  138.9274  152.8106 C   0  0  0  0  0  0  0  0  0  0  0  0
  148.5080  138.8632  153.2336 N   0  0  0  0  0  0  0  0  0  0  0  0
  149.1074  139.7288  154.0693 C   0  0  0  0  0  0  0  0  0  0  0  0
  150.2975  139.6191  154.3625 O   0  0  0  0  0  0  0  0  0  0  0  0
  150.2247  143.6817  156.1663 H   0  0  0  0  0  0  0  0  0  0  0  0
  153.6239  142.7921  160.3836 H   0  0  0  0  0  0  0  0  0  0  0  0
  148.9773  142.8204  154.9217 H   0  0  0  0  0  0  0  0  0  0  0  0
  147.7662  141.3320  153.8195 H   0  0  0  0  0  0  0  0  0  0  0  0
  147.4854  140.4170  156.6608 H   0  0  0  0  0  0  0  0  0  0  0  0
  146.3013  141.1046  155.5918 H   0  0  0  0  0  0  0  0  0  0  0  0
  147.3157  138.2291  155.6646 H   0  0  0  0  0  0  0  0  0  0  0  0
  145.7325  138.7963  156.0681 H   0  0  0  0  0  0  0  0  0  0  0  0
  145.7696  137.6423  153.9049 H   0  0  0  0  0  0  0  0  0  0  0  0
  145.1867  139.2680  153.7395 H   0  0  0  0  0  0  0  0  0  0  0  0
  146.9560  138.1923  152.0201 H   0  0  0  0  0  0  0  0  0  0  0  0
  146.9240  139.8940  152.3408 H   0  0  0  0  0  0  0  0  0  0  0  0
  149.0678  138.1168  152.8475 H   0  0  0  0  0  0  0  0  0  0  0  0
  1  2  2  0  0  0  0
  2  3  1  0  0  0  0
  2  9  1  0  0  0  0
  3  4  1  0  0  0  0
  3 18  1  0  0  0  0
  4  8  1  0  0  0  0
  4  5  2  0  0  0  0
  5  6  1  0  0  0  0
  6  7  2  0  0  0  0
  7  8  1  0  0  0  0
  7 19  1  0  0  0  0
  9 10  1  0  0  0  0
  9 20  1  0  0  0  0
 10 16  1  0  0  0  0
 10 11  1  0  0  0  0
 10 21  1  0  0  0  0
 11 12  1  0  0  0  0
 11 22  1  0  0  0  0
 11 23  1  0  0  0  0
 12 13  1  0  0  0  0
 12 24  1  0  0  0  0
 12 25  1  0  0  0  0
 13 14  1  0  0  0  0
 13 26  1  0  0  0  0
 13 27  1  0  0  0  0
 14 15  1  0  0  0  0
 14 28  1  0  0  0  0
 14 29  1  0  0  0  0
 15 16  1  0  0  0  0
 15 30  1  0  0  0  0
 16 17  2  0  0  0  0
M  END
> <s_m_source_file>
AV-unprocessed.smi

> <i_m_source_file_index>
2046

> <i_lp_mmshare_version>
43012

> <i_f3d_flags>
0

> <s_epik_input>
czFbY0hdbm5jMVtOSF1DKD1PKVtOSF1bQ0BASF0yW0NIMl1bQ0gyXVtDSDJdW0NIMl1bTkhdQzI9Tw==

> <s_epik_cmdline>
J2VwaWtfcHl0aG9uJywgJy1waCcsICc3LjAnLCAnLXRuJywgJzgnLCAnLW1hJywgJzIwMCcsICctbWV0YWxfYmluZGluZycsICctaW1hZScsICc8aW5maWxlLm1hZT4nLCAnLW9tYWUnLCAnPG91dGZpbGUubWFlPic=

> <r_lp_tautomer_probability>
1

> <r_epik_Ionization_Penalty>
0.000691558

> <r_epik_Ionization_Penalty_Charging>
0

> <r_epik_Ionization_Penalty_Neutral>
0.000691558

> <r_epik_State_Penalty>
-0

> <r_epik_Charging_Adjusted_Penalty>
0

> <i_epik_Tot_Q>
0

> <i_epik_Tot_abs_Q>
0

> <r_epik_Metal_State_Penalty>
0.252698

> <b_epik_Metal_Only>
0

> <s_lp_Force_Field>
OPLS_2005

> <r_lp_Energy>
13.4172

> <b_lp_Chiralities_Consistent>
1

> <s_lp_Variant>
AV-unprocessed.smi:2046-1

> <Gold.Version>
5.8.1

> <Gold.Id.Protein>
6NUR|6NUR_protein|mol2

> <Gold.PLP.Fitness>
35.8860

> <Gold.PLP.PLP>
-25.4659

> <Gold.PLP.part.hbond>
-5.0000

> <Gold.PLP.part.metal>
0.0000

> <Gold.PLP.part.buried>
-4.2115

> <Gold.PLP.part.nonpolar>
-17.2408

> <Gold.PLP.part.repulsive>
0.5451

> <Gold.PLP.ligand.clash>
0.0000

> <Gold.PLP.ligand.torsion>
0.0438

> <Gold.PLP.Chemscore.Hbond>
3.4851

> <Gold.PLP.Chemscore.CHOScore>
0.0000

> <Gold.PLP.Chemscore.Metal>
0.0000

> <Gold.Chemscore.Hbonds>
donor molecule, donor type, donor heavy atom, donor atom, acceptor molecule, acceptor atom, score
      L1  H     3    18       P1  8028  0.91
      L1  H     9    20       P1  8028  0.75
      L1  H    15    30       P1  7948  0.74
      P1  H  7989  7998       L1    17  1.00

> <Gold.PLP.Chemscore.Internal.Correction>
0.0524

> <Gold.Rescore>
     Score         DG    S(hbond)    S(metal)    S(lipo)     H(rot)  DE(clash)    DE(int)     intcor
     14.60     -18.57       3.29        0.00      39.92       1.00       0.12       3.84       ----

> <Gold.Chemscore.Fitness>
14.5980

> <Gold.Chemscore.DG>
-18.5664

> <Gold.Chemscore.ZeroCoef>
-5.4800

> <Gold.Chemscore.Hbond>
3.2861

> <Gold.Chemscore.Metal>
0.0000

> <Gold.Chemscore.Lipo>
39.9220

> <Gold.Chemscore.Internal_Hbond>
0.0000

> <Gold.Chemscore.DEClash>
0.1243

> <Gold.Chemscore.DEInternal>
3.8440

> <Gold.Chemscore.Rot>
1.0000

> <Gold.Chemscore.Internal.Correction>
   9.000000E+99

> <Gold.Chemscore.Hbonds>
donor molecule, donor type, donor heavy atom, donor atom, acceptor molecule, acceptor atom, score
      L1  H     3    18       P1  8028  0.88
      L1  H     9    20       P1  8028  0.71
      L1  H    15    30       P1  7948  0.71
      P1  H  7989  7998       L1    17  0.90

> <Gold.Chemscore.Hbond.Weighted>
-10.9755

> <Gold.Chemscore.Metal.Weighted>
-0.0000

> <Gold.Chemscore.Lipo.Weighted>
-4.6709

> <Gold.Chemscore.Internal_Hbond.Weighted>
0.0000

> <Gold.Chemscore.DEClash.Weighted>
0.1243

> <Gold.Chemscore.DEInternal.Weighted>
3.8440

> <Gold.Chemscore.Rot.Weighted>
2.5600

> <Gold.Chemscore.Internal.Correction.Weighted>
   9.000000E+99

> <Gold.Protein.RotatedTorsions>
[ 6907 6896 6895 6894 ] final  -58.76 input  -60.11 | X-H torsion
[ 7974 7965 7964 7962 ] final    7.59 input  175.53 | X-H torsion
[ 8008 7997 7996 7995 ] final -158.00 input   59.86 | X-H torsion
[ 10167 10162 10161 10158 ] final -137.51 input  -65.29 | X-H torsion
[ 10718 10713 10712 10709 ] final  -91.57 input   66.30 | X-H torsion
[ 10763 10752 10751 10750 ] final  -72.94 input  -60.55 | X-H torsion
[ 11005 11000 10999 10996 ] final -118.15 input  -57.11 | X-H torsion

> <Gold.Protein.ActiveResidues>
 VAL166  LYS551  ARG553  GLY616  TRP617  ASP618  TYR619  PRO620  LYS621  CYS622 
 ASP623  PHE694  ASN695  SER759  ASP760  ASP761  ALA762  ILE779  LEU786  VAL792 
 PHE793  MET794  SER795  GLU796  ALA797  LYS798  CYS799  TRP800  GLU811  SER814 

> <Gold.Protein.RotatedAtoms>
  150.7982  134.7057  159.6574 H   0  0  0  0  0  0  0  0  0  0  0  0  # atno 6907 bound_to 6896
  152.4096  134.6143  160.0044 H   0  0  0  0  0  0  0  0  0  0  0  0  # atno 6908 bound_to 6896
  151.6390  133.3290  159.3162 H   0  0  0  0  0  0  0  0  0  0  0  0  # atno 6909 bound_to 6896
  146.2425  140.0060  142.8411 H   0  0  0  0  0  0  0  0  0  0  0  0  # atno 7974 bound_to 7965
  155.7409  140.0814  157.2246 H   0  0  0  0  0  0  0  0  0  0  0  0  # atno 8008 bound_to 7997
  154.4022  140.1578  156.2670 H   0  0  0  0  0  0  0  0  0  0  0  0  # atno 8009 bound_to 7997
  155.9021  140.3409  155.6037 H   0  0  0  0  0  0  0  0  0  0  0  0  # atno 8010 bound_to 7997
  139.8570  143.7125  152.2653 H   0  0  0  0  0  0  0  0  0  0  0  0  # atno 10167 bound_to 10162
  155.9995  130.4953  150.5495 H   0  0  0  0  0  0  0  0  0  0  0  0  # atno 10718 bound_to 10713
  154.4526  135.5913  153.6202 H   0  0  0  0  0  0  0  0  0  0  0  0  # atno 10763 bound_to 10752
  152.9815  135.6024  154.3585 H   0  0  0  0  0  0  0  0  0  0  0  0  # atno 10764 bound_to 10752
  154.3448  135.2841  155.2382 H   0  0  0  0  0  0  0  0  0  0  0  0  # atno 10765 bound_to 10752
  141.0305  133.9988  157.3149 H   0  0  0  0  0  0  0  0  0  0  0  0  # atno 11005 bound_to 11000
  145.1372  140.9551  143.4510 LP  0  0  0  0  0  0  0  0  0  0  0  0  # atno 17320 bound_to 7965
  145.0331  139.3324  143.6014 LP  0  0  0  0  0  0  0  0  0  0  0  0  # atno 17321 bound_to 7965
  139.7410  144.7559  151.0652 LP  0  0  0  0  0  0  0  0  0  0  0  0  # atno 17342 bound_to 10162
  140.7780  143.4972  150.9817 LP  0  0  0  0  0  0  0  0  0  0  0  0  # atno 17343 bound_to 10162
  157.3420  131.0718  151.1781 LP  0  0  0  0  0  0  0  0  0  0  0  0  # atno 17370 bound_to 10713
  157.2626  130.6666  149.5981 LP  0  0  0  0  0  0  0  0  0  0  0  0  # atno 17371 bound_to 10713
  139.9205  135.0200  156.8045 LP  0  0  0  0  0  0  0  0  0  0  0  0  # atno 17394 bound_to 11000
  140.6414  133.9814  155.7709 LP  0  0  0  0  0  0  0  0  0  0  0  0  # atno 17395 bound_to 11000

$$$$
