AV-unprocessed.smi:311|AV-procd|sdf|2302|dock10
  -GOLD-   2262022203D 1   1.00000     0.00000
 Structure written by MMmdl.
 44 46  0  0  0  0  0  0  0  0  2 V2000
  150.2794  135.1563  156.8476 C   0  0  0  0  0  0  0  0  0  0  0  0
  150.3683  133.6875  156.5491 C   0  0  0  0  0  0  0  0  0  0  0  0
  150.7107  132.8445  157.5089 N   0  0  0  0  0  0  0  0  0  0  0  0
  150.7076  131.5751  156.9227 O   0  0  0  0  0  0  0  0  0  0  0  0
  150.3581  131.7054  155.6177 C   0  0  0  0  0  0  0  0  0  0  0  0
  150.3022  130.4515  154.8129 C   0  0  0  0  0  0  0  0  0  0  0  0
  150.1237  133.0188  155.3154 C   0  0  0  0  0  0  0  0  0  0  0  0
  149.7077  133.6246  153.9973 C   0  0  0  0  0  0  0  0  0  0  0  0
  148.2044  133.4596  153.7419 C   0  0  0  0  0  0  0  0  0  0  0  0
  147.6103  132.4263  154.0539 O   0  0  0  0  0  0  0  0  0  0  0  0
  147.5931  134.5067  153.1690 N   0  0  0  0  0  0  0  0  0  0  0  0
  146.1747  134.5597  152.8313 C   0  0  1  0  0  0  0  0  0  0  0  0
  145.7167  135.9077  152.2402 C   0  0  0  0  0  0  0  0  0  0  0  0
  144.6943  135.5473  151.1435 C   0  0  0  0  0  0  0  0  0  0  0  0
  144.5411  134.0816  151.2190 N   0  3  1  0  0  0  0  0  0  0  0  0
  144.0865  133.3849  149.9959 C   0  0  0  0  0  0  0  0  0  0  0  0
  143.9127  131.8831  150.3019 C   0  0  0  0  0  0  0  0  0  0  0  0
  145.1858  131.2726  150.9242 C   0  0  0  0  0  0  0  0  0  0  0  0
  145.6630  132.0958  152.1365 C   0  0  0  0  0  0  0  0  0  0  0  0
  145.8230  133.5679  151.7241 C   0  0  2  0  0  0  0  0  0  0  0  0
  150.7181  135.7455  156.0421 H   0  0  0  0  0  0  0  0  0  0  0  0
  150.8057  135.4143  157.7675 H   0  0  0  0  0  0  0  0  0  0  0  0
  149.2409  135.4679  156.9597 H   0  0  0  0  0  0  0  0  0  0  0  0
  150.4477  130.6615  153.7531 H   0  0  0  0  0  0  0  0  0  0  0  0
  149.3367  129.9599  154.9322 H   0  0  0  0  0  0  0  0  0  0  0  0
  151.0792  129.7537  155.1256 H   0  0  0  0  0  0  0  0  0  0  0  0
  149.9458  134.6883  153.9627 H   0  0  0  0  0  0  0  0  0  0  0  0
  150.2543  133.1660  153.1722 H   0  0  0  0  0  0  0  0  0  0  0  0
  148.1511  135.3182  152.9453 H   0  0  0  0  0  0  0  0  0  0  0  0
  145.5758  134.3323  153.7159 H   0  0  0  0  0  0  0  0  0  0  0  0
  145.2794  136.5444  153.0103 H   0  0  0  0  0  0  0  0  0  0  0  0
  146.5522  136.4541  151.7998 H   0  0  0  0  0  0  0  0  0  0  0  0
  143.7346  136.0435  151.2896 H   0  0  0  0  0  0  0  0  0  0  0  0
  145.0795  135.8353  150.1641 H   0  0  0  0  0  0  0  0  0  0  0  0
  143.1414  133.8128  149.6600 H   0  0  0  0  0  0  0  0  0  0  0  0
  144.8113  133.5305  149.1933 H   0  0  0  0  0  0  0  0  0  0  0  0
  143.0782  131.7507  150.9918 H   0  0  0  0  0  0  0  0  0  0  0  0
  143.6463  131.3442  149.3920 H   0  0  0  0  0  0  0  0  0  0  0  0
  145.0006  130.2398  151.2212 H   0  0  0  0  0  0  0  0  0  0  0  0
  145.9764  131.2409  150.1735 H   0  0  0  0  0  0  0  0  0  0  0  0
  144.9426  132.0088  152.9511 H   0  0  0  0  0  0  0  0  0  0  0  0
  146.6086  131.7014  152.5100 H   0  0  0  0  0  0  0  0  0  0  0  0
  146.5652  133.6432  150.9256 H   0  0  0  0  0  0  0  0  0  0  0  0
  143.8570  133.9019  151.9401 H   0  0  0  0  0  0  0  0  0  0  0  0
  1  2  1  0  0  0  0
  1 21  1  0  0  0  0
  1 22  1  0  0  0  0
  1 23  1  0  0  0  0
  2  7  1  0  0  0  0
  2  3  2  0  0  0  0
  3  4  1  0  0  0  0
  4  5  1  0  0  0  0
  5  6  1  0  0  0  0
  5  7  2  0  0  0  0
  6 24  1  0  0  0  0
  6 25  1  0  0  0  0
  6 26  1  0  0  0  0
  7  8  1  0  0  0  0
  8  9  1  0  0  0  0
  8 27  1  0  0  0  0
  8 28  1  0  0  0  0
  9 10  2  0  0  0  0
  9 11  1  0  0  0  0
 11 12  1  0  0  0  0
 11 29  1  0  0  0  0
 12 20  1  0  0  0  0
 12 13  1  0  0  0  0
 12 30  1  0  0  0  0
 13 14  1  0  0  0  0
 13 31  1  0  0  0  0
 13 32  1  0  0  0  0
 14 15  1  0  0  0  0
 14 33  1  0  0  0  0
 14 34  1  0  0  0  0
 15 20  1  0  0  0  0
 15 16  1  0  0  0  0
 15 44  1  0  0  0  0
 16 17  1  0  0  0  0
 16 35  1  0  0  0  0
 16 36  1  0  0  0  0
 17 18  1  0  0  0  0
 17 37  1  0  0  0  0
 17 38  1  0  0  0  0
 18 19  1  0  0  0  0
 18 39  1  0  0  0  0
 18 40  1  0  0  0  0
 19 20  1  0  0  0  0
 19 41  1  0  0  0  0
 19 42  1  0  0  0  0
 20 43  1  0  0  0  0
M  CHG  1  15   1
M  END
> <s_m_source_file>
AV-unprocessed.smi

> <i_m_source_file_index>
311

> <i_lp_mmshare_version>
43012

> <i_f3d_flags>
0

> <s_epik_input>
W0NIM11jMW5vYyhbQ0gzXSljMVtDSDJdQyg9TylbTkhdW0NASF0oW0NIMl1bQ0gyXTIpW0NAQEhdKE4yMylbQ0gyXVtDSDJdW0NIMl1bQ0gyXTM=

> <s_epik_cmdline>
J2VwaWtfcHl0aG9uJywgJy1waCcsICc3LjAnLCAnLXRuJywgJzgnLCAnLW1hJywgJzIwMCcsICctbWV0YWxfYmluZGluZycsICctaW1hZScsICc8aW5maWxlLm1hZT4nLCAnLW9tYWUnLCAnPG91dGZpbGUubWFlPic=

> <r_epik_Ionization_Penalty>
0.00173669

> <r_epik_Ionization_Penalty_Charging>
0.0017366

> <r_epik_Ionization_Penalty_Neutral>
9.2145e-08

> <r_epik_State_Penalty>
0.00117499

> <r_epik_Charging_Adjusted_Penalty>
0.00291159

> <i_epik_Tot_Q>
1

> <i_epik_Tot_abs_Q>
1

> <r_epik_Metal_State_Penalty>
-0

> <b_epik_Metal_Only>
0

> <s_lp_Force_Field>
OPLS_2005

> <r_lp_Energy>
29.9852

> <b_lp_Chiralities_Consistent>
1

> <s_lp_Variant>
AV-unprocessed.smi:311-6

> <Gold.Version>
5.8.1

> <Gold.Id.Protein>
6NUR|6NUR_protein|mol2

> <Gold.PLP.Fitness>
39.0298

> <Gold.PLP.PLP>
-34.2230

> <Gold.PLP.part.hbond>
-1.9696

> <Gold.PLP.part.metal>
0.0000

> <Gold.PLP.part.buried>
-5.1384

> <Gold.PLP.part.nonpolar>
-27.0640

> <Gold.PLP.part.repulsive>
0.0557

> <Gold.PLP.ligand.clash>
0.0000

> <Gold.PLP.ligand.torsion>
0.6015

> <Gold.PLP.Chemscore.Hbond>
2.0000

> <Gold.PLP.Chemscore.CHOScore>
0.0000

> <Gold.PLP.Chemscore.Metal>
0.0000

> <Gold.Chemscore.Hbonds>
donor molecule, donor type, donor heavy atom, donor atom, acceptor molecule, acceptor atom, score
      L1  H    11    29       P1  7948  0.98
      P1  H  6896  6909       L1     3  1.00

> <Gold.PLP.Chemscore.Internal.Correction>
0.0097

> <Gold.Rescore>
     Score         DG    S(hbond)    S(metal)    S(lipo)     H(rot)  DE(clash)    DE(int)     intcor
     16.48     -18.45       1.89        0.00      86.68       1.36       0.15       1.82       ----

> <Gold.Chemscore.Fitness>
16.4817

> <Gold.Chemscore.DG>
-18.4550

> <Gold.Chemscore.ZeroCoef>
-5.4800

> <Gold.Chemscore.Hbond>
1.8882

> <Gold.Chemscore.Metal>
0.0000

> <Gold.Chemscore.Lipo>
86.6801

> <Gold.Chemscore.Internal_Hbond>
0.0000

> <Gold.Chemscore.DEClash>
0.1509

> <Gold.Chemscore.DEInternal>
1.8224

> <Gold.Chemscore.Rot>
1.3567

> <Gold.Chemscore.Internal.Correction>
   9.000000E+99

> <Gold.Chemscore.Hbonds>
donor molecule, donor type, donor heavy atom, donor atom, acceptor molecule, acceptor atom, score
      L1  H    11    29       P1  7948  0.92
      P1  H  6896  6909       L1     3  0.96

> <Gold.Chemscore.Hbond.Weighted>
-6.3065

> <Gold.Chemscore.Metal.Weighted>
-0.0000

> <Gold.Chemscore.Lipo.Weighted>
-10.1416

> <Gold.Chemscore.Internal_Hbond.Weighted>
0.0000

> <Gold.Chemscore.DEClash.Weighted>
0.1509

> <Gold.Chemscore.DEInternal.Weighted>
1.8224

> <Gold.Chemscore.Rot.Weighted>
3.4731

> <Gold.Chemscore.Internal.Correction.Weighted>
   9.000000E+99

> <Gold.Protein.RotatedTorsions>
[ 6907 6896 6895 6894 ] final  -39.99 input  -60.11 | X-H torsion
[ 7974 7965 7964 7962 ] final   75.67 input  175.53 | X-H torsion
[ 8008 7997 7996 7995 ] final  137.48 input   59.86 | X-H torsion
[ 10167 10162 10161 10158 ] final  152.24 input  -65.29 | X-H torsion
[ 10718 10713 10712 10709 ] final   85.67 input   66.30 | X-H torsion
[ 10763 10752 10751 10750 ] final -160.97 input  -60.55 | X-H torsion
[ 11005 11000 10999 10996 ] final    6.08 input  -57.11 | X-H torsion

> <Gold.Protein.ActiveResidues>
 VAL166  LYS551  ARG553  GLY616  TRP617  ASP618  TYR619  PRO620  LYS621  CYS622 
 ASP623  PHE694  ASN695  SER759  ASP760  ASP761  ALA762  ILE779  LEU786  VAL792 
 PHE793  MET794  SER795  GLU796  ALA797  LYS798  CYS799  TRP800  GLU811  SER814 

> <Gold.Protein.RotatedAtoms>
  150.9837  134.9187  159.7859 H   0  0  0  0  0  0  0  0  0  0  0  0  # atno 6907 bound_to 6896
  152.5230  134.3375  159.9215 H   0  0  0  0  0  0  0  0  0  0  0  0  # atno 6908 bound_to 6896
  151.3382  133.3932  159.2703 H   0  0  0  0  0  0  0  0  0  0  0  0  # atno 6909 bound_to 6896
  145.7127  139.2620  143.1641 H   0  0  0  0  0  0  0  0  0  0  0  0  # atno 7974 bound_to 7965
  156.3002  140.2418  156.3916 H   0  0  0  0  0  0  0  0  0  0  0  0  # atno 8008 bound_to 7997
  154.8609  140.0420  157.1684 H   0  0  0  0  0  0  0  0  0  0  0  0  # atno 8009 bound_to 7997
  154.8898  140.2961  155.5381 H   0  0  0  0  0  0  0  0  0  0  0  0  # atno 8010 bound_to 7997
  139.4834  144.5375  151.7621 H   0  0  0  0  0  0  0  0  0  0  0  0  # atno 10167 bound_to 10162
  157.6918  131.0184  150.2858 H   0  0  0  0  0  0  0  0  0  0  0  0  # atno 10718 bound_to 10713
  154.7344  135.3054  154.8837 H   0  0  0  0  0  0  0  0  0  0  0  0  # atno 10763 bound_to 10752
  153.9670  135.6746  153.4750 H   0  0  0  0  0  0  0  0  0  0  0  0  # atno 10764 bound_to 10752
  153.0948  135.4941  154.8681 H   0  0  0  0  0  0  0  0  0  0  0  0  # atno 10765 bound_to 10752
  140.5635  134.0170  155.7981 H   0  0  0  0  0  0  0  0  0  0  0  0  # atno 11005 bound_to 11000
  146.0698  140.7881  142.9693 LP  0  0  0  0  0  0  0  0  0  0  0  0  # atno 17320 bound_to 7965
  144.6938  140.3325  143.7213 LP  0  0  0  0  0  0  0  0  0  0  0  0  # atno 17321 bound_to 7965
  140.4909  144.1311  150.5950 LP  0  0  0  0  0  0  0  0  0  0  0  0  # atno 17342 bound_to 10162
  140.4172  143.2629  151.9760 LP  0  0  0  0  0  0  0  0  0  0  0  0  # atno 17343 bound_to 10162
  156.3397  130.3813  149.7419 LP  0  0  0  0  0  0  0  0  0  0  0  0  # atno 17370 bound_to 10713
  156.4932  130.8095  151.3103 LP  0  0  0  0  0  0  0  0  0  0  0  0  # atno 17371 bound_to 10713
  141.1100  133.9632  157.2927 LP  0  0  0  0  0  0  0  0  0  0  0  0  # atno 17394 bound_to 11000
  139.9396  135.0192  156.8666 LP  0  0  0  0  0  0  0  0  0  0  0  0  # atno 17395 bound_to 11000

$$$$
