AV-unprocessed.smi:972|AV-procd|sdf|4298|dock7
  -GOLD-   22720 2203D 1   1.00000     0.00000
 Structure written by MMmdl.
 50 52  0  0  0  0  0  0  0  0  1 V2000
  145.3379  131.6951  151.9754 C   0  0  0  0  0  0  0  0  0  0  0  0
  144.9021  132.5923  150.7928 C   0  0  0  0  0  0  0  0  0  0  0  0
  145.8561  132.2506  149.6241 C   0  0  0  0  0  0  0  0  0  0  0  0
  143.4540  132.2510  150.3960 C   0  0  0  0  0  0  0  0  0  0  0  0
  144.9939  134.0829  151.1627 C   0  0  0  0  0  0  0  0  0  0  0  0
  146.1518  134.5134  151.6810 N   0  0  0  0  0  0  0  0  0  0  0  0
  146.2024  135.7844  152.1308 C   0  0  0  0  0  0  0  0  0  0  0  0
  145.0766  136.6314  152.1055 C   0  0  0  0  0  0  0  0  0  0  0  0
  145.2086  137.9612  152.5883 N   0  0  0  0  0  0  0  0  0  0  0  0
  146.2142  138.5001  153.2984 C   0  0  0  0  0  0  0  0  0  0  0  0
  147.2345  137.9087  153.6497 O   0  0  0  0  0  0  0  0  0  0  0  0
  145.9722  139.7909  153.5675 N   0  0  0  0  0  0  0  0  0  0  0  0
  146.8551  140.6926  154.3024 C   0  0  0  0  0  0  0  0  0  0  0  0
  148.1747  140.8798  153.5369 C   0  0  0  0  0  0  0  0  0  0  0  0
  149.1854  141.6903  154.3676 C   0  0  0  0  0  0  0  0  0  0  0  0
  149.4397  141.0233  155.6449 N   0  0  0  0  0  0  0  0  0  0  0  0
  150.4294  141.7877  156.3861 C   0  0  0  0  0  0  0  0  0  0  0  0
  151.7850  141.1542  156.6016 C   0  0  0  0  0  0  0  0  0  0  0  0
  150.8204  141.2817  157.7560 C   0  0  0  0  0  0  0  0  0  0  0  0
  148.2060  140.9636  156.4290 C   0  0  0  0  0  0  0  0  0  0  0  0
  147.1522  140.1161  155.6954 C   0  0  0  0  0  0  0  0  0  0  0  0
  143.8956  136.0674  151.5667 C   0  0  0  0  0  0  0  0  0  0  0  0
  143.8600  134.7946  151.1178 N   0  0  0  0  0  0  0  0  0  0  0  0
  145.3198  130.6399  151.7007 H   0  0  0  0  0  0  0  0  0  0  0  0
  144.6791  131.8061  152.8375 H   0  0  0  0  0  0  0  0  0  0  0  0
  146.3518  131.9312  152.3008 H   0  0  0  0  0  0  0  0  0  0  0  0
  146.8880  132.5083  149.8660 H   0  0  0  0  0  0  0  0  0  0  0  0
  145.5891  132.7805  148.7090 H   0  0  0  0  0  0  0  0  0  0  0  0
  145.8314  131.1860  149.3889 H   0  0  0  0  0  0  0  0  0  0  0  0
  143.3525  131.1999  150.1243 H   0  0  0  0  0  0  0  0  0  0  0  0
  143.1269  132.8450  149.5418 H   0  0  0  0  0  0  0  0  0  0  0  0
  142.7626  132.4473  151.2164 H   0  0  0  0  0  0  0  0  0  0  0  0
  147.1499  136.1228  152.5237 H   0  0  0  0  0  0  0  0  0  0  0  0
  144.4658  138.5916  152.3238 H   0  0  0  0  0  0  0  0  0  0  0  0
  145.1058  140.1864  153.2326 H   0  0  0  0  0  0  0  0  0  0  0  0
  146.3904  141.6720  154.4304 H   0  0  0  0  0  0  0  0  0  0  0  0
  148.6065  139.9082  153.2912 H   0  0  0  0  0  0  0  0  0  0  0  0
  147.9876  141.3841  152.5882 H   0  0  0  0  0  0  0  0  0  0  0  0
  150.1197  141.7826  153.8128 H   0  0  0  0  0  0  0  0  0  0  0  0
  148.8123  142.7018  154.5374 H   0  0  0  0  0  0  0  0  0  0  0  0
  150.4371  142.8709  156.2743 H   0  0  0  0  0  0  0  0  0  0  0  0
  151.9536  140.1577  156.1972 H   0  0  0  0  0  0  0  0  0  0  0  0
  152.6518  141.8119  156.5954 H   0  0  0  0  0  0  0  0  0  0  0  0
  151.0432  142.0247  158.5190 H   0  0  0  0  0  0  0  0  0  0  0  0
  150.3487  140.3699  158.1175 H   0  0  0  0  0  0  0  0  0  0  0  0
  148.4146  140.5196  157.4031 H   0  0  0  0  0  0  0  0  0  0  0  0
  147.8246  141.9699  156.6107 H   0  0  0  0  0  0  0  0  0  0  0  0
  146.2362  140.0743  156.2857 H   0  0  0  0  0  0  0  0  0  0  0  0
  147.5116  139.0893  155.6081 H   0  0  0  0  0  0  0  0  0  0  0  0
  142.9718  136.6162  151.4740 H   0  0  0  0  0  0  0  0  0  0  0  0
  1  2  1  0  0  0  0
  1 24  1  0  0  0  0
  1 25  1  0  0  0  0
  1 26  1  0  0  0  0
  2  3  1  0  0  0  0
  2  4  1  0  0  0  0
  2  5  1  0  0  0  0
  3 27  1  0  0  0  0
  3 28  1  0  0  0  0
  3 29  1  0  0  0  0
  4 30  1  0  0  0  0
  4 31  1  0  0  0  0
  4 32  1  0  0  0  0
  5 23  1  0  0  0  0
  5  6  2  0  0  0  0
  6  7  1  0  0  0  0
  7  8  2  0  0  0  0
  7 33  1  0  0  0  0
  8  9  1  0  0  0  0
  8 22  1  0  0  0  0
  9 10  1  0  0  0  0
  9 34  1  0  0  0  0
 10 11  2  0  0  0  0
 10 12  1  0  0  0  0
 12 13  1  0  0  0  0
 12 35  1  0  0  0  0
 13 21  1  0  0  0  0
 13 14  1  0  0  0  0
 13 36  1  0  0  0  0
 14 15  1  0  0  0  0
 14 37  1  0  0  0  0
 14 38  1  0  0  0  0
 15 16  1  0  0  0  0
 15 39  1  0  0  0  0
 15 40  1  0  0  0  0
 16 17  1  0  0  0  0
 16 20  1  0  0  0  0
 17 19  1  0  0  0  0
 17 18  1  0  0  0  0
 17 41  1  0  0  0  0
 18 19  1  0  0  0  0
 18 42  1  0  0  0  0
 18 43  1  0  0  0  0
 19 44  1  0  0  0  0
 19 45  1  0  0  0  0
 20 21  1  0  0  0  0
 20 46  1  0  0  0  0
 20 47  1  0  0  0  0
 21 48  1  0  0  0  0
 21 49  1  0  0  0  0
 22 23  2  0  0  0  0
 22 50  1  0  0  0  0
M  END
> <s_m_source_file>
AV-unprocessed.smi

> <i_m_source_file_index>
972

> <i_lp_mmshare_version>
43012

> <i_f3d_flags>
0

> <s_epik_input>
W0NIM11DKFtDSDNdKShbQ0gzXSljMW5bY0hdYyhbY0hdbjEpW05IXUMoPU8pW05IXVtDSF0yW0NIMl1bQ0gyXU4oW0NIMl1bQ0gyXTIpW0NIXTNbQ0gyXVtDSDJdMw==

> <s_epik_cmdline>
J2VwaWtfcHl0aG9uJywgJy1waCcsICc3LjAnLCAnLXRuJywgJzgnLCAnLW1hJywgJzIwMCcsICctbWV0YWxfYmluZGluZycsICctaW1hZScsICc8aW5maWxlLm1hZT4nLCAnLW9tYWUnLCAnPG91dGZpbGUubWFlPic=

> <r_lp_tautomer_probability>
1

> <r_epik_Ionization_Penalty>
0.990889

> <r_epik_Ionization_Penalty_Charging>
0

> <r_epik_Ionization_Penalty_Neutral>
0.990889

> <r_epik_State_Penalty>
1.03856

> <r_epik_Charging_Adjusted_Penalty>
1.03856

> <i_epik_Tot_Q>
0

> <i_epik_Tot_abs_Q>
0

> <r_epik_Metal_State_Penalty>
1.03856

> <b_epik_Metal_Only>
0

> <s_lp_Force_Field>
OPLS_2005

> <r_lp_Energy>
19.7386

> <b_lp_Chiralities_Consistent>
1

> <s_lp_Variant>
AV-unprocessed.smi:972-3

> <Gold.Version>
5.8.1

> <Gold.Id.Protein>
6NUR|6NUR_protein|mol2

> <Gold.PLP.Fitness>
41.8352

> <Gold.PLP.PLP>
-32.5160

> <Gold.PLP.part.hbond>
-2.4639

> <Gold.PLP.part.metal>
0.0000

> <Gold.PLP.part.buried>
-1.3175

> <Gold.PLP.part.nonpolar>
-29.5050

> <Gold.PLP.part.repulsive>
0.6275

> <Gold.PLP.ligand.clash>
0.0000

> <Gold.PLP.ligand.torsion>
0.8528

> <Gold.PLP.Chemscore.Hbond>
1.9760

> <Gold.PLP.Chemscore.CHOScore>
1.2631

> <Gold.PLP.Chemscore.Metal>
0.0000

> <Gold.Chemscore.Hbonds>
donor molecule, donor type, donor heavy atom, donor atom, acceptor molecule, acceptor atom, score
      L1  H     9    34       P1 10175  0.98
      L1  H    12    35       P1 10175  1.00
      L1  C     7    33       P1  7948  0.70
      L1  C    22    50       P1 10171  0.21

> <Gold.PLP.Chemscore.Internal.Correction>
1.3075

> <Gold.Rescore>
     Score         DG    S(hbond)    S(metal)    S(lipo)     H(rot)  DE(clash)    DE(int)     intcor
     15.13     -19.13       1.96        0.00      89.04       1.30       0.83       3.17       ----

> <Gold.Chemscore.Fitness>
15.1284

> <Gold.Chemscore.DG>
-19.1348

> <Gold.Chemscore.ZeroCoef>
-5.4800

> <Gold.Chemscore.Hbond>
1.9617

> <Gold.Chemscore.Metal>
0.0000

> <Gold.Chemscore.Lipo>
89.0432

> <Gold.Chemscore.Internal_Hbond>
0.0000

> <Gold.Chemscore.DEClash>
0.8329

> <Gold.Chemscore.DEInternal>
3.1735

> <Gold.Chemscore.Rot>
1.2951

> <Gold.Chemscore.Internal.Correction>
   9.000000E+99

> <Gold.Chemscore.Hbonds>
donor molecule, donor type, donor heavy atom, donor atom, acceptor molecule, acceptor atom, score
      L1  H     9    34       P1 10175  0.87
      L1  H    12    35       P1 10175  0.99

> <Gold.Chemscore.Hbond.Weighted>
-6.5521

> <Gold.Chemscore.Metal.Weighted>
-0.0000

> <Gold.Chemscore.Lipo.Weighted>
-10.4180

> <Gold.Chemscore.Internal_Hbond.Weighted>
0.0000

> <Gold.Chemscore.DEClash.Weighted>
0.8329

> <Gold.Chemscore.DEInternal.Weighted>
3.1735

> <Gold.Chemscore.Rot.Weighted>
3.3154

> <Gold.Chemscore.Internal.Correction.Weighted>
   9.000000E+99

> <Gold.Protein.RotatedTorsions>
[ 6907 6896 6895 6894 ] final  -52.81 input  -60.11 | X-H torsion
[ 7974 7965 7964 7962 ] final  126.83 input  175.53 | X-H torsion
[ 8008 7997 7996 7995 ] final  -18.99 input   59.86 | X-H torsion
[ 10167 10162 10161 10158 ] final   86.80 input  -65.29 | X-H torsion
[ 10718 10713 10712 10709 ] final -126.07 input   66.30 | X-H torsion
[ 10763 10752 10751 10750 ] final -170.65 input  -60.55 | X-H torsion
[ 11005 11000 10999 10996 ] final   -6.82 input  -57.11 | X-H torsion

> <Gold.Protein.ActiveResidues>
 VAL166  LYS551  ARG553  GLY616  TRP617  ASP618  TYR619  PRO620  LYS621  CYS622 
 ASP623  PHE694  ASN695  SER759  ASP760  ASP761  ALA762  ILE779  LEU786  VAL792 
 PHE793  MET794  SER795  GLU796  ALA797  LYS798  CYS799  TRP800  GLU811  SER814 

> <Gold.Protein.RotatedAtoms>
  150.8483  134.7800  159.6988 H   0  0  0  0  0  0  0  0  0  0  0  0  # atno 6907 bound_to 6896
  152.4554  134.5299  159.9817 H   0  0  0  0  0  0  0  0  0  0  0  0  # atno 6908 bound_to 6896
  151.5424  133.3392  159.2973 H   0  0  0  0  0  0  0  0  0  0  0  0  # atno 6909 bound_to 6896
  145.0574  139.3833  143.5023 H   0  0  0  0  0  0  0  0  0  0  0  0  # atno 7974 bound_to 7965
  154.4867  140.2101  155.9639 H   0  0  0  0  0  0  0  0  0  0  0  0  # atno 8008 bound_to 7997
  156.1247  140.3207  155.8228 H   0  0  0  0  0  0  0  0  0  0  0  0  # atno 8009 bound_to 7997
  155.4405  140.0510  157.3001 H   0  0  0  0  0  0  0  0  0  0  0  0  # atno 8010 bound_to 7997
  139.8839  144.6424  150.8813 H   0  0  0  0  0  0  0  0  0  0  0  0  # atno 10167 bound_to 10162
  156.1732  130.6681  151.0207 H   0  0  0  0  0  0  0  0  0  0  0  0  # atno 10718 bound_to 10713
  154.6392  135.2896  155.0124 H   0  0  0  0  0  0  0  0  0  0  0  0  # atno 10763 bound_to 10752
  154.1257  135.6541  153.4916 H   0  0  0  0  0  0  0  0  0  0  0  0  # atno 10764 bound_to 10752
  153.0318  135.5298  154.7251 H   0  0  0  0  0  0  0  0  0  0  0  0  # atno 10765 bound_to 10752
  140.7061  133.8948  155.8718 H   0  0  0  0  0  0  0  0  0  0  0  0  # atno 11005 bound_to 11000
  146.3522  140.0255  142.8655 LP  0  0  0  0  0  0  0  0  0  0  0  0  # atno 17320 bound_to 7965
  145.1451  140.9593  143.4465 LP  0  0  0  0  0  0  0  0  0  0  0  0  # atno 17321 bound_to 7965
  140.7739  143.3564  151.1913 LP  0  0  0  0  0  0  0  0  0  0  0  0  # atno 17342 bound_to 10162
  139.7171  143.9283  152.2971 LP  0  0  0  0  0  0  0  0  0  0  0  0  # atno 17343 bound_to 10162
  157.6817  131.0836  150.7352 LP  0  0  0  0  0  0  0  0  0  0  0  0  # atno 17370 bound_to 10713
  156.7410  130.4739  149.5477 LP  0  0  0  0  0  0  0  0  0  0  0  0  # atno 17371 bound_to 10713
  141.0123  134.1003  157.4208 LP  0  0  0  0  0  0  0  0  0  0  0  0  # atno 17394 bound_to 11000
  139.8884  135.0097  156.6616 LP  0  0  0  0  0  0  0  0  0  0  0  0  # atno 17395 bound_to 11000

$$$$
