#       Name:                AV-unprocessed.smi:1208
#       Creating user name   scv26
#       Creation time:       Fri Mar 27 04:10:22 2020


#       File generated by GOLD software.
#

@<TRIPOS>MOLECULE
AV-unprocessed.smi:1208
    44    45     1
SMALL
NO_CHARGES


@<TRIPOS>ATOM
      1 ****        -2.2657  -1.5884  -1.5080 C.3            1 S1                 0.0000
      2 ****        -1.6971  -0.8351  -0.2965 C.3            1 S1                 0.0000
      3 ****        -0.2376  -0.8361  -0.3776 N.am           1 S1                 0.0000
      4 ****         0.5506   0.2455  -0.4811 C.2            1 S1                 0.0000
      5 ****         0.1187   1.3987  -0.5151 O.2            1 S1                 0.0000
      6 ****         2.0604  -0.0362  -0.5295 C.3            1 S1                 0.0000
      7 ****         2.8515   1.0430  -1.1386 N.am           1 S1                 0.0000
      8 ****         3.6191   1.8290  -0.1766 N.pl3          1 S1                -1.0000
      9 ****         4.3835   2.8606  -0.6236 C.2            1 S1                 0.0000
     10 ****         5.0431   3.5755   0.1272 O.2            1 S1                 0.0000
     11 ****         4.4175   3.1174  -2.0539 C.2            1 S1                 0.0000
     12 ****         3.7162   2.3612  -2.9212 C.2            1 S1                 0.0000
     13 ****         2.8808   1.2484  -2.4865 C.2            1 S1                 0.0000
     14 ****         2.2478   0.5454  -3.2748 O.2            1 S1                 0.0000
     15 ****        -2.1501  -1.4580   1.0388 C.3            1 S1                 0.0000
     16 ****        -1.5967  -0.7645   2.2866 C.3            1 S1                 0.0000
     17 ****        -2.6336  -1.1242   3.3248 C.3            1 S1                 0.0000
     18 ****        -3.9219  -1.0350   2.5140 C.3            1 S1                 0.0000
     19 ****        -3.5681  -1.3784   1.1767 O.3            1 S1                 0.0000
     20 ****        -3.3558  -1.5766  -1.5030 H              1 S1                 0.0000
     21 ****        -1.9445  -2.6305  -1.5157 H              1 S1                 0.0000
     22 ****        -1.9380  -1.1313  -2.4425 H              1 S1                 0.0000
     23 ****        -2.0754   0.1880  -0.3354 H              1 S1                 0.0000
     24 ****         0.2140  -1.7385  -0.3501 H              1 S1                 0.0000
     25 ****         2.3970  -0.2282   0.4908 H              1 S1                 0.0000
     26 ****         2.2380  -0.9644  -1.0758 H              1 S1                 0.0000
     27 ****         5.0205   3.9307  -2.4295 H              1 S1                 0.0000
     28 ****         3.7733   2.5865  -3.9756 H              1 S1                 0.0000
     29 ****        -1.8756  -2.5137   1.0727 H              1 S1                 0.0000
     30 ****        -0.5931  -1.0994   2.5510 H              1 S1                 0.0000
     31 ****        -1.5699   0.3173   2.1460 H              1 S1                 0.0000
     32 ****        -2.4759  -2.1456   3.6737 H              1 S1                 0.0000
     33 ****        -2.6264  -0.4597   4.1892 H              1 S1                 0.0000
     34 ****        -4.7032  -1.6894   2.9009 H              1 S1                 0.0000
     35 ****        -4.3031  -0.0131   2.5176 H              1 S1                 0.0000
     36 ****        -0.8660   1.5655  -0.4647 LP             1 S1                 0.0000
     37 ****         0.7528   2.1680  -0.5931 LP             1 S1                 0.0000
     38 ****         3.5829   1.6112   0.7987 LP             1 S1                 0.0000
     39 ****         5.0320   3.4095   1.1133 LP             1 S1                 0.0000
     40 ****         5.5909   4.3233  -0.2478 LP             1 S1                 0.0000
     41 ****         1.6863  -0.2082  -2.9329 LP             1 S1                 0.0000
     42 ****         2.2952   0.7280  -4.2568 LP             1 S1                 0.0000
     43 ****        -3.9712  -2.2643   0.9470 LP             1 S1                 0.0000
     44 ****        -3.9205  -0.6802   0.5536 LP             1 S1                 0.0000
@<TRIPOS>BOND
    1    1    2 1     
    2    1   20 1     
    3    1   21 1     
    4    1   22 1     
    5    2    3 1     
    6    2   15 1     
    7    2   23 1     
    8    3    4 am    
    9    3   24 1     
   10    4    5 2     
   11    4    6 1     
   12    6   25 1     
   13    6   26 1     
   14    6    7 1     
   15    7    8 1     
   16    7   13 am    
   17    8    9 1     
   18    9   10 2     
   19    9   11 1     
   20   11   27 1     
   21   11   12 2     
   22   12   28 1     
   23   12   13 1     
   24   13   14 2     
   25   15   19 1     
   26   15   16 1     
   27   15   29 1     
   28   16   17 1     
   29   16   30 1     
   30   16   31 1     
   31   17   18 1     
   32   17   32 1     
   33   17   33 1     
   34   18   19 1     
   35   18   34 1     
   36   18   35 1     
   37    5   36 1     
   38    5   37 1     
   39    8   38 1     
   40   10   39 1     
   41   10   40 1     
   42   14   41 1     
   43   14   42 1     
   44   19   43 1     
   45   19   44 1     
@<TRIPOS>SUBSTRUCTURE
      1 S1             1
@<TRIPOS>SET
LONE_PAIRS      STATIC     ATOMS    <user>   **** ""
9 36 37 38 39 40 41 42 43 44
DONOR_HYDROGENS      STATIC     ATOMS    <user>   **** ""
1 24
ATOM$BLUE        STATIC     ATOMS    COLORGROUP SYSTEM
9 36 37 38 39 40 41 42 43 44
ATOM$RED        STATIC     ATOMS    COLORGROUP SYSTEM
1 24
