AV-unprocessed.smi:3300|AV-procd|sdf|12650|dock2
  -GOLD-   2272018583D 1   1.00000     0.00000
 Structure written by MMmdl.
 36 37  0  0  0  0  0  0  0  0  1 V2000
  151.6383  144.8589  159.9740 C   0  0  0  0  0  0  0  0  0  0  0  0
  152.8523  143.9505  159.7486 C   0  0  0  0  0  0  0  0  0  0  0  0
  152.4647  142.6078  159.1577 C   0  0  0  0  0  0  0  0  0  0  0  0
  152.8373  141.5093  159.8520 N   0  0  0  0  0  0  0  0  0  0  0  0
  152.4872  140.3270  159.3406 C   0  0  0  0  0  0  0  0  0  0  0  0
  151.8050  140.1149  158.2128 N   0  0  0  0  0  0  0  0  0  0  0  0
  151.4294  141.2052  157.4993 C   0  0  0  0  0  0  0  0  0  0  0  0
  150.6896  141.0277  156.3148 N   0  0  0  0  0  0  0  0  0  0  0  0
  149.3293  141.5174  156.5152 C   0  0  0  0  0  0  0  0  0  0  0  0
  148.5407  141.4825  155.2001 C   0  0  0  0  0  0  0  0  0  0  0  0
  148.5561  140.1567  154.6912 O   0  0  0  0  0  0  0  0  0  0  0  0
  149.8779  139.7260  154.3899 C   0  0  0  0  0  0  0  0  0  0  0  0
  150.7575  139.7104  155.6643 C   0  0  1  0  0  0  0  0  0  0  0  0
  152.2135  139.3014  155.3181 C   0  0  0  0  0  0  0  0  0  0  0  0
  152.3116  138.0948  154.3710 C   0  0  0  0  0  0  0  0  0  0  0  0
  151.7140  136.9663  154.9721 O   0  0  0  0  0  0  0  0  0  0  0  0
  151.7372  142.5083  157.9517 C   0  0  0  0  0  0  0  0  0  0  0  0
  151.3529  143.6093  157.2603 F   0  0  0  0  0  0  0  0  0  0  0  0
  151.9427  145.8141  160.4021 H   0  0  0  0  0  0  0  0  0  0  0  0
  150.9233  144.4005  160.6579 H   0  0  0  0  0  0  0  0  0  0  0  0
  151.1219  145.0635  159.0358 H   0  0  0  0  0  0  0  0  0  0  0  0
  153.5683  144.4463  159.0925 H   0  0  0  0  0  0  0  0  0  0  0  0
  153.3701  143.7862  160.6946 H   0  0  0  0  0  0  0  0  0  0  0  0
  152.7841  139.4512  159.8983 H   0  0  0  0  0  0  0  0  0  0  0  0
  148.8294  140.9000  157.2633 H   0  0  0  0  0  0  0  0  0  0  0  0
  149.3473  142.5373  156.9018 H   0  0  0  0  0  0  0  0  0  0  0  0
  147.5079  141.7857  155.3724 H   0  0  0  0  0  0  0  0  0  0  0  0
  148.9612  142.1764  154.4703 H   0  0  0  0  0  0  0  0  0  0  0  0
  149.8056  138.7288  153.9574 H   0  0  0  0  0  0  0  0  0  0  0  0
  150.3103  140.3719  153.6236 H   0  0  0  0  0  0  0  0  0  0  0  0
  150.3395  138.9753  156.3538 H   0  0  0  0  0  0  0  0  0  0  0  0
  152.7405  140.1531  154.8851 H   0  0  0  0  0  0  0  0  0  0  0  0
  152.7623  139.0445  156.2239 H   0  0  0  0  0  0  0  0  0  0  0  0
  151.8031  138.3041  153.4295 H   0  0  0  0  0  0  0  0  0  0  0  0
  153.3481  137.8519  154.1397 H   0  0  0  0  0  0  0  0  0  0  0  0
  150.9495  137.2495  155.4502 H   0  0  0  0  0  0  0  0  0  0  0  0
  1  2  1  0  0  0  0
  1 19  1  0  0  0  0
  1 20  1  0  0  0  0
  1 21  1  0  0  0  0
  2  3  1  0  0  0  0
  2 22  1  0  0  0  0
  2 23  1  0  0  0  0
  3 17  1  0  0  0  0
  3  4  2  0  0  0  0
  4  5  1  0  0  0  0
  5  6  2  0  0  0  0
  5 24  1  0  0  0  0
  6  7  1  0  0  0  0
  7  8  1  0  0  0  0
  7 17  2  0  0  0  0
  8 13  1  0  0  0  0
  8  9  1  0  0  0  0
  9 10  1  0  0  0  0
  9 25  1  0  0  0  0
  9 26  1  0  0  0  0
 10 11  1  0  0  0  0
 10 27  1  0  0  0  0
 10 28  1  0  0  0  0
 11 12  1  0  0  0  0
 12 13  1  0  0  0  0
 12 29  1  0  0  0  0
 12 30  1  0  0  0  0
 13 14  1  0  0  0  0
 13 31  1  0  0  0  0
 14 15  1  0  0  0  0
 14 32  1  0  0  0  0
 14 33  1  0  0  0  0
 15 16  1  0  0  0  0
 15 34  1  0  0  0  0
 15 35  1  0  0  0  0
 16 36  1  0  0  0  0
 17 18  1  0  0  0  0
M  END
> <s_m_source_file>
AV-unprocessed.smi

> <i_m_source_file_index>
3300

> <i_lp_mmshare_version>
43012

> <i_f3d_flags>
0

> <s_epik_input>
W0NIM11bQ0gyXWMxbltjSF1uYyhjMUYpTjJbQ0gyXVtDSDJdT1tDSDJdW0NASF0yW0NIMl1bQ0gyXVtPSF0=

> <s_epik_cmdline>
J2VwaWtfcHl0aG9uJywgJy1waCcsICc3LjAnLCAnLXRuJywgJzgnLCAnLW1hJywgJzIwMCcsICctbWV0YWxfYmluZGluZycsICctaW1hZScsICc8aW5maWxlLm1hZT4nLCAnLW9tYWUnLCAnPG91dGZpbGUubWFlPic=

> <r_lp_tautomer_probability>
1

> <r_epik_Ionization_Penalty>
2.51351e-05

> <r_epik_Ionization_Penalty_Charging>
0

> <r_epik_Ionization_Penalty_Neutral>
2.51351e-05

> <r_epik_State_Penalty>
-0

> <r_epik_Charging_Adjusted_Penalty>
0

> <i_epik_Tot_Q>
0

> <i_epik_Tot_abs_Q>
0

> <r_epik_Metal_State_Penalty>
-0

> <b_epik_Metal_Only>
0

> <s_lp_Force_Field>
OPLS_2005

> <r_lp_Energy>
16.6738

> <b_lp_Chiralities_Consistent>
1

> <s_lp_Variant>
AV-unprocessed.smi:3300-1

> <Gold.Version>
5.8.1

> <Gold.Id.Protein>
6NUR|6NUR_protein|mol2

> <Gold.PLP.Fitness>
38.4196

> <Gold.PLP.PLP>
-36.1637

> <Gold.PLP.part.hbond>
-1.0000

> <Gold.PLP.part.metal>
0.0000

> <Gold.PLP.part.buried>
-4.1742

> <Gold.PLP.part.nonpolar>
-31.5378

> <Gold.PLP.part.repulsive>
0.1310

> <Gold.PLP.ligand.clash>
0.0000

> <Gold.PLP.ligand.torsion>
0.4500

> <Gold.PLP.Chemscore.Hbond>
1.0000

> <Gold.PLP.Chemscore.CHOScore>
0.0000

> <Gold.PLP.Chemscore.Metal>
0.0000

> <Gold.Chemscore.Hbonds>
donor molecule, donor type, donor heavy atom, donor atom, acceptor molecule, acceptor atom, score
      P1  H 10752 10763       L1    16  1.00

> <Gold.PLP.Chemscore.Internal.Correction>
0.1560

> <Gold.Rescore>
     Score         DG    S(hbond)    S(metal)    S(lipo)     H(rot)  DE(clash)    DE(int)     intcor
     11.79     -12.55       0.87        0.00      86.86       2.35       0.04       0.71       ----

> <Gold.Chemscore.Fitness>
11.7929

> <Gold.Chemscore.DG>
-12.5455

> <Gold.Chemscore.ZeroCoef>
-5.4800

> <Gold.Chemscore.Hbond>
0.8707

> <Gold.Chemscore.Metal>
0.0000

> <Gold.Chemscore.Lipo>
86.8577

> <Gold.Chemscore.Internal_Hbond>
0.0000

> <Gold.Chemscore.DEClash>
0.0400

> <Gold.Chemscore.DEInternal>
0.7126

> <Gold.Chemscore.Rot>
2.3458

> <Gold.Chemscore.Internal.Correction>
   9.000000E+99

> <Gold.Chemscore.Hbonds>
donor molecule, donor type, donor heavy atom, donor atom, acceptor molecule, acceptor atom, score
      P1  H 10752 10763       L1    16  0.44

> <Gold.Chemscore.Hbond.Weighted>
-2.9082

> <Gold.Chemscore.Metal.Weighted>
-0.0000

> <Gold.Chemscore.Lipo.Weighted>
-10.1623

> <Gold.Chemscore.Internal_Hbond.Weighted>
0.0000

> <Gold.Chemscore.DEClash.Weighted>
0.0400

> <Gold.Chemscore.DEInternal.Weighted>
0.7126

> <Gold.Chemscore.Rot.Weighted>
6.0051

> <Gold.Chemscore.Internal.Correction.Weighted>
   9.000000E+99

> <Gold.Protein.RotatedTorsions>
[ 6907 6896 6895 6894 ] final   85.00 input  -60.11 | X-H torsion
[ 7974 7965 7964 7962 ] final   71.07 input  175.53 | X-H torsion
[ 8008 7997 7996 7995 ] final -167.14 input   59.86 | X-H torsion
[ 10167 10162 10161 10158 ] final  -80.18 input  -65.29 | X-H torsion
[ 10718 10713 10712 10709 ] final -127.15 input   66.30 | X-H torsion
[ 10763 10752 10751 10750 ] final   65.38 input  -60.55 | X-H torsion
[ 11005 11000 10999 10996 ] final  163.32 input  -57.11 | X-H torsion

> <Gold.Protein.ActiveResidues>
 VAL166  LYS551  ARG553  GLY616  TRP617  ASP618  TYR619  PRO620  LYS621  CYS622 
 ASP623  PHE694  ASN695  SER759  ASP760  ASP761  ALA762  ILE779  LEU786  VAL792 
 PHE793  MET794  SER795  GLU796  ALA797  LYS798  CYS799  TRP800  GLU811  SER814 

> <Gold.Protein.RotatedAtoms>
  152.5365  134.2654  159.8950 H   0  0  0  0  0  0  0  0  0  0  0  0  # atno 6907 bound_to 6896
  151.2612  133.4294  159.2624 H   0  0  0  0  0  0  0  0  0  0  0  0  # atno 6908 bound_to 6896
  151.0451  134.9649  159.8238 H   0  0  0  0  0  0  0  0  0  0  0  0  # atno 6909 bound_to 6896
  145.7703  139.2840  143.1325 H   0  0  0  0  0  0  0  0  0  0  0  0  # atno 7974 bound_to 7965
  155.8735  140.0997  157.1534 H   0  0  0  0  0  0  0  0  0  0  0  0  # atno 8008 bound_to 7997
  154.3999  140.1342  156.4171 H   0  0  0  0  0  0  0  0  0  0  0  0  # atno 8009 bound_to 7997
  155.7723  140.3460  155.5256 H   0  0  0  0  0  0  0  0  0  0  0  0  # atno 8010 bound_to 7997
  140.4526  143.2478  151.8466 H   0  0  0  0  0  0  0  0  0  0  0  0  # atno 10167 bound_to 10162
  156.1831  130.6745  151.0330 H   0  0  0  0  0  0  0  0  0  0  0  0  # atno 10718 bound_to 10713
  153.0094  135.5359  154.6658 H   0  0  0  0  0  0  0  0  0  0  0  0  # atno 10763 bound_to 10752
  154.5855  135.2854  155.0691 H   0  0  0  0  0  0  0  0  0  0  0  0  # atno 10764 bound_to 10752
  154.1804  135.6517  153.5085 H   0  0  0  0  0  0  0  0  0  0  0  0  # atno 10765 bound_to 10752
  140.2346  134.8098  157.3351 H   0  0  0  0  0  0  0  0  0  0  0  0  # atno 11005 bound_to 11000
  146.0176  140.8378  142.9939 LP  0  0  0  0  0  0  0  0  0  0  0  0  # atno 17320 bound_to 7965
  144.6814  140.2582  143.7322 LP  0  0  0  0  0  0  0  0  0  0  0  0  # atno 17321 bound_to 7965
  139.4798  144.5102  151.8943 LP  0  0  0  0  0  0  0  0  0  0  0  0  # atno 17342 bound_to 10162
  140.4189  144.2270  150.5887 LP  0  0  0  0  0  0  0  0  0  0  0  0  # atno 17343 bound_to 10162
  157.6881  131.0818  150.7186 LP  0  0  0  0  0  0  0  0  0  0  0  0  # atno 17370 bound_to 10713
  156.7243  130.4690  149.5515 LP  0  0  0  0  0  0  0  0  0  0  0  0  # atno 17371 bound_to 10713
  140.1715  134.4602  155.7828 LP  0  0  0  0  0  0  0  0  0  0  0  0  # atno 17394 bound_to 11000
  141.2215  133.6944  156.7716 LP  0  0  0  0  0  0  0  0  0  0  0  0  # atno 17395 bound_to 11000

$$$$
