AV-unprocessed.smi:1870|AV-procd|sdf|7593|dock4
  -GOLD-   22720 9303D 1   1.00000     0.00000
 Structure written by MMmdl.
 48 50  0  0  0  0  0  0  0  0  2 V2000
  148.8707  133.1064  155.6938 C   0  0  0  0  0  0  0  0  0  0  0  0
  148.8728  131.6236  155.4362 C   0  0  0  0  0  0  0  0  0  0  0  0
  147.8578  131.1455  154.7941 N   0  0  0  0  0  0  0  0  0  0  0  0
  147.7614  129.7993  154.4995 N   0  0  0  0  0  0  0  0  0  0  0  0
  146.5363  129.4303  153.7795 C   0  0  0  0  0  0  0  0  0  0  0  0
  146.5342  129.9741  152.3336 C   0  0  2  0  0  0  0  0  0  0  0  0
  147.6377  129.4216  151.6420 O   0  0  0  0  0  0  0  0  0  0  0  0
  146.7047  131.5072  152.3041 C   0  0  0  0  0  0  0  0  0  0  0  0
  146.7104  132.0702  150.9250 N   0  3  1  0  0  0  0  0  0  0  0  0
  145.5715  131.6617  150.0626 C   0  0  0  0  0  0  0  0  0  0  0  0
  144.2355  132.2236  150.5785 C   0  0  0  0  0  0  0  0  0  0  0  0
  144.3266  133.6930  150.9571 C   0  0  0  0  0  0  0  0  0  0  0  0
  143.1447  134.4337  151.1645 C   0  0  0  0  0  0  0  0  0  0  0  0
  143.2143  135.7841  151.5564 C   0  0  0  0  0  0  0  0  0  0  0  0
  144.4666  136.3978  151.7474 C   0  0  0  0  0  0  0  0  0  0  0  0
  145.6499  135.6627  151.5431 C   0  0  0  0  0  0  0  0  0  0  0  0
  145.5880  134.3104  151.1470 C   0  0  0  0  0  0  0  0  0  0  0  0
  146.8833  133.5450  150.8972 C   0  0  0  0  0  0  0  0  0  0  0  0
  148.6879  128.8608  154.8457 C   0  0  0  0  0  0  0  0  0  0  0  0
  148.5544  127.6669  154.5740 O   0  0  0  0  0  0  0  0  0  0  0  0
  149.8354  129.4086  155.5722 C   0  0  0  0  0  0  0  0  0  0  0  0
  150.8339  128.4601  155.9475 C   0  0  0  0  0  0  0  0  0  0  0  0
  151.6509  127.6920  156.2340 N   0  0  0  0  0  0  0  0  0  0  0  0
  149.9405  130.7280  155.8698 C   0  0  0  0  0  0  0  0  0  0  0  0
  151.1111  131.3432  156.6246 C   0  0  0  0  0  0  0  0  0  0  0  0
  148.7169  133.3130  156.7529 H   0  0  0  0  0  0  0  0  0  0  0  0
  148.0803  133.6138  155.1389 H   0  0  0  0  0  0  0  0  0  0  0  0
  149.8177  133.5559  155.3953 H   0  0  0  0  0  0  0  0  0  0  0  0
  146.4839  128.3400  153.7531 H   0  0  0  0  0  0  0  0  0  0  0  0
  145.6373  129.7343  154.3197 H   0  0  0  0  0  0  0  0  0  0  0  0
  145.6083  129.6841  151.8378 H   0  0  0  0  0  0  0  0  0  0  0  0
  148.0907  130.1185  151.1901 H   0  0  0  0  0  0  0  0  0  0  0  0
  145.9289  131.9885  152.8995 H   0  0  0  0  0  0  0  0  0  0  0  0
  147.6480  131.7548  152.7939 H   0  0  0  0  0  0  0  0  0  0  0  0
  145.7585  132.0483  149.0597 H   0  0  0  0  0  0  0  0  0  0  0  0
  145.5185  130.5793  149.9538 H   0  0  0  0  0  0  0  0  0  0  0  0
  143.4653  132.0934  149.8175 H   0  0  0  0  0  0  0  0  0  0  0  0
  143.9001  131.6637  151.4518 H   0  0  0  0  0  0  0  0  0  0  0  0
  142.1801  133.9660  151.0293 H   0  0  0  0  0  0  0  0  0  0  0  0
  142.3068  136.3483  151.7140 H   0  0  0  0  0  0  0  0  0  0  0  0
  144.5195  137.4339  152.0482 H   0  0  0  0  0  0  0  0  0  0  0  0
  146.6069  136.1436  151.6844 H   0  0  0  0  0  0  0  0  0  0  0  0
  147.6502  133.8559  151.6080 H   0  0  0  0  0  0  0  0  0  0  0  0
  147.2503  133.8290  149.9102 H   0  0  0  0  0  0  0  0  0  0  0  0
  151.7708  130.5860  157.0472 H   0  0  0  0  0  0  0  0  0  0  0  0
  150.7598  131.9612  157.4513 H   0  0  0  0  0  0  0  0  0  0  0  0
  151.7062  131.9668  155.9569 H   0  0  0  0  0  0  0  0  0  0  0  0
  147.5434  131.6921  150.4962 H   0  0  0  0  0  0  0  0  0  0  0  0
  1  2  1  0  0  0  0
  1 26  1  0  0  0  0
  1 27  1  0  0  0  0
  1 28  1  0  0  0  0
  2 24  1  0  0  0  0
  2  3  2  0  0  0  0
  3  4  1  0  0  0  0
  4  5  1  0  0  0  0
  4 19  1  0  0  0  0
  5  6  1  0  0  0  0
  5 29  1  0  0  0  0
  5 30  1  0  0  0  0
  6  7  1  0  0  0  0
  6  8  1  0  0  0  0
  6 31  1  0  0  0  0
  7 32  1  0  0  0  0
  8  9  1  0  0  0  0
  8 33  1  0  0  0  0
  8 34  1  0  0  0  0
  9 18  1  0  0  0  0
  9 10  1  0  0  0  0
  9 48  1  0  0  0  0
 10 11  1  0  0  0  0
 10 35  1  0  0  0  0
 10 36  1  0  0  0  0
 11 12  1  0  0  0  0
 11 37  1  0  0  0  0
 11 38  1  0  0  0  0
 12 17  2  0  0  0  0
 12 13  1  0  0  0  0
 13 14  2  0  0  0  0
 13 39  1  0  0  0  0
 14 15  1  0  0  0  0
 14 40  1  0  0  0  0
 15 16  2  0  0  0  0
 15 41  1  0  0  0  0
 16 17  1  0  0  0  0
 16 42  1  0  0  0  0
 17 18  1  0  0  0  0
 18 43  1  0  0  0  0
 18 44  1  0  0  0  0
 19 20  2  0  0  0  0
 19 21  1  0  0  0  0
 21 22  1  0  0  0  0
 21 24  2  0  0  0  0
 22 23  3  0  0  0  0
 24 25  1  0  0  0  0
 25 45  1  0  0  0  0
 25 46  1  0  0  0  0
 25 47  1  0  0  0  0
M  CHG  1   9   1
M  END
> <s_m_source_file>
AV-unprocessed.smi

> <i_m_source_file_index>
1870

> <i_lp_mmshare_version>
43012

> <i_f3d_flags>
0

> <s_epik_input>
TiNDYyhjMVtDSDNdKWMoPU8pbihuYzFbQ0gzXSlbQ0gyXVtDQEhdKFtPSF0pW0NIMl1OKFtDSDJdW0NIMl0yKVtDSDJdYyhjMjMpW2NIXVtjSF1bY0hdW2NIXTM=

> <s_epik_cmdline>
J2VwaWtfcHl0aG9uJywgJy1waCcsICc3LjAnLCAnLXRuJywgJzgnLCAnLW1hJywgJzIwMCcsICctbWV0YWxfYmluZGluZycsICctaW1hZScsICc8aW5maWxlLm1hZT4nLCAnLW9tYWUnLCAnPG91dGZpbGUubWFlPic=

> <r_epik_Ionization_Penalty>
0.0122865

> <r_epik_Ionization_Penalty_Charging>
0.0122864

> <r_epik_Ionization_Penalty_Neutral>
1.48087e-07

> <r_epik_State_Penalty>
0.00950248

> <r_epik_Charging_Adjusted_Penalty>
0.0217889

> <i_epik_Tot_Q>
1

> <i_epik_Tot_abs_Q>
1

> <r_epik_Metal_State_Penalty>
0.00950248

> <b_epik_Metal_Only>
0

> <s_lp_Force_Field>
OPLS_2005

> <r_lp_Energy>
39.8007

> <b_lp_Chiralities_Consistent>
1

> <s_lp_Variant>
AV-unprocessed.smi:1870-1

> <Gold.Version>
5.8.1

> <Gold.Id.Protein>
6NUR|6NUR_protein|mol2

> <Gold.PLP.Fitness>
46.4391

> <Gold.PLP.PLP>
-40.8110

> <Gold.PLP.part.hbond>
-1.5660

> <Gold.PLP.part.metal>
0.0000

> <Gold.PLP.part.buried>
-5.0420

> <Gold.PLP.part.nonpolar>
-33.8903

> <Gold.PLP.part.repulsive>
0.2267

> <Gold.PLP.ligand.clash>
0.0000

> <Gold.PLP.ligand.torsion>
0.1027

> <Gold.PLP.Chemscore.Hbond>
1.9280

> <Gold.PLP.Chemscore.CHOScore>
0.0000

> <Gold.PLP.Chemscore.Metal>
0.0000

> <Gold.Chemscore.Hbonds>
donor molecule, donor type, donor heavy atom, donor atom, acceptor molecule, acceptor atom, score
      L1  H     7    32       P1 10747  0.80
      L1  H     9    48       P1 10747  1.00

> <Gold.PLP.Chemscore.Internal.Correction>
0.0494

> <Gold.Rescore>
     Score         DG    S(hbond)    S(metal)    S(lipo)     H(rot)  DE(clash)    DE(int)     intcor
     16.76     -17.32       1.94        0.00      93.13       2.16       0.05       0.50       ----

> <Gold.Chemscore.Fitness>
16.7627

> <Gold.Chemscore.DG>
-17.3171

> <Gold.Chemscore.ZeroCoef>
-5.4800

> <Gold.Chemscore.Hbond>
1.9393

> <Gold.Chemscore.Metal>
0.0000

> <Gold.Chemscore.Lipo>
93.1323

> <Gold.Chemscore.Internal_Hbond>
0.0000

> <Gold.Chemscore.DEClash>
0.0504

> <Gold.Chemscore.DEInternal>
0.5041

> <Gold.Chemscore.Rot>
2.1628

> <Gold.Chemscore.Internal.Correction>
   9.000000E+99

> <Gold.Chemscore.Hbonds>
donor molecule, donor type, donor heavy atom, donor atom, acceptor molecule, acceptor atom, score
      L1  H     7    32       P1 10747  0.77
      L1  H     9    48       P1 10747  1.00

> <Gold.Chemscore.Hbond.Weighted>
-6.4774

> <Gold.Chemscore.Metal.Weighted>
-0.0000

> <Gold.Chemscore.Lipo.Weighted>
-10.8965

> <Gold.Chemscore.Internal_Hbond.Weighted>
0.0000

> <Gold.Chemscore.DEClash.Weighted>
0.0504

> <Gold.Chemscore.DEInternal.Weighted>
0.5041

> <Gold.Chemscore.Rot.Weighted>
5.5367

> <Gold.Chemscore.Internal.Correction.Weighted>
   9.000000E+99

> <Gold.Protein.RotatedTorsions>
[ 6907 6896 6895 6894 ] final  133.41 input  -60.11 | X-H torsion
[ 7974 7965 7964 7962 ] final   15.78 input  175.53 | X-H torsion
[ 8008 7997 7996 7995 ] final   83.63 input   59.86 | X-H torsion
[ 10167 10162 10161 10158 ] final   92.40 input  -65.29 | X-H torsion
[ 10718 10713 10712 10709 ] final  139.74 input   66.30 | X-H torsion
[ 10763 10752 10751 10750 ] final  150.09 input  -60.55 | X-H torsion
[ 11005 11000 10999 10996 ] final  -92.61 input  -57.11 | X-H torsion

> <Gold.Protein.ActiveResidues>
 VAL166  LYS551  ARG553  GLY616  TRP617  ASP618  TYR619  PRO620  LYS621  CYS622 
 ASP623  PHE694  ASN695  SER759  ASP760  ASP761  ALA762  ILE779  LEU786  VAL792 
 PHE793  MET794  SER795  GLU796  ALA797  LYS798  CYS799  TRP800  GLU811  SER814 

> <Gold.Protein.RotatedAtoms>
  152.3223  133.5867  159.5752 H   0  0  0  0  0  0  0  0  0  0  0  0  # atno 6907 bound_to 6896
  150.7378  133.9993  159.3642 H   0  0  0  0  0  0  0  0  0  0  0  0  # atno 6908 bound_to 6896
  151.7876  135.0745  160.0433 H   0  0  0  0  0  0  0  0  0  0  0  0  # atno 6909 bound_to 6896
  146.2268  139.8844  142.8565 H   0  0  0  0  0  0  0  0  0  0  0  0  # atno 7974 bound_to 7965
  155.9265  140.3418  155.6214 H   0  0  0  0  0  0  0  0  0  0  0  0  # atno 8008 bound_to 7997
  155.7210  140.0783  157.2349 H   0  0  0  0  0  0  0  0  0  0  0  0  # atno 8009 bound_to 7997
  154.4078  140.1605  156.2390 H   0  0  0  0  0  0  0  0  0  0  0  0  # atno 8010 bound_to 7997
  139.8281  144.6700  150.9434 H   0  0  0  0  0  0  0  0  0  0  0  0  # atno 10167 bound_to 10162
  157.4110  131.1028  151.0454 H   0  0  0  0  0  0  0  0  0  0  0  0  # atno 10718 bound_to 10713
  154.0817  135.2859  155.3289 H   0  0  0  0  0  0  0  0  0  0  0  0  # atno 10763 bound_to 10752
  154.6679  135.5310  153.8104 H   0  0  0  0  0  0  0  0  0  0  0  0  # atno 10764 bound_to 10752
  153.0446  135.6550  154.0992 H   0  0  0  0  0  0  0  0  0  0  0  0  # atno 10765 bound_to 10752
  141.1518  133.7832  157.0044 H   0  0  0  0  0  0  0  0  0  0  0  0  # atno 11005 bound_to 11000
  145.2480  141.0034  143.3897 LP  0  0  0  0  0  0  0  0  0  0  0  0  # atno 17320 bound_to 7965
  144.9397  139.4203  143.6455 LP  0  0  0  0  0  0  0  0  0  0  0  0  # atno 17321 bound_to 7965
  140.7809  143.4027  151.1122 LP  0  0  0  0  0  0  0  0  0  0  0  0  # atno 17342 bound_to 10162
  139.7683  143.8532  152.3115 LP  0  0  0  0  0  0  0  0  0  0  0  0  # atno 17343 bound_to 10162
  157.1418  130.6146  149.5557 LP  0  0  0  0  0  0  0  0  0  0  0  0  # atno 17370 bound_to 10713
  155.9850  130.4878  150.7013 LP  0  0  0  0  0  0  0  0  0  0  0  0  # atno 17371 bound_to 10713
  140.0919  134.9587  157.1789 LP  0  0  0  0  0  0  0  0  0  0  0  0  # atno 17394 bound_to 11000
  140.3435  134.2678  155.7208 LP  0  0  0  0  0  0  0  0  0  0  0  0  # atno 17395 bound_to 11000

$$$$
