#       Name:                AV-unprocessed.smi:3284
#       Creating user name   scv26
#       Creation time:       Fri Mar 27 18:50:16 2020


#       File generated by GOLD software.
#

@<TRIPOS>MOLECULE
AV-unprocessed.smi:3284
    45    46     1
SMALL
NO_CHARGES


@<TRIPOS>ATOM
      1 ****         0.2292   3.1212   0.6405 C.3            1 S1                 0.0000
      2 ****        -1.2010   2.6163   0.7454 C.2            1 S1                 0.0000
      3 ****        -1.9728   2.9465   1.7999 C.2            1 S1                 0.0000
      4 ****        -3.4289   2.5490   1.9675 C.3            1 S1                 0.0000
      5 ****        -3.9157   1.5659   0.8903 C.3            1 S1                 0.0000
      6 ****        -3.2883   1.8735  -0.4807 C.3            1 S1                 0.0000
      7 ****        -3.9355   1.0496  -1.6071 C.3            1 S1                 0.0000
      8 ****        -1.7375   1.7730  -0.4193 C.3            1 S1                 0.0000
      9 ****        -1.2309   0.3068  -0.3719 C.3            1 S1                 0.0000
     10 ****         0.2366   0.1957  -0.4887 N.4            1 S1                 1.0000
     11 ****         0.7412  -1.1915  -0.4653 C.3            1 S1                 0.0000
     12 ****         2.2765  -1.2215  -0.5152 C.3            1 S1                 0.0000
     13 ****         2.8607  -2.6050  -0.4876 C.2            1 S1                 0.0000
     14 ****         2.3259  -3.6965  -1.0513 N.pl3          1 S1                 1.0000
     15 ****         3.1372  -4.7817  -0.8604 C.2            1 S1                 0.0000
     16 ****         4.2262  -4.3316  -0.1619 C.2            1 S1                 0.0000
     17 ****         4.0331  -2.9899   0.0463 N.pl3          1 S1                 0.0000
     18 ****         4.9451  -2.0793   0.7414 C.3            1 S1                 0.0000
     19 ****         0.4075   3.5660  -0.3388 H              1 S1                 0.0000
     20 ****         0.9507   2.3216   0.7983 H              1 S1                 0.0000
     21 ****         0.4289   3.8871   1.3908 H              1 S1                 0.0000
     22 ****        -1.5662   3.5660   2.5862 H              1 S1                 0.0000
     23 ****        -3.5793   2.1238   2.9603 H              1 S1                 0.0000
     24 ****        -4.0226   3.4627   1.9243 H              1 S1                 0.0000
     25 ****        -3.6716   0.5459   1.1879 H              1 S1                 0.0000
     26 ****        -5.0040   1.6077   0.8312 H              1 S1                 0.0000
     27 ****        -3.5239   2.9151  -0.7072 H              1 S1                 0.0000
     28 ****        -3.8935  -0.0207  -1.4055 H              1 S1                 0.0000
     29 ****        -3.4473   1.2356  -2.5639 H              1 S1                 0.0000
     30 ****        -4.9878   1.3124  -1.7205 H              1 S1                 0.0000
     31 ****        -1.3618   2.2245  -1.3389 H              1 S1                 0.0000
     32 ****        -1.5477  -0.1731   0.5546 H              1 S1                 0.0000
     33 ****        -1.6570  -0.2703  -1.1915 H              1 S1                 0.0000
     34 ****         0.5229   0.6311  -1.3542 H              1 S1                 0.0000
     35 ****         0.3901  -1.6861   0.4416 H              1 S1                 0.0000
     36 ****         0.3225  -1.7329  -1.3145 H              1 S1                 0.0000
     37 ****         2.6469  -0.7470  -1.4246 H              1 S1                 0.0000
     38 ****         2.6850  -0.6725   0.3334 H              1 S1                 0.0000
     39 ****         2.8882  -5.7655  -1.2311 H              1 S1                 0.0000
     40 ****         5.1048  -4.8542   0.1892 H              1 S1                 0.0000
     41 ****         5.8637  -2.6079   0.9985 H              1 S1                 0.0000
     42 ****         4.4691  -1.7200   1.6543 H              1 S1                 0.0000
     43 ****         5.1845  -1.2378   0.0906 H              1 S1                 0.0000
     44 ****         0.6513   0.7034   0.2802 H              1 S1                 0.0000
     45 ****         1.4456  -3.7166  -1.5506 H              1 S1                 0.0000
@<TRIPOS>BOND
    1    1    2 1     
    2    1   19 1     
    3    1   20 1     
    4    1   21 1     
    5    2    8 1     
    6    2    3 2     
    7    3    4 1     
    8    3   22 1     
    9    4    5 1     
   10    4   23 1     
   11    4   24 1     
   12    5    6 1     
   13    5   25 1     
   14    5   26 1     
   15    6    7 1     
   16    6    8 1     
   17    6   27 1     
   18    7   28 1     
   19    7   29 1     
   20    7   30 1     
   21    8    9 1     
   22    8   31 1     
   23    9   10 1     
   24    9   32 1     
   25    9   33 1     
   26   10   11 1     
   27   10   34 1     
   28   10   44 1     
   29   11   12 1     
   30   11   35 1     
   31   11   36 1     
   32   12   13 1     
   33   12   37 1     
   34   12   38 1     
   35   13   17 1     
   36   13   14 2     
   37   14   15 1     
   38   14   45 1     
   39   15   16 2     
   40   15   39 1     
   41   16   17 1     
   42   16   40 1     
   43   17   18 1     
   44   18   41 1     
   45   18   42 1     
   46   18   43 1     
@<TRIPOS>SUBSTRUCTURE
      1 S1             1
@<TRIPOS>SET
DONOR_HYDROGENS      STATIC     ATOMS    <user>   **** ""
3 34 44 45
ATOM$RED        STATIC     ATOMS    COLORGROUP SYSTEM
3 34 44 45
