AV-unprocessed.smi:62|AV-procd|sdf|603|dock3
  -GOLD-   2262016493D 1   1.00000     0.00000
 Structure written by MMmdl.
 31 32  0  0  0  0  0  0  0  0  3 V2000
  147.9278  132.2203  153.8804 C   0  0  0  0  0  0  0  0  0  0  0  0
  148.8913  133.0907  154.5192 N   0  0  0  0  0  0  0  0  0  0  0  0
  149.1557  134.4169  154.2653 C   0  0  0  0  0  0  0  0  0  0  0  0
  150.1459  134.8206  155.1179 C   0  0  0  0  0  0  0  0  0  0  0  0
  150.7503  136.2032  155.1898 C   0  0  0  0  0  0  0  0  0  0  0  0
  149.9500  137.1865  154.4229 N   0  3  1  0  0  0  0  0  0  0  0  0
  148.5729  137.4064  154.9177 C   0  0  0  0  0  0  0  0  0  0  0  0
  148.2094  138.8181  154.4687 C   0  0  0  0  0  0  0  0  0  0  0  0
  149.5331  139.5594  154.6270 C   0  0  2  0  0  0  0  0  0  0  0  0
  149.6013  140.7045  153.8037 O   0  0  0  0  0  0  0  0  0  0  0  0
  150.5933  138.5115  154.2605 C   0  0  0  0  0  0  0  0  0  0  0  0
  150.4285  133.6317  155.8731 C   0  0  0  0  0  0  0  0  0  0  0  0
  151.4846  133.5886  156.9457 C   0  0  0  0  0  0  0  0  0  0  0  0
  151.6587  132.5432  157.6103 O   0  0  0  0  0  0  0  0  0  0  0  0
  152.1571  134.6233  157.1462 O   0  5  0  0  0  0  0  0  0  0  0  0
  149.6702  132.6080  155.5048 N   0  0  0  0  0  0  0  0  0  0  0  0
  147.3966  132.7609  153.0964 H   0  0  0  0  0  0  0  0  0  0  0  0
  147.2067  131.8646  154.6171 H   0  0  0  0  0  0  0  0  0  0  0  0
  148.4392  131.3651  153.4375 H   0  0  0  0  0  0  0  0  0  0  0  0
  148.6203  134.9640  153.5032 H   0  0  0  0  0  0  0  0  0  0  0  0
  150.8264  136.5435  156.2237 H   0  0  0  0  0  0  0  0  0  0  0  0
  151.7712  136.1987  154.8063 H   0  0  0  0  0  0  0  0  0  0  0  0
  147.8828  136.6544  154.5335 H   0  0  0  0  0  0  0  0  0  0  0  0
  148.5575  137.3543  156.0077 H   0  0  0  0  0  0  0  0  0  0  0  0
  147.9026  138.8014  153.4215 H   0  0  0  0  0  0  0  0  0  0  0  0
  147.4005  139.2576  155.0531 H   0  0  0  0  0  0  0  0  0  0  0  0
  149.6590  139.8557  155.6693 H   0  0  0  0  0  0  0  0  0  0  0  0
  149.4091  140.4499  152.9139 H   0  0  0  0  0  0  0  0  0  0  0  0
  151.4860  138.6252  154.8775 H   0  0  0  0  0  0  0  0  0  0  0  0
  150.9009  138.6032  153.2179 H   0  0  0  0  0  0  0  0  0  0  0  0
  149.8618  136.8126  153.4874 H   0  0  0  0  0  0  0  0  0  0  0  0
  1  2  1  0  0  0  0
  1 17  1  0  0  0  0
  1 18  1  0  0  0  0
  1 19  1  0  0  0  0
  2 16  1  0  0  0  0
  2  3  1  0  0  0  0
  3  4  2  0  0  0  0
  3 20  1  0  0  0  0
  4  5  1  0  0  0  0
  4 12  1  0  0  0  0
  5  6  1  0  0  0  0
  5 21  1  0  0  0  0
  5 22  1  0  0  0  0
  6 11  1  0  0  0  0
  6  7  1  0  0  0  0
  6 31  1  0  0  0  0
  7  8  1  0  0  0  0
  7 23  1  0  0  0  0
  7 24  1  0  0  0  0
  8  9  1  0  0  0  0
  8 25  1  0  0  0  0
  8 26  1  0  0  0  0
  9 10  1  0  0  0  0
  9 11  1  0  0  0  0
  9 27  1  0  0  0  0
 10 28  1  0  0  0  0
 11 29  1  0  0  0  0
 11 30  1  0  0  0  0
 12 13  1  0  0  0  0
 12 16  2  0  0  0  0
 13 14  2  0  0  0  0
 13 15  1  0  0  0  0
M  CHG  1   6   1
M  CHG  1  15  -1
M  END
> <s_m_source_file>
AV-unprocessed.smi

> <i_m_source_file_index>
62

> <i_lp_mmshare_version>
43012

> <i_f3d_flags>
0

> <s_epik_input>
W0NIM11uMVtjSF1jKGMobjEpQyg9TylbT0hdKVtDSDJdTjJbQ0gyXVtDSDJdW0NAQEhdKFtPSF0pW0NIMl0y

> <s_epik_cmdline>
J2VwaWtfcHl0aG9uJywgJy1waCcsICc3LjAnLCAnLXRuJywgJzgnLCAnLW1hJywgJzIwMCcsICctbWV0YWxfYmluZGluZycsICctaW1hZScsICc8aW5maWxlLm1hZT4nLCAnLW9tYWUnLCAnPG91dGZpbGUubWFlPic=

> <r_epik_Ionization_Penalty>
0.0522993

> <r_epik_Ionization_Penalty_Charging>
0.0522915

> <r_epik_Ionization_Penalty_Neutral>
7.84975e-06

> <r_epik_State_Penalty>
0.0448084

> <r_epik_Charging_Adjusted_Penalty>
0.0970998

> <i_epik_Tot_Q>
0

> <i_epik_Tot_abs_Q>
2

> <r_epik_Metal_State_Penalty>
0.0448097

> <b_epik_Metal_Only>
0

> <s_lp_Force_Field>
OPLS_2005

> <r_lp_Energy>
17.4079

> <b_lp_Chiralities_Consistent>
1

> <s_lp_Variant>
AV-unprocessed.smi:62-3

> <Gold.Version>
5.8.1

> <Gold.Id.Protein>
6NUR|6NUR_protein|mol2

> <Gold.PLP.Fitness>
48.6520

> <Gold.PLP.PLP>
-23.8408

> <Gold.PLP.part.hbond>
-6.0767

> <Gold.PLP.part.metal>
0.0000

> <Gold.PLP.part.buried>
-0.9814

> <Gold.PLP.part.nonpolar>
-17.3386

> <Gold.PLP.part.repulsive>
0.0353

> <Gold.PLP.ligand.clash>
0.0000

> <Gold.PLP.ligand.torsion>
0.1653

> <Gold.PLP.Chemscore.Hbond>
7.3760

> <Gold.PLP.Chemscore.CHOScore>
1.0000

> <Gold.PLP.Chemscore.Metal>
0.0000

> <Gold.Chemscore.Hbonds>
donor molecule, donor type, donor heavy atom, donor atom, acceptor molecule, acceptor atom, score
      L1  H     6    31       P1  7948  2.00
      L1  H    10    28       P1  7957  1.00
      P1  H  6896  6908       L1    14  1.76
      P1  H  7989  7998       L1    10  0.34
      P1  H 10752 10765       L1    15  0.28
      L1  C     3    20       P1  7948  1.00

> <Gold.PLP.Chemscore.Internal.Correction>
0.0138

> <Gold.Rescore>
     Score         DG    S(hbond)    S(metal)    S(lipo)     H(rot)  DE(clash)    DE(int)     intcor
     14.90     -16.49       3.05        0.00      46.68       1.81       0.09       1.50       ----

> <Gold.Chemscore.Fitness>
14.9008

> <Gold.Chemscore.DG>
-16.4897

> <Gold.Chemscore.ZeroCoef>
-5.4800

> <Gold.Chemscore.Hbond>
3.0477

> <Gold.Chemscore.Metal>
0.0000

> <Gold.Chemscore.Lipo>
46.6813

> <Gold.Chemscore.Internal_Hbond>
0.0000

> <Gold.Chemscore.DEClash>
0.0926

> <Gold.Chemscore.DEInternal>
1.4963

> <Gold.Chemscore.Rot>
1.8091

> <Gold.Chemscore.Internal.Correction>
   9.000000E+99

> <Gold.Chemscore.Hbonds>
donor molecule, donor type, donor heavy atom, donor atom, acceptor molecule, acceptor atom, score
      L1  H     6    31       P1  7948  0.34
      L1  H    10    28       P1  7957  1.00
      P1  H  6896  6908       L1    14  0.17
      P1  H  7989  7998       L1    10  0.01
      P1  H 10752 10765       L1    15  0.13

> <Gold.Chemscore.Hbond.Weighted>
-10.1793

> <Gold.Chemscore.Metal.Weighted>
-0.0000

> <Gold.Chemscore.Lipo.Weighted>
-5.4617

> <Gold.Chemscore.Internal_Hbond.Weighted>
0.0000

> <Gold.Chemscore.DEClash.Weighted>
0.0926

> <Gold.Chemscore.DEInternal.Weighted>
1.4963

> <Gold.Chemscore.Rot.Weighted>
4.6314

> <Gold.Chemscore.Internal.Correction.Weighted>
   9.000000E+99

> <Gold.Protein.RotatedTorsions>
[ 6907 6896 6895 6894 ] final   52.79 input  -60.11 | X-H torsion
[ 7974 7965 7964 7962 ] final   57.22 input  175.53 | X-H torsion
[ 8008 7997 7996 7995 ] final  -97.29 input   59.86 | X-H torsion
[ 10167 10162 10161 10158 ] final  163.59 input  -65.29 | X-H torsion
[ 10718 10713 10712 10709 ] final   94.47 input   66.30 | X-H torsion
[ 10763 10752 10751 10750 ] final -125.96 input  -60.55 | X-H torsion
[ 11005 11000 10999 10996 ] final  -31.97 input  -57.11 | X-H torsion

> <Gold.Protein.ActiveResidues>
 VAL166  LYS551  ARG553  GLY616  TRP617  ASP618  TYR619  PRO620  LYS621  CYS622 
 ASP623  PHE694  ASN695  SER759  ASP760  ASP761  ALA762  ILE779  LEU786  VAL792 
 PHE793  MET794  SER795  GLU796  ALA797  LYS798  CYS799  TRP800  GLU811  SER814 

> <Gold.Protein.RotatedAtoms>
  152.3270  134.7308  160.0299 H   0  0  0  0  0  0  0  0  0  0  0  0  # atno 6907 bound_to 6896
  151.7737  133.3338  159.3460 H   0  0  0  0  0  0  0  0  0  0  0  0  # atno 6908 bound_to 6896
  150.7401  134.5926  159.6040 H   0  0  0  0  0  0  0  0  0  0  0  0  # atno 6909 bound_to 6896
  145.9314  139.3810  143.0419 H   0  0  0  0  0  0  0  0  0  0  0  0  # atno 7974 bound_to 7965
  154.7858  140.0464  157.1163 H   0  0  0  0  0  0  0  0  0  0  0  0  # atno 8008 bound_to 7997
  154.9650  140.3082  155.4994 H   0  0  0  0  0  0  0  0  0  0  0  0  # atno 8009 bound_to 7997
  156.2943  140.2264  156.4738 H   0  0  0  0  0  0  0  0  0  0  0  0  # atno 8010 bound_to 7997
  139.4876  144.4322  151.9057 H   0  0  0  0  0  0  0  0  0  0  0  0  # atno 10167 bound_to 10162
  157.6947  131.0513  150.4191 H   0  0  0  0  0  0  0  0  0  0  0  0  # atno 10718 bound_to 10713
  154.8741  135.4012  154.3353 H   0  0  0  0  0  0  0  0  0  0  0  0  # atno 10763 bound_to 10752
  153.4160  135.7022  153.6332 H   0  0  0  0  0  0  0  0  0  0  0  0  # atno 10764 bound_to 10752
  153.5014  135.3727  155.2512 H   0  0  0  0  0  0  0  0  0  0  0  0  # atno 10765 bound_to 10752
  140.9513  133.7219  156.1225 H   0  0  0  0  0  0  0  0  0  0  0  0  # atno 11005 bound_to 11000
  145.8421  140.9575  143.0794 LP  0  0  0  0  0  0  0  0  0  0  0  0  # atno 17320 bound_to 7965
  144.6765  140.0298  143.7482 LP  0  0  0  0  0  0  0  0  0  0  0  0  # atno 17321 bound_to 7965
  140.3770  144.2784  150.5913 LP  0  0  0  0  0  0  0  0  0  0  0  0  # atno 17342 bound_to 10162
  140.5268  143.2252  151.8302 LP  0  0  0  0  0  0  0  0  0  0  0  0  # atno 17343 bound_to 10162
  156.4567  130.4023  149.6601 LP  0  0  0  0  0  0  0  0  0  0  0  0  # atno 17370 bound_to 10713
  156.3731  130.7541  151.2526 LP  0  0  0  0  0  0  0  0  0  0  0  0  # atno 17371 bound_to 10713
  140.7598  134.3952  157.5527 LP  0  0  0  0  0  0  0  0  0  0  0  0  # atno 17394 bound_to 11000
  139.8848  134.8954  156.2679 LP  0  0  0  0  0  0  0  0  0  0  0  0  # atno 17395 bound_to 11000

$$$$
