AV-unprocessed.smi:486|AV-procd|sdf|2695|dock8
  -GOLD-   2262023133D 1   1.00000     0.00000
 Structure written by MMmdl.
 43 45  0  0  0  0  0  0  0  0  1 V2000
  143.2161  147.3217  154.5702 C   0  0  0  0  0  0  0  0  0  0  0  0
  143.0914  146.0508  155.1916 O   0  0  0  0  0  0  0  0  0  0  0  0
  144.0045  145.0734  154.8581 C   0  0  0  0  0  0  0  0  0  0  0  0
  144.5989  145.1587  153.5840 C   0  0  0  0  0  0  0  0  0  0  0  0
  145.5426  144.2026  153.1636 C   0  0  0  0  0  0  0  0  0  0  0  0
  145.9131  143.1358  154.0056 C   0  0  0  0  0  0  0  0  0  0  0  0
  146.8419  142.2432  153.5150 O   0  0  0  0  0  0  0  0  0  0  0  0
  147.2226  141.1466  154.3360 C   0  0  0  0  0  0  0  0  0  0  0  0
  148.7462  141.1817  154.5332 C   0  0  2  0  0  0  0  0  0  0  0  0
  149.3550  141.3741  153.2714 O   0  0  0  0  0  0  0  0  0  0  0  0
  149.2764  139.8735  155.1552 C   0  0  0  0  0  0  0  0  0  0  0  0
  150.4614  140.0786  155.9778 N   0  0  0  0  0  0  0  0  0  0  0  0
  151.6204  139.3755  155.9585 C   0  0  0  0  0  0  0  0  0  0  0  0
  151.8338  138.2309  155.0195 C   0  0  0  0  0  0  0  0  0  0  0  0
  152.5561  139.7713  156.8215 N   0  0  0  0  0  0  0  0  0  0  0  0
  151.9476  140.8342  157.4610 C   0  0  0  0  0  0  0  0  0  0  0  0
  152.4230  141.6824  158.4866 C   0  0  0  0  0  0  0  0  0  0  0  0
  151.6097  142.7191  158.9900 C   0  0  0  0  0  0  0  0  0  0  0  0
  150.3121  142.9213  158.4769 C   0  0  0  0  0  0  0  0  0  0  0  0
  149.8187  142.0871  157.4552 C   0  0  0  0  0  0  0  0  0  0  0  0
  150.6346  141.0544  156.9553 C   0  0  0  0  0  0  0  0  0  0  0  0
  145.3183  143.0458  155.2882 C   0  0  0  0  0  0  0  0  0  0  0  0
  144.3752  144.0035  155.7096 C   0  0  0  0  0  0  0  0  0  0  0  0
  142.4233  147.9775  154.9296 H   0  0  0  0  0  0  0  0  0  0  0  0
  143.1153  147.2469  153.4868 H   0  0  0  0  0  0  0  0  0  0  0  0
  144.1694  147.7932  154.8134 H   0  0  0  0  0  0  0  0  0  0  0  0
  144.3290  145.9671  152.9204 H   0  0  0  0  0  0  0  0  0  0  0  0
  145.9863  144.2890  152.1826 H   0  0  0  0  0  0  0  0  0  0  0  0
  146.7308  141.2565  155.3039 H   0  0  0  0  0  0  0  0  0  0  0  0
  146.9096  140.1922  153.9084 H   0  0  0  0  0  0  0  0  0  0  0  0
  149.0090  142.0186  155.1806 H   0  0  0  0  0  0  0  0  0  0  0  0
  149.3801  140.5428  152.8223 H   0  0  0  0  0  0  0  0  0  0  0  0
  148.5049  139.4051  155.7672 H   0  0  0  0  0  0  0  0  0  0  0  0
  149.5169  139.1530  154.3724 H   0  0  0  0  0  0  0  0  0  0  0  0
  152.7983  137.7576  155.2069 H   0  0  0  0  0  0  0  0  0  0  0  0
  151.8190  138.5826  153.9879 H   0  0  0  0  0  0  0  0  0  0  0  0
  151.0550  137.4801  155.1492 H   0  0  0  0  0  0  0  0  0  0  0  0
  153.4152  141.5352  158.8866 H   0  0  0  0  0  0  0  0  0  0  0  0
  151.9835  143.3614  159.7738 H   0  0  0  0  0  0  0  0  0  0  0  0
  149.6950  143.7163  158.8690 H   0  0  0  0  0  0  0  0  0  0  0  0
  148.8239  142.2368  157.0628 H   0  0  0  0  0  0  0  0  0  0  0  0
  145.5696  142.2494  155.9720 H   0  0  0  0  0  0  0  0  0  0  0  0
  143.9494  143.8943  156.6952 H   0  0  0  0  0  0  0  0  0  0  0  0
  1  2  1  0  0  0  0
  1 24  1  0  0  0  0
  1 25  1  0  0  0  0
  1 26  1  0  0  0  0
  2  3  1  0  0  0  0
  3 23  1  0  0  0  0
  3  4  2  0  0  0  0
  4  5  1  0  0  0  0
  4 27  1  0  0  0  0
  5  6  2  0  0  0  0
  5 28  1  0  0  0  0
  6  7  1  0  0  0  0
  6 22  1  0  0  0  0
  7  8  1  0  0  0  0
  8  9  1  0  0  0  0
  8 29  1  0  0  0  0
  8 30  1  0  0  0  0
  9 10  1  0  0  0  0
  9 11  1  0  0  0  0
  9 31  1  0  0  0  0
 10 32  1  0  0  0  0
 11 12  1  0  0  0  0
 11 33  1  0  0  0  0
 11 34  1  0  0  0  0
 12 21  1  0  0  0  0
 12 13  1  0  0  0  0
 13 14  1  0  0  0  0
 13 15  2  0  0  0  0
 14 35  1  0  0  0  0
 14 36  1  0  0  0  0
 14 37  1  0  0  0  0
 15 16  1  0  0  0  0
 16 21  2  0  0  0  0
 16 17  1  0  0  0  0
 17 18  2  0  0  0  0
 17 38  1  0  0  0  0
 18 19  1  0  0  0  0
 18 39  1  0  0  0  0
 19 20  2  0  0  0  0
 19 40  1  0  0  0  0
 20 21  1  0  0  0  0
 20 41  1  0  0  0  0
 22 23  2  0  0  0  0
 22 42  1  0  0  0  0
 23 43  1  0  0  0  0
M  END
> <s_m_source_file>
AV-unprocessed.smi

> <i_m_source_file_index>
486

> <i_lp_mmshare_version>
43012

> <i_f3d_flags>
0

> <s_epik_input>
W0NIM11PYzFbY0hdW2NIXWMoW2NIXVtjSF0xKU9bQ0gyXVtDQEhdKFtPSF0pW0NIMl1uKGMobjIpW0NIM10pYyhjMjMpW2NIXVtjSF1bY0hdW2NIXTM=

> <s_epik_cmdline>
J2VwaWtfcHl0aG9uJywgJy1waCcsICc3LjAnLCAnLXRuJywgJzgnLCAnLW1hJywgJzIwMCcsICctbWV0YWxfYmluZGluZycsICctaW1hZScsICc8aW5maWxlLm1hZT4nLCAnLW9tYWUnLCAnPG91dGZpbGUubWFlPic=

> <r_lp_tautomer_probability>
1

> <r_epik_Ionization_Penalty>
0.114052

> <r_epik_Ionization_Penalty_Charging>
0

> <r_epik_Ionization_Penalty_Neutral>
0.114052

> <r_epik_State_Penalty>
0.103717

> <r_epik_Charging_Adjusted_Penalty>
0.103717

> <i_epik_Tot_Q>
0

> <i_epik_Tot_abs_Q>
0

> <r_epik_Metal_State_Penalty>
0.000113338

> <b_epik_Metal_Only>
0

> <s_lp_Force_Field>
OPLS_2005

> <r_lp_Energy>
19.9985

> <b_lp_Chiralities_Consistent>
1

> <s_lp_Variant>
AV-unprocessed.smi:486-1

> <Gold.Version>
5.8.1

> <Gold.Id.Protein>
6NUR|6NUR_protein|mol2

> <Gold.PLP.Fitness>
50.2675

> <Gold.PLP.PLP>
-44.5891

> <Gold.PLP.part.hbond>
-3.7430

> <Gold.PLP.part.metal>
0.0000

> <Gold.PLP.part.buried>
-5.7577

> <Gold.PLP.part.nonpolar>
-35.3073

> <Gold.PLP.part.repulsive>
0.2073

> <Gold.PLP.ligand.clash>
0.0000

> <Gold.PLP.ligand.torsion>
1.3362

> <Gold.PLP.Chemscore.Hbond>
2.7440

> <Gold.PLP.Chemscore.CHOScore>
0.0000

> <Gold.PLP.Chemscore.Metal>
0.0000

> <Gold.Chemscore.Hbonds>
donor molecule, donor type, donor heavy atom, donor atom, acceptor molecule, acceptor atom, score
      L1  H    10    32       P1  7957  0.69
      P1  H  7997  8009       L1    15  1.00
      P1  H  8011  8017       L1    10  0.84

> <Gold.PLP.Chemscore.Internal.Correction>
0.1187

> <Gold.Rescore>
     Score         DG    S(hbond)    S(metal)    S(lipo)     H(rot)  DE(clash)    DE(int)     intcor
     18.54     -19.82       2.18        0.00     110.75       2.30       0.07       1.22       ----

> <Gold.Chemscore.Fitness>
18.5361

> <Gold.Chemscore.DG>
-19.8234

> <Gold.Chemscore.ZeroCoef>
-5.4800

> <Gold.Chemscore.Hbond>
2.1795

> <Gold.Chemscore.Metal>
0.0000

> <Gold.Chemscore.Lipo>
110.7501

> <Gold.Chemscore.Internal_Hbond>
0.0000

> <Gold.Chemscore.DEClash>
0.0695

> <Gold.Chemscore.DEInternal>
1.2177

> <Gold.Chemscore.Rot>
2.3023

> <Gold.Chemscore.Internal.Correction>
   9.000000E+99

> <Gold.Chemscore.Hbonds>
donor molecule, donor type, donor heavy atom, donor atom, acceptor molecule, acceptor atom, score
      L1  H    10    32       P1  7957  0.68
      P1  H  7997  8009       L1    15  0.74
      P1  H  8011  8017       L1    10  0.52

> <Gold.Chemscore.Hbond.Weighted>
-7.2796

> <Gold.Chemscore.Metal.Weighted>
-0.0000

> <Gold.Chemscore.Lipo.Weighted>
-12.9578

> <Gold.Chemscore.Internal_Hbond.Weighted>
0.0000

> <Gold.Chemscore.DEClash.Weighted>
0.0695

> <Gold.Chemscore.DEInternal.Weighted>
1.2177

> <Gold.Chemscore.Rot.Weighted>
5.8940

> <Gold.Chemscore.Internal.Correction.Weighted>
   9.000000E+99

> <Gold.Protein.RotatedTorsions>
[ 6907 6896 6895 6894 ] final   73.20 input  -60.11 | X-H torsion
[ 7974 7965 7964 7962 ] final   68.55 input  175.53 | X-H torsion
[ 8008 7997 7996 7995 ] final -178.87 input   59.86 | X-H torsion
[ 10167 10162 10161 10158 ] final  -85.48 input  -65.29 | X-H torsion
[ 10718 10713 10712 10709 ] final  -52.72 input   66.30 | X-H torsion
[ 10763 10752 10751 10750 ] final -139.88 input  -60.55 | X-H torsion
[ 11005 11000 10999 10996 ] final   -4.14 input  -57.11 | X-H torsion

> <Gold.Protein.ActiveResidues>
 VAL166  LYS551  ARG553  GLY616  TRP617  ASP618  TYR619  PRO620  LYS621  CYS622 
 ASP623  PHE694  ASN695  SER759  ASP760  ASP761  ALA762  ILE779  LEU786  VAL792 
 PHE793  MET794  SER795  GLU796  ALA797  LYS798  CYS799  TRP800  GLU811  SER814 

> <Gold.Protein.RotatedAtoms>
  152.4910  134.4457  159.9557 H   0  0  0  0  0  0  0  0  0  0  0  0  # atno 6907 bound_to 6896
  151.4444  133.3628  159.2794 H   0  0  0  0  0  0  0  0  0  0  0  0  # atno 6908 bound_to 6896
  150.9065  134.8504  159.7456 H   0  0  0  0  0  0  0  0  0  0  0  0  # atno 6909 bound_to 6896
  145.8012  139.2983  143.1153 H   0  0  0  0  0  0  0  0  0  0  0  0  # atno 7974 bound_to 7965
  156.0239  140.1267  157.0328 H   0  0  0  0  0  0  0  0  0  0  0  0  # atno 8008 bound_to 7997
  154.4322  140.1063  156.6073 H   0  0  0  0  0  0  0  0  0  0  0  0  # atno 8009 bound_to 7997
  155.5904  140.3469  155.4567 H   0  0  0  0  0  0  0  0  0  0  0  0  # atno 8010 bound_to 7997
  140.4033  143.2653  151.9113 H   0  0  0  0  0  0  0  0  0  0  0  0  # atno 10167 bound_to 10162
  156.1596  130.4150  149.9813 H   0  0  0  0  0  0  0  0  0  0  0  0  # atno 10718 bound_to 10713
  154.8596  135.3569  154.5618 H   0  0  0  0  0  0  0  0  0  0  0  0  # atno 10763 bound_to 10752
  153.6233  135.7005  153.5307 H   0  0  0  0  0  0  0  0  0  0  0  0  # atno 10764 bound_to 10752
  153.3110  135.4178  155.1296 H   0  0  0  0  0  0  0  0  0  0  0  0  # atno 10765 bound_to 10752
  140.6770  133.9186  155.8531 H   0  0  0  0  0  0  0  0  0  0  0  0  # atno 11005 bound_to 11000
  145.9875  140.8630  143.0083 LP  0  0  0  0  0  0  0  0  0  0  0  0  # atno 17320 bound_to 7965
  144.6768  140.2168  143.7371 LP  0  0  0  0  0  0  0  0  0  0  0  0  # atno 17321 bound_to 7965
  139.4784  144.5611  151.8238 LP  0  0  0  0  0  0  0  0  0  0  0  0  # atno 17342 bound_to 10162
  140.4716  144.1579  150.5919 LP  0  0  0  0  0  0  0  0  0  0  0  0  # atno 17343 bound_to 10162
  156.7646  130.9164  151.3642 LP  0  0  0  0  0  0  0  0  0  0  0  0  # atno 17370 bound_to 10713
  157.6722  130.9062  150.0067 LP  0  0  0  0  0  0  0  0  0  0  0  0  # atno 17371 bound_to 10713
  141.0347  134.0706  157.3973 LP  0  0  0  0  0  0  0  0  0  0  0  0  # atno 17394 bound_to 11000
  139.8963  135.0145  156.7046 LP  0  0  0  0  0  0  0  0  0  0  0  0  # atno 17395 bound_to 11000

$$$$
