#       Name:                AV-unprocessed.smi:2855
#       Creating user name   scv26
#       Creation time:       Fri Mar 27 15:44:22 2020


#       File generated by GOLD software.
#

@<TRIPOS>MOLECULE
AV-unprocessed.smi:2855
    53    54     1
SMALL
NO_CHARGES


@<TRIPOS>ATOM
      1 ****        -4.5355  -0.8888   1.7845 C.3            1 S1                 0.0000
      2 ****        -3.0004  -0.9025   1.8002 C.3            1 S1                 0.0000
      3 ****        -2.4438  -0.2722   3.0875 C.3            1 S1                 0.0000
      4 ****        -0.9082  -0.2948   3.1044 C.3            1 S1                 0.0000
      5 ****        -0.3024   0.4198   1.8725 C.3            1 S1                 0.0000
      6 ****         1.2543   0.4913   1.9106 C.3            1 S1                 0.0000
      7 ****         1.9463  -0.8842   1.9257 C.3            1 S1                 0.0000
      8 ****         1.7747   1.3720   3.0598 C.3            1 S1                 0.0000
      9 ****        -0.8773  -0.1962   0.5652 C.3            1 S1                 0.0000
     10 ****        -0.4167   0.5395  -0.6119 N.am           1 S1                 0.0000
     11 ****         0.3685   0.0591  -1.5886 C.2            1 S1                 0.0000
     12 ****         0.8044  -1.0930  -1.6030 O.2            1 S1                 0.0000
     13 ****         0.7240   1.0572  -2.6997 C.3            1 S1                 0.0000
     14 ****         1.4809   0.4582  -3.8111 N.am           1 S1                 0.0000
     15 ****         2.8841   0.5242  -3.7511 C.2            1 S1                 0.0000
     16 ****         3.6622   0.0025  -4.7184 C.2            1 S1                 0.0000
     17 ****         3.0132  -0.6446  -5.8518 C.2            1 S1                 0.0000
     18 ****         3.7076  -1.1203  -6.7480 O.2            1 S1                 0.0000
     19 ****         1.6486  -0.6900  -5.8607 N.pl3          1 S1                -1.0000
     20 ****         0.8700  -0.1585  -4.8674 C.2            1 S1                 0.0000
     21 ****        -0.3599  -0.2148  -4.8929 O.2            1 S1                 0.0000
     22 ****        -2.4188  -0.1868   0.5688 C.3            1 S1                 0.0000
     23 ****        -4.9237   0.1300   1.8136 H              1 S1                 0.0000
     24 ****        -4.9421  -1.4250   2.6424 H              1 S1                 0.0000
     25 ****        -4.9221  -1.3670   0.8840 H              1 S1                 0.0000
     26 ****        -2.6802  -1.9450   1.7677 H              1 S1                 0.0000
     27 ****        -2.7948   0.7566   3.1799 H              1 S1                 0.0000
     28 ****        -2.8242  -0.8070   3.9586 H              1 S1                 0.0000
     29 ****        -0.5647   0.1721   4.0267 H              1 S1                 0.0000
     30 ****        -0.5725  -1.3314   3.1398 H              1 S1                 0.0000
     31 ****        -0.6562   1.4519   1.9056 H              1 S1                 0.0000
     32 ****         1.5827   0.9930   1.0005 H              1 S1                 0.0000
     33 ****         1.7302  -1.4364   2.8399 H              1 S1                 0.0000
     34 ****         3.0289  -0.7723   1.8634 H              1 S1                 0.0000
     35 ****         1.6421  -1.5010   1.0810 H              1 S1                 0.0000
     36 ****         1.5932   0.9199   4.0347 H              1 S1                 0.0000
     37 ****         1.3021   2.3545   3.0516 H              1 S1                 0.0000
     38 ****         2.8503   1.5283   2.9719 H              1 S1                 0.0000
     39 ****        -0.5634  -1.2392   0.5046 H              1 S1                 0.0000
     40 ****        -0.7213   1.4988  -0.6899 H              1 S1                 0.0000
     41 ****        -0.1924   1.5220  -3.0677 H              1 S1                 0.0000
     42 ****         1.2980   1.8718  -2.2557 H              1 S1                 0.0000
     43 ****         3.2835   1.0142  -2.8754 H              1 S1                 0.0000
     44 ****         4.7390   0.0588  -4.6555 H              1 S1                 0.0000
     45 ****        -2.7883  -0.6650  -0.3398 H              1 S1                 0.0000
     46 ****        -2.7808   0.8423   0.5422 H              1 S1                 0.0000
     47 ****         0.5765  -1.7232  -0.8607 LP             1 S1                 0.0000
     48 ****         1.3862  -1.3981  -2.3569 LP             1 S1                 0.0000
     49 ****         4.7043  -1.0604  -6.6934 LP             1 S1                 0.0000
     50 ****         3.2757  -1.5671  -7.5314 LP             1 S1                 0.0000
     51 ****         1.1941  -1.1345  -6.6326 LP             1 S1                 0.0000
     52 ****        -0.8943   0.1865  -4.1490 LP             1 S1                 0.0000
     53 ****        -0.8242  -0.6620  -5.6574 LP             1 S1                 0.0000
@<TRIPOS>BOND
    1    1    2 1     
    2    1   23 1     
    3    1   24 1     
    4    1   25 1     
    5    2   22 1     
    6    2    3 1     
    7    2   26 1     
    8    3    4 1     
    9    3   27 1     
   10    3   28 1     
   11    4    5 1     
   12    4   29 1     
   13    4   30 1     
   14    5    6 1     
   15    5    9 1     
   16    5   31 1     
   17    6    7 1     
   18    6    8 1     
   19    6   32 1     
   20    7   33 1     
   21    7   34 1     
   22    7   35 1     
   23    8   36 1     
   24    8   37 1     
   25    8   38 1     
   26    9   10 1     
   27    9   22 1     
   28    9   39 1     
   29   10   11 am    
   30   10   40 1     
   31   11   12 2     
   32   11   13 1     
   33   13   14 1     
   34   13   41 1     
   35   13   42 1     
   36   14   20 am    
   37   14   15 1     
   38   15   16 2     
   39   15   43 1     
   40   16   17 1     
   41   16   44 1     
   42   17   18 2     
   43   17   19 1     
   44   19   20 1     
   45   20   21 2     
   46   22   45 1     
   47   22   46 1     
   48   12   47 1     
   49   12   48 1     
   50   18   49 1     
   51   18   50 1     
   52   19   51 1     
   53   21   52 1     
   54   21   53 1     
@<TRIPOS>SUBSTRUCTURE
      1 S1             1
@<TRIPOS>SET
LONE_PAIRS      STATIC     ATOMS    <user>   **** ""
7 47 48 49 50 51 52 53
DONOR_HYDROGENS      STATIC     ATOMS    <user>   **** ""
1 40
ATOM$BLUE        STATIC     ATOMS    COLORGROUP SYSTEM
7 47 48 49 50 51 52 53
ATOM$RED        STATIC     ATOMS    COLORGROUP SYSTEM
1 40
