AV-unprocessed.smi:1780|AV-procd|sdf|7186|dock10
  -GOLD-   22720 8423D 1   1.00000     0.00000
 Structure written by MMmdl.
 44 45  0  0  0  0  0  0  0  0  2 V2000
  150.8719  141.1160  157.8671 C   0  0  0  0  0  0  0  0  0  0  0  0
  151.3258  141.3577  156.4225 C   0  0  0  0  0  0  0  0  0  0  0  0
  151.5227  140.1139  155.7037 N   0  0  0  0  0  0  0  0  0  0  0  0
  150.5966  139.1237  155.4411 C   0  0  0  0  0  0  0  0  0  0  0  0
  151.2695  138.1664  154.7355 C   0  0  0  0  0  0  0  0  0  0  0  0
  150.7984  136.9348  154.2144 N   0  0  0  0  0  0  0  0  0  0  0  0
  150.3438  135.8780  154.9069 C   0  0  0  0  0  0  0  0  0  0  0  0
  150.2651  135.8138  156.1340 O   0  0  0  0  0  0  0  0  0  0  0  0
  149.9693  134.8827  154.0908 N   0  0  0  0  0  0  0  0  0  0  0  0
  149.4144  133.6067  154.5330 C   0  0  0  0  0  0  0  0  0  0  0  0
  148.6092  132.8744  153.4257 C   0  0  1  0  0  0  0  0  0  0  0  0
  148.0685  131.5267  153.9629 C   0  0  0  0  0  0  0  0  0  0  0  0
  147.5389  133.7729  152.8808 N   0  3  0  0  0  0  0  0  0  0  0  0
  146.7633  133.1363  151.7811 C   0  0  0  0  0  0  0  0  0  0  0  0
  145.7437  134.1191  151.1837 C   0  0  0  0  0  0  0  0  0  0  0  0
  144.8650  134.5657  152.2055 O   0  0  0  0  0  0  0  0  0  0  0  0
  145.5641  135.2647  153.2245 C   0  0  0  0  0  0  0  0  0  0  0  0
  146.5968  134.3363  153.8877 C   0  0  0  0  0  0  0  0  0  0  0  0
  152.6008  138.6416  154.6103 C   0  0  0  0  0  0  0  0  0  0  0  0
  152.7455  139.8208  155.1954 N   0  0  0  0  0  0  0  0  0  0  0  0
  150.7203  142.0612  158.3887 H   0  0  0  0  0  0  0  0  0  0  0  0
  151.6146  140.5449  158.4250 H   0  0  0  0  0  0  0  0  0  0  0  0
  149.9320  140.5643  157.8971 H   0  0  0  0  0  0  0  0  0  0  0  0
  150.5838  141.9547  155.8910 H   0  0  0  0  0  0  0  0  0  0  0  0
  152.2581  141.9239  156.4065 H   0  0  0  0  0  0  0  0  0  0  0  0
  149.5717  139.1939  155.7747 H   0  0  0  0  0  0  0  0  0  0  0  0
  150.7999  136.8554  153.2080 H   0  0  0  0  0  0  0  0  0  0  0  0
  150.0706  135.0182  153.0952 H   0  0  0  0  0  0  0  0  0  0  0  0
  150.2434  132.9784  154.8604 H   0  0  0  0  0  0  0  0  0  0  0  0
  148.8123  133.7944  155.4211 H   0  0  0  0  0  0  0  0  0  0  0  0
  149.2820  132.6339  152.6010 H   0  0  0  0  0  0  0  0  0  0  0  0
  148.8642  130.9071  154.3761 H   0  0  0  0  0  0  0  0  0  0  0  0
  147.6109  130.9266  153.1763 H   0  0  0  0  0  0  0  0  0  0  0  0
  147.3310  131.6785  154.7519 H   0  0  0  0  0  0  0  0  0  0  0  0
  147.4177  132.7916  150.9829 H   0  0  0  0  0  0  0  0  0  0  0  0
  146.2440  132.2558  152.1630 H   0  0  0  0  0  0  0  0  0  0  0  0
  146.2451  134.9680  150.7156 H   0  0  0  0  0  0  0  0  0  0  0  0
  145.1585  133.6268  150.4069 H   0  0  0  0  0  0  0  0  0  0  0  0
  146.0473  136.1503  152.8084 H   0  0  0  0  0  0  0  0  0  0  0  0
  144.8459  135.6153  153.9661 H   0  0  0  0  0  0  0  0  0  0  0  0
  146.0893  133.5234  154.4097 H   0  0  0  0  0  0  0  0  0  0  0  0
  147.1296  134.9248  154.6340 H   0  0  0  0  0  0  0  0  0  0  0  0
  153.4483  138.1822  154.1235 H   0  0  0  0  0  0  0  0  0  0  0  0
  148.0165  134.5678  152.4807 H   0  0  0  0  0  0  0  0  0  0  0  0
  1  2  1  0  0  0  0
  1 21  1  0  0  0  0
  1 22  1  0  0  0  0
  1 23  1  0  0  0  0
  2  3  1  0  0  0  0
  2 24  1  0  0  0  0
  2 25  1  0  0  0  0
  3 20  1  0  0  0  0
  3  4  1  0  0  0  0
  4  5  2  0  0  0  0
  4 26  1  0  0  0  0
  5  6  1  0  0  0  0
  5 19  1  0  0  0  0
  6  7  1  0  0  0  0
  6 27  1  0  0  0  0
  7  8  2  0  0  0  0
  7  9  1  0  0  0  0
  9 10  1  0  0  0  0
  9 28  1  0  0  0  0
 10 11  1  0  0  0  0
 10 29  1  0  0  0  0
 10 30  1  0  0  0  0
 11 12  1  0  0  0  0
 11 13  1  0  0  0  0
 11 31  1  0  0  0  0
 12 32  1  0  0  0  0
 12 33  1  0  0  0  0
 12 34  1  0  0  0  0
 13 18  1  0  0  0  0
 13 14  1  0  0  0  0
 13 44  1  0  0  0  0
 14 15  1  0  0  0  0
 14 35  1  0  0  0  0
 14 36  1  0  0  0  0
 15 16  1  0  0  0  0
 15 37  1  0  0  0  0
 15 38  1  0  0  0  0
 16 17  1  0  0  0  0
 17 18  1  0  0  0  0
 17 39  1  0  0  0  0
 17 40  1  0  0  0  0
 18 41  1  0  0  0  0
 18 42  1  0  0  0  0
 19 20  2  0  0  0  0
 19 43  1  0  0  0  0
M  CHG  1  13   1
M  END
> <s_m_source_file>
AV-unprocessed.smi

> <i_m_source_file_index>
1780

> <i_lp_mmshare_version>
43012

> <i_f3d_flags>
0

> <s_epik_input>
W0NIM11bQ0gyXW4xW2NIXWMoW2NIXW4xKVtOSF1DKD1PKVtOSF1bQ0gyXVtDQEhdKFtDSDNdKU4yW0NIMl1bQ0gyXU9bQ0gyXVtDSDJdMg==

> <s_epik_cmdline>
J2VwaWtfcHl0aG9uJywgJy1waCcsICc3LjAnLCAnLXRuJywgJzgnLCAnLW1hJywgJzIwMCcsICctbWV0YWxfYmluZGluZycsICctaW1hZScsICc8aW5maWxlLm1hZT4nLCAnLW9tYWUnLCAnPG91dGZpbGUubWFlPic=

> <r_lp_tautomer_probability>
1

> <r_epik_Ionization_Penalty>
0.64612

> <r_epik_Ionization_Penalty_Charging>
0.645968

> <r_epik_Ionization_Penalty_Neutral>
0.000152026

> <r_epik_State_Penalty>
0.664063

> <r_epik_Charging_Adjusted_Penalty>
1.31003

> <i_epik_Tot_Q>
1

> <i_epik_Tot_abs_Q>
1

> <r_epik_Metal_State_Penalty>
0.664075

> <b_epik_Metal_Only>
0

> <s_lp_Force_Field>
OPLS_2005

> <r_lp_Energy>
24.1412

> <b_lp_Chiralities_Consistent>
1

> <s_lp_Variant>
AV-unprocessed.smi:1780-4

> <Gold.Version>
5.8.1

> <Gold.Id.Protein>
6NUR|6NUR_protein|mol2

> <Gold.PLP.Fitness>
46.2333

> <Gold.PLP.PLP>
-36.3279

> <Gold.PLP.part.hbond>
-6.8072

> <Gold.PLP.part.metal>
0.0000

> <Gold.PLP.part.buried>
-1.7867

> <Gold.PLP.part.nonpolar>
-28.7841

> <Gold.PLP.part.repulsive>
0.3020

> <Gold.PLP.ligand.clash>
0.0000

> <Gold.PLP.ligand.torsion>
0.7924

> <Gold.PLP.Chemscore.Hbond>
3.8000

> <Gold.PLP.Chemscore.CHOScore>
0.0000

> <Gold.PLP.Chemscore.Metal>
0.0000

> <Gold.Chemscore.Hbonds>
donor molecule, donor type, donor heavy atom, donor atom, acceptor molecule, acceptor atom, score
      L1  H     6    27       P1  7949  0.75
      L1  H    13    44       P1  7948  2.00
      P1  H  7997  8009       L1    20  1.00

> <Gold.PLP.Chemscore.Internal.Correction>
0.0903

> <Gold.Rescore>
     Score         DG    S(hbond)    S(metal)    S(lipo)     H(rot)  DE(clash)    DE(int)     intcor
     14.20     -15.40       1.91        0.00      66.73       1.67       0.43       0.77       ----

> <Gold.Chemscore.Fitness>
14.1978

> <Gold.Chemscore.DG>
-15.3966

> <Gold.Chemscore.ZeroCoef>
-5.4800

> <Gold.Chemscore.Hbond>
1.9121

> <Gold.Chemscore.Metal>
0.0000

> <Gold.Chemscore.Lipo>
66.7312

> <Gold.Chemscore.Internal_Hbond>
0.0000

> <Gold.Chemscore.DEClash>
0.4318

> <Gold.Chemscore.DEInternal>
0.7669

> <Gold.Chemscore.Rot>
1.6708

> <Gold.Chemscore.Internal.Correction>
   9.000000E+99

> <Gold.Chemscore.Hbonds>
donor molecule, donor type, donor heavy atom, donor atom, acceptor molecule, acceptor atom, score
      L1  H     6    27       P1  7949  0.09
      L1  H    13    44       P1  7948  0.44
      P1  H  7997  8009       L1    20  0.95

> <Gold.Chemscore.Hbond.Weighted>
-6.3863

> <Gold.Chemscore.Metal.Weighted>
-0.0000

> <Gold.Chemscore.Lipo.Weighted>
-7.8076

> <Gold.Chemscore.Internal_Hbond.Weighted>
0.0000

> <Gold.Chemscore.DEClash.Weighted>
0.4318

> <Gold.Chemscore.DEInternal.Weighted>
0.7669

> <Gold.Chemscore.Rot.Weighted>
4.2773

> <Gold.Chemscore.Internal.Correction.Weighted>
   9.000000E+99

> <Gold.Protein.RotatedTorsions>
[ 6907 6896 6895 6894 ] final  -17.33 input  -60.11 | X-H torsion
[ 7974 7965 7964 7962 ] final  -81.27 input  175.53 | X-H torsion
[ 8008 7997 7996 7995 ] final -146.37 input   59.86 | X-H torsion
[ 10167 10162 10161 10158 ] final  -63.51 input  -65.29 | X-H torsion
[ 10718 10713 10712 10709 ] final   67.26 input   66.30 | X-H torsion
[ 10763 10752 10751 10750 ] final  -60.65 input  -60.55 | X-H torsion
[ 11005 11000 10999 10996 ] final   52.31 input  -57.11 | X-H torsion

> <Gold.Protein.ActiveResidues>
 VAL166  LYS551  ARG553  GLY616  TRP617  ASP618  TYR619  PRO620  LYS621  CYS622 
 ASP623  PHE694  ASN695  SER759  ASP760  ASP761  ALA762  ILE779  LEU786  VAL792 
 PHE793  MET794  SER795  GLU796  ALA797  LYS798  CYS799  TRP800  GLU811  SER814 

> <Gold.Protein.RotatedAtoms>
  151.2950  135.0753  159.9217 H   0  0  0  0  0  0  0  0  0  0  0  0  # atno 6907 bound_to 6896
  152.5309  133.9892  159.7853 H   0  0  0  0  0  0  0  0  0  0  0  0  # atno 6908 bound_to 6896
  151.0169  133.5862  159.2706 H   0  0  0  0  0  0  0  0  0  0  0  0  # atno 6909 bound_to 6896
  145.5489  140.9499  143.1510 H   0  0  0  0  0  0  0  0  0  0  0  0  # atno 7974 bound_to 7965
  155.5583  140.0623  157.2834 H   0  0  0  0  0  0  0  0  0  0  0  0  # atno 8008 bound_to 7997
  154.4398  140.1890  156.0801 H   0  0  0  0  0  0  0  0  0  0  0  0  # atno 8009 bound_to 7997
  156.0466  140.3289  155.7307 H   0  0  0  0  0  0  0  0  0  0  0  0  # atno 8010 bound_to 7997
  140.5865  143.2334  151.6231 H   0  0  0  0  0  0  0  0  0  0  0  0  # atno 10167 bound_to 10162
  157.6220  130.9312  150.0219 H   0  0  0  0  0  0  0  0  0  0  0  0  # atno 10718 bound_to 10713
  154.2725  135.6287  153.5316 H   0  0  0  0  0  0  0  0  0  0  0  0  # atno 10763 bound_to 10752
  152.9878  135.5614  154.5584 H   0  0  0  0  0  0  0  0  0  0  0  0  # atno 10764 bound_to 10752
  154.5157  135.2879  155.1280 H   0  0  0  0  0  0  0  0  0  0  0  0  # atno 10765 bound_to 10752
  140.0860  134.5274  155.8899 H   0  0  0  0  0  0  0  0  0  0  0  0  # atno 11005 bound_to 11000
  144.7539  139.7123  143.7262 LP  0  0  0  0  0  0  0  0  0  0  0  0  # atno 17320 bound_to 7965
  146.1930  139.5181  142.9793 LP  0  0  0  0  0  0  0  0  0  0  0  0  # atno 17321 bound_to 7965
  139.5201  144.3233  152.0891 LP  0  0  0  0  0  0  0  0  0  0  0  0  # atno 17342 bound_to 10162
  140.2391  144.4288  150.6267 LP  0  0  0  0  0  0  0  0  0  0  0  0  # atno 17343 bound_to 10162
  156.1370  130.3642  149.9641 LP  0  0  0  0  0  0  0  0  0  0  0  0  # atno 17370 bound_to 10713
  156.7690  130.9179  151.3644 LP  0  0  0  0  0  0  0  0  0  0  0  0  # atno 17371 bound_to 10713
  141.2062  133.6654  156.6230 LP  0  0  0  0  0  0  0  0  0  0  0  0  # atno 17394 bound_to 11000
  140.3420  134.7841  157.4404 LP  0  0  0  0  0  0  0  0  0  0  0  0  # atno 17395 bound_to 11000

$$$$
