#       Name:                AV-unprocessed.smi:2676
#       Creating user name   scv26
#       Creation time:       Fri Mar 27 14:39:12 2020


#       File generated by GOLD software.
#

@<TRIPOS>MOLECULE
AV-unprocessed.smi:2676
    48    49     1
SMALL
NO_CHARGES


@<TRIPOS>ATOM
      1 ****        -3.4792  -3.4146  -0.5339 C.2            1 S1                 0.0000
      2 ****        -3.5540  -2.1799  -0.0154 C.2            1 S1                 0.0000
      3 ****        -3.0729  -1.8008   1.3738 C.3            1 S1                 0.0000
      4 ****        -2.0895  -0.6955   1.3249 N.am           1 S1                 0.0000
      5 ****        -2.5499   0.5905   1.3741 C.2            1 S1                 0.0000
      6 ****        -3.7561   0.8438   1.4477 O.2            1 S1                 0.0000
      7 ****        -1.6112   1.5828   1.3241 N.am           1 S1                 0.0000
      8 ****        -2.0671   2.9905   1.3645 C.3            1 S1                 0.0000
      9 ****        -2.3465   3.5237  -0.0293 C.2            1 S1                 0.0000
     10 ****        -1.7685   4.6141  -0.5543 C.2            1 S1                 0.0000
     11 ****        -0.2727   1.3411   1.1922 C.2            1 S1                 0.0000
     12 ****         0.5467   2.2612   1.1101 O.2            1 S1                 0.0000
     13 ****         0.1148   0.0309   1.1407 N.am           1 S1                 0.0000
     14 ****         1.5579  -0.2728   0.9697 C.3            1 S1                 0.0000
     15 ****         1.9967  -0.3692  -0.5009 C.2            1 S1                 0.0000
     16 ****         1.2106  -0.1167  -1.4156 O.2            1 S1                 0.0000
     17 ****         3.2697  -0.7366  -0.7048 N.am           1 S1                 0.0000
     18 ****         3.8969  -0.8820  -1.9784 C.3            1 S1                 0.0000
     19 ****         4.8842  -2.0157  -2.1514 C.3            1 S1                 0.0000
     20 ****         5.3812  -0.5989  -2.0651 C.3            1 S1                 0.0000
     21 ****        -0.7671  -1.0125   1.1893 C.2            1 S1                 0.0000
     22 ****        -0.3873  -2.1842   1.1034 O.2            1 S1                 0.0000
     23 ****        -3.0545  -4.2340   0.0271 H              1 S1                 0.0000
     24 ****        -3.8427  -3.6208  -1.5297 H              1 S1                 0.0000
     25 ****        -3.9874  -1.3861  -0.6065 H              1 S1                 0.0000
     26 ****        -3.9445  -1.5394   1.9759 H              1 S1                 0.0000
     27 ****        -2.6669  -2.6809   1.8759 H              1 S1                 0.0000
     28 ****        -2.9736   3.1054   1.9609 H              1 S1                 0.0000
     29 ****        -1.3438   3.6352   1.8674 H              1 S1                 0.0000
     30 ****        -3.0668   2.9741  -0.6181 H              1 S1                 0.0000
     31 ****        -1.0449   5.1895   0.0043 H              1 S1                 0.0000
     32 ****        -2.0123   4.9447  -1.5532 H              1 S1                 0.0000
     33 ****         2.1824   0.4732   1.4643 H              1 S1                 0.0000
     34 ****         1.8282  -1.2027   1.4733 H              1 S1                 0.0000
     35 ****         3.8417  -0.9249   0.1059 H              1 S1                 0.0000
     36 ****         3.3107  -0.6187  -2.8579 H              1 S1                 0.0000
     37 ****         5.0681  -2.6660  -1.2980 H              1 S1                 0.0000
     38 ****         4.9214  -2.5029  -3.1237 H              1 S1                 0.0000
     39 ****         5.7517  -0.1405  -2.9799 H              1 S1                 0.0000
     40 ****         5.8984  -0.3033  -1.1541 H              1 S1                 0.0000
     41 ****        -4.4229   0.0989   1.4727 LP             1 S1                 0.0000
     42 ****        -4.0663   1.7938   1.4823 LP             1 S1                 0.0000
     43 ****         0.2362   3.2113   1.1396 LP             1 S1                 0.0000
     44 ****         1.5207   2.0562   1.0142 LP             1 S1                 0.0000
     45 ****         0.2713   0.1557  -1.2068 LP             1 S1                 0.0000
     46 ****         1.5118  -0.1842  -2.3667 LP             1 S1                 0.0000
     47 ****        -1.0538  -2.9293   1.1324 LP             1 S1                 0.0000
     48 ****         0.5867  -2.3882   1.0048 LP             1 S1                 0.0000
@<TRIPOS>BOND
    1    1    2 2     
    2    1   23 1     
    3    1   24 1     
    4    2    3 1     
    5    2   25 1     
    6    3    4 1     
    7    3   26 1     
    8    3   27 1     
    9    4   21 am    
   10    4    5 am    
   11    5    6 2     
   12    5    7 am    
   13    7    8 1     
   14    7   11 am    
   15    8    9 1     
   16    8   28 1     
   17    8   29 1     
   18    9   10 2     
   19    9   30 1     
   20   10   31 1     
   21   10   32 1     
   22   11   12 2     
   23   11   13 am    
   24   13   14 1     
   25   13   21 am    
   26   14   15 1     
   27   14   33 1     
   28   14   34 1     
   29   15   16 2     
   30   15   17 am    
   31   17   18 1     
   32   17   35 1     
   33   18   20 1     
   34   18   19 1     
   35   18   36 1     
   36   19   20 1     
   37   19   37 1     
   38   19   38 1     
   39   20   39 1     
   40   20   40 1     
   41   21   22 2     
   42    6   41 1     
   43    6   42 1     
   44   12   43 1     
   45   12   44 1     
   46   16   45 1     
   47   16   46 1     
   48   22   47 1     
   49   22   48 1     
@<TRIPOS>SUBSTRUCTURE
      1 S1             1
@<TRIPOS>SET
LONE_PAIRS      STATIC     ATOMS    <user>   **** ""
8 41 42 43 44 45 46 47 48
DONOR_HYDROGENS      STATIC     ATOMS    <user>   **** ""
1 35
ATOM$BLUE        STATIC     ATOMS    COLORGROUP SYSTEM
8 41 42 43 44 45 46 47 48
ATOM$RED        STATIC     ATOMS    COLORGROUP SYSTEM
1 35
