AV-unprocessed.smi:1554|AV-procd|sdf|6249|dock3
  -GOLD-   22720 6433D 1   1.00000     0.00000
 Structure written by MMmdl.
 48 50  0  0  0  0  0  0  0  0  2 V2000
  152.2595  144.2016  160.9445 C   0  0  0  0  0  0  0  0  0  0  0  0
  152.2102  142.9293  160.1170 C   0  0  0  0  0  0  0  0  0  0  0  0
  153.0815  141.8649  160.4408 C   0  0  0  0  0  0  0  0  0  0  0  0
  153.0705  140.6668  159.6938 C   0  0  0  0  0  0  0  0  0  0  0  0
  153.8249  139.5140  159.8295 N   0  0  0  0  0  0  0  0  0  0  0  0
  153.3523  138.7646  158.8379 C   0  0  0  0  0  0  0  0  0  0  0  0
  152.3827  139.2992  158.0705 N   0  0  0  0  0  0  0  0  0  0  0  0
  151.7191  138.6848  156.9350 C   0  0  0  0  0  0  0  0  0  0  0  0
  151.8429  139.5364  155.6574 C   0  0  1  0  0  0  0  0  0  0  0  0
  153.1075  139.3060  155.0667 O   0  0  0  0  0  0  0  0  0  0  0  0
  150.7437  139.1952  154.6320 C   0  0  0  0  0  0  0  0  0  0  0  0
  149.3742  139.2878  155.2070 N   0  3  1  0  0  0  0  0  0  0  0  0
  148.9762  140.6692  155.5726 C   0  0  0  0  0  0  0  0  0  0  0  0
  148.5612  141.4752  154.3286 C   0  0  0  0  0  0  0  0  0  0  0  0
  147.5046  140.7985  153.6584 O   0  0  0  0  0  0  0  0  0  0  0  0
  147.8897  139.5088  153.1951 C   0  0  2  0  0  0  0  0  0  0  0  0
  146.7064  138.9015  152.4336 C   0  0  0  0  0  0  0  0  0  0  0  0
  148.3080  138.6381  154.4006 C   0  0  0  0  0  0  0  0  0  0  0  0
  152.1567  140.5627  158.6047 C   0  0  0  0  0  0  0  0  0  0  0  0
  151.2826  141.6134  158.2741 C   0  0  0  0  0  0  0  0  0  0  0  0
  151.3066  142.8032  159.0312 C   0  0  0  0  0  0  0  0  0  0  0  0
  150.3607  143.9333  158.6649 C   0  0  0  0  0  0  0  0  0  0  0  0
  153.0144  144.1380  161.7286 H   0  0  0  0  0  0  0  0  0  0  0  0
  151.2966  144.3850  161.4218 H   0  0  0  0  0  0  0  0  0  0  0  0
  152.5031  145.0571  160.3143 H   0  0  0  0  0  0  0  0  0  0  0  0
  153.7690  141.9606  161.2684 H   0  0  0  0  0  0  0  0  0  0  0  0
  153.7372  137.7718  158.6549 H   0  0  0  0  0  0  0  0  0  0  0  0
  152.1376  137.6895  156.7776 H   0  0  0  0  0  0  0  0  0  0  0  0
  150.6690  138.5448  157.1950 H   0  0  0  0  0  0  0  0  0  0  0  0
  151.7868  140.5872  155.9379 H   0  0  0  0  0  0  0  0  0  0  0  0
  152.9863  138.7704  154.2966 H   0  0  0  0  0  0  0  0  0  0  0  0
  150.8338  139.8858  153.7919 H   0  0  0  0  0  0  0  0  0  0  0  0
  150.9084  138.1999  154.2197 H   0  0  0  0  0  0  0  0  0  0  0  0
  148.1327  140.6124  156.2620 H   0  0  0  0  0  0  0  0  0  0  0  0
  149.7779  141.1729  156.1140 H   0  0  0  0  0  0  0  0  0  0  0  0
  148.2127  142.4652  154.6232 H   0  0  0  0  0  0  0  0  0  0  0  0
  149.4045  141.6250  153.6528 H   0  0  0  0  0  0  0  0  0  0  0  0
  148.7216  139.6141  152.4976 H   0  0  0  0  0  0  0  0  0  0  0  0
  146.9571  137.9157  152.0412 H   0  0  0  0  0  0  0  0  0  0  0  0
  146.4204  139.5307  151.5904 H   0  0  0  0  0  0  0  0  0  0  0  0
  145.8336  138.7928  153.0781 H   0  0  0  0  0  0  0  0  0  0  0  0
  148.6105  137.6459  154.0690 H   0  0  0  0  0  0  0  0  0  0  0  0
  147.4458  138.4862  155.0512 H   0  0  0  0  0  0  0  0  0  0  0  0
  150.6004  141.5047  157.4442 H   0  0  0  0  0  0  0  0  0  0  0  0
  149.6960  143.6471  157.8492 H   0  0  0  0  0  0  0  0  0  0  0  0
  150.9226  144.8120  158.3476 H   0  0  0  0  0  0  0  0  0  0  0  0
  149.7407  144.2078  159.5184 H   0  0  0  0  0  0  0  0  0  0  0  0
  149.4290  138.7781  156.0778 H   0  0  0  0  0  0  0  0  0  0  0  0
  1  2  1  0  0  0  0
  1 23  1  0  0  0  0
  1 24  1  0  0  0  0
  1 25  1  0  0  0  0
  2 21  1  0  0  0  0
  2  3  2  0  0  0  0
  3  4  1  0  0  0  0
  3 26  1  0  0  0  0
  4 19  2  0  0  0  0
  4  5  1  0  0  0  0
  5  6  2  0  0  0  0
  6  7  1  0  0  0  0
  6 27  1  0  0  0  0
  7  8  1  0  0  0  0
  7 19  1  0  0  0  0
  8  9  1  0  0  0  0
  8 28  1  0  0  0  0
  8 29  1  0  0  0  0
  9 10  1  0  0  0  0
  9 11  1  0  0  0  0
  9 30  1  0  0  0  0
 10 31  1  0  0  0  0
 11 12  1  0  0  0  0
 11 32  1  0  0  0  0
 11 33  1  0  0  0  0
 12 18  1  0  0  0  0
 12 13  1  0  0  0  0
 12 48  1  0  0  0  0
 13 14  1  0  0  0  0
 13 34  1  0  0  0  0
 13 35  1  0  0  0  0
 14 15  1  0  0  0  0
 14 36  1  0  0  0  0
 14 37  1  0  0  0  0
 15 16  1  0  0  0  0
 16 17  1  0  0  0  0
 16 18  1  0  0  0  0
 16 38  1  0  0  0  0
 17 39  1  0  0  0  0
 17 40  1  0  0  0  0
 17 41  1  0  0  0  0
 18 42  1  0  0  0  0
 18 43  1  0  0  0  0
 19 20  1  0  0  0  0
 20 21  2  0  0  0  0
 20 44  1  0  0  0  0
 21 22  1  0  0  0  0
 22 45  1  0  0  0  0
 22 46  1  0  0  0  0
 22 47  1  0  0  0  0
M  CHG  1  12   1
M  END
> <s_m_source_file>
AV-unprocessed.smi

> <i_m_source_file_index>
1554

> <i_lp_mmshare_version>
43012

> <i_f3d_flags>
0

> <s_epik_input>
W0NIM11jKFtjSF0xKWMoW0NIM10pW2NIXWMoYzEyKW4oW2NIXW4yKVtDSDJdW0NASF0oW09IXSlbQ0gyXU4zW0NIMl1bQ0gyXU9bQ0BASF0oW0NIM10pW0NIMl0z

> <s_epik_cmdline>
J2VwaWtfcHl0aG9uJywgJy1waCcsICc3LjAnLCAnLXRuJywgJzgnLCAnLW1hJywgJzIwMCcsICctbWV0YWxfYmluZGluZycsICctaW1hZScsICc8aW5maWxlLm1hZT4nLCAnLW9tYWUnLCAnPG91dGZpbGUubWFlPic=

> <r_epik_Ionization_Penalty>
0.695251

> <r_epik_Ionization_Penalty_Charging>
0.608065

> <r_epik_Ionization_Penalty_Neutral>
0.0871863

> <r_epik_State_Penalty>
0.731955

> <r_epik_Charging_Adjusted_Penalty>
1.34002

> <i_epik_Tot_Q>
1

> <i_epik_Tot_abs_Q>
1

> <r_epik_Metal_State_Penalty>
0.652186

> <b_epik_Metal_Only>
0

> <s_lp_Force_Field>
OPLS_2005

> <r_lp_Energy>
22.2934

> <b_lp_Chiralities_Consistent>
1

> <s_lp_Variant>
AV-unprocessed.smi:1554-10

> <Gold.Version>
5.8.1

> <Gold.Id.Protein>
6NUR|6NUR_protein|mol2

> <Gold.PLP.Fitness>
44.4484

> <Gold.PLP.PLP>
-41.9609

> <Gold.PLP.part.hbond>
-1.3473

> <Gold.PLP.part.metal>
0.0000

> <Gold.PLP.part.buried>
-0.3950

> <Gold.PLP.part.nonpolar>
-39.8736

> <Gold.PLP.part.repulsive>
0.2105

> <Gold.PLP.ligand.clash>
0.0000

> <Gold.PLP.ligand.torsion>
0.3056

> <Gold.PLP.Chemscore.Hbond>
1.0000

> <Gold.PLP.Chemscore.CHOScore>
0.0000

> <Gold.PLP.Chemscore.Metal>
0.0000

> <Gold.Chemscore.Hbonds>
donor molecule, donor type, donor heavy atom, donor atom, acceptor molecule, acceptor atom, score
      P1  H  7997  8009       L1    10  1.00

> <Gold.PLP.Chemscore.Internal.Correction>
0.0987

> <Gold.Rescore>
     Score         DG    S(hbond)    S(metal)    S(lipo)     H(rot)  DE(clash)    DE(int)     intcor
     16.59     -17.87       0.88        0.00     125.85       2.05       0.96       0.32       ----

> <Gold.Chemscore.Fitness>
16.5887

> <Gold.Chemscore.DG>
-17.8721

> <Gold.Chemscore.ZeroCoef>
-5.4800

> <Gold.Chemscore.Hbond>
0.8763

> <Gold.Chemscore.Metal>
0.0000

> <Gold.Chemscore.Lipo>
125.8548

> <Gold.Chemscore.Internal_Hbond>
0.0000

> <Gold.Chemscore.DEClash>
0.9631

> <Gold.Chemscore.DEInternal>
0.3203

> <Gold.Chemscore.Rot>
2.0546

> <Gold.Chemscore.Internal.Correction>
   9.000000E+99

> <Gold.Chemscore.Hbonds>
donor molecule, donor type, donor heavy atom, donor atom, acceptor molecule, acceptor atom, score
      P1  H  7997  8009       L1    10  0.94

> <Gold.Chemscore.Hbond.Weighted>
-2.9268

> <Gold.Chemscore.Metal.Weighted>
-0.0000

> <Gold.Chemscore.Lipo.Weighted>
-14.7250

> <Gold.Chemscore.Internal_Hbond.Weighted>
0.0000

> <Gold.Chemscore.DEClash.Weighted>
0.9631

> <Gold.Chemscore.DEInternal.Weighted>
0.3203

> <Gold.Chemscore.Rot.Weighted>
5.2597

> <Gold.Chemscore.Internal.Correction.Weighted>
   9.000000E+99

> <Gold.Protein.RotatedTorsions>
[ 6907 6896 6895 6894 ] final   44.21 input  -60.11 | X-H torsion
[ 7974 7965 7964 7962 ] final   15.17 input  175.53 | X-H torsion
[ 8008 7997 7996 7995 ] final -127.75 input   59.86 | X-H torsion
[ 10167 10162 10161 10158 ] final -130.20 input  -65.29 | X-H torsion
[ 10718 10713 10712 10709 ] final -116.58 input   66.30 | X-H torsion
[ 10763 10752 10751 10750 ] final  -98.75 input  -60.55 | X-H torsion
[ 11005 11000 10999 10996 ] final  -54.25 input  -57.11 | X-H torsion

> <Gold.Protein.ActiveResidues>
 VAL166  LYS551  ARG553  GLY616  TRP617  ASP618  TYR619  PRO620  LYS621  CYS622 
 ASP623  PHE694  ASN695  SER759  ASP760  ASP761  ALA762  ILE779  LEU786  VAL792 
 PHE793  MET794  SER795  GLU796  ALA797  LYS798  CYS799  TRP800  GLU811  SER814 

> <Gold.Protein.RotatedAtoms>
  152.2298  134.8333  160.0474 H   0  0  0  0  0  0  0  0  0  0  0  0  # atno 6907 bound_to 6896
  151.9086  133.3550  159.3864 H   0  0  0  0  0  0  0  0  0  0  0  0  # atno 6908 bound_to 6896
  150.7022  134.4681  159.5456 H   0  0  0  0  0  0  0  0  0  0  0  0  # atno 6909 bound_to 6896
  146.2285  139.8933  142.8551 H   0  0  0  0  0  0  0  0  0  0  0  0  # atno 7974 bound_to 7965
  155.2513  140.0432  157.2987 H   0  0  0  0  0  0  0  0  0  0  0  0  # atno 8008 bound_to 7997
  154.5767  140.2389  155.8082 H   0  0  0  0  0  0  0  0  0  0  0  0  # atno 8009 bound_to 7997
  156.2163  140.2983  155.9856 H   0  0  0  0  0  0  0  0  0  0  0  0  # atno 8010 bound_to 7997
  139.9318  143.6263  152.2527 H   0  0  0  0  0  0  0  0  0  0  0  0  # atno 10167 bound_to 10162
  156.0974  130.6143  150.9054 H   0  0  0  0  0  0  0  0  0  0  0  0  # atno 10718 bound_to 10713
  154.7441  135.4998  153.9173 H   0  0  0  0  0  0  0  0  0  0  0  0  # atno 10763 bound_to 10752
  153.1073  135.6700  153.9571 H   0  0  0  0  0  0  0  0  0  0  0  0  # atno 10764 bound_to 10752
  153.9341  135.3075  155.3424 H   0  0  0  0  0  0  0  0  0  0  0  0  # atno 10765 bound_to 10752
  141.1016  133.6617  156.4293 H   0  0  0  0  0  0  0  0  0  0  0  0  # atno 11005 bound_to 11000
  145.2396  141.0004  143.3943 LP  0  0  0  0  0  0  0  0  0  0  0  0  # atno 17320 bound_to 7965
  144.9463  139.4133  143.6424 LP  0  0  0  0  0  0  0  0  0  0  0  0  # atno 17321 bound_to 7965
  139.6776  144.7657  151.1668 LP  0  0  0  0  0  0  0  0  0  0  0  0  # atno 17342 bound_to 10162
  140.7635  143.5772  150.8933 LP  0  0  0  0  0  0  0  0  0  0  0  0  # atno 17343 bound_to 10162
  157.6137  131.0934  150.8749 LP  0  0  0  0  0  0  0  0  0  0  0  0  # atno 17370 bound_to 10713
  156.8884  130.5204  149.5287 LP  0  0  0  0  0  0  0  0  0  0  0  0  # atno 17371 bound_to 10713
  140.5006  134.6489  157.5247 LP  0  0  0  0  0  0  0  0  0  0  0  0  # atno 17394 bound_to 11000
  139.9870  134.7045  155.9756 LP  0  0  0  0  0  0  0  0  0  0  0  0  # atno 17395 bound_to 11000

$$$$
