#       Name:                AV-unprocessed.smi:3042
#       Creating user name   scv26
#       Creation time:       Fri Mar 27 16:57:49 2020


#       File generated by GOLD software.
#

@<TRIPOS>MOLECULE
AV-unprocessed.smi:3042
    37    38     1
SMALL
NO_CHARGES


@<TRIPOS>ATOM
      1 ****        -2.4277   1.9497   0.4991 N.4            1 S1                 1.0000
      2 ****        -1.9703   0.5483   0.5284 C.3            1 S1                 0.0000
      3 ****        -0.4250   0.4367   0.4648 C.3            1 S1                 0.0000
      4 ****         0.0687   1.1665  -0.7839 C.ar           1 S1                 0.0000
      5 ****        -0.1831   0.6616  -2.0790 C.ar           1 S1                 0.0000
      6 ****         0.2878   1.3811  -3.1936 C.ar           1 S1                 0.0000
      7 ****         0.9970   2.5774  -2.9690 C.ar           1 S1                 0.0000
      8 ****         1.2450   3.0707  -1.7367 N.ar           1 S1                 0.0000
      9 ****         0.7915   2.3746  -0.6729 C.ar           1 S1                 0.0000
     10 ****         0.0906  -0.9473   0.5211 N.3            1 S1                 0.0000
     11 ****         1.5580  -0.9866   0.5082 C.3            1 S1                 0.0000
     12 ****         2.1108  -2.4207   0.5650 C.3            1 S1                 0.0000
     13 ****         1.6146  -3.0747   1.7257 O.3            1 S1                 0.0000
     14 ****         0.1941  -3.1175   1.7555 C.3            1 S1                 0.0000
     15 ****        -0.3709  -1.6871   1.6994 C.3            1 S1                 0.0000
     16 ****        -3.4366   1.9769   0.5366 H              1 S1                 0.0000
     17 ****        -2.1102   2.3868  -0.3545 H              1 S1                 0.0000
     18 ****        -2.3655   0.1212   1.4488 H              1 S1                 0.0000
     19 ****        -2.4321   0.0097  -0.2998 H              1 S1                 0.0000
     20 ****        -0.0298   0.9743   1.3285 H              1 S1                 0.0000
     21 ****        -0.7284  -0.2606  -2.2167 H              1 S1                 0.0000
     22 ****         0.1115   1.0240  -4.1976 H              1 S1                 0.0000
     23 ****         1.3734   3.1538  -3.8010 H              1 S1                 0.0000
     24 ****         1.0077   2.7989   0.2966 H              1 S1                 0.0000
     25 ****         1.9490  -0.5109  -0.3908 H              1 S1                 0.0000
     26 ****         1.9493  -0.4187   1.3537 H              1 S1                 0.0000
     27 ****         1.8299  -2.9805  -0.3286 H              1 S1                 0.0000
     28 ****         3.2000  -2.4047   0.6045 H              1 S1                 0.0000
     29 ****        -0.1773  -3.7127   0.9195 H              1 S1                 0.0000
     30 ****        -0.1274  -3.6159   2.6700 H              1 S1                 0.0000
     31 ****        -0.0906  -1.1508   2.6073 H              1 S1                 0.0000
     32 ****        -1.4563  -1.7691   1.7003 H              1 S1                 0.0000
     33 ****        -2.0476   2.4461   1.2922 H              1 S1                 0.0000
     34 ****         1.7493   3.9257  -1.6160 LP             1 S1                 0.0000
     35 ****        -0.2738  -1.3866  -0.3001 LP             1 S1                 0.0000
     36 ****         1.9385  -2.5839   2.5345 LP             1 S1                 0.0000
     37 ****         1.9649  -4.0112   1.7416 LP             1 S1                 0.0000
@<TRIPOS>BOND
    1    1    2 1     
    2    1   16 1     
    3    1   17 1     
    4    1   33 1     
    5    2    3 1     
    6    2   18 1     
    7    2   19 1     
    8    3    4 1     
    9    3   10 1     
   10    3   20 1     
   11    4    9 ar    
   12    4    5 ar    
   13    5    6 ar    
   14    5   21 1     
   15    6    7 ar    
   16    6   22 1     
   17    7    8 ar    
   18    7   23 1     
   19    8    9 ar    
   20    9   24 1     
   21   10   15 1     
   22   10   11 1     
   23   11   12 1     
   24   11   25 1     
   25   11   26 1     
   26   12   13 1     
   27   12   27 1     
   28   12   28 1     
   29   13   14 1     
   30   14   15 1     
   31   14   29 1     
   32   14   30 1     
   33   15   31 1     
   34   15   32 1     
   35    8   34 1     
   36   10   35 1     
   37   13   36 1     
   38   13   37 1     
@<TRIPOS>SUBSTRUCTURE
      1 S1             1
@<TRIPOS>SET
LONE_PAIRS      STATIC     ATOMS    <user>   **** ""
4 34 35 36 37
DONOR_HYDROGENS      STATIC     ATOMS    <user>   **** ""
3 16 17 33
ATOM$BLUE        STATIC     ATOMS    COLORGROUP SYSTEM
4 34 35 36 37
ATOM$RED        STATIC     ATOMS    COLORGROUP SYSTEM
3 16 17 33
