#       Name:                AV-unprocessed.smi:1464
#       Creating user name   scv26
#       Creation time:       Fri Mar 27 06:02:47 2020


#       File generated by GOLD software.
#

@<TRIPOS>MOLECULE
AV-unprocessed.smi:1464
    48    49     1
SMALL
NO_CHARGES


@<TRIPOS>ATOM
      1 ****        -3.6399   0.0149   3.3608 C.3            1 S1                 0.0000
      2 ****        -3.1692  -0.0405   1.8958 C.3            1 S1                 0.0000
      3 ****        -3.9326  -1.1550   1.1525 C.3            1 S1                 0.0000
      4 ****        -3.5289  -1.2364  -0.3234 C.3            1 S1                 0.0000
      5 ****        -2.0202  -1.4608  -0.4570 C.3            1 S1                 0.0000
      6 ****        -1.2234  -0.3541   0.2606 C.3            1 S1                 0.0000
      7 ****         0.2065  -0.6339   0.1408 N.am           1 S1                 0.0000
      8 ****         0.9893  -0.2658  -0.8846 C.2            1 S1                 0.0000
      9 ****         0.5685   0.3349  -1.8742 O.2            1 S1                 0.0000
     10 ****         2.4692  -0.6601  -0.7755 C.3            1 S1                 0.0000
     11 ****         3.3632   0.2328  -1.5266 N.am           1 S1                 0.0000
     12 ****         3.7815  -0.2779  -2.7460 N.2            1 S1                 0.0000
     13 ****         4.5572   0.4197  -3.5051 C.2            1 S1                 0.0000
     14 ****         4.9449  -0.1223  -4.7059 O.3            1 S1                 0.0000
     15 ****         5.0091   1.7351  -3.1071 C.2            1 S1                 0.0000
     16 ****         4.6013   2.2214  -1.9144 C.2            1 S1                 0.0000
     17 ****         3.7221   1.4561  -1.0285 C.2            1 S1                 0.0000
     18 ****         3.3382   1.8727   0.0644 O.2            1 S1                 0.0000
     19 ****        -1.6310  -0.2226   1.7535 C.3            1 S1                 0.0000
     20 ****        -0.8480   0.9164   2.4435 C.3            1 S1                 0.0000
     21 ****         5.4968   0.5294  -5.1098 H              1 S1                 0.0000
     22 ****        -3.3228  -0.8697   3.9137 H              1 S1                 0.0000
     23 ****        -4.7274   0.0686   3.4196 H              1 S1                 0.0000
     24 ****        -3.2561   0.8926   3.8796 H              1 S1                 0.0000
     25 ****        -3.4399   0.9083   1.4300 H              1 S1                 0.0000
     26 ****        -3.7453  -2.1160   1.6339 H              1 S1                 0.0000
     27 ****        -5.0072  -0.9818   1.2213 H              1 S1                 0.0000
     28 ****        -4.0704  -2.0456  -0.8141 H              1 S1                 0.0000
     29 ****        -3.8125  -0.3163  -0.8361 H              1 S1                 0.0000
     30 ****        -1.7600  -2.4351  -0.0406 H              1 S1                 0.0000
     31 ****        -1.7515  -1.4948  -1.5135 H              1 S1                 0.0000
     32 ****        -1.4404   0.5980  -0.2282 H              1 S1                 0.0000
     33 ****         0.6364  -1.1303   0.9077 H              1 S1                 0.0000
     34 ****         2.7678  -0.6840   0.2745 H              1 S1                 0.0000
     35 ****         2.5711  -1.6865  -1.1325 H              1 S1                 0.0000
     36 ****         5.6578   2.3078  -3.7534 H              1 S1                 0.0000
     37 ****         4.9311   3.2018  -1.6038 H              1 S1                 0.0000
     38 ****        -1.3607  -1.1541   2.2538 H              1 S1                 0.0000
     39 ****        -1.1143   1.8878   2.0255 H              1 S1                 0.0000
     40 ****         0.2297   0.7963   2.3336 H              1 S1                 0.0000
     41 ****        -1.0400   0.9494   3.5151 H              1 S1                 0.0000
     42 ****        -0.4008   0.5716  -1.9407 LP             1 S1                 0.0000
     43 ****         1.1962   0.5858  -2.6111 LP             1 S1                 0.0000
     44 ****         3.4820  -1.1866  -3.0369 LP             1 S1                 0.0000
     45 ****         4.1471  -0.3088  -5.2792 LP             1 S1                 0.0000
     46 ****         5.4549  -0.9698  -4.5586 LP             1 S1                 0.0000
     47 ****         2.7367   1.3095   0.6310 LP             1 S1                 0.0000
     48 ****         3.6279   2.7743   0.3857 LP             1 S1                 0.0000
@<TRIPOS>BOND
    1    1    2 1     
    2    1   22 1     
    3    1   23 1     
    4    1   24 1     
    5    2   19 1     
    6    2    3 1     
    7    2   25 1     
    8    3    4 1     
    9    3   26 1     
   10    3   27 1     
   11    4    5 1     
   12    4   28 1     
   13    4   29 1     
   14    5    6 1     
   15    5   30 1     
   16    5   31 1     
   17    6    7 1     
   18    6   19 1     
   19    6   32 1     
   20    7    8 am    
   21    7   33 1     
   22    8    9 2     
   23    8   10 1     
   24   10   34 1     
   25   10   35 1     
   26   10   11 1     
   27   11   12 1     
   28   11   17 am    
   29   12   13 2     
   30   13   14 1     
   31   13   15 1     
   32   14   21 1     
   33   15   36 1     
   34   15   16 2     
   35   16   37 1     
   36   16   17 1     
   37   17   18 2     
   38   19   20 1     
   39   19   38 1     
   40   20   39 1     
   41   20   40 1     
   42   20   41 1     
   43    9   42 1     
   44    9   43 1     
   45   12   44 1     
   46   14   45 1     
   47   14   46 1     
   48   18   47 1     
   49   18   48 1     
@<TRIPOS>SUBSTRUCTURE
      1 S1             1
@<TRIPOS>SET
LONE_PAIRS      STATIC     ATOMS    <user>   **** ""
7 42 43 44 45 46 47 48
DONOR_HYDROGENS      STATIC     ATOMS    <user>   **** ""
2 33 21
ATOM$BLUE        STATIC     ATOMS    COLORGROUP SYSTEM
7 42 43 44 45 46 47 48
ATOM$RED        STATIC     ATOMS    COLORGROUP SYSTEM
2 33 21
