AV-unprocessed.smi:1406|AV-procd|sdf|5721|dock9
  -GOLD-   22720 5353D 1   1.00000     0.00000
 Structure written by MMmdl.
 41 43  0  0  0  0  0  0  0  0  2 V2000
  148.3035  128.7954  154.6894 C   0  0  0  0  0  0  0  0  0  0  0  0
  148.8867  129.6880  155.8034 C   0  0  2  0  0  0  0  0  0  0  0  0
  148.6781  131.1884  155.5400 C   0  0  0  0  0  0  0  0  0  0  0  0
  148.9874  132.0279  156.3864 O   0  0  0  0  0  0  0  0  0  0  0  0
  148.1572  131.5166  154.3468 N   0  0  0  0  0  0  0  0  0  0  0  0
  147.8656  132.8797  153.9124 C   0  0  2  0  0  0  0  0  0  0  0  0
  146.9310  133.6281  154.8541 C   0  0  0  0  0  0  0  0  0  0  0  0
  146.4135  134.7800  153.9855 C   0  0  0  0  0  0  0  0  0  0  0  0
  146.4954  134.3261  152.5749 N   0  3  2  0  0  0  0  0  0  0  0  0
  145.2114  134.4251  151.8294 C   0  0  0  0  0  0  0  0  0  0  0  0
  145.2495  133.5736  150.5519 C   0  0  0  0  0  0  0  0  0  0  0  0
  145.4418  132.0801  150.8766 C   0  0  0  0  0  0  0  0  0  0  0  0
  146.1391  131.8565  152.2324 C   0  0  0  0  0  0  0  0  0  0  0  0
  147.1484  132.9865  152.5530 C   0  0  2  0  0  0  0  0  0  0  0  0
  150.2954  129.4015  156.0459 N   0  0  0  0  0  0  0  0  0  0  0  0
  151.0947  128.4901  155.4874 C   0  0  0  0  0  0  0  0  0  0  0  0
  152.3279  128.4847  155.9735 N   0  0  0  0  0  0  0  0  0  0  0  0
  152.2130  129.4837  156.8981 C   0  0  0  0  0  0  0  0  0  0  0  0
  151.0145  130.0596  156.9893 N   0  0  0  0  0  0  0  0  0  0  0  0
  147.2369  128.9787  154.5554 H   0  0  0  0  0  0  0  0  0  0  0  0
  148.4235  127.7402  154.9362 H   0  0  0  0  0  0  0  0  0  0  0  0
  148.7922  128.9661  153.7291 H   0  0  0  0  0  0  0  0  0  0  0  0
  148.3485  129.4480  156.7219 H   0  0  0  0  0  0  0  0  0  0  0  0
  147.9327  130.7709  153.7042 H   0  0  0  0  0  0  0  0  0  0  0  0
  148.8015  133.4407  153.8604 H   0  0  0  0  0  0  0  0  0  0  0  0
  146.0995  132.9868  155.1507 H   0  0  0  0  0  0  0  0  0  0  0  0
  147.4286  133.9746  155.7605 H   0  0  0  0  0  0  0  0  0  0  0  0
  145.4085  135.0831  154.2821 H   0  0  0  0  0  0  0  0  0  0  0  0
  147.0598  135.6515  154.0946 H   0  0  0  0  0  0  0  0  0  0  0  0
  144.3837  134.0890  152.4565 H   0  0  0  0  0  0  0  0  0  0  0  0
  145.0210  135.4715  151.5892 H   0  0  0  0  0  0  0  0  0  0  0  0
  144.3382  133.7142  149.9697 H   0  0  0  0  0  0  0  0  0  0  0  0
  146.0701  133.9177  149.9207 H   0  0  0  0  0  0  0  0  0  0  0  0
  144.4770  131.5716  150.8875 H   0  0  0  0  0  0  0  0  0  0  0  0
  146.0201  131.6153  150.0771 H   0  0  0  0  0  0  0  0  0  0  0  0
  145.3870  131.8118  153.0213 H   0  0  0  0  0  0  0  0  0  0  0  0
  146.6266  130.8815  152.2234 H   0  0  0  0  0  0  0  0  0  0  0  0
  147.8979  132.9904  151.7600 H   0  0  0  0  0  0  0  0  0  0  0  0
  150.7678  127.8157  154.7097 H   0  0  0  0  0  0  0  0  0  0  0  0
  153.0359  129.7918  157.5264 H   0  0  0  0  0  0  0  0  0  0  0  0
  147.1432  134.9506  152.1157 H   0  0  0  0  0  0  0  0  0  0  0  0
  1  2  1  0  0  0  0
  1 20  1  0  0  0  0
  1 21  1  0  0  0  0
  1 22  1  0  0  0  0
  2  3  1  0  0  0  0
  2 15  1  0  0  0  0
  2 23  1  0  0  0  0
  3  4  2  0  0  0  0
  3  5  1  0  0  0  0
  5  6  1  0  0  0  0
  5 24  1  0  0  0  0
  6 14  1  0  0  0  0
  6  7  1  0  0  0  0
  6 25  1  0  0  0  0
  7  8  1  0  0  0  0
  7 26  1  0  0  0  0
  7 27  1  0  0  0  0
  8  9  1  0  0  0  0
  8 28  1  0  0  0  0
  8 29  1  0  0  0  0
  9 14  1  0  0  0  0
  9 10  1  0  0  0  0
  9 41  1  0  0  0  0
 10 11  1  0  0  0  0
 10 30  1  0  0  0  0
 10 31  1  0  0  0  0
 11 12  1  0  0  0  0
 11 32  1  0  0  0  0
 11 33  1  0  0  0  0
 12 13  1  0  0  0  0
 12 34  1  0  0  0  0
 12 35  1  0  0  0  0
 13 14  1  0  0  0  0
 13 36  1  0  0  0  0
 13 37  1  0  0  0  0
 14 38  1  0  0  0  0
 15 19  1  0  0  0  0
 15 16  1  0  0  0  0
 16 17  2  0  0  0  0
 16 39  1  0  0  0  0
 17 18  1  0  0  0  0
 18 19  2  0  0  0  0
 18 40  1  0  0  0  0
M  CHG  1   9   1
M  END
> <s_m_source_file>
AV-unprocessed.smi

> <i_m_source_file_index>
1406

> <i_lp_mmshare_version>
43012

> <i_f3d_flags>
0

> <s_epik_input>
bjFbY0hdbltjSF1uMVtDQEhdKFtDSDNdKUMoPU8pW05IXVtDQEhdKFtDSDJdW0NIMl0yKVtDQEBIXShOMjMpW0NIMl1bQ0gyXVtDSDJdW0NIMl0z

> <s_epik_cmdline>
J2VwaWtfcHl0aG9uJywgJy1waCcsICc3LjAnLCAnLXRuJywgJzgnLCAnLW1hJywgJzIwMCcsICctbWV0YWxfYmluZGluZycsICctaW1hZScsICc8aW5maWxlLm1hZT4nLCAnLW9tYWUnLCAnPG91dGZpbGUubWFlPic=

> <r_lp_tautomer_probability>
1

> <r_epik_Ionization_Penalty>
0.00197066

> <r_epik_Ionization_Penalty_Charging>
0.00196223

> <r_epik_Ionization_Penalty_Neutral>
8.43107e-06

> <r_epik_State_Penalty>
0.00133866

> <r_epik_Charging_Adjusted_Penalty>
0.00330089

> <i_epik_Tot_Q>
1

> <i_epik_Tot_abs_Q>
1

> <r_epik_Metal_State_Penalty>
-0

> <b_epik_Metal_Only>
0

> <s_lp_Force_Field>
OPLS_2005

> <r_lp_Energy>
46.3739

> <b_lp_Chiralities_Consistent>
1

> <s_lp_Variant>
AV-unprocessed.smi:1406-13

> <Gold.Version>
5.8.1

> <Gold.Id.Protein>
6NUR|6NUR_protein|mol2

> <Gold.PLP.Fitness>
38.5609

> <Gold.PLP.PLP>
-29.8348

> <Gold.PLP.part.hbond>
-1.0000

> <Gold.PLP.part.metal>
0.0000

> <Gold.PLP.part.buried>
-2.9489

> <Gold.PLP.part.nonpolar>
-26.1619

> <Gold.PLP.part.repulsive>
0.0445

> <Gold.PLP.ligand.clash>
0.1251

> <Gold.PLP.ligand.torsion>
0.1217

> <Gold.PLP.Chemscore.Hbond>
2.0000

> <Gold.PLP.Chemscore.CHOScore>
1.0000

> <Gold.PLP.Chemscore.Metal>
0.0000

> <Gold.Chemscore.Hbonds>
donor molecule, donor type, donor heavy atom, donor atom, acceptor molecule, acceptor atom, score
      L1  H     9    41       P1  7948  1.17

> <Gold.PLP.Chemscore.Internal.Correction>
0.0946

> <Gold.Rescore>
     Score         DG    S(hbond)    S(metal)    S(lipo)     H(rot)  DE(clash)    DE(int)     intcor
      8.64      -9.69       0.99        0.00      49.07       1.89       0.02       1.04       ----

> <Gold.Chemscore.Fitness>
8.6375

> <Gold.Chemscore.DG>
-9.6944

> <Gold.Chemscore.ZeroCoef>
-5.4800

> <Gold.Chemscore.Hbond>
0.9888

> <Gold.Chemscore.Metal>
0.0000

> <Gold.Chemscore.Lipo>
49.0700

> <Gold.Chemscore.Internal_Hbond>
0.0000

> <Gold.Chemscore.DEClash>
0.0204

> <Gold.Chemscore.DEInternal>
1.0365

> <Gold.Chemscore.Rot>
1.8865

> <Gold.Chemscore.Internal.Correction>
   9.000000E+99

> <Gold.Chemscore.Hbonds>
donor molecule, donor type, donor heavy atom, donor atom, acceptor molecule, acceptor atom, score
      L1  H     9    41       P1  7948  0.57

> <Gold.Chemscore.Hbond.Weighted>
-3.3027

> <Gold.Chemscore.Metal.Weighted>
-0.0000

> <Gold.Chemscore.Lipo.Weighted>
-5.7412

> <Gold.Chemscore.Internal_Hbond.Weighted>
0.0000

> <Gold.Chemscore.DEClash.Weighted>
0.0204

> <Gold.Chemscore.DEInternal.Weighted>
1.0365

> <Gold.Chemscore.Rot.Weighted>
4.8295

> <Gold.Chemscore.Internal.Correction.Weighted>
   9.000000E+99

> <Gold.Protein.RotatedTorsions>
[ 6907 6896 6895 6894 ] final  172.85 input  -60.11 | X-H torsion
[ 7974 7965 7964 7962 ] final  -90.26 input  175.53 | X-H torsion
[ 8008 7997 7996 7995 ] final  116.18 input   59.86 | X-H torsion
[ 10167 10162 10161 10158 ] final   61.00 input  -65.29 | X-H torsion
[ 10718 10713 10712 10709 ] final   -1.04 input   66.30 | X-H torsion
[ 10763 10752 10751 10750 ] final   63.61 input  -60.55 | X-H torsion
[ 11005 11000 10999 10996 ] final -135.87 input  -57.11 | X-H torsion

> <Gold.Protein.ActiveResidues>
 VAL166  LYS551  ARG553  GLY616  TRP617  ASP618  TYR619  PRO620  LYS621  CYS622 
 ASP623  PHE694  ASN695  SER759  ASP760  ASP761  ALA762  ILE779  LEU786  VAL792 
 PHE793  MET794  SER795  GLU796  ALA797  LYS798  CYS799  TRP800  GLU811  SER814 

> <Gold.Protein.RotatedAtoms>
  151.7777  133.3347  159.3462 H   0  0  0  0  0  0  0  0  0  0  0  0  # atno 6907 bound_to 6896
  150.7438  134.5960  159.6021 H   0  0  0  0  0  0  0  0  0  0  0  0  # atno 6908 bound_to 6896
  152.3298  134.7276  160.0344 H   0  0  0  0  0  0  0  0  0  0  0  0  # atno 6909 bound_to 6896
  145.4288  140.9555  143.2139 H   0  0  0  0  0  0  0  0  0  0  0  0  # atno 7974 bound_to 7965
  156.2424  140.2923  156.0483 H   0  0  0  0  0  0  0  0  0  0  0  0  # atno 8008 bound_to 7997
  155.1910  140.0407  157.2917 H   0  0  0  0  0  0  0  0  0  0  0  0  # atno 8009 bound_to 7997
  154.6194  140.2472  155.7575 H   0  0  0  0  0  0  0  0  0  0  0  0  # atno 8010 bound_to 7997
  140.1595  144.4384  150.6717 H   0  0  0  0  0  0  0  0  0  0  0  0  # atno 10167 bound_to 10162
  156.8115  130.5426  149.5708 H   0  0  0  0  0  0  0  0  0  0  0  0  # atno 10718 bound_to 10713
  153.0024  135.5423  154.6378 H   0  0  0  0  0  0  0  0  0  0  0  0  # atno 10763 bound_to 10752
  154.5641  135.2836  155.0893 H   0  0  0  0  0  0  0  0  0  0  0  0  # atno 10764 bound_to 10752
  154.2085  135.6471  153.5160 H   0  0  0  0  0  0  0  0  0  0  0  0  # atno 10765 bound_to 10752
  140.8858  134.1874  157.4561 H   0  0  0  0  0  0  0  0  0  0  0  0  # atno 11005 bound_to 11000
  144.8196  139.5815  143.6993 LP  0  0  0  0  0  0  0  0  0  0  0  0  # atno 17320 bound_to 7965
  146.2618  139.6427  142.9357 LP  0  0  0  0  0  0  0  0  0  0  0  0  # atno 17321 bound_to 7965
  140.6652  143.2265  151.5760 LP  0  0  0  0  0  0  0  0  0  0  0  0  # atno 17342 bound_to 10162
  139.5388  144.2706  152.1307 LP  0  0  0  0  0  0  0  0  0  0  0  0  # atno 17343 bound_to 10162
  156.1042  130.5991  150.9943 LP  0  0  0  0  0  0  0  0  0  0  0  0  # atno 17370 bound_to 10713
  157.6503  131.0898  150.8064 LP  0  0  0  0  0  0  0  0  0  0  0  0  # atno 17371 bound_to 10713
  139.8724  134.9837  156.5209 LP  0  0  0  0  0  0  0  0  0  0  0  0  # atno 17394 bound_to 11000
  140.8406  133.8208  155.9072 LP  0  0  0  0  0  0  0  0  0  0  0  0  # atno 17395 bound_to 11000

$$$$
