AV-unprocessed.smi:611|AV-procd|sdf|3061|dock7
  -GOLD-   2262023583D 1   1.00000     0.00000
 Structure written by MMmdl.
 41 42  0  0  0  0  0  0  0  0  1 V2000
  150.8704  145.0546  159.8279 C   0  0  0  0  0  0  0  0  0  0  0  0
  151.6534  143.9646  159.0583 C   0  0  0  0  0  0  0  0  0  0  0  0
  150.6629  143.0028  158.3767 C   0  0  0  0  0  0  0  0  0  0  0  0
  152.4755  144.7101  157.9805 C   0  0  0  0  0  0  0  0  0  0  0  0
  152.5728  143.1719  160.0041 C   0  0  0  0  0  0  0  0  0  0  0  0
  152.4024  143.3585  161.3198 N   0  0  0  0  0  0  0  0  0  0  0  0
  153.1230  142.5898  162.1643 C   0  0  0  0  0  0  0  0  0  0  0  0
  154.0102  141.5954  161.6879 C   0  0  0  0  0  0  0  0  0  0  0  0
  154.7958  140.7370  162.5022 N   0  0  0  0  0  0  0  0  0  0  0  0
  155.3447  140.9903  163.7062 C   0  0  0  0  0  0  0  0  0  0  0  0
  155.2338  142.0505  164.3173 O   0  0  0  0  0  0  0  0  0  0  0  0
  156.0711  139.9732  164.2045 N   0  0  0  0  0  0  0  0  0  0  0  0
  156.7964  139.9143  165.4765 C   0  0  0  0  0  0  0  0  0  0  0  0
  155.8161  139.9781  166.6641 C   0  0  0  0  0  0  0  0  0  0  0  0
  156.3814  141.0228  167.6275 C   0  0  0  0  0  0  0  0  0  0  0  0
  157.1256  142.0016  166.7256 C   0  0  0  0  0  0  0  0  0  0  0  0
  157.7499  141.1154  165.6480 C   0  0  0  0  0  0  0  0  0  0  0  0
  154.0668  141.4456  160.2882 C   0  0  0  0  0  0  0  0  0  0  0  0
  153.3415  142.2216  159.4558 N   0  0  0  0  0  0  0  0  0  0  0  0
  150.2573  145.6541  159.1541 H   0  0  0  0  0  0  0  0  0  0  0  0
  151.5451  145.7346  160.3492 H   0  0  0  0  0  0  0  0  0  0  0  0
  150.1948  144.6265  160.5695 H   0  0  0  0  0  0  0  0  0  0  0  0
  150.0431  142.4865  159.1106 H   0  0  0  0  0  0  0  0  0  0  0  0
  151.1859  142.2429  157.7951 H   0  0  0  0  0  0  0  0  0  0  0  0
  149.9953  143.5345  157.6981 H   0  0  0  0  0  0  0  0  0  0  0  0
  151.8335  145.3137  157.3379 H   0  0  0  0  0  0  0  0  0  0  0  0
  153.0134  144.0214  157.3279 H   0  0  0  0  0  0  0  0  0  0  0  0
  153.2092  145.3789  158.4322 H   0  0  0  0  0  0  0  0  0  0  0  0
  152.9558  142.7715  163.2143 H   0  0  0  0  0  0  0  0  0  0  0  0
  155.0242  139.8421  162.0944 H   0  0  0  0  0  0  0  0  0  0  0  0
  156.1402  139.1486  163.6258 H   0  0  0  0  0  0  0  0  0  0  0  0
  157.3642  138.9840  165.5353 H   0  0  0  0  0  0  0  0  0  0  0  0
  154.8289  140.3033  166.3316 H   0  0  0  0  0  0  0  0  0  0  0  0
  155.6885  139.0081  167.1456 H   0  0  0  0  0  0  0  0  0  0  0  0
  155.6080  141.5056  168.2256 H   0  0  0  0  0  0  0  0  0  0  0  0
  157.0852  140.5489  168.3130 H   0  0  0  0  0  0  0  0  0  0  0  0
  156.4159  142.6925  166.2683 H   0  0  0  0  0  0  0  0  0  0  0  0
  157.8666  142.5917  167.2653 H   0  0  0  0  0  0  0  0  0  0  0  0
  158.7181  140.7549  165.9975 H   0  0  0  0  0  0  0  0  0  0  0  0
  157.9299  141.6669  164.7242 H   0  0  0  0  0  0  0  0  0  0  0  0
  154.6969  140.6974  159.8297 H   0  0  0  0  0  0  0  0  0  0  0  0
  1  2  1  0  0  0  0
  1 20  1  0  0  0  0
  1 21  1  0  0  0  0
  1 22  1  0  0  0  0
  2  3  1  0  0  0  0
  2  4  1  0  0  0  0
  2  5  1  0  0  0  0
  3 23  1  0  0  0  0
  3 24  1  0  0  0  0
  3 25  1  0  0  0  0
  4 26  1  0  0  0  0
  4 27  1  0  0  0  0
  4 28  1  0  0  0  0
  5 19  1  0  0  0  0
  5  6  2  0  0  0  0
  6  7  1  0  0  0  0
  7  8  2  0  0  0  0
  7 29  1  0  0  0  0
  8  9  1  0  0  0  0
  8 18  1  0  0  0  0
  9 10  1  0  0  0  0
  9 30  1  0  0  0  0
 10 11  2  0  0  0  0
 10 12  1  0  0  0  0
 12 13  1  0  0  0  0
 12 31  1  0  0  0  0
 13 17  1  0  0  0  0
 13 14  1  0  0  0  0
 13 32  1  0  0  0  0
 14 15  1  0  0  0  0
 14 33  1  0  0  0  0
 14 34  1  0  0  0  0
 15 16  1  0  0  0  0
 15 35  1  0  0  0  0
 15 36  1  0  0  0  0
 16 17  1  0  0  0  0
 16 37  1  0  0  0  0
 16 38  1  0  0  0  0
 17 39  1  0  0  0  0
 17 40  1  0  0  0  0
 18 19  2  0  0  0  0
 18 41  1  0  0  0  0
M  END
> <s_m_source_file>
AV-unprocessed.smi

> <i_m_source_file_index>
611

> <i_lp_mmshare_version>
43012

> <i_f3d_flags>
0

> <s_epik_input>
W0NIM11DKFtDSDNdKShbQ0gzXSljMW5bY0hdYyhbY0hdbjEpW05IXUMoPU8pW05IXVtDSF0yW0NIMl1bQ0gyXVtDSDJdW0NIMl0y

> <s_epik_cmdline>
J2VwaWtfcHl0aG9uJywgJy1waCcsICc3LjAnLCAnLXRuJywgJzgnLCAnLW1hJywgJzIwMCcsICctbWV0YWxfYmluZGluZycsICctaW1hZScsICc8aW5maWxlLm1hZT4nLCAnLW9tYWUnLCAnPG91dGZpbGUubWFlPic=

> <r_lp_tautomer_probability>
1

> <r_epik_Ionization_Penalty>
2.83035e-05

> <r_epik_Ionization_Penalty_Charging>
0

> <r_epik_Ionization_Penalty_Neutral>
2.83035e-05

> <r_epik_State_Penalty>
-0

> <r_epik_Charging_Adjusted_Penalty>
0

> <i_epik_Tot_Q>
0

> <i_epik_Tot_abs_Q>
0

> <r_epik_Metal_State_Penalty>
-0

> <b_epik_Metal_Only>
0

> <s_lp_Force_Field>
OPLS_2005

> <r_lp_Energy>
27.5905

> <b_lp_Chiralities_Consistent>
1

> <s_lp_Variant>
AV-unprocessed.smi:611-1

> <Gold.Version>
5.8.1

> <Gold.Id.Protein>
6NUR|6NUR_protein|mol2

> <Gold.PLP.Fitness>
39.7648

> <Gold.PLP.PLP>
-40.4062

> <Gold.PLP.part.hbond>
-1.6842

> <Gold.PLP.part.metal>
0.0000

> <Gold.PLP.part.buried>
-5.1025

> <Gold.PLP.part.nonpolar>
-33.1679

> <Gold.PLP.part.repulsive>
0.1051

> <Gold.PLP.ligand.clash>
0.0000

> <Gold.PLP.ligand.torsion>
0.3871

> <Gold.PLP.Chemscore.Hbond>
0.0000

> <Gold.PLP.Chemscore.CHOScore>
0.0000

> <Gold.PLP.Chemscore.Metal>
0.0000

> <Gold.PLP.Chemscore.Internal.Correction>
0.1329

> <Gold.Rescore>
     Score         DG    S(hbond)    S(metal)    S(lipo)     H(rot)  DE(clash)    DE(int)     intcor
     12.26     -13.98       0.00        0.00      98.09       1.16       0.11       1.61       ----

> <Gold.Chemscore.Fitness>
12.2635

> <Gold.Chemscore.DG>
-13.9771

> <Gold.Chemscore.ZeroCoef>
-5.4800

> <Gold.Chemscore.Hbond>
0.0000

> <Gold.Chemscore.Metal>
0.0000

> <Gold.Chemscore.Lipo>
98.0864

> <Gold.Chemscore.Internal_Hbond>
0.0000

> <Gold.Chemscore.DEClash>
0.1054

> <Gold.Chemscore.DEInternal>
1.6082

> <Gold.Chemscore.Rot>
1.1637

> <Gold.Chemscore.Internal.Correction>
   9.000000E+99

> <Gold.Chemscore.Hbond.Weighted>
-0.0000

> <Gold.Chemscore.Metal.Weighted>
-0.0000

> <Gold.Chemscore.Lipo.Weighted>
-11.4761

> <Gold.Chemscore.Internal_Hbond.Weighted>
0.0000

> <Gold.Chemscore.DEClash.Weighted>
0.1054

> <Gold.Chemscore.DEInternal.Weighted>
1.6082

> <Gold.Chemscore.Rot.Weighted>
2.9790

> <Gold.Chemscore.Internal.Correction.Weighted>
   9.000000E+99

> <Gold.Protein.RotatedTorsions>
[ 6907 6896 6895 6894 ] final   44.73 input  -60.11 | X-H torsion
[ 7974 7965 7964 7962 ] final  127.27 input  175.53 | X-H torsion
[ 8008 7997 7996 7995 ] final    5.59 input   59.86 | X-H torsion
[ 10167 10162 10161 10158 ] final  130.84 input  -65.29 | X-H torsion
[ 10718 10713 10712 10709 ] final   69.87 input   66.30 | X-H torsion
[ 10763 10752 10751 10750 ] final  150.30 input  -60.55 | X-H torsion
[ 11005 11000 10999 10996 ] final   92.48 input  -57.11 | X-H torsion

> <Gold.Protein.ActiveResidues>
 VAL166  LYS551  ARG553  GLY616  TRP617  ASP618  TYR619  PRO620  LYS621  CYS622 
 ASP623  PHE694  ASN695  SER759  ASP760  ASP761  ALA762  ILE779  LEU786  VAL792 
 PHE793  MET794  SER795  GLU796  ALA797  LYS798  CYS799  TRP800  GLU811  SER814 

> <Gold.Protein.RotatedAtoms>
  152.2361  134.8275  160.0466 H   0  0  0  0  0  0  0  0  0  0  0  0  # atno 6907 bound_to 6896
  151.9006  133.3532  159.3837 H   0  0  0  0  0  0  0  0  0  0  0  0  # atno 6908 bound_to 6896
  150.7039  134.4758  159.5491 H   0  0  0  0  0  0  0  0  0  0  0  0  # atno 6909 bound_to 6896
  145.0524  139.3872  143.5047 H   0  0  0  0  0  0  0  0  0  0  0  0  # atno 7974 bound_to 7965
  154.7304  140.2729  155.6462 H   0  0  0  0  0  0  0  0  0  0  0  0  # atno 8008 bound_to 7997
  156.2848  140.2717  156.1927 H   0  0  0  0  0  0  0  0  0  0  0  0  # atno 8009 bound_to 7997
  155.0390  140.0371  157.2492 H   0  0  0  0  0  0  0  0  0  0  0  0  # atno 8010 bound_to 7997
  139.5411  144.6731  151.4622 H   0  0  0  0  0  0  0  0  0  0  0  0  # atno 10167 bound_to 10162
  157.6369  130.9448  150.0572 H   0  0  0  0  0  0  0  0  0  0  0  0  # atno 10718 bound_to 10713
  154.0852  135.2856  155.3282 H   0  0  0  0  0  0  0  0  0  0  0  0  # atno 10763 bound_to 10752
  154.6657  135.5318  153.8077 H   0  0  0  0  0  0  0  0  0  0  0  0  # atno 10764 bound_to 10752
  153.0434  135.6545  154.1025 H   0  0  0  0  0  0  0  0  0  0  0  0  # atno 10765 bound_to 10752
  139.8823  134.8735  156.3579 H   0  0  0  0  0  0  0  0  0  0  0  0  # atno 11005 bound_to 11000
  146.3519  140.0181  142.8661 LP  0  0  0  0  0  0  0  0  0  0  0  0  # atno 17320 bound_to 7965
  145.1510  140.9623  143.4432 LP  0  0  0  0  0  0  0  0  0  0  0  0  # atno 17321 bound_to 7965
  140.6641  143.8435  150.6922 LP  0  0  0  0  0  0  0  0  0  0  0  0  # atno 17342 bound_to 10162
  140.1839  143.4092  152.1913 LP  0  0  0  0  0  0  0  0  0  0  0  0  # atno 17343 bound_to 10162
  156.1616  130.3644  149.9291 LP  0  0  0  0  0  0  0  0  0  0  0  0  # atno 17370 bound_to 10713
  156.7288  130.9035  151.3624 LP  0  0  0  0  0  0  0  0  0  0  0  0  # atno 17371 bound_to 10713
  140.9549  133.7426  156.0322 LP  0  0  0  0  0  0  0  0  0  0  0  0  # atno 17394 bound_to 11000
  140.8060  134.3454  157.5426 LP  0  0  0  0  0  0  0  0  0  0  0  0  # atno 17395 bound_to 11000

$$$$
