AV-unprocessed.smi:3221|AV-procd|sdf|12302|dock3
  -GOLD-   2272018143D 1   1.00000     0.00000
 Structure written by MMmdl.
 27 28  0  0  0  0  0  0  0  0  2 V2000
  155.0000  138.1692  160.0327 F   0  0  0  0  0  0  0  0  0  0  0  0
  153.8198  137.7144  159.6118 C   0  0  0  0  0  0  0  0  0  0  0  0
  154.0427  136.5974  158.9199 F   0  0  0  0  0  0  0  0  0  0  0  0
  153.1069  137.3887  160.6898 F   0  0  0  0  0  0  0  0  0  0  0  0
  153.0999  138.7339  158.7769 C   0  0  0  0  0  0  0  0  0  0  0  0
  152.7265  138.6169  157.4601 C   0  0  0  0  0  0  0  0  0  0  0  0
  151.9177  140.0468  156.8804 S   0  0  0  0  0  0  0  0  0  0  0  0
  152.1182  140.7687  158.4726 C   0  0  0  0  0  0  0  0  0  0  0  0
  151.6362  142.1423  158.8168 C   0  0  1  0  0  0  0  0  0  0  0  0
  152.7432  143.0195  159.4310 C   0  0  0  0  0  0  0  0  0  0  0  0
  152.1975  144.4165  159.7651 C   0  0  0  0  0  0  0  0  0  0  0  0
  151.5353  145.0571  158.5337 C   0  0  0  0  0  0  0  0  0  0  0  0
  150.4656  144.1845  158.0023 N   0  3  0  0  0  0  0  0  0  0  0  0
  150.9503  142.8387  157.6239 C   0  0  0  0  0  0  0  0  0  0  0  0
  152.7422  139.9646  159.3382 N   0  0  0  0  0  0  0  0  0  0  0  0
  152.8795  137.7779  156.7973 H   0  0  0  0  0  0  0  0  0  0  0  0
  150.8740  142.0122  159.5866 H   0  0  0  0  0  0  0  0  0  0  0  0
  153.1431  142.5511  160.3310 H   0  0  0  0  0  0  0  0  0  0  0  0
  153.5751  143.1132  158.7316 H   0  0  0  0  0  0  0  0  0  0  0  0
  151.4712  144.3428  160.5757 H   0  0  0  0  0  0  0  0  0  0  0  0
  153.0034  145.0540  160.1299 H   0  0  0  0  0  0  0  0  0  0  0  0
  151.1079  146.0256  158.7943 H   0  0  0  0  0  0  0  0  0  0  0  0
  152.2762  145.2343  157.7529 H   0  0  0  0  0  0  0  0  0  0  0  0
  149.7535  144.0818  158.7113 H   0  0  0  0  0  0  0  0  0  0  0  0
  151.6443  142.9374  156.7876 H   0  0  0  0  0  0  0  0  0  0  0  0
  150.1062  142.2464  157.2697 H   0  0  0  0  0  0  0  0  0  0  0  0
  150.0557  144.6247  157.1908 H   0  0  0  0  0  0  0  0  0  0  0  0
  1  2  1  0  0  0  0
  2  3  1  0  0  0  0
  2  4  1  0  0  0  0
  2  5  1  0  0  0  0
  5 15  1  0  0  0  0
  5  6  2  0  0  0  0
  6  7  1  0  0  0  0
  6 16  1  0  0  0  0
  7  8  1  0  0  0  0
  8  9  1  0  0  0  0
  8 15  2  0  0  0  0
  9 14  1  0  0  0  0
  9 10  1  0  0  0  0
  9 17  1  0  0  0  0
 10 11  1  0  0  0  0
 10 18  1  0  0  0  0
 10 19  1  0  0  0  0
 11 12  1  0  0  0  0
 11 20  1  0  0  0  0
 11 21  1  0  0  0  0
 12 13  1  0  0  0  0
 12 22  1  0  0  0  0
 12 23  1  0  0  0  0
 13 14  1  0  0  0  0
 13 24  1  0  0  0  0
 13 27  1  0  0  0  0
 14 25  1  0  0  0  0
 14 26  1  0  0  0  0
M  CHG  1  13   1
M  END
> <s_m_source_file>
AV-unprocessed.smi

> <i_m_source_file_index>
3221

> <i_lp_mmshare_version>
43012

> <i_f3d_flags>
0

> <s_epik_input>
RkMoRikoRiljMVtjSF1zYyhuMSlbQ0BASF0yW0NIMl1bQ0gyXVtDSDJdW05IXVtDSDJdMg==

> <s_epik_cmdline>
J2VwaWtfcHl0aG9uJywgJy1waCcsICc3LjAnLCAnLXRuJywgJzgnLCAnLW1hJywgJzIwMCcsICctbWV0YWxfYmluZGluZycsICctaW1hZScsICc8aW5maWxlLm1hZT4nLCAnLW9tYWUnLCAnPG91dGZpbGUubWFlPic=

> <r_epik_Ionization_Penalty>
0.000426856

> <r_epik_Ionization_Penalty_Charging>
0.000426856

> <r_epik_Ionization_Penalty_Neutral>
2.38238e-11

> <r_epik_State_Penalty>
0.00026276

> <r_epik_Charging_Adjusted_Penalty>
0.000689616

> <i_epik_Tot_Q>
1

> <i_epik_Tot_abs_Q>
1

> <r_epik_Metal_State_Penalty>
-0

> <b_epik_Metal_Only>
0

> <s_lp_Force_Field>
OPLS_2005

> <r_lp_Energy>
6.82196

> <b_lp_Chiralities_Consistent>
1

> <s_lp_Variant>
AV-unprocessed.smi:3221-2

> <Gold.Version>
5.8.1

> <Gold.Id.Protein>
6NUR|6NUR_protein|mol2

> <Gold.PLP.Fitness>
34.9571

> <Gold.PLP.PLP>
-29.0191

> <Gold.PLP.part.hbond>
-1.4948

> <Gold.PLP.part.metal>
0.0000

> <Gold.PLP.part.buried>
-4.2458

> <Gold.PLP.part.nonpolar>
-23.3738

> <Gold.PLP.part.repulsive>
0.0572

> <Gold.PLP.ligand.clash>
0.0000

> <Gold.PLP.ligand.torsion>
0.0574

> <Gold.PLP.Chemscore.Hbond>
2.0000

> <Gold.PLP.Chemscore.CHOScore>
0.0000

> <Gold.PLP.Chemscore.Metal>
0.0000

> <Gold.Chemscore.Hbonds>
donor molecule, donor type, donor heavy atom, donor atom, acceptor molecule, acceptor atom, score
      L1  H    13    27       P1  8028  2.00

> <Gold.PLP.Chemscore.Internal.Correction>
0.0528

> <Gold.Rescore>
     Score         DG    S(hbond)    S(metal)    S(lipo)     H(rot)  DE(clash)    DE(int)     intcor
     15.62     -15.66       0.91        0.00      82.96       1.00       0.00       0.03       ----

> <Gold.Chemscore.Fitness>
15.6221

> <Gold.Chemscore.DG>
-15.6586

> <Gold.Chemscore.ZeroCoef>
-5.4800

> <Gold.Chemscore.Hbond>
0.9079

> <Gold.Chemscore.Metal>
0.0000

> <Gold.Chemscore.Lipo>
82.9598

> <Gold.Chemscore.Internal_Hbond>
0.0000

> <Gold.Chemscore.DEClash>
0.0048

> <Gold.Chemscore.DEInternal>
0.0317

> <Gold.Chemscore.Rot>
1.0000

> <Gold.Chemscore.Internal.Correction>
   9.000000E+99

> <Gold.Chemscore.Hbonds>
donor molecule, donor type, donor heavy atom, donor atom, acceptor molecule, acceptor atom, score
      L1  H    13    27       P1  8028  0.34

> <Gold.Chemscore.Hbond.Weighted>
-3.0323

> <Gold.Chemscore.Metal.Weighted>
-0.0000

> <Gold.Chemscore.Lipo.Weighted>
-9.7063

> <Gold.Chemscore.Internal_Hbond.Weighted>
0.0000

> <Gold.Chemscore.DEClash.Weighted>
0.0048

> <Gold.Chemscore.DEInternal.Weighted>
0.0317

> <Gold.Chemscore.Rot.Weighted>
2.5600

> <Gold.Chemscore.Internal.Correction.Weighted>
   9.000000E+99

> <Gold.Protein.RotatedTorsions>
[ 6907 6896 6895 6894 ] final  106.75 input  -60.11 | X-H torsion
[ 7974 7965 7964 7962 ] final   53.91 input  175.53 | X-H torsion
[ 8008 7997 7996 7995 ] final   99.57 input   59.86 | X-H torsion
[ 10167 10162 10161 10158 ] final  138.84 input  -65.29 | X-H torsion
[ 10718 10713 10712 10709 ] final -155.50 input   66.30 | X-H torsion
[ 10763 10752 10751 10750 ] final -148.32 input  -60.55 | X-H torsion
[ 11005 11000 10999 10996 ] final  154.06 input  -57.11 | X-H torsion

> <Gold.Protein.ActiveResidues>
 VAL166  LYS551  ARG553  GLY616  TRP617  ASP618  TYR619  PRO620  LYS621  CYS622 
 ASP623  PHE694  ASN695  SER759  ASP760  ASP761  ALA762  ILE779  LEU786  VAL792 
 PHE793  MET794  SER795  GLU796  ALA797  LYS798  CYS799  TRP800  GLU811  SER814 

> <Gold.Protein.RotatedAtoms>
  152.5181  133.9335  159.7591 H   0  0  0  0  0  0  0  0  0  0  0  0  # atno 6907 bound_to 6896
  150.9680  133.6365  159.2750 H   0  0  0  0  0  0  0  0  0  0  0  0  # atno 6908 bound_to 6896
  151.3587  135.0905  159.9480 H   0  0  0  0  0  0  0  0  0  0  0  0  # atno 6909 bound_to 6896
  145.9663  139.4106  143.0218 H   0  0  0  0  0  0  0  0  0  0  0  0  # atno 7974 bound_to 7965
  156.1118  140.3226  155.8083 H   0  0  0  0  0  0  0  0  0  0  0  0  # atno 8008 bound_to 7997
  155.4660  140.0543  157.3002 H   0  0  0  0  0  0  0  0  0  0  0  0  # atno 8009 bound_to 7997
  154.4765  140.2034  155.9880 H   0  0  0  0  0  0  0  0  0  0  0  0  # atno 8010 bound_to 7997
  139.5098  144.6330  151.5770 H   0  0  0  0  0  0  0  0  0  0  0  0  # atno 10167 bound_to 10162
  156.5137  130.8446  151.2656 H   0  0  0  0  0  0  0  0  0  0  0  0  # atno 10718 bound_to 10713
  154.8239  135.3337  154.6955 H   0  0  0  0  0  0  0  0  0  0  0  0  # atno 10763 bound_to 10752
  153.7584  135.6934  153.4935 H   0  0  0  0  0  0  0  0  0  0  0  0  # atno 10764 bound_to 10752
  153.2127  135.4476  155.0348 H   0  0  0  0  0  0  0  0  0  0  0  0  # atno 10765 bound_to 10752
  140.1455  134.8710  157.2386 H   0  0  0  0  0  0  0  0  0  0  0  0  # atno 11005 bound_to 11000
  145.7970  140.9788  143.1019 LP  0  0  0  0  0  0  0  0  0  0  0  0  # atno 17320 bound_to 7965
  144.6826  139.9753  143.7483 LP  0  0  0  0  0  0  0  0  0  0  0  0  # atno 17321 bound_to 7965
  140.6069  143.9508  150.6425 LP  0  0  0  0  0  0  0  0  0  0  0  0  # atno 17342 bound_to 10162
  140.2738  143.3437  152.1214 LP  0  0  0  0  0  0  0  0  0  0  0  0  # atno 17343 bound_to 10162
  157.7447  130.9941  150.2695 LP  0  0  0  0  0  0  0  0  0  0  0  0  # atno 17370 bound_to 10713
  156.3216  130.3786  149.7570 LP  0  0  0  0  0  0  0  0  0  0  0  0  # atno 17371 bound_to 10713
  140.2669  134.3505  155.7387 LP  0  0  0  0  0  0  0  0  0  0  0  0  # atno 17394 bound_to 11000
  141.2192  133.7401  156.9165 LP  0  0  0  0  0  0  0  0  0  0  0  0  # atno 17395 bound_to 11000

$$$$
