AV-unprocessed.smi:2448|AV-procd|sdf|9658|dock3
  -GOLD-   2272013293D 1   1.00000     0.00000
 Structure written by MMmdl.
 38 39  0  0  0  0  0  0  0  0  2 V2000
  144.5725  134.3569  154.0320 O   0  0  0  0  0  0  0  0  0  0  0  0
  145.8316  134.2768  153.3857 C   0  0  2  0  0  0  0  0  0  0  0  0
  146.9029  134.8061  154.3587 C   0  0  0  0  0  0  0  0  0  0  0  0
  148.2728  134.5015  153.8878 N   0  3  0  0  0  0  0  0  0  0  0  0
  149.3271  134.5735  154.9268 C   0  0  1  0  0  0  0  0  0  0  0  0
  149.1081  135.7919  155.8518 C   0  0  0  0  0  0  0  0  0  0  0  0
  149.8077  137.0506  155.3716 C   0  0  0  0  0  0  0  0  0  0  0  0
  149.1125  138.0164  154.6153 C   0  0  0  0  0  0  0  0  0  0  0  0
  149.8011  139.1797  154.2159 C   0  0  0  0  0  0  0  0  0  0  0  0
  151.0942  139.4176  154.5238 N   0  0  0  0  0  0  0  0  0  0  0  0
  151.7557  138.4855  155.2427 C   0  0  0  0  0  0  0  0  0  0  0  0
  151.1604  137.2897  155.6913 C   0  0  0  0  0  0  0  0  0  0  0  0
  149.3636  133.2544  155.7224 C   0  0  0  0  0  0  0  0  0  0  0  0
  149.4837  132.2274  154.8809 F   0  0  0  0  0  0  0  0  0  0  0  0
  150.4086  133.2435  156.5495 F   0  0  0  0  0  0  0  0  0  0  0  0
  148.2449  133.1010  156.4315 F   0  0  0  0  0  0  0  0  0  0  0  0
  145.7543  135.1151  152.0989 C   0  0  0  0  0  0  0  0  0  0  0  0
  144.9109  134.3381  151.0830 C   0  0  0  0  0  0  0  0  0  0  0  0
  145.2256  132.5753  151.3478 S   0  0  0  0  0  0  0  0  0  0  0  0
  146.0851  132.8307  152.9231 C   0  0  0  0  0  0  0  0  0  0  0  0
  144.1889  133.4932  154.0582 H   0  0  0  0  0  0  0  0  0  0  0  0
  146.8085  135.8872  154.4706 H   0  0  0  0  0  0  0  0  0  0  0  0
  146.7431  134.3755  155.3473 H   0  0  0  0  0  0  0  0  0  0  0  0
  148.2826  133.5762  153.4823 H   0  0  0  0  0  0  0  0  0  0  0  0
  150.2970  134.6784  154.4368 H   0  0  0  0  0  0  0  0  0  0  0  0
  148.0418  135.9945  155.9602 H   0  0  0  0  0  0  0  0  0  0  0  0
  149.4741  135.5673  156.8543 H   0  0  0  0  0  0  0  0  0  0  0  0
  148.0751  137.8756  154.3488 H   0  0  0  0  0  0  0  0  0  0  0  0
  149.2982  139.9413  153.6388 H   0  0  0  0  0  0  0  0  0  0  0  0
  152.7885  138.7012  155.4728 H   0  0  0  0  0  0  0  0  0  0  0  0
  151.7325  136.5791  156.2702 H   0  0  0  0  0  0  0  0  0  0  0  0
  145.3546  136.1146  152.2752 H   0  0  0  0  0  0  0  0  0  0  0  0
  146.7578  135.2448  151.6911 H   0  0  0  0  0  0  0  0  0  0  0  0
  143.8502  134.5231  151.2553 H   0  0  0  0  0  0  0  0  0  0  0  0
  145.1349  134.6263  150.0558 H   0  0  0  0  0  0  0  0  0  0  0  0
  147.1490  132.6790  152.7376 H   0  0  0  0  0  0  0  0  0  0  0  0
  145.7752  132.0903  153.6615 H   0  0  0  0  0  0  0  0  0  0  0  0
  148.5004  135.1677  153.1634 H   0  0  0  0  0  0  0  0  0  0  0  0
  1  2  1  0  0  0  0
  1 21  1  0  0  0  0
  2 20  1  0  0  0  0
  2  3  1  0  0  0  0
  2 17  1  0  0  0  0
  3  4  1  0  0  0  0
  3 22  1  0  0  0  0
  3 23  1  0  0  0  0
  4  5  1  0  0  0  0
  4 24  1  0  0  0  0
  4 38  1  0  0  0  0
  5  6  1  0  0  0  0
  5 13  1  0  0  0  0
  5 25  1  0  0  0  0
  6  7  1  0  0  0  0
  6 26  1  0  0  0  0
  6 27  1  0  0  0  0
  7 12  1  0  0  0  0
  7  8  2  0  0  0  0
  8  9  1  0  0  0  0
  8 28  1  0  0  0  0
  9 10  2  0  0  0  0
  9 29  1  0  0  0  0
 10 11  1  0  0  0  0
 11 12  2  0  0  0  0
 11 30  1  0  0  0  0
 12 31  1  0  0  0  0
 13 14  1  0  0  0  0
 13 15  1  0  0  0  0
 13 16  1  0  0  0  0
 17 18  1  0  0  0  0
 17 32  1  0  0  0  0
 17 33  1  0  0  0  0
 18 19  1  0  0  0  0
 18 34  1  0  0  0  0
 18 35  1  0  0  0  0
 19 20  1  0  0  0  0
 20 36  1  0  0  0  0
 20 37  1  0  0  0  0
M  CHG  1   4   1
M  END
> <s_m_source_file>
AV-unprocessed.smi

> <i_m_source_file_index>
2448

> <i_lp_mmshare_version>
43012

> <i_f3d_flags>
0

> <s_epik_input>
W0NIMl0xU1tDSDJdW0NIMl1bQ0BAXTEoW09IXSlbQ0gyXVtOSF1bQ0BASF0oQyhGKShGKUYpW0NIMl1jMltjSF1bY0hdbltjSF1bY0hdMg==

> <s_epik_cmdline>
J2VwaWtfcHl0aG9uJywgJy1waCcsICc3LjAnLCAnLXRuJywgJzgnLCAnLW1hJywgJzIwMCcsICctbWV0YWxfYmluZGluZycsICctaW1hZScsICc8aW5maWxlLm1hZT4nLCAnLW9tYWUnLCAnPG91dGZpbGUubWFlPic=

> <r_epik_Ionization_Penalty>
1.19945

> <r_epik_Ionization_Penalty_Charging>
1.19892

> <r_epik_Ionization_Penalty_Neutral>
0.000532129

> <r_epik_State_Penalty>
0.752927

> <r_epik_Charging_Adjusted_Penalty>
1.95185

> <i_epik_Tot_Q>
1

> <i_epik_Tot_abs_Q>
1

> <r_epik_Metal_State_Penalty>
0.804507

> <b_epik_Metal_Only>
0

> <s_lp_Force_Field>
OPLS_2005

> <r_lp_Energy>
23.5245

> <b_lp_Chiralities_Consistent>
1

> <s_lp_Variant>
AV-unprocessed.smi:2448-8

> <Gold.Version>
5.8.1

> <Gold.Id.Protein>
6NUR|6NUR_protein|mol2

> <Gold.PLP.Fitness>
39.8480

> <Gold.PLP.PLP>
-29.2862

> <Gold.PLP.part.hbond>
-2.7071

> <Gold.PLP.part.metal>
0.0000

> <Gold.PLP.part.buried>
-3.0339

> <Gold.PLP.part.nonpolar>
-24.1189

> <Gold.PLP.part.repulsive>
0.1393

> <Gold.PLP.ligand.clash>
0.0000

> <Gold.PLP.ligand.torsion>
1.2060

> <Gold.PLP.Chemscore.Hbond>
3.3744

> <Gold.PLP.Chemscore.CHOScore>
0.7070

> <Gold.PLP.Chemscore.Metal>
0.0000

> <Gold.Chemscore.Hbonds>
donor molecule, donor type, donor heavy atom, donor atom, acceptor molecule, acceptor atom, score
      L1  H     1    21       P1 10957  0.05
      L1  H     4    38       P1  7948  2.00
      P1  H  7989  7998       L1    10  1.00
      L1  C     9    29       P1  7957  0.80

> <Gold.PLP.Chemscore.Internal.Correction>
0.7295

> <Gold.Rescore>
     Score         DG    S(hbond)    S(metal)    S(lipo)     H(rot)  DE(clash)    DE(int)     intcor
     12.36     -13.42       1.91        0.00      65.53       2.39       0.02       1.05       ----

> <Gold.Chemscore.Fitness>
12.3554

> <Gold.Chemscore.DG>
-13.4212

> <Gold.Chemscore.ZeroCoef>
-5.4800

> <Gold.Chemscore.Hbond>
1.9113

> <Gold.Chemscore.Metal>
0.0000

> <Gold.Chemscore.Lipo>
65.5303

> <Gold.Chemscore.Internal_Hbond>
0.0000

> <Gold.Chemscore.DEClash>
0.0202

> <Gold.Chemscore.DEInternal>
1.0456

> <Gold.Chemscore.Rot>
2.3866

> <Gold.Chemscore.Internal.Correction>
   9.000000E+99

> <Gold.Chemscore.Hbonds>
donor molecule, donor type, donor heavy atom, donor atom, acceptor molecule, acceptor atom, score
      L1  H     1    21       P1 10957  0.09
      L1  H     4    38       P1  7948  0.85
      P1  H  7989  7998       L1    10  0.60

> <Gold.Chemscore.Hbond.Weighted>
-6.3838

> <Gold.Chemscore.Metal.Weighted>
-0.0000

> <Gold.Chemscore.Lipo.Weighted>
-7.6670

> <Gold.Chemscore.Internal_Hbond.Weighted>
0.0000

> <Gold.Chemscore.DEClash.Weighted>
0.0202

> <Gold.Chemscore.DEInternal.Weighted>
1.0456

> <Gold.Chemscore.Rot.Weighted>
6.1096

> <Gold.Chemscore.Internal.Correction.Weighted>
   9.000000E+99

> <Gold.Protein.RotatedTorsions>
[ 6907 6896 6895 6894 ] final   55.66 input  -60.11 | X-H torsion
[ 7974 7965 7964 7962 ] final   14.64 input  175.53 | X-H torsion
[ 8008 7997 7996 7995 ] final -175.23 input   59.86 | X-H torsion
[ 10167 10162 10161 10158 ] final  158.93 input  -65.29 | X-H torsion
[ 10718 10713 10712 10709 ] final  111.13 input   66.30 | X-H torsion
[ 10763 10752 10751 10750 ] final   -7.64 input  -60.55 | X-H torsion
[ 11005 11000 10999 10996 ] final  130.32 input  -57.11 | X-H torsion

> <Gold.Protein.ActiveResidues>
 VAL166  LYS551  ARG553  GLY616  TRP617  ASP618  TYR619  PRO620  LYS621  CYS622 
 ASP623  PHE694  ASN695  SER759  ASP760  ASP761  ALA762  ILE779  LEU786  VAL792 
 PHE793  MET794  SER795  GLU796  ALA797  LYS798  CYS799  TRP800  GLU811  SER814 

> <Gold.Protein.RotatedAtoms>
  152.3560  134.6939  160.0221 H   0  0  0  0  0  0  0  0  0  0  0  0  # atno 6907 bound_to 6896
  151.7277  133.3311  159.3340 H   0  0  0  0  0  0  0  0  0  0  0  0  # atno 6908 bound_to 6896
  150.7572  134.6325  159.6238 H   0  0  0  0  0  0  0  0  0  0  0  0  # atno 6909 bound_to 6896
  146.2299  139.9011  142.8539 H   0  0  0  0  0  0  0  0  0  0  0  0  # atno 7974 bound_to 7965
  155.9799  140.1179  157.0736 H   0  0  0  0  0  0  0  0  0  0  0  0  # atno 8008 bound_to 7997
  154.4180  140.1146  156.5489 H   0  0  0  0  0  0  0  0  0  0  0  0  # atno 8009 bound_to 7997
  155.6484  140.3473  155.4742 H   0  0  0  0  0  0  0  0  0  0  0  0  # atno 8010 bound_to 7997
  139.4829  144.4778  151.8486 H   0  0  0  0  0  0  0  0  0  0  0  0  # atno 10167 bound_to 10162
  157.6460  131.0945  150.6703 H   0  0  0  0  0  0  0  0  0  0  0  0  # atno 10718 bound_to 10713
  153.4292  135.7011  153.6242 H   0  0  0  0  0  0  0  0  0  0  0  0  # atno 10763 bound_to 10752
  153.4664  135.3724  155.2367 H   0  0  0  0  0  0  0  0  0  0  0  0  # atno 10764 bound_to 10752
  154.8725  135.4032  154.3673 H   0  0  0  0  0  0  0  0  0  0  0  0  # atno 10765 bound_to 10752
  139.9665  134.9589  156.9277 H   0  0  0  0  0  0  0  0  0  0  0  0  # atno 11005 bound_to 11000
  145.2322  140.9977  143.3984 LP  0  0  0  0  0  0  0  0  0  0  0  0  # atno 17320 bound_to 7965
  144.9521  139.4072  143.6397 LP  0  0  0  0  0  0  0  0  0  0  0  0  # atno 17321 bound_to 7965
  140.4252  144.2190  150.5887 LP  0  0  0  0  0  0  0  0  0  0  0  0  # atno 17342 bound_to 10162
  140.4834  143.2371  151.8922 LP  0  0  0  0  0  0  0  0  0  0  0  0  # atno 17343 bound_to 10162
  156.7020  130.4626  149.5570 LP  0  0  0  0  0  0  0  0  0  0  0  0  # atno 17370 bound_to 10713
  156.1789  130.6485  151.0927 LP  0  0  0  0  0  0  0  0  0  0  0  0  # atno 17371 bound_to 10713
  140.5384  134.0744  155.7335 LP  0  0  0  0  0  0  0  0  0  0  0  0  # atno 17394 bound_to 11000
  141.1345  133.9245  157.2463 LP  0  0  0  0  0  0  0  0  0  0  0  0  # atno 17395 bound_to 11000

$$$$
