AV-unprocessed.smi:1783|AV-procd|sdf|7194|dock7
  -GOLD-   22720 8433D 1   1.00000     0.00000
 Structure written by MMmdl.
 29 30  0  0  0  0  0  0  0  0  2 V2000
  149.8058  142.6696  158.8856 O   0  0  0  0  0  0  0  0  0  0  0  0
  150.9870  142.5821  158.5499 C   0  0  0  0  0  0  0  0  0  0  0  0
  151.4396  141.9597  157.4438 N   0  0  0  0  0  0  0  0  0  0  0  0
  150.7271  141.3078  156.4221 C   0  0  0  0  0  0  0  0  0  0  0  0
  149.4711  141.6387  156.0118 C   0  0  0  0  0  0  0  0  0  0  0  0
  148.7884  140.9290  154.9372 C   0  0  0  0  0  0  0  0  0  0  0  0
  147.4214  141.3207  154.4047 C   0  0  0  0  0  0  0  0  0  0  0  0
  147.4006  142.5992  154.0272 F   0  0  0  0  0  0  0  0  0  0  0  0
  147.1147  140.5706  153.3473 F   0  0  0  0  0  0  0  0  0  0  0  0
  146.4787  141.1403  155.3295 F   0  0  0  0  0  0  0  0  0  0  0  0
  149.5707  139.9316  154.3880 C   0  0  0  0  0  0  0  0  0  0  0  0
  150.8139  139.5356  154.7383 N   0  5  0  0  0  0  0  0  0  0  0  0
  151.4396  140.2009  155.7500 C   0  0  0  0  0  0  0  0  0  0  0  0
  152.5774  139.8990  156.1120 O   0  0  0  0  0  0  0  0  0  0  0  0
  152.0697  143.2117  159.4342 C   0  0  2  0  0  0  0  0  0  0  0  0
  153.1585  142.2228  159.8923 C   0  0  0  0  0  0  0  0  0  0  0  0
  152.9272  142.0952  161.3858 C   0  0  0  0  0  0  0  0  0  0  0  0
  152.3146  143.4461  161.7257 C   0  0  0  0  0  0  0  0  0  0  0  0
  151.4492  143.6856  160.6280 O   0  0  0  0  0  0  0  0  0  0  0  0
  152.4429  141.9236  157.3342 H   0  0  0  0  0  0  0  0  0  0  0  0
  148.9365  142.4571  156.4641 H   0  0  0  0  0  0  0  0  0  0  0  0
  149.1331  139.3695  153.5355 H   0  0  0  0  0  0  0  0  0  0  0  0
  152.5364  144.0546  158.9210 H   0  0  0  0  0  0  0  0  0  0  0  0
  153.1232  141.2546  159.3904 H   0  0  0  0  0  0  0  0  0  0  0  0
  154.1439  142.6500  159.7022 H   0  0  0  0  0  0  0  0  0  0  0  0
  152.2090  141.2992  161.5871 H   0  0  0  0  0  0  0  0  0  0  0  0
  153.8391  141.8855  161.9450 H   0  0  0  0  0  0  0  0  0  0  0  0
  151.7728  143.4395  162.6715 H   0  0  0  0  0  0  0  0  0  0  0  0
  153.0789  144.2237  161.7669 H   0  0  0  0  0  0  0  0  0  0  0  0
  1  2  2  0  0  0  0
  2  3  1  0  0  0  0
  2 15  1  0  0  0  0
  3  4  1  0  0  0  0
  3 20  1  0  0  0  0
  4 13  1  0  0  0  0
  4  5  2  0  0  0  0
  5  6  1  0  0  0  0
  5 21  1  0  0  0  0
  6  7  1  0  0  0  0
  6 11  2  0  0  0  0
  7  8  1  0  0  0  0
  7  9  1  0  0  0  0
  7 10  1  0  0  0  0
 11 12  1  0  0  0  0
 11 22  1  0  0  0  0
 12 13  1  0  0  0  0
 13 14  2  0  0  0  0
 15 19  1  0  0  0  0
 15 16  1  0  0  0  0
 15 23  1  0  0  0  0
 16 17  1  0  0  0  0
 16 24  1  0  0  0  0
 16 25  1  0  0  0  0
 17 18  1  0  0  0  0
 17 26  1  0  0  0  0
 17 27  1  0  0  0  0
 18 19  1  0  0  0  0
 18 28  1  0  0  0  0
 18 29  1  0  0  0  0
M  CHG  1  12  -1
M  END
> <s_m_source_file>
AV-unprocessed.smi

> <i_m_source_file_index>
1783

> <i_lp_mmshare_version>
43012

> <i_f3d_flags>
0

> <s_epik_input>
TzFbQ0gyXVtDSDJdW0NIMl1bQ0BIXTFDKD1PKVtOSF1jMltjSF1jKEMoRikoRilGKVtjSF1bbkhdYzI9Tw==

> <s_epik_cmdline>
J2VwaWtfcHl0aG9uJywgJy1waCcsICc3LjAnLCAnLXRuJywgJzgnLCAnLW1hJywgJzIwMCcsICctbWV0YWxfYmluZGluZycsICctaW1hZScsICc8aW5maWxlLm1hZT4nLCAnLW9tYWUnLCAnPG91dGZpbGUubWFlPic=

> <r_epik_Ionization_Penalty>
2.55264

> <r_epik_Ionization_Penalty_Charging>
0.0580859

> <r_epik_Ionization_Penalty_Neutral>
2.49455

> <r_epik_State_Penalty>
2.65913

> <r_epik_Charging_Adjusted_Penalty>
2.71721

> <i_epik_Tot_Q>
-1

> <i_epik_Tot_abs_Q>
1

> <r_epik_Metal_State_Penalty>
0.516671

> <b_epik_Metal_Only>
0

> <s_lp_Force_Field>
OPLS_2005

> <r_lp_Energy>
34.3394

> <b_lp_Chiralities_Consistent>
1

> <s_lp_Variant>
AV-unprocessed.smi:1783-3

> <Gold.Version>
5.8.1

> <Gold.Id.Protein>
6NUR|6NUR_protein|mol2

> <Gold.PLP.Fitness>
43.5703

> <Gold.PLP.PLP>
-40.7363

> <Gold.PLP.part.hbond>
-2.7886

> <Gold.PLP.part.metal>
0.0000

> <Gold.PLP.part.buried>
-2.1674

> <Gold.PLP.part.nonpolar>
-35.4934

> <Gold.PLP.part.repulsive>
0.3468

> <Gold.PLP.ligand.clash>
0.2572

> <Gold.PLP.ligand.torsion>
0.2974

> <Gold.PLP.Chemscore.Hbond>
1.2100

> <Gold.PLP.Chemscore.CHOScore>
0.0000

> <Gold.PLP.Chemscore.Metal>
0.0000

> <Gold.Chemscore.Hbonds>
donor molecule, donor type, donor heavy atom, donor atom, acceptor molecule, acceptor atom, score
      P1  H  7989  7998       L1    12  0.19
      P1  H  7997  8010       L1    14  1.00

> <Gold.PLP.Chemscore.Internal.Correction>
0.0560

> <Gold.Rescore>
     Score         DG    S(hbond)    S(metal)    S(lipo)     H(rot)  DE(clash)    DE(int)     intcor
     15.25     -15.58       1.00        0.00      79.67       1.00       0.05       0.27       ----

> <Gold.Chemscore.Fitness>
15.2523

> <Gold.Chemscore.DG>
-15.5809

> <Gold.Chemscore.ZeroCoef>
-5.4800

> <Gold.Chemscore.Hbond>
0.9997

> <Gold.Chemscore.Metal>
0.0000

> <Gold.Chemscore.Lipo>
79.6745

> <Gold.Chemscore.Internal_Hbond>
0.0000

> <Gold.Chemscore.DEClash>
0.0540

> <Gold.Chemscore.DEInternal>
0.2746

> <Gold.Chemscore.Rot>
1.0000

> <Gold.Chemscore.Internal.Correction>
   9.000000E+99

> <Gold.Chemscore.Hbonds>
donor molecule, donor type, donor heavy atom, donor atom, acceptor molecule, acceptor atom, score
      P1  H  7997  8010       L1    14  1.00

> <Gold.Chemscore.Hbond.Weighted>
-3.3390

> <Gold.Chemscore.Metal.Weighted>
-0.0000

> <Gold.Chemscore.Lipo.Weighted>
-9.3219

> <Gold.Chemscore.Internal_Hbond.Weighted>
0.0000

> <Gold.Chemscore.DEClash.Weighted>
0.0540

> <Gold.Chemscore.DEInternal.Weighted>
0.2746

> <Gold.Chemscore.Rot.Weighted>
2.5600

> <Gold.Chemscore.Internal.Correction.Weighted>
   9.000000E+99

> <Gold.Protein.RotatedTorsions>
[ 6907 6896 6895 6894 ] final  -50.36 input  -60.11 | X-H torsion
[ 7974 7965 7964 7962 ] final   -3.32 input  175.53 | X-H torsion
[ 8008 7997 7996 7995 ] final   76.05 input   59.86 | X-H torsion
[ 10167 10162 10161 10158 ] final  -81.40 input  -65.29 | X-H torsion
[ 10718 10713 10712 10709 ] final  -10.44 input   66.30 | X-H torsion
[ 10763 10752 10751 10750 ] final -111.14 input  -60.55 | X-H torsion
[ 11005 11000 10999 10996 ] final -109.67 input  -57.11 | X-H torsion

> <Gold.Protein.ActiveResidues>
 VAL166  LYS551  ARG553  GLY616  TRP617  ASP618  TYR619  PRO620  LYS621  CYS622 
 ASP623  PHE694  ASN695  SER759  ASP760  ASP761  ALA762  ILE779  LEU786  VAL792 
 PHE793  MET794  SER795  GLU796  ALA797  LYS798  CYS799  TRP800  GLU811  SER814 

> <Gold.Protein.RotatedAtoms>
  150.8715  134.8089  159.7157 H   0  0  0  0  0  0  0  0  0  0  0  0  # atno 6907 bound_to 6896
  152.4717  134.4940  159.9714 H   0  0  0  0  0  0  0  0  0  0  0  0  # atno 6908 bound_to 6896
  151.5028  133.3462  159.2907 H   0  0  0  0  0  0  0  0  0  0  0  0  # atno 6909 bound_to 6896
  146.2391  140.1704  142.8332 H   0  0  0  0  0  0  0  0  0  0  0  0  # atno 7974 bound_to 7965
  155.8218  140.3469  155.5519 H   0  0  0  0  0  0  0  0  0  0  0  0  # atno 8008 bound_to 7997
  155.8334  140.0930  157.1798 H   0  0  0  0  0  0  0  0  0  0  0  0  # atno 8009 bound_to 7997
  154.4004  140.1408  156.3629 H   0  0  0  0  0  0  0  0  0  0  0  0  # atno 8010 bound_to 7997
  140.4415  143.2513  151.8618 H   0  0  0  0  0  0  0  0  0  0  0  0  # atno 10167 bound_to 10162
  156.6734  130.5016  149.5993 H   0  0  0  0  0  0  0  0  0  0  0  0  # atno 10718 bound_to 10713
  154.8285  135.4538  154.0993 H   0  0  0  0  0  0  0  0  0  0  0  0  # atno 10763 bound_to 10752
  153.2287  135.6903  153.7921 H   0  0  0  0  0  0  0  0  0  0  0  0  # atno 10764 bound_to 10752
  153.7312  135.3326  155.3262 H   0  0  0  0  0  0  0  0  0  0  0  0  # atno 10765 bound_to 10752
  141.0834  133.9180  157.2238 H   0  0  0  0  0  0  0  0  0  0  0  0  # atno 11005 bound_to 11000
  145.0016  140.8637  143.5278 LP  0  0  0  0  0  0  0  0  0  0  0  0  # atno 17320 bound_to 7965
  145.1724  139.2397  143.5335 LP  0  0  0  0  0  0  0  0  0  0  0  0  # atno 17321 bound_to 7965
  139.4790  144.5223  151.8784 LP  0  0  0  0  0  0  0  0  0  0  0  0  # atno 17342 bound_to 10162
  140.4312  144.2113  150.5888 LP  0  0  0  0  0  0  0  0  0  0  0  0  # atno 17343 bound_to 10162
  156.1921  130.6566  151.1073 LP  0  0  0  0  0  0  0  0  0  0  0  0  # atno 17370 bound_to 10713
  157.7069  131.0752  150.6636 LP  0  0  0  0  0  0  0  0  0  0  0  0  # atno 17371 bound_to 10713
  139.9650  135.0144  156.9363 LP  0  0  0  0  0  0  0  0  0  0  0  0  # atno 17394 bound_to 11000
  140.5417  134.0714  155.7343 LP  0  0  0  0  0  0  0  0  0  0  0  0  # atno 17395 bound_to 11000

$$$$
