AV-unprocessed.smi:2677|AV-procd|sdf|10365|dock5
  -GOLD-   2272014393D 1   1.00000     0.00000
 Structure written by MMmdl.
 40 41  0  0  0  0  0  0  0  0  1 V2000
  151.8797  145.3477  159.5415 C   0  0  0  0  0  0  0  0  0  0  0  0
  152.5277  144.1449  160.2356 C   0  0  0  0  0  0  0  0  0  0  0  0
  152.2471  142.8566  159.5199 C   0  0  0  0  0  0  0  0  0  0  0  0
  151.4438  142.8721  158.3767 N   0  0  0  0  0  0  0  0  0  0  0  0
  151.2769  141.6592  157.8447 C   0  0  0  0  0  0  0  0  0  0  0  0
  150.4037  141.3892  156.6609 C   0  0  0  0  0  0  0  0  0  0  0  0
  150.3672  139.9043  156.2501 C   0  0  0  0  0  0  0  0  0  0  0  0
  149.0434  139.4932  155.7942 N   0  0  0  0  0  0  0  0  0  0  0  0
  148.3635  140.0462  154.7762 C   0  0  0  0  0  0  0  0  0  0  0  0
  148.8655  140.8956  154.0389 O   0  0  0  0  0  0  0  0  0  0  0  0
  147.0976  139.5809  154.6240 N   0  0  0  0  0  0  0  0  0  0  0  0
  146.3681  138.7254  155.5745 C   0  0  0  0  0  0  0  0  0  0  0  0
  146.3832  137.2771  155.0607 C   0  0  0  0  0  0  0  0  0  0  0  0
  145.5173  137.1469  153.4652 S   0  0  0  0  0  0  0  0  0  0  0  0
  146.3311  138.5034  152.5636 C   0  0  0  0  0  0  0  0  0  0  0  0
  146.3311  139.7999  153.3915 C   0  0  0  0  0  0  0  0  0  0  0  0
  152.1122  140.3956  158.7355 S   0  0  0  0  0  0  0  0  0  0  0  0
  152.7022  141.6013  159.8509 C   0  0  0  0  0  0  0  0  0  0  0  0
  153.5804  141.2172  160.9952 C   0  0  0  0  0  0  0  0  0  0  0  0
  152.0982  146.2708  160.0785 H   0  0  0  0  0  0  0  0  0  0  0  0
  150.7958  145.2387  159.4934 H   0  0  0  0  0  0  0  0  0  0  0  0
  152.2513  145.4588  158.5224 H   0  0  0  0  0  0  0  0  0  0  0  0
  153.6027  144.3100  160.3122 H   0  0  0  0  0  0  0  0  0  0  0  0
  152.1642  144.0859  161.2624 H   0  0  0  0  0  0  0  0  0  0  0  0
  149.3944  141.7330  156.8907 H   0  0  0  0  0  0  0  0  0  0  0  0
  150.7506  141.9963  155.8244 H   0  0  0  0  0  0  0  0  0  0  0  0
  151.1214  139.6977  155.4892 H   0  0  0  0  0  0  0  0  0  0  0  0
  150.6211  139.2852  157.1109 H   0  0  0  0  0  0  0  0  0  0  0  0
  148.5748  138.7866  156.3422 H   0  0  0  0  0  0  0  0  0  0  0  0
  146.7708  138.7701  156.5869 H   0  0  0  0  0  0  0  0  0  0  0  0
  145.3389  139.0741  155.6713 H   0  0  0  0  0  0  0  0  0  0  0  0
  147.4085  136.9254  154.9412 H   0  0  0  0  0  0  0  0  0  0  0  0
  145.8982  136.6139  155.7769 H   0  0  0  0  0  0  0  0  0  0  0  0
  147.3527  138.2073  152.3224 H   0  0  0  0  0  0  0  0  0  0  0  0
  145.8110  138.6560  151.6179 H   0  0  0  0  0  0  0  0  0  0  0  0
  145.3089  140.0963  153.6309 H   0  0  0  0  0  0  0  0  0  0  0  0
  146.7363  140.6170  152.7929 H   0  0  0  0  0  0  0  0  0  0  0  0
  153.0245  141.2425  161.9324 H   0  0  0  0  0  0  0  0  0  0  0  0
  154.4247  141.9009  161.0837 H   0  0  0  0  0  0  0  0  0  0  0  0
  153.9787  140.2106  160.8664 H   0  0  0  0  0  0  0  0  0  0  0  0
  1  2  1  0  0  0  0
  1 20  1  0  0  0  0
  1 21  1  0  0  0  0
  1 22  1  0  0  0  0
  2  3  1  0  0  0  0
  2 23  1  0  0  0  0
  2 24  1  0  0  0  0
  3 18  2  0  0  0  0
  3  4  1  0  0  0  0
  4  5  2  0  0  0  0
  5  6  1  0  0  0  0
  5 17  1  0  0  0  0
  6  7  1  0  0  0  0
  6 25  1  0  0  0  0
  6 26  1  0  0  0  0
  7  8  1  0  0  0  0
  7 27  1  0  0  0  0
  7 28  1  0  0  0  0
  8  9  1  0  0  0  0
  8 29  1  0  0  0  0
  9 10  2  0  0  0  0
  9 11  1  0  0  0  0
 11 16  1  0  0  0  0
 11 12  1  0  0  0  0
 12 13  1  0  0  0  0
 12 30  1  0  0  0  0
 12 31  1  0  0  0  0
 13 14  1  0  0  0  0
 13 32  1  0  0  0  0
 13 33  1  0  0  0  0
 14 15  1  0  0  0  0
 15 16  1  0  0  0  0
 15 34  1  0  0  0  0
 15 35  1  0  0  0  0
 16 36  1  0  0  0  0
 16 37  1  0  0  0  0
 17 18  1  0  0  0  0
 18 19  1  0  0  0  0
 19 38  1  0  0  0  0
 19 39  1  0  0  0  0
 19 40  1  0  0  0  0
M  END
> <s_m_source_file>
AV-unprocessed.smi

> <i_m_source_file_index>
2677

> <i_lp_mmshare_version>
43012

> <i_f3d_flags>
0

> <s_epik_input>
W0NIM11bQ0gyXWMxbmMoc2MxW0NIM10pW0NIMl1bQ0gyXVtOSF1DKD1PKU4yW0NIMl1bQ0gyXVNbQ0gyXVtDSDJdMg==

> <s_epik_cmdline>
J2VwaWtfcHl0aG9uJywgJy1waCcsICc3LjAnLCAnLXRuJywgJzgnLCAnLW1hJywgJzIwMCcsICctbWV0YWxfYmluZGluZycsICctaW1hZScsICc8aW5maWxlLm1hZT4nLCAnLW9tYWUnLCAnPG91dGZpbGUubWFlPic=

> <r_epik_Ionization_Penalty>
0.00440659

> <r_epik_Ionization_Penalty_Charging>
0

> <r_epik_Ionization_Penalty_Neutral>
0.00440659

> <r_epik_State_Penalty>
0.00314229

> <r_epik_Charging_Adjusted_Penalty>
0.00314229

> <i_epik_Tot_Q>
0

> <i_epik_Tot_abs_Q>
0

> <r_epik_Metal_State_Penalty>
-0

> <b_epik_Metal_Only>
0

> <s_lp_Force_Field>
OPLS_2005

> <r_lp_Energy>
14.3594

> <b_lp_Chiralities_Consistent>
1

> <s_lp_Variant>
AV-unprocessed.smi:2677-1

> <Gold.Version>
5.8.1

> <Gold.Id.Protein>
6NUR|6NUR_protein|mol2

> <Gold.PLP.Fitness>
42.3601

> <Gold.PLP.PLP>
-41.1035

> <Gold.PLP.part.hbond>
-1.9717

> <Gold.PLP.part.metal>
0.0000

> <Gold.PLP.part.buried>
-1.0084

> <Gold.PLP.part.nonpolar>
-38.5660

> <Gold.PLP.part.repulsive>
0.3446

> <Gold.PLP.ligand.clash>
0.0000

> <Gold.PLP.ligand.torsion>
0.3416

> <Gold.PLP.Chemscore.Hbond>
0.6400

> <Gold.PLP.Chemscore.CHOScore>
0.0000

> <Gold.PLP.Chemscore.Metal>
0.0000

> <Gold.PLP.Chemscore.Internal.Correction>
0.0199

> <Gold.Rescore>
     Score         DG    S(hbond)    S(metal)    S(lipo)     H(rot)  DE(clash)    DE(int)     intcor
     16.57     -17.49       0.78        0.00     111.09       1.40       0.54       0.37       ----

> <Gold.Chemscore.Fitness>
16.5737

> <Gold.Chemscore.DG>
-17.4892

> <Gold.Chemscore.ZeroCoef>
-5.4800

> <Gold.Chemscore.Hbond>
0.7771

> <Gold.Chemscore.Metal>
0.0000

> <Gold.Chemscore.Lipo>
111.0903

> <Gold.Chemscore.Internal_Hbond>
0.0000

> <Gold.Chemscore.DEClash>
0.5431

> <Gold.Chemscore.DEInternal>
0.3724

> <Gold.Chemscore.Rot>
1.4000

> <Gold.Chemscore.Internal.Correction>
   9.000000E+99

> <Gold.Chemscore.Hbonds>
donor molecule, donor type, donor heavy atom, donor atom, acceptor molecule, acceptor atom, score
      P1  H  8011  8017       L1    10  0.03

> <Gold.Chemscore.Hbond.Weighted>
-2.5956

> <Gold.Chemscore.Metal.Weighted>
-0.0000

> <Gold.Chemscore.Lipo.Weighted>
-12.9976

> <Gold.Chemscore.Internal_Hbond.Weighted>
0.0000

> <Gold.Chemscore.DEClash.Weighted>
0.5431

> <Gold.Chemscore.DEInternal.Weighted>
0.3724

> <Gold.Chemscore.Rot.Weighted>
3.5839

> <Gold.Chemscore.Internal.Correction.Weighted>
   9.000000E+99

> <Gold.Protein.RotatedTorsions>
[ 6907 6896 6895 6894 ] final -120.00 input  -60.11 | X-H torsion
[ 7974 7965 7964 7962 ] final   83.98 input  175.53 | X-H torsion
[ 8008 7997 7996 7995 ] final  120.63 input   59.86 | X-H torsion
[ 10167 10162 10161 10158 ] final   19.62 input  -65.29 | X-H torsion
[ 10718 10713 10712 10709 ] final  171.06 input   66.30 | X-H torsion
[ 10763 10752 10751 10750 ] final  -83.92 input  -60.55 | X-H torsion
[ 11005 11000 10999 10996 ] final -168.66 input  -57.11 | X-H torsion

> <Gold.Protein.ActiveResidues>
 VAL166  LYS551  ARG553  GLY616  TRP617  ASP618  TYR619  PRO620  LYS621  CYS622 
 ASP623  PHE694  ASN695  SER759  ASP760  ASP761  ALA762  ILE779  LEU786  VAL792 
 PHE793  MET794  SER795  GLU796  ALA797  LYS798  CYS799  TRP800  GLU811  SER814 

> <Gold.Protein.RotatedAtoms>
  150.8354  133.8022  159.3081 H   0  0  0  0  0  0  0  0  0  0  0  0  # atno 6907 bound_to 6896
  151.5739  135.1060  160.0011 H   0  0  0  0  0  0  0  0  0  0  0  0  # atno 6908 bound_to 6896
  152.4427  133.7437  159.6711 H   0  0  0  0  0  0  0  0  0  0  0  0  # atno 6909 bound_to 6896
  145.6048  139.2358  143.2225 H   0  0  0  0  0  0  0  0  0  0  0  0  # atno 7974 bound_to 7965
  156.2651  140.2826  156.1180 H   0  0  0  0  0  0  0  0  0  0  0  0  # atno 8008 bound_to 7997
  155.1186  140.0392  157.2761 H   0  0  0  0  0  0  0  0  0  0  0  0  # atno 8009 bound_to 7997
  154.6688  140.2583  155.7035 H   0  0  0  0  0  0  0  0  0  0  0  0  # atno 8010 bound_to 7997
  140.5566  143.9414  150.6613 H   0  0  0  0  0  0  0  0  0  0  0  0  # atno 10167 bound_to 10162
  156.9991  131.0170  151.2836 H   0  0  0  0  0  0  0  0  0  0  0  0  # atno 10718 bound_to 10713
  154.5935  135.5539  153.7302 H   0  0  0  0  0  0  0  0  0  0  0  0  # atno 10763 bound_to 10752
  153.0126  135.6349  154.1816 H   0  0  0  0  0  0  0  0  0  0  0  0  # atno 10764 bound_to 10752
  154.1756  135.2890  155.3047 H   0  0  0  0  0  0  0  0  0  0  0  0  # atno 10765 bound_to 10752
  140.5395  134.5537  157.5096 H   0  0  0  0  0  0  0  0  0  0  0  0  # atno 11005 bound_to 11000
  146.1549  140.6872  142.9305 LP  0  0  0  0  0  0  0  0  0  0  0  0  # atno 17320 bound_to 7965
  144.7294  140.4627  143.6949 LP  0  0  0  0  0  0  0  0  0  0  0  0  # atno 17321 bound_to 7965
  140.2854  143.3361  152.1112 LP  0  0  0  0  0  0  0  0  0  0  0  0  # atno 17342 bound_to 10162
  139.5050  144.6787  151.6063 LP  0  0  0  0  0  0  0  0  0  0  0  0  # atno 17343 bound_to 10162
  157.5403  130.8116  149.8021 LP  0  0  0  0  0  0  0  0  0  0  0  0  # atno 17370 bound_to 10713
  156.0178  130.3807  150.2056 LP  0  0  0  0  0  0  0  0  0  0  0  0  # atno 17371 bound_to 10713
  139.9511  134.7614  156.0445 LP  0  0  0  0  0  0  0  0  0  0  0  0  # atno 17394 bound_to 11000
  141.1235  133.6606  156.3277 LP  0  0  0  0  0  0  0  0  0  0  0  0  # atno 17395 bound_to 11000

$$$$
