AV-unprocessed.smi:3115|AV-procd|sdf|11858|dock4
  -GOLD-   2272017243D 1   1.00000     0.00000
 Structure written by MMmdl.
 33 34  0  0  0  0  0  0  0  0  2 V2000
  151.8549  145.2774  159.3094 C   0  0  0  0  0  0  0  0  0  0  0  0
  152.3940  143.8492  159.1786 C   0  0  2  0  0  0  0  0  0  0  0  0
  151.7228  143.0785  158.0249 C   0  0  0  0  0  0  0  0  0  0  0  0
  152.2024  141.7021  157.9956 N   0  0  0  0  0  0  0  0  0  0  0  0
  151.7269  140.9660  156.9010 C   0  0  0  0  0  0  0  0  0  0  0  0
  150.5138  141.3520  156.2923 C   0  0  0  0  0  0  0  0  0  0  0  0
  150.0426  140.6116  155.1887 C   0  0  0  0  0  0  0  0  0  0  0  0
  148.7430  140.9839  154.5057 C   0  0  0  0  0  0  0  0  0  0  0  0
  148.0400  142.0321  155.2624 N   0  3  0  0  0  0  0  0  0  0  0  0
  150.8006  139.5120  154.7387 C   0  0  0  0  0  0  0  0  0  0  0  0
  151.9989  139.2041  155.4120 C   0  0  0  0  0  0  0  0  0  0  0  0
  152.4557  139.9090  156.4686 N   0  0  0  0  0  0  0  0  0  0  0  0
  152.0200  141.0237  159.2729 C   0  0  0  0  0  0  0  0  0  0  0  0
  152.6761  141.8392  160.3999 C   0  0  0  0  0  0  0  0  0  0  0  0
  152.1459  143.1620  160.4032 O   0  0  0  0  0  0  0  0  0  0  0  0
  152.0320  145.8488  158.3980 H   0  0  0  0  0  0  0  0  0  0  0  0
  152.3412  145.8036  160.1311 H   0  0  0  0  0  0  0  0  0  0  0  0
  150.7817  145.2781  159.5021 H   0  0  0  0  0  0  0  0  0  0  0  0
  153.4713  143.8989  159.0095 H   0  0  0  0  0  0  0  0  0  0  0  0
  150.6392  143.0883  158.1519 H   0  0  0  0  0  0  0  0  0  0  0  0
  151.9412  143.5625  157.0722 H   0  0  0  0  0  0  0  0  0  0  0  0
  149.9592  142.2011  156.6654 H   0  0  0  0  0  0  0  0  0  0  0  0
  148.9400  141.3384  153.4935 H   0  0  0  0  0  0  0  0  0  0  0  0
  148.1013  140.1060  154.4221 H   0  0  0  0  0  0  0  0  0  0  0  0
  147.0701  142.0598  154.9824 H   0  0  0  0  0  0  0  0  0  0  0  0
  148.4716  142.9261  155.0762 H   0  0  0  0  0  0  0  0  0  0  0  0
  150.4769  138.9164  153.8976 H   0  0  0  0  0  0  0  0  0  0  0  0
  152.6061  138.3697  155.0936 H   0  0  0  0  0  0  0  0  0  0  0  0
  150.9555  140.9009  159.4781 H   0  0  0  0  0  0  0  0  0  0  0  0
  152.4582  140.0259  159.2282 H   0  0  0  0  0  0  0  0  0  0  0  0
  152.4768  141.3740  161.3653 H   0  0  0  0  0  0  0  0  0  0  0  0
  153.7601  141.8707  160.2785 H   0  0  0  0  0  0  0  0  0  0  0  0
  148.1011  141.8297  156.2500 H   0  0  0  0  0  0  0  0  0  0  0  0
  1  2  1  0  0  0  0
  1 16  1  0  0  0  0
  1 17  1  0  0  0  0
  1 18  1  0  0  0  0
  2 15  1  0  0  0  0
  2  3  1  0  0  0  0
  2 19  1  0  0  0  0
  3  4  1  0  0  0  0
  3 20  1  0  0  0  0
  3 21  1  0  0  0  0
  4  5  1  0  0  0  0
  4 13  1  0  0  0  0
  5 12  1  0  0  0  0
  5  6  2  0  0  0  0
  6  7  1  0  0  0  0
  6 22  1  0  0  0  0
  7  8  1  0  0  0  0
  7 10  2  0  0  0  0
  8  9  1  0  0  0  0
  8 23  1  0  0  0  0
  8 24  1  0  0  0  0
  9 25  1  0  0  0  0
  9 26  1  0  0  0  0
  9 33  1  0  0  0  0
 10 11  1  0  0  0  0
 10 27  1  0  0  0  0
 11 12  2  0  0  0  0
 11 28  1  0  0  0  0
 13 14  1  0  0  0  0
 13 29  1  0  0  0  0
 13 30  1  0  0  0  0
 14 15  1  0  0  0  0
 14 31  1  0  0  0  0
 14 32  1  0  0  0  0
M  CHG  1   9   1
M  END
> <s_m_source_file>
AV-unprocessed.smi

> <i_m_source_file_index>
3115

> <i_lp_mmshare_version>
43012

> <i_f3d_flags>
0

> <s_epik_input>
W0NIM11bQ0BASF0xW0NIMl1OKFtDSDJdW0NIMl1PMSljMltjSF1jKFtDSDJdW05IMl0pW2NIXVtjSF1uMg==

> <s_epik_cmdline>
J2VwaWtfcHl0aG9uJywgJy1waCcsICc3LjAnLCAnLXRuJywgJzgnLCAnLW1hJywgJzIwMCcsICctbWV0YWxfYmluZGluZycsICctaW1hZScsICc8aW5maWxlLm1hZT4nLCAnLW9tYWUnLCAnPG91dGZpbGUubWFlPic=

> <r_lp_tautomer_probability>
1

> <r_epik_Ionization_Penalty>
0.0768907

> <r_epik_Ionization_Penalty_Charging>
0.0768864

> <r_epik_Ionization_Penalty_Neutral>
4.339e-06

> <r_epik_State_Penalty>
0.0093217

> <r_epik_Charging_Adjusted_Penalty>
0.0862081

> <i_epik_Tot_Q>
1

> <i_epik_Tot_abs_Q>
1

> <r_epik_Metal_State_Penalty>
0.0096683

> <b_epik_Metal_Only>
0

> <s_lp_Force_Field>
OPLS_2005

> <r_lp_Energy>
14.5686

> <b_lp_Chiralities_Consistent>
1

> <s_lp_Variant>
AV-unprocessed.smi:3115-1

> <Gold.Version>
5.8.1

> <Gold.Id.Protein>
6NUR|6NUR_protein|mol2

> <Gold.PLP.Fitness>
42.0433

> <Gold.PLP.PLP>
-34.9386

> <Gold.PLP.part.hbond>
-2.0000

> <Gold.PLP.part.metal>
0.0000

> <Gold.PLP.part.buried>
-2.0513

> <Gold.PLP.part.nonpolar>
-30.0677

> <Gold.PLP.part.repulsive>
0.1423

> <Gold.PLP.ligand.clash>
0.7803

> <Gold.PLP.ligand.torsion>
0.6068

> <Gold.PLP.Chemscore.Hbond>
3.0000

> <Gold.PLP.Chemscore.CHOScore>
0.0000

> <Gold.PLP.Chemscore.Metal>
0.0000

> <Gold.Chemscore.Hbonds>
donor molecule, donor type, donor heavy atom, donor atom, acceptor molecule, acceptor atom, score
      L1  H     9    26       P1  8028  1.98
      P1  H  7997  8010       L1    12  1.00

> <Gold.PLP.Chemscore.Internal.Correction>
0.0986

> <Gold.Rescore>
     Score         DG    S(hbond)    S(metal)    S(lipo)     H(rot)  DE(clash)    DE(int)     intcor
     17.94     -18.54       1.82        0.00      88.30       1.30       0.15       0.45       ----

> <Gold.Chemscore.Fitness>
17.9407

> <Gold.Chemscore.DG>
-18.5356

> <Gold.Chemscore.ZeroCoef>
-5.4800

> <Gold.Chemscore.Hbond>
1.8156

> <Gold.Chemscore.Metal>
0.0000

> <Gold.Chemscore.Lipo>
88.3003

> <Gold.Chemscore.Internal_Hbond>
0.0000

> <Gold.Chemscore.DEClash>
0.1481

> <Gold.Chemscore.DEInternal>
0.4467

> <Gold.Chemscore.Rot>
1.3045

> <Gold.Chemscore.Internal.Correction>
   9.000000E+99

> <Gold.Chemscore.Hbonds>
donor molecule, donor type, donor heavy atom, donor atom, acceptor molecule, acceptor atom, score
      L1  H     9    26       P1  8028  0.93
      P1  H  7997  8010       L1    12  0.71

> <Gold.Chemscore.Hbond.Weighted>
-6.0639

> <Gold.Chemscore.Metal.Weighted>
-0.0000

> <Gold.Chemscore.Lipo.Weighted>
-10.3311

> <Gold.Chemscore.Internal_Hbond.Weighted>
0.0000

> <Gold.Chemscore.DEClash.Weighted>
0.1481

> <Gold.Chemscore.DEInternal.Weighted>
0.4467

> <Gold.Chemscore.Rot.Weighted>
3.3395

> <Gold.Chemscore.Internal.Correction.Weighted>
   9.000000E+99

> <Gold.Protein.RotatedTorsions>
[ 6907 6896 6895 6894 ] final   32.99 input  -60.11 | X-H torsion
[ 7974 7965 7964 7962 ] final  -20.20 input  175.53 | X-H torsion
[ 8008 7997 7996 7995 ] final   78.57 input   59.86 | X-H torsion
[ 10167 10162 10161 10158 ] final   48.68 input  -65.29 | X-H torsion
[ 10718 10713 10712 10709 ] final   73.03 input   66.30 | X-H torsion
[ 10763 10752 10751 10750 ] final -107.54 input  -60.55 | X-H torsion
[ 11005 11000 10999 10996 ] final  -53.17 input  -57.11 | X-H torsion

> <Gold.Protein.ActiveResidues>
 VAL166  LYS551  ARG553  GLY616  TRP617  ASP618  TYR619  PRO620  LYS621  CYS622 
 ASP623  PHE694  ASN695  SER759  ASP760  ASP761  ALA762  ILE779  LEU786  VAL792 
 PHE793  MET794  SER795  GLU796  ALA797  LYS798  CYS799  TRP800  GLU811  SER814 

> <Gold.Protein.RotatedAtoms>
  152.0823  134.9463  160.0573 H   0  0  0  0  0  0  0  0  0  0  0  0  # atno 6907 bound_to 6896
  152.0747  133.4118  159.4483 H   0  0  0  0  0  0  0  0  0  0  0  0  # atno 6908 bound_to 6896
  150.6836  134.2971  159.4734 H   0  0  0  0  0  0  0  0  0  0  0  0  # atno 6909 bound_to 6896
  146.1801  140.4169  142.8498 H   0  0  0  0  0  0  0  0  0  0  0  0  # atno 7974 bound_to 7965
  155.8575  140.3455  155.5734 H   0  0  0  0  0  0  0  0  0  0  0  0  # atno 8008 bound_to 7997
  155.7969  140.0879  157.1998 H   0  0  0  0  0  0  0  0  0  0  0  0  # atno 8009 bound_to 7997
  154.4010  140.1472  156.3216 H   0  0  0  0  0  0  0  0  0  0  0  0  # atno 8010 bound_to 7997
  140.2908  144.3048  150.6241 H   0  0  0  0  0  0  0  0  0  0  0  0  # atno 10167 bound_to 10162
  157.6529  130.9608  150.1011 H   0  0  0  0  0  0  0  0  0  0  0  0  # atno 10718 bound_to 10713
  154.8081  135.4671  154.0445 H   0  0  0  0  0  0  0  0  0  0  0  0  # atno 10763 bound_to 10752
  153.1897  135.6853  153.8375 H   0  0  0  0  0  0  0  0  0  0  0  0  # atno 10764 bound_to 10752
  153.7897  135.3245  155.3354 H   0  0  0  0  0  0  0  0  0  0  0  0  # atno 10765 bound_to 10752
  141.0962  133.6624  156.4133 H   0  0  0  0  0  0  0  0  0  0  0  0  # atno 11005 bound_to 11000
  144.8300  140.6692  143.6297 LP  0  0  0  0  0  0  0  0  0  0  0  0  # atno 17320 bound_to 7965
  145.4101  139.1581  143.4130 LP  0  0  0  0  0  0  0  0  0  0  0  0  # atno 17321 bound_to 7965
  140.5734  143.2178  151.7559 LP  0  0  0  0  0  0  0  0  0  0  0  0  # atno 17342 bound_to 10162
  139.4938  144.4184  152.0004 LP  0  0  0  0  0  0  0  0  0  0  0  0  # atno 17343 bound_to 10162
  156.1933  130.3656  149.8881 LP  0  0  0  0  0  0  0  0  0  0  0  0  # atno 17370 bound_to 10713
  156.6803  130.8855  151.3575 LP  0  0  0  0  0  0  0  0  0  0  0  0  # atno 17371 bound_to 10713
  140.5133  134.6374  157.5292 LP  0  0  0  0  0  0  0  0  0  0  0  0  # atno 17394 bound_to 11000
  139.9800  134.7153  155.9877 LP  0  0  0  0  0  0  0  0  0  0  0  0  # atno 17395 bound_to 11000

$$$$
