AV-unprocessed.smi:1745|AV-procd|sdf|7031|dock9
  -GOLD-   22720 8253D 1   1.00000     0.00000
 Structure written by MMmdl.
 47 49  0  0  0  0  0  0  0  0  1 V2000
  144.2288  137.3662  152.6596 C   0  0  0  0  0  0  0  0  0  0  0  0
  145.2162  136.1953  152.7755 C   0  0  2  0  0  0  0  0  0  0  0  0
  146.5428  136.7311  153.0772 N   0  0  0  0  0  0  0  0  0  0  0  0
  146.8472  137.5555  154.0901 C   0  0  0  0  0  0  0  0  0  0  0  0
  146.0268  137.9509  154.9179 O   0  0  0  0  0  0  0  0  0  0  0  0
  148.1478  137.8922  154.0631 N   0  0  0  0  0  0  0  0  0  0  0  0
  148.8490  138.7754  154.9272 C   0  0  0  0  0  0  0  0  0  0  0  0
  148.5687  138.9353  156.3038 C   0  0  0  0  0  0  0  0  0  0  0  0
  149.3442  139.8373  157.0570 C   0  0  0  0  0  0  0  0  0  0  0  0
  150.3868  140.5529  156.4228 C   0  0  0  0  0  0  0  0  0  0  0  0
  151.1691  141.4696  157.1583 N   0  0  0  0  0  0  0  0  0  0  0  0
  150.8132  142.8782  157.0060 C   0  0  0  0  0  0  0  0  0  0  0  0
  151.9193  143.7753  157.5886 C   0  0  0  0  0  0  0  0  0  0  0  0
  152.1758  143.4101  158.9407 O   0  0  0  0  0  0  0  0  0  0  0  0
  152.6302  142.0653  159.0492 C   0  0  0  0  0  0  0  0  0  0  0  0
  151.5465  141.1091  158.5234 C   0  0  0  0  0  0  0  0  0  0  0  0
  150.6592  140.3878  155.1051 N   0  0  0  0  0  0  0  0  0  0  0  0
  149.9159  139.5202  154.3877 C   0  0  0  0  0  0  0  0  0  0  0  0
  145.2532  135.3448  151.4888 C   0  0  1  0  0  0  0  0  0  0  0  0
  146.1541  134.1092  151.5530 C   0  0  0  0  0  0  0  0  0  0  0  0
  145.5413  133.2271  150.4903 C   0  0  0  0  0  0  0  0  0  0  0  0
  144.0526  133.5001  150.6810 C   0  0  0  0  0  0  0  0  0  0  0  0
  143.9573  134.8258  151.1967 O   0  0  0  0  0  0  0  0  0  0  0  0
  143.2160  137.0109  152.4687 H   0  0  0  0  0  0  0  0  0  0  0  0
  144.5038  138.0397  151.8471 H   0  0  0  0  0  0  0  0  0  0  0  0
  144.2017  137.9491  153.5810 H   0  0  0  0  0  0  0  0  0  0  0  0
  144.8771  135.5614  153.5970 H   0  0  0  0  0  0  0  0  0  0  0  0
  147.2867  136.4630  152.4498 H   0  0  0  0  0  0  0  0  0  0  0  0
  148.6804  137.5392  153.2816 H   0  0  0  0  0  0  0  0  0  0  0  0
  147.7852  138.3824  156.7981 H   0  0  0  0  0  0  0  0  0  0  0  0
  149.1215  139.9782  158.1040 H   0  0  0  0  0  0  0  0  0  0  0  0
  150.6541  143.1450  155.9623 H   0  0  0  0  0  0  0  0  0  0  0  0
  149.8723  143.0604  157.5264 H   0  0  0  0  0  0  0  0  0  0  0  0
  152.8346  143.6957  156.9997 H   0  0  0  0  0  0  0  0  0  0  0  0
  151.6106  144.8204  157.5563 H   0  0  0  0  0  0  0  0  0  0  0  0
  153.5621  141.9392  158.4957 H   0  0  0  0  0  0  0  0  0  0  0  0
  152.8485  141.8461  160.0945 H   0  0  0  0  0  0  0  0  0  0  0  0
  150.6654  141.1533  159.1652 H   0  0  0  0  0  0  0  0  0  0  0  0
  151.9229  140.0858  158.5532 H   0  0  0  0  0  0  0  0  0  0  0  0
  150.1784  139.4257  153.3440 H   0  0  0  0  0  0  0  0  0  0  0  0
  145.5600  135.9601  150.6411 H   0  0  0  0  0  0  0  0  0  0  0  0
  147.2041  134.3356  151.3657 H   0  0  0  0  0  0  0  0  0  0  0  0
  146.0757  133.6248  152.5275 H   0  0  0  0  0  0  0  0  0  0  0  0
  145.8615  133.5560  149.5008 H   0  0  0  0  0  0  0  0  0  0  0  0
  145.7997  132.1739  150.6024 H   0  0  0  0  0  0  0  0  0  0  0  0
  143.4897  133.3926  149.7537 H   0  0  0  0  0  0  0  0  0  0  0  0
  143.6298  132.8133  151.4151 H   0  0  0  0  0  0  0  0  0  0  0  0
  1  2  1  0  0  0  0
  1 24  1  0  0  0  0
  1 25  1  0  0  0  0
  1 26  1  0  0  0  0
  2  3  1  0  0  0  0
  2 19  1  0  0  0  0
  2 27  1  0  0  0  0
  3  4  1  0  0  0  0
  3 28  1  0  0  0  0
  4  5  2  0  0  0  0
  4  6  1  0  0  0  0
  6  7  1  0  0  0  0
  6 29  1  0  0  0  0
  7 18  1  0  0  0  0
  7  8  2  0  0  0  0
  8  9  1  0  0  0  0
  8 30  1  0  0  0  0
  9 10  2  0  0  0  0
  9 31  1  0  0  0  0
 10 11  1  0  0  0  0
 10 17  1  0  0  0  0
 11 16  1  0  0  0  0
 11 12  1  0  0  0  0
 12 13  1  0  0  0  0
 12 32  1  0  0  0  0
 12 33  1  0  0  0  0
 13 14  1  0  0  0  0
 13 34  1  0  0  0  0
 13 35  1  0  0  0  0
 14 15  1  0  0  0  0
 15 16  1  0  0  0  0
 15 36  1  0  0  0  0
 15 37  1  0  0  0  0
 16 38  1  0  0  0  0
 16 39  1  0  0  0  0
 17 18  2  0  0  0  0
 18 40  1  0  0  0  0
 19 23  1  0  0  0  0
 19 20  1  0  0  0  0
 19 41  1  0  0  0  0
 20 21  1  0  0  0  0
 20 42  1  0  0  0  0
 20 43  1  0  0  0  0
 21 22  1  0  0  0  0
 21 44  1  0  0  0  0
 21 45  1  0  0  0  0
 22 23  1  0  0  0  0
 22 46  1  0  0  0  0
 22 47  1  0  0  0  0
M  END
> <s_m_source_file>
AV-unprocessed.smi

> <i_m_source_file_index>
1745

> <i_lp_mmshare_version>
43012

> <i_f3d_flags>
0

> <s_epik_input>
TzFbQ0gyXVtDSDJdW0NIMl1bQ0BIXTFbQ0BIXShbQ0gzXSlbTkhdQyg9TylbTkhdYzJbY0hdW2NIXWMobltjSF0yKU4zW0NIMl1bQ0gyXU9bQ0gyXVtDSDJdMw==

> <s_epik_cmdline>
J2VwaWtfcHl0aG9uJywgJy1waCcsICc3LjAnLCAnLXRuJywgJzgnLCAnLW1hJywgJzIwMCcsICctbWV0YWxfYmluZGluZycsICctaW1hZScsICc8aW5maWxlLm1hZT4nLCAnLW9tYWUnLCAnPG91dGZpbGUubWFlPic=

> <r_lp_tautomer_probability>
1

> <r_epik_Ionization_Penalty>
0.00206005

> <r_epik_Ionization_Penalty_Charging>
0

> <r_epik_Ionization_Penalty_Neutral>
0.00206005

> <r_epik_State_Penalty>
0.00138459

> <r_epik_Charging_Adjusted_Penalty>
0.00138459

> <i_epik_Tot_Q>
0

> <i_epik_Tot_abs_Q>
0

> <r_epik_Metal_State_Penalty>
-0

> <b_epik_Metal_Only>
0

> <s_lp_Force_Field>
OPLS_2005

> <r_lp_Energy>
34.4703

> <b_lp_Chiralities_Consistent>
1

> <s_lp_Variant>
AV-unprocessed.smi:1745-3

> <Gold.Version>
5.8.1

> <Gold.Id.Protein>
6NUR|6NUR_protein|mol2

> <Gold.PLP.Fitness>
41.6526

> <Gold.PLP.PLP>
-32.2947

> <Gold.PLP.part.hbond>
-3.0000

> <Gold.PLP.part.metal>
0.0000

> <Gold.PLP.part.buried>
-5.3980

> <Gold.PLP.part.nonpolar>
-25.2029

> <Gold.PLP.part.repulsive>
0.3393

> <Gold.PLP.ligand.clash>
0.0000

> <Gold.PLP.ligand.torsion>
0.8288

> <Gold.PLP.Chemscore.Hbond>
2.5500

> <Gold.PLP.Chemscore.CHOScore>
1.0000

> <Gold.PLP.Chemscore.Metal>
0.0000

> <Gold.Chemscore.Hbonds>
donor molecule, donor type, donor heavy atom, donor atom, acceptor molecule, acceptor atom, score
      L1  H     3    28       P1  7948  1.00
      L1  H     6    29       P1  7948  1.00
      P1  H  7989  7998       L1    17  0.50
      L1  C    18    40       P1  7957  1.00

> <Gold.PLP.Chemscore.Internal.Correction>
0.3656

> <Gold.Rescore>
     Score         DG    S(hbond)    S(metal)    S(lipo)     H(rot)  DE(clash)    DE(int)     intcor
     15.84     -18.51       2.13        0.00      81.01       1.40       0.09       2.58       ----

> <Gold.Chemscore.Fitness>
15.8393

> <Gold.Chemscore.DG>
-18.5144

> <Gold.Chemscore.ZeroCoef>
-5.4800

> <Gold.Chemscore.Hbond>
2.1341

> <Gold.Chemscore.Metal>
0.0000

> <Gold.Chemscore.Lipo>
81.0066

> <Gold.Chemscore.Internal_Hbond>
0.0000

> <Gold.Chemscore.DEClash>
0.0914

> <Gold.Chemscore.DEInternal>
2.5837

> <Gold.Chemscore.Rot>
1.3950

> <Gold.Chemscore.Internal.Correction>
   9.000000E+99

> <Gold.Chemscore.Hbonds>
donor molecule, donor type, donor heavy atom, donor atom, acceptor molecule, acceptor atom, score
      L1  H     3    28       P1  7948  0.99
      L1  H     6    29       P1  7948  0.96
      P1  H  7989  7998       L1    17  0.02

> <Gold.Chemscore.Hbond.Weighted>
-7.1278

> <Gold.Chemscore.Metal.Weighted>
-0.0000

> <Gold.Chemscore.Lipo.Weighted>
-9.4778

> <Gold.Chemscore.Internal_Hbond.Weighted>
0.0000

> <Gold.Chemscore.DEClash.Weighted>
0.0914

> <Gold.Chemscore.DEInternal.Weighted>
2.5837

> <Gold.Chemscore.Rot.Weighted>
3.5712

> <Gold.Chemscore.Internal.Correction.Weighted>
   9.000000E+99

> <Gold.Protein.RotatedTorsions>
[ 6907 6896 6895 6894 ] final  128.21 input  -60.11 | X-H torsion
[ 7974 7965 7964 7962 ] final -177.33 input  175.53 | X-H torsion
[ 8008 7997 7996 7995 ] final  171.81 input   59.86 | X-H torsion
[ 10167 10162 10161 10158 ] final -172.37 input  -65.29 | X-H torsion
[ 10718 10713 10712 10709 ] final -165.20 input   66.30 | X-H torsion
[ 10763 10752 10751 10750 ] final  -57.20 input  -60.55 | X-H torsion
[ 11005 11000 10999 10996 ] final  -27.37 input  -57.11 | X-H torsion

> <Gold.Protein.ActiveResidues>
 VAL166  LYS551  ARG553  GLY616  TRP617  ASP618  TYR619  PRO620  LYS621  CYS622 
 ASP623  PHE694  ASN695  SER759  ASP760  ASP761  ALA762  ILE779  LEU786  VAL792 
 PHE793  MET794  SER795  GLU796  ALA797  LYS798  CYS799  TRP800  GLU811  SER814 

> <Gold.Protein.RotatedAtoms>
  152.3741  133.6457  159.6109 H   0  0  0  0  0  0  0  0  0  0  0  0  # atno 6907 bound_to 6896
  150.7690  133.9222  159.3410 H   0  0  0  0  0  0  0  0  0  0  0  0  # atno 6908 bound_to 6896
  151.7040  135.0926  160.0307 H   0  0  0  0  0  0  0  0  0  0  0  0  # atno 6909 bound_to 6896
  144.7127  140.1035  143.6415 H   0  0  0  0  0  0  0  0  0  0  0  0  # atno 7974 bound_to 7965
  156.1235  140.1502  156.9170 H   0  0  0  0  0  0  0  0  0  0  0  0  # atno 8008 bound_to 7997
  154.4854  140.0867  156.7515 H   0  0  0  0  0  0  0  0  0  0  0  0  # atno 8009 bound_to 7997
  155.4385  140.3430  155.4289 H   0  0  0  0  0  0  0  0  0  0  0  0  # atno 8010 bound_to 7997
  139.5748  144.1557  152.1435 H   0  0  0  0  0  0  0  0  0  0  0  0  # atno 10167 bound_to 10162
  156.6499  130.9003  151.3011 H   0  0  0  0  0  0  0  0  0  0  0  0  # atno 10718 bound_to 10713
  154.2186  135.6382  153.5137 H   0  0  0  0  0  0  0  0  0  0  0  0  # atno 10763 bound_to 10752
  152.9974  135.5491  154.6138 H   0  0  0  0  0  0  0  0  0  0  0  0  # atno 10764 bound_to 10752
  154.5593  135.2907  155.0908 H   0  0  0  0  0  0  0  0  0  0  0  0  # atno 10765 bound_to 10752
  140.9113  133.7459  156.0674 H   0  0  0  0  0  0  0  0  0  0  0  0  # atno 11005 bound_to 11000
  145.9517  139.2738  143.1208 LP  0  0  0  0  0  0  0  0  0  0  0  0  # atno 17320 bound_to 7965
  145.9316  140.9044  143.0353 LP  0  0  0  0  0  0  0  0  0  0  0  0  # atno 17321 bound_to 7965
  140.1098  144.5467  150.6933 LP  0  0  0  0  0  0  0  0  0  0  0  0  # atno 17342 bound_to 10162
  140.7031  143.2449  151.4805 LP  0  0  0  0  0  0  0  0  0  0  0  0  # atno 17343 bound_to 10162
  157.7144  130.9479  150.1202 LP  0  0  0  0  0  0  0  0  0  0  0  0  # atno 17370 bound_to 10713
  156.2092  130.3665  149.8691 LP  0  0  0  0  0  0  0  0  0  0  0  0  # atno 17371 bound_to 10713
  140.8107  134.3403  157.5412 LP  0  0  0  0  0  0  0  0  0  0  0  0  # atno 17394 bound_to 11000
  139.8758  134.9252  156.3369 LP  0  0  0  0  0  0  0  0  0  0  0  0  # atno 17395 bound_to 11000

$$$$
