AV-unprocessed.smi:2406|AV-procd|sdf|9517|dock1
  -GOLD-   2272013143D 1   1.00000     0.00000
 Structure written by MMmdl.
 36 37  0  0  0  0  0  0  0  0  1 V2000
  153.7217  141.5694  160.5192 C   0  0  0  0  0  0  0  0  0  0  0  0
  153.6023  140.8217  159.3141 O   0  0  0  0  0  0  0  0  0  0  0  0
  152.6189  141.1846  158.4174 C   0  0  0  0  0  0  0  0  0  0  0  0
  151.6719  142.1613  158.7882 C   0  0  0  0  0  0  0  0  0  0  0  0
  150.6862  142.5097  157.8376 C   0  0  0  0  0  0  0  0  0  0  0  0
  149.7589  143.5040  158.2467 N   0  0  0  0  0  0  0  0  0  0  0  0
  149.4462  143.8813  159.4987 C   0  0  0  0  0  0  0  0  0  0  0  0
  149.9622  143.4381  160.5250 O   0  0  0  0  0  0  0  0  0  0  0  0
  148.4798  144.8112  159.4936 N   0  0  0  0  0  0  0  0  0  0  0  0
  147.8532  145.4032  160.6741 C   0  0  1  0  0  0  0  0  0  0  0  0
  146.7498  146.3767  160.2363 C   0  0  0  0  0  0  0  0  0  0  0  0
  147.3063  144.2957  161.5944 C   0  0  0  0  0  0  0  0  0  0  0  0
  146.1704  143.5029  160.9706 C   0  0  0  0  0  0  0  0  0  0  0  0
  144.7248  143.8651  161.2235 C   0  0  0  0  0  0  0  0  0  0  0  0
  145.3027  142.6011  161.8157 C   0  0  0  0  0  0  0  0  0  0  0  0
  150.6737  141.9053  156.6238 N   0  0  0  0  0  0  0  0  0  0  0  0
  151.6119  140.9910  156.3707 C   0  0  0  0  0  0  0  0  0  0  0  0
  152.5824  140.5981  157.1965 N   0  0  0  0  0  0  0  0  0  0  0  0
  154.5315  141.1570  161.1207 H   0  0  0  0  0  0  0  0  0  0  0  0
  152.8084  141.5160  161.1134 H   0  0  0  0  0  0  0  0  0  0  0  0
  153.9577  142.6154  160.3188 H   0  0  0  0  0  0  0  0  0  0  0  0
  151.7082  142.6250  159.7633 H   0  0  0  0  0  0  0  0  0  0  0  0
  149.2547  143.9607  157.5012 H   0  0  0  0  0  0  0  0  0  0  0  0
  148.1237  145.1148  158.5992 H   0  0  0  0  0  0  0  0  0  0  0  0
  148.5905  145.9712  161.2443 H   0  0  0  0  0  0  0  0  0  0  0  0
  146.2763  146.8463  161.0990 H   0  0  0  0  0  0  0  0  0  0  0  0
  145.9722  145.8669  159.6667 H   0  0  0  0  0  0  0  0  0  0  0  0
  147.1544  147.1729  159.6107 H   0  0  0  0  0  0  0  0  0  0  0  0
  148.1067  143.5973  161.8405 H   0  0  0  0  0  0  0  0  0  0  0  0
  146.9694  144.7238  162.5397 H   0  0  0  0  0  0  0  0  0  0  0  0
  146.3977  143.1333  159.9723 H   0  0  0  0  0  0  0  0  0  0  0  0
  144.5189  144.6894  161.9035 H   0  0  0  0  0  0  0  0  0  0  0  0
  144.0304  143.7621  160.3921 H   0  0  0  0  0  0  0  0  0  0  0  0
  144.9907  141.6538  161.3808 H   0  0  0  0  0  0  0  0  0  0  0  0
  145.4781  142.5862  162.8897 H   0  0  0  0  0  0  0  0  0  0  0  0
  151.5832  140.5228  155.3980 H   0  0  0  0  0  0  0  0  0  0  0  0
  1  2  1  0  0  0  0
  1 19  1  0  0  0  0
  1 20  1  0  0  0  0
  1 21  1  0  0  0  0
  2  3  1  0  0  0  0
  3 18  1  0  0  0  0
  3  4  2  0  0  0  0
  4  5  1  0  0  0  0
  4 22  1  0  0  0  0
  5  6  1  0  0  0  0
  5 16  2  0  0  0  0
  6  7  1  0  0  0  0
  6 23  1  0  0  0  0
  7  8  2  0  0  0  0
  7  9  1  0  0  0  0
  9 10  1  0  0  0  0
  9 24  1  0  0  0  0
 10 11  1  0  0  0  0
 10 12  1  0  0  0  0
 10 25  1  0  0  0  0
 11 26  1  0  0  0  0
 11 27  1  0  0  0  0
 11 28  1  0  0  0  0
 12 13  1  0  0  0  0
 12 29  1  0  0  0  0
 12 30  1  0  0  0  0
 13 15  1  0  0  0  0
 13 14  1  0  0  0  0
 13 31  1  0  0  0  0
 14 15  1  0  0  0  0
 14 32  1  0  0  0  0
 14 33  1  0  0  0  0
 15 34  1  0  0  0  0
 15 35  1  0  0  0  0
 16 17  1  0  0  0  0
 17 18  2  0  0  0  0
 17 36  1  0  0  0  0
M  END
> <s_m_source_file>
AV-unprocessed.smi

> <i_m_source_file_index>
2406

> <i_lp_mmshare_version>
43012

> <i_f3d_flags>
0

> <s_epik_input>
W0NIM11PYzFbY0hdYyhuW2NIXW4xKVtOSF1DKD1PKVtOSF1bQ0BIXShbQ0gzXSlbQ0gyXVtDSF0yW0NIMl1bQ0gyXTI=

> <s_epik_cmdline>
J2VwaWtfcHl0aG9uJywgJy1waCcsICc3LjAnLCAnLXRuJywgJzgnLCAnLW1hJywgJzIwMCcsICctbWV0YWxfYmluZGluZycsICctaW1hZScsICc8aW5maWxlLm1hZT4nLCAnLW9tYWUnLCAnPG91dGZpbGUubWFlPic=

> <r_lp_tautomer_probability>
1

> <r_epik_Ionization_Penalty>
2.82876e-05

> <r_epik_Ionization_Penalty_Charging>
0

> <r_epik_Ionization_Penalty_Neutral>
2.82876e-05

> <r_epik_State_Penalty>
-0

> <r_epik_Charging_Adjusted_Penalty>
0

> <i_epik_Tot_Q>
0

> <i_epik_Tot_abs_Q>
0

> <r_epik_Metal_State_Penalty>
-0

> <b_epik_Metal_Only>
0

> <s_lp_Force_Field>
OPLS_2005

> <r_lp_Energy>
10.7025

> <b_lp_Chiralities_Consistent>
1

> <s_lp_Variant>
AV-unprocessed.smi:2406-2

> <Gold.Version>
5.8.1

> <Gold.Id.Protein>
6NUR|6NUR_protein|mol2

> <Gold.PLP.Fitness>
38.6995

> <Gold.PLP.PLP>
-31.3089

> <Gold.PLP.part.hbond>
-4.0851

> <Gold.PLP.part.metal>
0.0000

> <Gold.PLP.part.buried>
-3.2218

> <Gold.PLP.part.nonpolar>
-24.8342

> <Gold.PLP.part.repulsive>
0.4442

> <Gold.PLP.ligand.clash>
0.0936

> <Gold.PLP.ligand.torsion>
0.4621

> <Gold.PLP.Chemscore.Hbond>
2.5974

> <Gold.PLP.Chemscore.CHOScore>
0.0000

> <Gold.PLP.Chemscore.Metal>
0.0000

> <Gold.Chemscore.Hbonds>
donor molecule, donor type, donor heavy atom, donor atom, acceptor molecule, acceptor atom, score
      L1  H     6    23       P1  8028  0.85
      L1  H     9    24       P1  8029  1.00
      P1  H  7997  8010       L1    18  0.82

> <Gold.PLP.Chemscore.Internal.Correction>
0.6161

> <Gold.Rescore>
     Score         DG    S(hbond)    S(metal)    S(lipo)     H(rot)  DE(clash)    DE(int)     intcor
      9.39     -12.49       1.62        0.00      54.09       1.85       0.18       2.92       ----

> <Gold.Chemscore.Fitness>
9.3935

> <Gold.Chemscore.DG>
-12.4894

> <Gold.Chemscore.ZeroCoef>
-5.4800

> <Gold.Chemscore.Hbond>
1.6188

> <Gold.Chemscore.Metal>
0.0000

> <Gold.Chemscore.Lipo>
54.0851

> <Gold.Chemscore.Internal_Hbond>
0.0000

> <Gold.Chemscore.DEClash>
0.1781

> <Gold.Chemscore.DEInternal>
2.9179

> <Gold.Chemscore.Rot>
1.8458

> <Gold.Chemscore.Internal.Correction>
   9.000000E+99

> <Gold.Chemscore.Hbonds>
donor molecule, donor type, donor heavy atom, donor atom, acceptor molecule, acceptor atom, score
      L1  H     6    23       P1  8028  0.14
      L1  H     9    24       P1  8029  0.97
      P1  H  6933  6944       L1     8  0.03
      P1  H  7997  8010       L1    18  0.63

> <Gold.Chemscore.Hbond.Weighted>
-5.4068

> <Gold.Chemscore.Metal.Weighted>
-0.0000

> <Gold.Chemscore.Lipo.Weighted>
-6.3280

> <Gold.Chemscore.Internal_Hbond.Weighted>
0.0000

> <Gold.Chemscore.DEClash.Weighted>
0.1781

> <Gold.Chemscore.DEInternal.Weighted>
2.9179

> <Gold.Chemscore.Rot.Weighted>
4.7254

> <Gold.Chemscore.Internal.Correction.Weighted>
   9.000000E+99

> <Gold.Protein.RotatedTorsions>
[ 6907 6896 6895 6894 ] final  -19.07 input  -60.11 | X-H torsion
[ 7974 7965 7964 7962 ] final -100.61 input  175.53 | X-H torsion
[ 8008 7997 7996 7995 ] final   62.88 input   59.86 | X-H torsion
[ 10167 10162 10161 10158 ] final -100.14 input  -65.29 | X-H torsion
[ 10718 10713 10712 10709 ] final  -61.39 input   66.30 | X-H torsion
[ 10763 10752 10751 10750 ] final  -70.09 input  -60.55 | X-H torsion
[ 11005 11000 10999 10996 ] final   52.60 input  -57.11 | X-H torsion

> <Gold.Protein.ActiveResidues>
 VAL166  LYS551  ARG553  GLY616  TRP617  ASP618  TYR619  PRO620  LYS621  CYS622 
 ASP623  PHE694  ASN695  SER759  ASP760  ASP761  ALA762  ILE779  LEU786  VAL792 
 PHE793  MET794  SER795  GLU796  ALA797  LYS798  CYS799  TRP800  GLU811  SER814 

> <Gold.Protein.RotatedAtoms>
  151.2687  135.0677  159.9125 H   0  0  0  0  0  0  0  0  0  0  0  0  # atno 6907 bound_to 6896
  152.5354  134.0154  159.7968 H   0  0  0  0  0  0  0  0  0  0  0  0  # atno 6908 bound_to 6896
  151.0389  133.5674  159.2684 H   0  0  0  0  0  0  0  0  0  0  0  0  # atno 6909 bound_to 6896
  145.2924  140.9356  143.2870 H   0  0  0  0  0  0  0  0  0  0  0  0  # atno 7974 bound_to 7965
  155.6214  140.3496  155.4653 H   0  0  0  0  0  0  0  0  0  0  0  0  # atno 8008 bound_to 7997
  156.0076  140.1226  157.0510 H   0  0  0  0  0  0  0  0  0  0  0  0  # atno 8009 bound_to 7997
  154.4269  140.1088  156.5770 H   0  0  0  0  0  0  0  0  0  0  0  0  # atno 8010 bound_to 7997
  140.2551  143.3446  152.0679 H   0  0  0  0  0  0  0  0  0  0  0  0  # atno 10167 bound_to 10162
  156.0925  130.4198  150.0987 H   0  0  0  0  0  0  0  0  0  0  0  0  # atno 10718 bound_to 10713
  154.4127  135.6005  153.5962 H   0  0  0  0  0  0  0  0  0  0  0  0  # atno 10763 bound_to 10752
  152.9791  135.5933  154.4050 H   0  0  0  0  0  0  0  0  0  0  0  0  # atno 10764 bound_to 10752
  154.3864  135.2841  155.2159 H   0  0  0  0  0  0  0  0  0  0  0  0  # atno 10765 bound_to 10752
  140.0836  134.5305  155.8921 H   0  0  0  0  0  0  0  0  0  0  0  0  # atno 11005 bound_to 11000
  144.9162  139.4467  143.6563 LP  0  0  0  0  0  0  0  0  0  0  0  0  # atno 17320 bound_to 7965
  146.3180  139.7997  142.8968 LP  0  0  0  0  0  0  0  0  0  0  0  0  # atno 17321 bound_to 7965
  139.5034  144.6755  151.6139 LP  0  0  0  0  0  0  0  0  0  0  0  0  # atno 17342 bound_to 10162
  140.6010  143.9609  150.6386 LP  0  0  0  0  0  0  0  0  0  0  0  0  # atno 17343 bound_to 10162
  156.8993  130.9615  151.3578 LP  0  0  0  0  0  0  0  0  0  0  0  0  # atno 17370 bound_to 10713
  157.6078  130.8560  149.8903 LP  0  0  0  0  0  0  0  0  0  0  0  0  # atno 17371 bound_to 10713
  141.2055  133.6647  156.6185 LP  0  0  0  0  0  0  0  0  0  0  0  0  # atno 17394 bound_to 11000
  140.3452  134.7815  157.4427 LP  0  0  0  0  0  0  0  0  0  0  0  0  # atno 17395 bound_to 11000

$$$$
