AV-unprocessed.smi:2829|AV-procd|sdf|10899|dock7
  -GOLD-   2272015343D 1   1.00000     0.00000
 Structure written by MMmdl.
 50 53  0  0  0  0  0  0  0  0  1 V2000
  145.3334  131.0294  151.3209 C   0  0  0  0  0  0  0  0  0  0  0  0
  144.7796  132.2434  150.5411 C   0  0  0  0  0  0  0  0  0  0  0  0
  145.2940  132.1355  149.0903 C   0  0  0  0  0  0  0  0  0  0  0  0
  143.2400  132.1445  150.5594 C   0  0  0  0  0  0  0  0  0  0  0  0
  145.2214  133.5860  151.1507 C   0  0  0  0  0  0  0  0  0  0  0  0
  144.8461  134.8400  150.6178 C   0  0  0  0  0  0  0  0  0  0  0  0
  145.3157  135.9941  151.2676 C   0  0  0  0  0  0  0  0  0  0  0  0
  146.1278  135.8389  152.4087 C   0  0  0  0  0  0  0  0  0  0  0  0
  146.5684  137.0456  153.0114 N   0  0  0  0  0  0  0  0  0  0  0  0
  147.4364  137.1977  154.0307 C   0  0  0  0  0  0  0  0  0  0  0  0
  147.9303  136.2745  154.6752 O   0  0  0  0  0  0  0  0  0  0  0  0
  147.7286  138.4784  154.3147 N   0  0  0  0  0  0  0  0  0  0  0  0
  148.6271  138.9815  155.3531 C   0  0  1  0  0  0  0  0  0  0  0  0
  150.0855  139.0022  154.8913 C   0  0  2  0  0  0  0  0  0  0  0  0
  151.2931  138.2099  155.2391 C   0  0  0  0  0  0  0  0  0  0  0  0
  152.2923  139.3907  155.3397 C   0  0  0  0  0  0  0  0  0  0  0  0
  151.4888  140.5943  155.2784 O   0  0  0  0  0  0  0  0  0  0  0  0
  150.2341  140.2073  155.8054 C   0  0  1  0  0  0  0  0  0  0  0  0
  148.8010  140.5395  155.3689 C   0  0  0  0  0  0  0  0  0  0  0  0
  147.9017  141.4436  156.2202 C   0  0  0  0  0  0  0  0  0  0  0  0
  147.2856  141.9865  154.9262 C   0  0  0  0  0  0  0  0  0  0  0  0
  148.5031  141.4521  154.1645 C   0  0  0  0  0  0  0  0  0  0  0  0
  146.4504  134.6030  152.8649 N   0  0  0  0  0  0  0  0  0  0  0  0
  146.0087  133.5018  152.2507 N   0  0  0  0  0  0  0  0  0  0  0  0
  145.0111  130.0901  150.8698 H   0  0  0  0  0  0  0  0  0  0  0  0
  144.9857  131.0209  152.3547 H   0  0  0  0  0  0  0  0  0  0  0  0
  146.4242  131.0197  151.3308 H   0  0  0  0  0  0  0  0  0  0  0  0
  146.3817  132.2082  149.0500 H   0  0  0  0  0  0  0  0  0  0  0  0
  144.8889  132.9254  148.4566 H   0  0  0  0  0  0  0  0  0  0  0  0
  145.0108  131.1849  148.6375 H   0  0  0  0  0  0  0  0  0  0  0  0
  142.8976  131.1951  150.1466 H   0  0  0  0  0  0  0  0  0  0  0  0
  142.7759  132.9358  149.9697 H   0  0  0  0  0  0  0  0  0  0  0  0
  142.8505  132.2208  151.5751 H   0  0  0  0  0  0  0  0  0  0  0  0
  144.2217  134.9410  149.7438 H   0  0  0  0  0  0  0  0  0  0  0  0
  145.0557  136.9745  150.8954 H   0  0  0  0  0  0  0  0  0  0  0  0
  146.2178  137.8945  152.5933 H   0  0  0  0  0  0  0  0  0  0  0  0
  147.2596  139.1807  153.7611 H   0  0  0  0  0  0  0  0  0  0  0  0
  148.4925  138.5297  156.3397 H   0  0  0  0  0  0  0  0  0  0  0  0
  150.1298  139.2843  153.8325 H   0  0  0  0  0  0  0  0  0  0  0  0
  151.1795  137.6875  156.1901 H   0  0  0  0  0  0  0  0  0  0  0  0
  151.5667  137.4920  154.4655 H   0  0  0  0  0  0  0  0  0  0  0  0
  152.8475  139.3513  156.2776 H   0  0  0  0  0  0  0  0  0  0  0  0
  153.0107  139.3885  154.5198 H   0  0  0  0  0  0  0  0  0  0  0  0
  150.3011  139.9518  156.8681 H   0  0  0  0  0  0  0  0  0  0  0  0
  147.2035  140.9164  156.8706 H   0  0  0  0  0  0  0  0  0  0  0  0
  148.4664  142.2010  156.7658 H   0  0  0  0  0  0  0  0  0  0  0  0
  146.3598  141.4790  154.6524 H   0  0  0  0  0  0  0  0  0  0  0  0
  147.1725  143.0705  154.8977 H   0  0  0  0  0  0  0  0  0  0  0  0
  149.2711  142.2127  154.0172 H   0  0  0  0  0  0  0  0  0  0  0  0
  148.2641  140.9398  153.2325 H   0  0  0  0  0  0  0  0  0  0  0  0
  1  2  1  0  0  0  0
  1 25  1  0  0  0  0
  1 26  1  0  0  0  0
  1 27  1  0  0  0  0
  2  3  1  0  0  0  0
  2  4  1  0  0  0  0
  2  5  1  0  0  0  0
  3 28  1  0  0  0  0
  3 29  1  0  0  0  0
  3 30  1  0  0  0  0
  4 31  1  0  0  0  0
  4 32  1  0  0  0  0
  4 33  1  0  0  0  0
  5 24  1  0  0  0  0
  5  6  2  0  0  0  0
  6  7  1  0  0  0  0
  6 34  1  0  0  0  0
  7  8  2  0  0  0  0
  7 35  1  0  0  0  0
  8  9  1  0  0  0  0
  8 23  1  0  0  0  0
  9 10  1  0  0  0  0
  9 36  1  0  0  0  0
 10 11  2  0  0  0  0
 10 12  1  0  0  0  0
 12 13  1  0  0  0  0
 12 37  1  0  0  0  0
 13 19  1  0  0  0  0
 13 14  1  0  0  0  0
 13 38  1  0  0  0  0
 14 18  1  0  0  0  0
 14 15  1  0  0  0  0
 14 39  1  0  0  0  0
 15 16  1  0  0  0  0
 15 40  1  0  0  0  0
 15 41  1  0  0  0  0
 16 17  1  0  0  0  0
 16 42  1  0  0  0  0
 16 43  1  0  0  0  0
 17 18  1  0  0  0  0
 18 19  1  0  0  0  0
 18 44  1  0  0  0  0
 19 22  1  0  0  0  0
 19 20  1  0  0  0  0
 20 21  1  0  0  0  0
 20 45  1  0  0  0  0
 20 46  1  0  0  0  0
 21 22  1  0  0  0  0
 21 47  1  0  0  0  0
 21 48  1  0  0  0  0
 22 49  1  0  0  0  0
 22 50  1  0  0  0  0
 23 24  2  0  0  0  0
M  END
> <s_m_source_file>
AV-unprocessed.smi

> <i_m_source_file_index>
2829

> <i_lp_mmshare_version>
43012

> <i_f3d_flags>
0

> <s_epik_input>
W0NIM11DKFtDSDNdKShbQ0gzXSljMVtjSF1bY0hdYyhubjEpW05IXUMoPU8pW05IXVtDQEBIXTJbQ0BIXShbQ0gyXVtDSDJdTzMpW0NAQEhdM0MyNFtDSDJdW0NIMl1bQ0gyXTQ=

> <s_epik_cmdline>
J2VwaWtfcHl0aG9uJywgJy1waCcsICc3LjAnLCAnLXRuJywgJzgnLCAnLW1hJywgJzIwMCcsICctbWV0YWxfYmluZGluZycsICctaW1hZScsICc8aW5maWxlLm1hZT4nLCAnLW9tYWUnLCAnPG91dGZpbGUubWFlPic=

> <r_lp_tautomer_probability>
1

> <r_epik_Ionization_Penalty>
0.011915

> <r_epik_Ionization_Penalty_Charging>
0

> <r_epik_Ionization_Penalty_Neutral>
0.011915

> <r_epik_State_Penalty>
0.00486223

> <r_epik_Charging_Adjusted_Penalty>
0.00486223

> <i_epik_Tot_Q>
0

> <i_epik_Tot_abs_Q>
0

> <r_epik_Metal_State_Penalty>
-0

> <b_epik_Metal_Only>
0

> <s_lp_Force_Field>
OPLS_2005

> <r_lp_Energy>
82.5072

> <b_lp_Chiralities_Consistent>
1

> <s_lp_Variant>
AV-unprocessed.smi:2829-2

> <Gold.Version>
5.8.1

> <Gold.Id.Protein>
6NUR|6NUR_protein|mol2

> <Gold.PLP.Fitness>
38.3308

> <Gold.PLP.PLP>
-35.8798

> <Gold.PLP.part.hbond>
-2.0000

> <Gold.PLP.part.metal>
0.0000

> <Gold.PLP.part.buried>
2.4502

> <Gold.PLP.part.nonpolar>
-35.8249

> <Gold.PLP.part.repulsive>
0.9996

> <Gold.PLP.ligand.clash>
0.0000

> <Gold.PLP.ligand.torsion>
0.1839

> <Gold.PLP.Chemscore.Hbond>
0.8320

> <Gold.PLP.Chemscore.CHOScore>
0.0000

> <Gold.PLP.Chemscore.Metal>
0.0000

> <Gold.Chemscore.Hbonds>
donor molecule, donor type, donor heavy atom, donor atom, acceptor molecule, acceptor atom, score
      P1  H  7989  7998       L1    17  0.68

> <Gold.PLP.Chemscore.Internal.Correction>
0.3229

> <Gold.Rescore>
     Score         DG    S(hbond)    S(metal)    S(lipo)     H(rot)  DE(clash)    DE(int)     intcor
     14.14     -17.65       0.67        0.00     110.40       1.16       2.03       1.48       ----

> <Gold.Chemscore.Fitness>
14.1359

> <Gold.Chemscore.DG>
-17.6481

> <Gold.Chemscore.ZeroCoef>
-5.4800

> <Gold.Chemscore.Hbond>
0.6663

> <Gold.Chemscore.Metal>
0.0000

> <Gold.Chemscore.Lipo>
110.3989

> <Gold.Chemscore.Internal_Hbond>
0.0000

> <Gold.Chemscore.DEClash>
2.0312

> <Gold.Chemscore.DEInternal>
1.4810

> <Gold.Chemscore.Rot>
1.1618

> <Gold.Chemscore.Internal.Correction>
   9.000000E+99

> <Gold.Chemscore.Hbonds>
donor molecule, donor type, donor heavy atom, donor atom, acceptor molecule, acceptor atom, score
      P1  H  7989  7998       L1    17  0.11

> <Gold.Chemscore.Hbond.Weighted>
-2.2256

> <Gold.Chemscore.Metal.Weighted>
-0.0000

> <Gold.Chemscore.Lipo.Weighted>
-12.9167

> <Gold.Chemscore.Internal_Hbond.Weighted>
0.0000

> <Gold.Chemscore.DEClash.Weighted>
2.0312

> <Gold.Chemscore.DEInternal.Weighted>
1.4810

> <Gold.Chemscore.Rot.Weighted>
2.9741

> <Gold.Chemscore.Internal.Correction.Weighted>
   9.000000E+99

> <Gold.Protein.RotatedTorsions>
[ 6907 6896 6895 6894 ] final -146.40 input  -60.11 | X-H torsion
[ 7974 7965 7964 7962 ] final -163.38 input  175.53 | X-H torsion
[ 8008 7997 7996 7995 ] final  -84.69 input   59.86 | X-H torsion
[ 10167 10162 10161 10158 ] final  -89.80 input  -65.29 | X-H torsion
[ 10718 10713 10712 10709 ] final   33.10 input   66.30 | X-H torsion
[ 10763 10752 10751 10750 ] final  -72.76 input  -60.55 | X-H torsion
[ 11005 11000 10999 10996 ] final   51.79 input  -57.11 | X-H torsion

> <Gold.Protein.ActiveResidues>
 VAL166  LYS551  ARG553  GLY616  TRP617  ASP618  TYR619  PRO620  LYS621  CYS622 
 ASP623  PHE694  ASN695  SER759  ASP760  ASP761  ALA762  ILE779  LEU786  VAL792 
 PHE793  MET794  SER795  GLU796  ALA797  LYS798  CYS799  TRP800  GLU811  SER814 

> <Gold.Protein.RotatedAtoms>
  151.1411  133.4970  159.2596 H   0  0  0  0  0  0  0  0  0  0  0  0  # atno 6907 bound_to 6896
  151.1654  135.0292  159.8738 H   0  0  0  0  0  0  0  0  0  0  0  0  # atno 6908 bound_to 6896
  152.5462  134.1281  159.8480 H   0  0  0  0  0  0  0  0  0  0  0  0  # atno 6909 bound_to 6896
  144.7328  140.3115  143.6187 H   0  0  0  0  0  0  0  0  0  0  0  0  # atno 7974 bound_to 7965
  154.6325  140.0601  156.9749 H   0  0  0  0  0  0  0  0  0  0  0  0  # atno 8008 bound_to 7997
  155.1643  140.3285  155.4387 H   0  0  0  0  0  0  0  0  0  0  0  0  # atno 8009 bound_to 7997
  156.2490  140.1925  156.6748 H   0  0  0  0  0  0  0  0  0  0  0  0  # atno 8010 bound_to 7997
  140.3612  143.2841  151.9612 H   0  0  0  0  0  0  0  0  0  0  0  0  # atno 10167 bound_to 10162
  157.2936  130.7315  149.6625 H   0  0  0  0  0  0  0  0  0  0  0  0  # atno 10718 bound_to 10713
  154.4501  135.5919  153.6186 H   0  0  0  0  0  0  0  0  0  0  0  0  # atno 10763 bound_to 10752
  152.9813  135.6019  154.3615 H   0  0  0  0  0  0  0  0  0  0  0  0  # atno 10764 bound_to 10752
  154.3475  135.2841  155.2369 H   0  0  0  0  0  0  0  0  0  0  0  0  # atno 10765 bound_to 10752
  140.0903  134.5218  155.8858 H   0  0  0  0  0  0  0  0  0  0  0  0  # atno 11005 bound_to 11000
  145.7660  139.1841  143.2240 LP  0  0  0  0  0  0  0  0  0  0  0  0  # atno 17320 bound_to 7965
  146.0949  140.7613  142.9577 LP  0  0  0  0  0  0  0  0  0  0  0  0  # atno 17321 bound_to 7965
  139.4814  144.5990  151.7638 LP  0  0  0  0  0  0  0  0  0  0  0  0  # atno 17342 bound_to 10162
  140.5125  144.1004  150.5999 LP  0  0  0  0  0  0  0  0  0  0  0  0  # atno 17343 bound_to 10162
  155.9668  130.4301  150.4863 LP  0  0  0  0  0  0  0  0  0  0  0  0  # atno 17370 bound_to 10713
  157.2830  131.0611  151.2185 LP  0  0  0  0  0  0  0  0  0  0  0  0  # atno 17371 bound_to 10713
  141.2076  133.6665  156.6315 LP  0  0  0  0  0  0  0  0  0  0  0  0  # atno 17394 bound_to 11000
  140.3361  134.7888  157.4363 LP  0  0  0  0  0  0  0  0  0  0  0  0  # atno 17395 bound_to 11000

$$$$
