AV-unprocessed.smi:29|AV-procd|sdf|192|dock9
  -GOLD-   2262015463D 1   1.00000     0.00000
 Structure written by MMmdl.
 56 59  0  0  0  0  0  0  0  0  1 V2000
  148.3166  134.5626  154.4665 O   0  0  0  0  0  0  0  0  0  0  0  0
  149.2151  133.7283  154.5560 C   0  0  0  0  0  0  0  0  0  0  0  0
  150.5098  134.1258  155.2885 C   0  0  0  0  0  0  0  0  0  0  0  0
  150.4235  135.3686  156.0922 N   0  0  0  0  0  0  0  0  0  0  0  0
  149.8675  135.2941  157.3927 C   0  0  0  0  0  0  0  0  0  0  0  0
  149.4280  134.2341  157.8403 O   0  0  0  0  0  0  0  0  0  0  0  0
  149.8570  136.5429  158.1440 C   0  0  0  0  0  0  0  0  0  0  0  0
  149.4018  136.5550  159.4082 F   0  0  0  0  0  0  0  0  0  0  0  0
  150.3078  137.6885  157.5941 C   0  0  0  0  0  0  0  0  0  0  0  0
  150.7837  137.7653  156.2953 N   0  0  0  0  0  0  0  0  0  0  0  0
  151.3403  139.0495  155.6979 C   0  0  1  0  0  0  0  0  0  0  0  0
  150.3562  140.2276  155.6963 C   0  0  0  0  0  0  0  0  0  0  0  0
  150.7368  141.0047  156.9533 C   0  0  0  0  0  0  0  0  0  0  0  0
  151.9101  140.2246  157.5559 C   0  0  0  0  0  0  0  0  0  0  0  0
  152.4215  139.4624  156.4711 O   0  0  0  0  0  0  0  0  0  0  0  0
  150.8897  136.5817  155.5306 C   0  0  0  0  0  0  0  0  0  0  0  0
  151.3652  136.6068  154.3935 O   0  0  0  0  0  0  0  0  0  0  0  0
  149.1582  132.4853  154.0395 N   0  0  0  0  0  0  0  0  0  0  0  0
  148.1329  131.8346  153.2936 C   0  0  0  0  0  0  0  0  0  0  0  0
  147.1991  132.5272  152.4833 C   0  0  0  0  0  0  0  0  0  0  0  0
  146.2022  131.8304  151.7694 C   0  0  0  0  0  0  0  0  0  0  0  0
  145.2100  132.6005  150.9100 C   0  0  0  0  0  0  0  0  0  0  0  0
  145.4454  133.9126  150.9462 F   0  0  0  0  0  0  0  0  0  0  0  0
  145.3070  132.1835  149.6483 F   0  0  0  0  0  0  0  0  0  0  0  0
  143.9654  132.3882  151.3384 F   0  0  0  0  0  0  0  0  0  0  0  0
  146.1255  130.4272  151.8792 C   0  0  0  0  0  0  0  0  0  0  0  0
  147.0370  129.7305  152.6918 C   0  0  0  0  0  0  0  0  0  0  0  0
  148.0410  130.4241  153.4047 C   0  0  0  0  0  0  0  0  0  0  0  0
  148.9406  129.7240  154.2275 N   0  0  0  0  0  0  0  0  0  0  0  0
  148.3185  129.1378  155.4074 C   0  0  0  0  0  0  0  0  0  0  0  0
  149.3970  128.5311  156.3195 C   0  0  0  0  0  0  0  0  0  0  0  0
  150.1730  127.5886  155.5850 O   0  0  0  0  0  0  0  0  0  0  0  0
  150.8362  128.1881  154.4752 C   0  0  0  0  0  0  0  0  0  0  0  0
  149.7973  128.7877  153.5119 C   0  0  0  0  0  0  0  0  0  0  0  0
  150.8179  133.2847  155.9117 H   0  0  0  0  0  0  0  0  0  0  0  0
  151.3056  134.1992  154.5458 H   0  0  0  0  0  0  0  0  0  0  0  0
  150.2919  138.5680  158.2177 H   0  0  0  0  0  0  0  0  0  0  0  0
  151.6462  138.7877  154.6836 H   0  0  0  0  0  0  0  0  0  0  0  0
  150.5585  140.8371  154.8148 H   0  0  0  0  0  0  0  0  0  0  0  0
  149.3144  139.9129  155.6440 H   0  0  0  0  0  0  0  0  0  0  0  0
  151.0464  142.0157  156.6861 H   0  0  0  0  0  0  0  0  0  0  0  0
  149.9080  141.0859  157.6570 H   0  0  0  0  0  0  0  0  0  0  0  0
  152.6744  140.8781  157.9769 H   0  0  0  0  0  0  0  0  0  0  0  0
  151.5690  139.5558  158.3474 H   0  0  0  0  0  0  0  0  0  0  0  0
  149.9987  131.9373  154.1543 H   0  0  0  0  0  0  0  0  0  0  0  0
  147.2141  133.6015  152.3991 H   0  0  0  0  0  0  0  0  0  0  0  0
  145.3631  129.8758  151.3494 H   0  0  0  0  0  0  0  0  0  0  0  0
  146.9567  128.6561  152.7685 H   0  0  0  0  0  0  0  0  0  0  0  0
  147.7577  129.9014  155.9482 H   0  0  0  0  0  0  0  0  0  0  0  0
  147.6094  128.3649  155.1083 H   0  0  0  0  0  0  0  0  0  0  0  0
  150.0425  129.3110  156.7213 H   0  0  0  0  0  0  0  0  0  0  0  0
  148.9353  128.0296  157.1700 H   0  0  0  0  0  0  0  0  0  0  0  0
  151.5293  128.9540  154.8244 H   0  0  0  0  0  0  0  0  0  0  0  0
  151.4306  127.4311  153.9636 H   0  0  0  0  0  0  0  0  0  0  0  0
  149.1950  127.9896  153.0764 H   0  0  0  0  0  0  0  0  0  0  0  0
  150.3000  129.2998  152.6904 H   0  0  0  0  0  0  0  0  0  0  0  0
  1  2  2  0  0  0  0
  2  3  1  0  0  0  0
  2 18  1  0  0  0  0
  3  4  1  0  0  0  0
  3 35  1  0  0  0  0
  3 36  1  0  0  0  0
  4 16  1  0  0  0  0
  4  5  1  0  0  0  0
  5  6  2  0  0  0  0
  5  7  1  0  0  0  0
  7  8  1  0  0  0  0
  7  9  2  0  0  0  0
  9 10  1  0  0  0  0
  9 37  1  0  0  0  0
 10 11  1  0  0  0  0
 10 16  1  0  0  0  0
 11 15  1  0  0  0  0
 11 12  1  0  0  0  0
 11 38  1  0  0  0  0
 12 13  1  0  0  0  0
 12 39  1  0  0  0  0
 12 40  1  0  0  0  0
 13 14  1  0  0  0  0
 13 41  1  0  0  0  0
 13 42  1  0  0  0  0
 14 15  1  0  0  0  0
 14 43  1  0  0  0  0
 14 44  1  0  0  0  0
 16 17  2  0  0  0  0
 18 19  1  0  0  0  0
 18 45  1  0  0  0  0
 19 28  1  0  0  0  0
 19 20  2  0  0  0  0
 20 21  1  0  0  0  0
 20 46  1  0  0  0  0
 21 22  1  0  0  0  0
 21 26  2  0  0  0  0
 22 23  1  0  0  0  0
 22 24  1  0  0  0  0
 22 25  1  0  0  0  0
 26 27  1  0  0  0  0
 26 47  1  0  0  0  0
 27 28  2  0  0  0  0
 27 48  1  0  0  0  0
 28 29  1  0  0  0  0
 29 34  1  0  0  0  0
 29 30  1  0  0  0  0
 30 31  1  0  0  0  0
 30 49  1  0  0  0  0
 30 50  1  0  0  0  0
 31 32  1  0  0  0  0
 31 51  1  0  0  0  0
 31 52  1  0  0  0  0
 32 33  1  0  0  0  0
 33 34  1  0  0  0  0
 33 53  1  0  0  0  0
 33 54  1  0  0  0  0
 34 55  1  0  0  0  0
 34 56  1  0  0  0  0
M  END
> <s_m_source_file>
AV-unprocessed.smi

> <i_m_source_file_index>
29

> <i_lp_mmshare_version>
43012

> <i_f3d_flags>
0

> <s_epik_input>
TzFbQ0gyXVtDSDJdW0NIMl1bQ0BIXTFuKGMyPU8pW2NIXWMoRiljKD1PKW4yW0NIMl1DKD1PKVtOSF1jM1tjSF1jKEMoRikoRilGKVtjSF1bY0hdYzNONFtDSDJdW0NIMl1PW0NIMl1bQ0gyXTQ=

> <s_epik_cmdline>
J2VwaWtfcHl0aG9uJywgJy1waCcsICc3LjAnLCAnLXRuJywgJzgnLCAnLW1hJywgJzIwMCcsICctbWV0YWxfYmluZGluZycsICctaW1hZScsICc8aW5maWxlLm1hZT4nLCAnLW9tYWUnLCAnPG91dGZpbGUubWFlPic=

> <r_lp_tautomer_probability>
1

> <r_epik_Ionization_Penalty>
3.5967e-06

> <r_epik_Ionization_Penalty_Charging>
3.88729e-08

> <r_epik_Ionization_Penalty_Neutral>
3.55783e-06

> <r_epik_State_Penalty>
-0

> <r_epik_Charging_Adjusted_Penalty>
3.88729e-08

> <i_epik_Tot_Q>
0

> <i_epik_Tot_abs_Q>
0

> <r_epik_Metal_State_Penalty>
-0

> <b_epik_Metal_Only>
0

> <s_epik_Chemistry_Notes>
This compound contains an acetal/aminal-like group ( X-CH(R)-Y where X, Y are N, S, or O) that may be acid/base labile, releasing an aldehyde.

> <s_lp_Force_Field>
OPLS_2005

> <r_lp_Energy>
46.7793

> <b_lp_Chiralities_Consistent>
1

> <s_lp_Variant>
AV-unprocessed.smi:29-2

> <Gold.Version>
5.8.1

> <Gold.Id.Protein>
6NUR|6NUR_protein|mol2

> <Gold.PLP.Fitness>
58.3960

> <Gold.PLP.PLP>
-51.4862

> <Gold.PLP.part.hbond>
-3.0000

> <Gold.PLP.part.metal>
0.0000

> <Gold.PLP.part.buried>
-8.5844

> <Gold.PLP.part.nonpolar>
-42.3153

> <Gold.PLP.part.repulsive>
1.8849

> <Gold.PLP.ligand.clash>
1.3538

> <Gold.PLP.ligand.torsion>
0.7647

> <Gold.PLP.Chemscore.Hbond>
2.9913

> <Gold.PLP.Chemscore.CHOScore>
0.0000

> <Gold.PLP.Chemscore.Metal>
0.0000

> <Gold.Chemscore.Hbonds>
donor molecule, donor type, donor heavy atom, donor atom, acceptor molecule, acceptor atom, score
      P1  H  6896  6907       L1     6  0.60
      P1  H  7997  8010       L1    15  0.96
      P1  H 10752 10763       L1    17  1.00

> <Gold.PLP.Chemscore.Internal.Correction>
0.8194

> <Gold.Rescore>
     Score         DG    S(hbond)    S(metal)    S(lipo)     H(rot)  DE(clash)    DE(int)     intcor
     13.03     -16.35       1.83        0.00      83.70       1.96       0.16       3.16       ----

> <Gold.Chemscore.Fitness>
13.0317

> <Gold.Chemscore.DG>
-16.3459

> <Gold.Chemscore.ZeroCoef>
-5.4800

> <Gold.Chemscore.Hbond>
1.8268

> <Gold.Chemscore.Metal>
0.0000

> <Gold.Chemscore.Lipo>
83.6956

> <Gold.Chemscore.Internal_Hbond>
0.0000

> <Gold.Chemscore.DEClash>
0.1551

> <Gold.Chemscore.DEInternal>
3.1592

> <Gold.Chemscore.Rot>
1.9641

> <Gold.Chemscore.Internal.Correction>
   9.000000E+99

> <Gold.Chemscore.Hbonds>
donor molecule, donor type, donor heavy atom, donor atom, acceptor molecule, acceptor atom, score
      P1  H  6896  6907       L1     6  0.04
      P1  H  7997  8010       L1    15  0.41
      P1  H 10752 10763       L1    17  0.85

> <Gold.Chemscore.Hbond.Weighted>
-6.1016

> <Gold.Chemscore.Metal.Weighted>
-0.0000

> <Gold.Chemscore.Lipo.Weighted>
-9.7924

> <Gold.Chemscore.Internal_Hbond.Weighted>
0.0000

> <Gold.Chemscore.DEClash.Weighted>
0.1551

> <Gold.Chemscore.DEInternal.Weighted>
3.1592

> <Gold.Chemscore.Rot.Weighted>
5.0280

> <Gold.Chemscore.Internal.Correction.Weighted>
   9.000000E+99

> <Gold.Protein.RotatedTorsions>
[ 6907 6896 6895 6894 ] final  -86.84 input  -60.11 | X-H torsion
[ 7974 7965 7964 7962 ] final  -88.63 input  175.53 | X-H torsion
[ 8008 7997 7996 7995 ] final   83.33 input   59.86 | X-H torsion
[ 10167 10162 10161 10158 ] final  160.91 input  -65.29 | X-H torsion
[ 10718 10713 10712 10709 ] final   99.66 input   66.30 | X-H torsion
[ 10763 10752 10751 10750 ] final   40.30 input  -60.55 | X-H torsion
[ 11005 11000 10999 10996 ] final  -35.60 input  -57.11 | X-H torsion

> <Gold.Protein.ActiveResidues>
 VAL166  LYS551  ARG553  GLY616  TRP617  ASP618  TYR619  PRO620  LYS621  CYS622 
 ASP623  PHE694  ASN695  SER759  ASP760  ASP761  ALA762  ILE779  LEU786  VAL792 
 PHE793  MET794  SER795  GLU796  ALA797  LYS798  CYS799  TRP800  GLU811  SER814 

> <Gold.Protein.RotatedAtoms>
  150.6866  134.2988  159.4697 H   0  0  0  0  0  0  0  0  0  0  0  0  # atno 6907 bound_to 6896
  152.0886  134.9420  160.0581 H   0  0  0  0  0  0  0  0  0  0  0  0  # atno 6908 bound_to 6896
  152.0745  133.4088  159.4511 H   0  0  0  0  0  0  0  0  0  0  0  0  # atno 6909 bound_to 6896
  145.4506  140.9560  143.2024 H   0  0  0  0  0  0  0  0  0  0  0  0  # atno 7974 bound_to 7965
  155.9225  140.3420  155.6184 H   0  0  0  0  0  0  0  0  0  0  0  0  # atno 8008 bound_to 7997
  155.7256  140.0789  157.2330 H   0  0  0  0  0  0  0  0  0  0  0  0  # atno 8009 bound_to 7997
  154.4072  140.1597  156.2438 H   0  0  0  0  0  0  0  0  0  0  0  0  # atno 8010 bound_to 7997
  139.4844  144.4588  151.8732 H   0  0  0  0  0  0  0  0  0  0  0  0  # atno 10167 bound_to 10162
  157.6871  131.0676  150.4981 H   0  0  0  0  0  0  0  0  0  0  0  0  # atno 10718 bound_to 10713
  152.9940  135.6195  154.2604 H   0  0  0  0  0  0  0  0  0  0  0  0  # atno 10763 bound_to 10752
  154.2340  135.2791  155.2881 H   0  0  0  0  0  0  0  0  0  0  0  0  # atno 10764 bound_to 10752
  154.5425  135.5757  153.6910 H   0  0  0  0  0  0  0  0  0  0  0  0  # atno 10765 bound_to 10752
  140.9809  133.7057  156.1683 H   0  0  0  0  0  0  0  0  0  0  0  0  # atno 11005 bound_to 11000
  144.8064  139.6043  143.7049 LP  0  0  0  0  0  0  0  0  0  0  0  0  # atno 17320 bound_to 7965
  146.2506  139.6192  142.9429 LP  0  0  0  0  0  0  0  0  0  0  0  0  # atno 17321 bound_to 7965
  140.4049  144.2445  150.5891 LP  0  0  0  0  0  0  0  0  0  0  0  0  # atno 17342 bound_to 10162
  140.5022  143.2314  151.8662 LP  0  0  0  0  0  0  0  0  0  0  0  0  # atno 17343 bound_to 10162
  156.5304  130.4183  149.6204 LP  0  0  0  0  0  0  0  0  0  0  0  0  # atno 17370 bound_to 10713
  156.3074  130.7210  151.2095 LP  0  0  0  0  0  0  0  0  0  0  0  0  # atno 17371 bound_to 10713
  140.7187  134.4382  157.5576 LP  0  0  0  0  0  0  0  0  0  0  0  0  # atno 17394 bound_to 11000
  139.8950  134.8693  156.2152 LP  0  0  0  0  0  0  0  0  0  0  0  0  # atno 17395 bound_to 11000

$$$$
