AV-unprocessed.smi:3287|AV-procd|sdf|12601|dock3
  -GOLD-   2272018523D 1   1.00000     0.00000
 Structure written by MMmdl.
 43 44  0  0  0  0  0  0  0  0  2 V2000
  152.8049  143.8238  162.2134 C   0  0  0  0  0  0  0  0  0  0  0  0
  152.1232  143.3490  160.9179 C   0  0  1  0  0  0  0  0  0  0  0  0
  151.4373  144.5414  160.2208 C   0  0  0  0  0  0  0  0  0  0  0  0
  150.7280  144.1259  158.9244 C   0  0  0  0  0  0  0  0  0  0  0  0
  151.7064  143.4409  157.9526 C   0  0  2  0  0  0  0  0  0  0  0  0
  151.0232  142.9938  156.7188 N   0  3  0  0  0  0  0  0  0  0  0  0
  150.0986  141.8521  156.8879 C   0  0  0  0  0  0  0  0  0  0  0  0
  149.7633  141.1943  155.5380 C   0  0  2  0  0  0  0  0  0  0  0  0
  148.3852  140.8765  155.5145 O   0  0  0  0  0  0  0  0  0  0  0  0
  150.6287  139.9671  155.2978 C   0  0  0  0  0  0  0  0  0  0  0  0
  150.2887  139.0367  154.2936 C   0  0  0  0  0  0  0  0  0  0  0  0
  151.1247  137.9186  154.0997 C   0  0  0  0  0  0  0  0  0  0  0  0
  152.2400  137.6920  154.8259 N   0  0  0  0  0  0  0  0  0  0  0  0
  152.5622  138.5860  155.7847 C   0  0  0  0  0  0  0  0  0  0  0  0
  151.7950  139.7357  156.0590 C   0  0  0  0  0  0  0  0  0  0  0  0
  152.3751  142.2393  158.6419 C   0  0  0  0  0  0  0  0  0  0  0  0
  153.0998  142.6372  159.9446 C   0  0  2  0  0  0  0  0  0  0  0  0
  153.7716  141.4000  160.5670 C   0  0  0  0  0  0  0  0  0  0  0  0
  153.6401  144.4915  162.0006 H   0  0  0  0  0  0  0  0  0  0  0  0
  153.1835  142.9890  162.8026 H   0  0  0  0  0  0  0  0  0  0  0  0
  152.1028  144.3648  162.8484 H   0  0  0  0  0  0  0  0  0  0  0  0
  151.3450  142.6374  161.1988 H   0  0  0  0  0  0  0  0  0  0  0  0
  150.7137  145.0003  160.8957 H   0  0  0  0  0  0  0  0  0  0  0  0
  152.1772  145.3113  159.9966 H   0  0  0  0  0  0  0  0  0  0  0  0
  149.9037  143.4513  159.1606 H   0  0  0  0  0  0  0  0  0  0  0  0
  150.2834  145.0092  158.4661 H   0  0  0  0  0  0  0  0  0  0  0  0
  152.4897  144.1475  157.6732 H   0  0  0  0  0  0  0  0  0  0  0  0
  150.4715  143.7679  156.3763 H   0  0  0  0  0  0  0  0  0  0  0  0
  150.5604  141.1136  157.5433 H   0  0  0  0  0  0  0  0  0  0  0  0
  149.1852  142.1903  157.3799 H   0  0  0  0  0  0  0  0  0  0  0  0
  149.9465  141.9086  154.7338 H   0  0  0  0  0  0  0  0  0  0  0  0
  148.0359  140.9925  156.3856 H   0  0  0  0  0  0  0  0  0  0  0  0
  149.4088  139.1710  153.6816 H   0  0  0  0  0  0  0  0  0  0  0  0
  150.8917  137.1880  153.3393 H   0  0  0  0  0  0  0  0  0  0  0  0
  153.4597  138.3806  156.3493 H   0  0  0  0  0  0  0  0  0  0  0  0
  152.1007  140.4214  156.8355 H   0  0  0  0  0  0  0  0  0  0  0  0
  151.6252  141.4772  158.8613 H   0  0  0  0  0  0  0  0  0  0  0  0
  153.0869  141.7789  157.9551 H   0  0  0  0  0  0  0  0  0  0  0  0
  153.8908  143.3413  159.6815 H   0  0  0  0  0  0  0  0  0  0  0  0
  153.0313  140.6855  160.9280 H   0  0  0  0  0  0  0  0  0  0  0  0
  154.4164  141.6672  161.4035 H   0  0  0  0  0  0  0  0  0  0  0  0
  154.3989  140.8865  159.8378 H   0  0  0  0  0  0  0  0  0  0  0  0
  151.7172  142.7642  156.0219 H   0  0  0  0  0  0  0  0  0  0  0  0
  1  2  1  0  0  0  0
  1 19  1  0  0  0  0
  1 20  1  0  0  0  0
  1 21  1  0  0  0  0
  2 17  1  0  0  0  0
  2  3  1  0  0  0  0
  2 22  1  0  0  0  0
  3  4  1  0  0  0  0
  3 23  1  0  0  0  0
  3 24  1  0  0  0  0
  4  5  1  0  0  0  0
  4 25  1  0  0  0  0
  4 26  1  0  0  0  0
  5  6  1  0  0  0  0
  5 16  1  0  0  0  0
  5 27  1  0  0  0  0
  6  7  1  0  0  0  0
  6 28  1  0  0  0  0
  6 43  1  0  0  0  0
  7  8  1  0  0  0  0
  7 29  1  0  0  0  0
  7 30  1  0  0  0  0
  8  9  1  0  0  0  0
  8 10  1  0  0  0  0
  8 31  1  0  0  0  0
  9 32  1  0  0  0  0
 10 15  1  0  0  0  0
 10 11  2  0  0  0  0
 11 12  1  0  0  0  0
 11 33  1  0  0  0  0
 12 13  2  0  0  0  0
 12 34  1  0  0  0  0
 13 14  1  0  0  0  0
 14 15  2  0  0  0  0
 14 35  1  0  0  0  0
 15 36  1  0  0  0  0
 16 17  1  0  0  0  0
 16 37  1  0  0  0  0
 16 38  1  0  0  0  0
 17 18  1  0  0  0  0
 17 39  1  0  0  0  0
 18 40  1  0  0  0  0
 18 41  1  0  0  0  0
 18 42  1  0  0  0  0
M  CHG  1   6   1
M  END
> <s_m_source_file>
AV-unprocessed.smi

> <i_m_source_file_index>
3287

> <i_lp_mmshare_version>
43012

> <i_f3d_flags>
0

> <s_epik_input>
W0NIM11bQ0BASF0xW0NIMl1bQ0gyXVtDQEhdKFtDSDJdW0NASF0xW0NIM10pW05IXVtDSDJdW0NASF0oW09IXSljMltjSF1bY0hdbltjSF1bY0hdMg==

> <s_epik_cmdline>
J2VwaWtfcHl0aG9uJywgJy1waCcsICc3LjAnLCAnLXRuJywgJzgnLCAnLW1hJywgJzIwMCcsICctbWV0YWxfYmluZGluZycsICctaW1hZScsICc8aW5maWxlLm1hZT4nLCAnLW9tYWUnLCAnPG91dGZpbGUubWFlPic=

> <r_lp_tautomer_probability>
1

> <r_epik_Ionization_Penalty>
0.00537262

> <r_epik_Ionization_Penalty_Charging>
0.00321624

> <r_epik_Ionization_Penalty_Neutral>
0.00215638

> <r_epik_State_Penalty>
-0

> <r_epik_Charging_Adjusted_Penalty>
0.00321624

> <i_epik_Tot_Q>
1

> <i_epik_Tot_abs_Q>
1

> <r_epik_Metal_State_Penalty>
-0

> <b_epik_Metal_Only>
0

> <s_lp_Force_Field>
OPLS_2005

> <r_lp_Energy>
15.7848

> <b_lp_Chiralities_Consistent>
1

> <s_lp_Variant>
AV-unprocessed.smi:3287-12

> <Gold.Version>
5.8.1

> <Gold.Id.Protein>
6NUR|6NUR_protein|mol2

> <Gold.PLP.Fitness>
54.2729

> <Gold.PLP.PLP>
-45.8228

> <Gold.PLP.part.hbond>
-2.0000

> <Gold.PLP.part.metal>
0.0000

> <Gold.PLP.part.buried>
-5.2195

> <Gold.PLP.part.nonpolar>
-39.1766

> <Gold.PLP.part.repulsive>
0.1270

> <Gold.PLP.ligand.clash>
0.0000

> <Gold.PLP.ligand.torsion>
1.0873

> <Gold.PLP.Chemscore.Hbond>
2.4696

> <Gold.PLP.Chemscore.CHOScore>
1.0658

> <Gold.PLP.Chemscore.Metal>
0.0000

> <Gold.Chemscore.Hbonds>
donor molecule, donor type, donor heavy atom, donor atom, acceptor molecule, acceptor atom, score
      L1  H     6    28       P1  8028  2.00
      P1  H 10752 10765       L1    13  0.42
      L1  C    12    34       P1  7948  0.14
      L1  C    12    34       P1  7949  0.92

> <Gold.PLP.Chemscore.Internal.Correction>
0.0187

> <Gold.Rescore>
     Score         DG    S(hbond)    S(metal)    S(lipo)     H(rot)  DE(clash)    DE(int)     intcor
     21.02     -22.01       1.69        0.00     134.59       1.90       0.17       0.83       ----

> <Gold.Chemscore.Fitness>
21.0168

> <Gold.Chemscore.DG>
-22.0102

> <Gold.Chemscore.ZeroCoef>
-5.4800

> <Gold.Chemscore.Hbond>
1.6935

> <Gold.Chemscore.Metal>
0.0000

> <Gold.Chemscore.Lipo>
134.5868

> <Gold.Chemscore.Internal_Hbond>
0.0000

> <Gold.Chemscore.DEClash>
0.1669

> <Gold.Chemscore.DEInternal>
0.8264

> <Gold.Chemscore.Rot>
1.9035

> <Gold.Chemscore.Internal.Correction>
   9.000000E+99

> <Gold.Chemscore.Hbonds>
donor molecule, donor type, donor heavy atom, donor atom, acceptor molecule, acceptor atom, score
      L1  H     6    28       P1  8028  0.98
      P1  H 10752 10765       L1    13  0.30

> <Gold.Chemscore.Hbond.Weighted>
-5.6564

> <Gold.Chemscore.Metal.Weighted>
-0.0000

> <Gold.Chemscore.Lipo.Weighted>
-15.7467

> <Gold.Chemscore.Internal_Hbond.Weighted>
0.0000

> <Gold.Chemscore.DEClash.Weighted>
0.1669

> <Gold.Chemscore.DEInternal.Weighted>
0.8264

> <Gold.Chemscore.Rot.Weighted>
4.8729

> <Gold.Chemscore.Internal.Correction.Weighted>
   9.000000E+99

> <Gold.Protein.RotatedTorsions>
[ 6907 6896 6895 6894 ] final  -53.60 input  -60.11 | X-H torsion
[ 7974 7965 7964 7962 ] final  -90.25 input  175.53 | X-H torsion
[ 8008 7997 7996 7995 ] final  -50.36 input   59.86 | X-H torsion
[ 10167 10162 10161 10158 ] final  -10.69 input  -65.29 | X-H torsion
[ 10718 10713 10712 10709 ] final  -15.83 input   66.30 | X-H torsion
[ 10763 10752 10751 10750 ] final  169.11 input  -60.55 | X-H torsion
[ 11005 11000 10999 10996 ] final    3.77 input  -57.11 | X-H torsion

> <Gold.Protein.ActiveResidues>
 VAL166  LYS551  ARG553  GLY616  TRP617  ASP618  TYR619  PRO620  LYS621  CYS622 
 ASP623  PHE694  ASN695  SER759  ASP760  ASP761  ALA762  ILE779  LEU786  VAL792 
 PHE793  MET794  SER795  GLU796  ALA797  LYS798  CYS799  TRP800  GLU811  SER814 

> <Gold.Protein.RotatedAtoms>
  150.8412  134.7705  159.6933 H   0  0  0  0  0  0  0  0  0  0  0  0  # atno 6907 bound_to 6896
  152.4499  134.5413  159.9849 H   0  0  0  0  0  0  0  0  0  0  0  0  # atno 6908 bound_to 6896
  151.5552  133.3373  159.2996 H   0  0  0  0  0  0  0  0  0  0  0  0  # atno 6909 bound_to 6896
  145.4289  140.9555  143.2139 H   0  0  0  0  0  0  0  0  0  0  0  0  # atno 7974 bound_to 7965
  154.4061  140.1274  156.4654 H   0  0  0  0  0  0  0  0  0  0  0  0  # atno 8008 bound_to 7997
  155.7232  140.3492  155.5005 H   0  0  0  0  0  0  0  0  0  0  0  0  # atno 8009 bound_to 7997
  155.9195  140.1050  157.1207 H   0  0  0  0  0  0  0  0  0  0  0  0  # atno 8010 bound_to 7997
  140.7120  143.5721  150.9082 H   0  0  0  0  0  0  0  0  0  0  0  0  # atno 10167 bound_to 10162
  156.5962  130.4812  149.6258 H   0  0  0  0  0  0  0  0  0  0  0  0  # atno 10718 bound_to 10713
  154.3784  135.2753  155.2226 H   0  0  0  0  0  0  0  0  0  0  0  0  # atno 10763 bound_to 10752
  154.4343  135.5969  153.6092 H   0  0  0  0  0  0  0  0  0  0  0  0  # atno 10764 bound_to 10752
  152.9835  135.6003  154.4023 H   0  0  0  0  0  0  0  0  0  0  0  0  # atno 10765 bound_to 10752
  140.5894  133.9938  155.8082 H   0  0  0  0  0  0  0  0  0  0  0  0  # atno 11005 bound_to 11000
  144.8196  139.5816  143.6993 LP  0  0  0  0  0  0  0  0  0  0  0  0  # atno 17320 bound_to 7965
  146.2617  139.6426  142.9357 LP  0  0  0  0  0  0  0  0  0  0  0  0  # atno 17321 bound_to 7965
  139.9447  143.6342  152.3045 LP  0  0  0  0  0  0  0  0  0  0  0  0  # atno 17342 bound_to 10162
  139.6839  144.7653  151.1559 LP  0  0  0  0  0  0  0  0  0  0  0  0  # atno 17343 bound_to 10162
  156.2507  130.6905  151.1642 LP  0  0  0  0  0  0  0  0  0  0  0  0  # atno 17370 bound_to 10713
  157.7291  131.0627  150.5789 LP  0  0  0  0  0  0  0  0  0  0  0  0  # atno 17371 bound_to 10713
  141.0944  133.9866  157.3184 LP  0  0  0  0  0  0  0  0  0  0  0  0  # atno 17394 bound_to 11000
  139.9281  135.0201  156.8304 LP  0  0  0  0  0  0  0  0  0  0  0  0  # atno 17395 bound_to 11000

$$$$
