AV-unprocessed.smi:3338|AV-procd|sdf|12870|dock2
  -GOLD-   2272019273D 1   1.00000     0.00000
 Structure written by MMmdl.
 44 45  0  0  0  0  0  0  0  0  2 V2000
  149.1722  135.6935  154.9222 C   0  0  0  0  0  0  0  0  0  0  0  0
  148.7053  136.9285  155.7121 C   0  0  1  0  0  0  0  0  0  0  0  0
  149.8045  137.9975  155.8563 C   0  0  0  0  0  0  0  0  0  0  0  0
  150.0293  138.7481  154.5361 C   0  0  0  0  0  0  0  0  0  0  0  0
  148.7090  139.3167  153.9928 C   0  0  0  0  0  0  0  0  0  0  0  0
  147.6917  138.2462  153.8317 N   0  3  2  0  0  0  0  0  0  0  0  0
  146.4587  138.7345  153.1652 C   0  0  0  0  0  0  0  0  0  0  0  0
  146.4148  138.3558  151.6761 C   0  0  0  0  0  0  0  0  0  0  0  0
  145.3669  137.3741  151.4354 N   0  0  0  0  0  0  0  0  0  0  0  0
  145.2815  136.1786  152.0384 C   0  0  0  0  0  0  0  0  0  0  0  0
  146.0882  135.7978  152.8878 O   0  0  0  0  0  0  0  0  0  0  0  0
  144.1035  135.2888  151.6090 C   0  0  2  0  0  0  0  0  0  0  0  0
  143.1022  135.0171  152.7483 C   0  0  0  0  0  0  0  0  0  0  0  0
  144.5970  134.0442  151.0319 N   0  0  0  0  0  0  0  0  0  0  0  0
  143.8791  132.9837  150.5134 C   0  0  0  0  0  0  0  0  0  0  0  0
  144.7777  132.0327  150.1235 C   0  0  0  0  0  0  0  0  0  0  0  0
  146.0381  132.6037  150.4532 C   0  0  0  0  0  0  0  0  0  0  0  0
  145.9267  133.8024  151.0020 N   0  0  0  0  0  0  0  0  0  0  0  0
  147.4234  137.5476  155.1184 C   0  0  0  0  0  0  0  0  0  0  0  0
  149.4084  135.9369  153.8864 H   0  0  0  0  0  0  0  0  0  0  0  0
  148.4005  134.9236  154.9104 H   0  0  0  0  0  0  0  0  0  0  0  0
  150.0638  135.2547  155.3714 H   0  0  0  0  0  0  0  0  0  0  0  0
  148.4635  136.5760  156.7157 H   0  0  0  0  0  0  0  0  0  0  0  0
  149.5098  138.7128  156.6254 H   0  0  0  0  0  0  0  0  0  0  0  0
  150.7360  137.5466  156.2004 H   0  0  0  0  0  0  0  0  0  0  0  0
  150.7466  139.5555  154.6866 H   0  0  0  0  0  0  0  0  0  0  0  0
  150.4737  138.0799  153.7980 H   0  0  0  0  0  0  0  0  0  0  0  0
  148.3255  140.0894  154.6612 H   0  0  0  0  0  0  0  0  0  0  0  0
  148.8995  139.7946  153.0310 H   0  0  0  0  0  0  0  0  0  0  0  0
  145.5789  138.3603  153.6913 H   0  0  0  0  0  0  0  0  0  0  0  0
  146.4180  139.8227  153.2343 H   0  0  0  0  0  0  0  0  0  0  0  0
  146.2366  139.2505  151.0771 H   0  0  0  0  0  0  0  0  0  0  0  0
  147.3620  137.9302  151.3456 H   0  0  0  0  0  0  0  0  0  0  0  0
  144.6615  137.6087  150.7512 H   0  0  0  0  0  0  0  0  0  0  0  0
  143.5646  135.8317  150.8299 H   0  0  0  0  0  0  0  0  0  0  0  0
  142.6965  135.9475  153.1476 H   0  0  0  0  0  0  0  0  0  0  0  0
  143.5621  134.4737  153.5745 H   0  0  0  0  0  0  0  0  0  0  0  0
  142.2607  134.4230  152.3910 H   0  0  0  0  0  0  0  0  0  0  0  0
  142.8001  132.9932  150.4670 H   0  0  0  0  0  0  0  0  0  0  0  0
  144.5668  131.0740  149.6735 H   0  0  0  0  0  0  0  0  0  0  0  0
  147.0236  132.1841  150.3149 H   0  0  0  0  0  0  0  0  0  0  0  0
  146.6761  136.7662  154.9832 H   0  0  0  0  0  0  0  0  0  0  0  0
  146.9979  138.2604  155.8264 H   0  0  0  0  0  0  0  0  0  0  0  0
  148.1009  137.5656  153.2075 H   0  0  0  0  0  0  0  0  0  0  0  0
  1  2  1  0  0  0  0
  1 20  1  0  0  0  0
  1 21  1  0  0  0  0
  1 22  1  0  0  0  0
  2 19  1  0  0  0  0
  2  3  1  0  0  0  0
  2 23  1  0  0  0  0
  3  4  1  0  0  0  0
  3 24  1  0  0  0  0
  3 25  1  0  0  0  0
  4  5  1  0  0  0  0
  4 26  1  0  0  0  0
  4 27  1  0  0  0  0
  5  6  1  0  0  0  0
  5 28  1  0  0  0  0
  5 29  1  0  0  0  0
  6  7  1  0  0  0  0
  6 19  1  0  0  0  0
  6 44  1  0  0  0  0
  7  8  1  0  0  0  0
  7 30  1  0  0  0  0
  7 31  1  0  0  0  0
  8  9  1  0  0  0  0
  8 32  1  0  0  0  0
  8 33  1  0  0  0  0
  9 10  1  0  0  0  0
  9 34  1  0  0  0  0
 10 11  2  0  0  0  0
 10 12  1  0  0  0  0
 12 13  1  0  0  0  0
 12 14  1  0  0  0  0
 12 35  1  0  0  0  0
 13 36  1  0  0  0  0
 13 37  1  0  0  0  0
 13 38  1  0  0  0  0
 14 18  1  0  0  0  0
 14 15  1  0  0  0  0
 15 16  2  0  0  0  0
 15 39  1  0  0  0  0
 16 17  1  0  0  0  0
 16 40  1  0  0  0  0
 17 18  2  0  0  0  0
 17 41  1  0  0  0  0
 19 42  1  0  0  0  0
 19 43  1  0  0  0  0
M  CHG  1   6   1
M  END
> <s_m_source_file>
AV-unprocessed.smi

> <i_m_source_file_index>
3338

> <i_lp_mmshare_version>
43012

> <i_f3d_flags>
0

> <s_epik_input>
W0NIM11bQ0BASF0xW0NIMl1bQ0gyXVtDSDJdTihbQ0gyXTEpW0NIMl1bQ0gyXVtOSF1DKD1PKVtDQEhdKFtDSDNdKW4yW2NIXVtjSF1bY0hdbjI=

> <s_epik_cmdline>
J2VwaWtfcHl0aG9uJywgJy1waCcsICc3LjAnLCAnLXRuJywgJzgnLCAnLW1hJywgJzIwMCcsICctbWV0YWxfYmluZGluZycsICctaW1hZScsICc8aW5maWxlLm1hZT4nLCAnLW9tYWUnLCAnPG91dGZpbGUubWFlPic=

> <r_lp_tautomer_probability>
1

> <r_epik_Ionization_Penalty>
0.00225707

> <r_epik_Ionization_Penalty_Charging>
0.00223709

> <r_epik_Ionization_Penalty_Neutral>
1.99775e-05

> <r_epik_State_Penalty>
0.00153978

> <r_epik_Charging_Adjusted_Penalty>
0.00377687

> <i_epik_Tot_Q>
1

> <i_epik_Tot_abs_Q>
1

> <r_epik_Metal_State_Penalty>
-0

> <b_epik_Metal_Only>
0

> <s_lp_Force_Field>
OPLS_2005

> <r_lp_Energy>
22.9717

> <b_lp_Chiralities_Consistent>
1

> <s_lp_Variant>
AV-unprocessed.smi:3338-2

> <Gold.Version>
5.8.1

> <Gold.Id.Protein>
6NUR|6NUR_protein|mol2

> <Gold.PLP.Fitness>
43.7828

> <Gold.PLP.PLP>
-30.7150

> <Gold.PLP.part.hbond>
-2.0000

> <Gold.PLP.part.metal>
0.0000

> <Gold.PLP.part.buried>
-3.0414

> <Gold.PLP.part.nonpolar>
-27.2576

> <Gold.PLP.part.repulsive>
0.4589

> <Gold.PLP.ligand.clash>
0.0000

> <Gold.PLP.ligand.torsion>
1.0334

> <Gold.PLP.Chemscore.Hbond>
3.0000

> <Gold.PLP.Chemscore.CHOScore>
2.0000

> <Gold.PLP.Chemscore.Metal>
0.0000

> <Gold.Chemscore.Hbonds>
donor molecule, donor type, donor heavy atom, donor atom, acceptor molecule, acceptor atom, score
      L1  H     6    44       P1  7948  1.79
      L1  H     9    34       P1 10171  1.00
      L1  C    15    39       P1 10186  1.00
      L1  C    17    41       P1 10747  1.00

> <Gold.PLP.Chemscore.Internal.Correction>
0.1346

> <Gold.Rescore>
     Score         DG    S(hbond)    S(metal)    S(lipo)     H(rot)  DE(clash)    DE(int)     intcor
     12.53     -16.59       1.99        0.00      76.55       1.76       0.45       3.61       ----

> <Gold.Chemscore.Fitness>
12.5271

> <Gold.Chemscore.DG>
-16.5881

> <Gold.Chemscore.ZeroCoef>
-5.4800

> <Gold.Chemscore.Hbond>
1.9908

> <Gold.Chemscore.Metal>
0.0000

> <Gold.Chemscore.Lipo>
76.5536

> <Gold.Chemscore.Internal_Hbond>
0.0000

> <Gold.Chemscore.DEClash>
0.4507

> <Gold.Chemscore.DEInternal>
3.6103

> <Gold.Chemscore.Rot>
1.7570

> <Gold.Chemscore.Internal.Correction>
   9.000000E+99

> <Gold.Chemscore.Hbonds>
donor molecule, donor type, donor heavy atom, donor atom, acceptor molecule, acceptor atom, score
      L1  H     6    44       P1  7948  0.87
      L1  H     9    34       P1 10171  0.95

> <Gold.Chemscore.Hbond.Weighted>
-6.6492

> <Gold.Chemscore.Metal.Weighted>
-0.0000

> <Gold.Chemscore.Lipo.Weighted>
-8.9568

> <Gold.Chemscore.Internal_Hbond.Weighted>
0.0000

> <Gold.Chemscore.DEClash.Weighted>
0.4507

> <Gold.Chemscore.DEInternal.Weighted>
3.6103

> <Gold.Chemscore.Rot.Weighted>
4.4979

> <Gold.Chemscore.Internal.Correction.Weighted>
   9.000000E+99

> <Gold.Protein.RotatedTorsions>
[ 6907 6896 6895 6894 ] final -112.59 input  -60.11 | X-H torsion
[ 7974 7965 7964 7962 ] final -109.13 input  175.53 | X-H torsion
[ 8008 7997 7996 7995 ] final   33.94 input   59.86 | X-H torsion
[ 10167 10162 10161 10158 ] final  -84.73 input  -65.29 | X-H torsion
[ 10718 10713 10712 10709 ] final   53.14 input   66.30 | X-H torsion
[ 10763 10752 10751 10750 ] final -167.29 input  -60.55 | X-H torsion
[ 11005 11000 10999 10996 ] final   71.05 input  -57.11 | X-H torsion

> <Gold.Protein.ActiveResidues>
 VAL166  LYS551  ARG553  GLY616  TRP617  ASP618  TYR619  PRO620  LYS621  CYS622 
 ASP623  PHE694  ASN695  SER759  ASP760  ASP761  ALA762  ILE779  LEU786  VAL792 
 PHE793  MET794  SER795  GLU796  ALA797  LYS798  CYS799  TRP800  GLU811  SER814 

> <Gold.Protein.RotatedAtoms>
  150.7769  133.9068  159.3357 H   0  0  0  0  0  0  0  0  0  0  0  0  # atno 6907 bound_to 6896
  151.6941  135.0939  160.0248 H   0  0  0  0  0  0  0  0  0  0  0  0  # atno 6908 bound_to 6896
  152.3807  133.6504  159.6195 H   0  0  0  0  0  0  0  0  0  0  0  0  # atno 6909 bound_to 6896
  145.1843  140.8985  143.3462 H   0  0  0  0  0  0  0  0  0  0  0  0  # atno 7974 bound_to 7965
  155.1468  140.3271  155.4440 H   0  0  0  0  0  0  0  0  0  0  0  0  # atno 8008 bound_to 7997
  156.2587  140.1984  156.6531 H   0  0  0  0  0  0  0  0  0  0  0  0  # atno 8009 bound_to 7997
  154.6502  140.0559  156.9933 H   0  0  0  0  0  0  0  0  0  0  0  0  # atno 8010 bound_to 7997
  140.4105  143.2625  151.9024 H   0  0  0  0  0  0  0  0  0  0  0  0  # atno 10167 bound_to 10162
  157.5140  130.8520  149.8471 H   0  0  0  0  0  0  0  0  0  0  0  0  # atno 10718 bound_to 10713
  154.6747  135.2945  154.9695 H   0  0  0  0  0  0  0  0  0  0  0  0  # atno 10763 bound_to 10752
  154.0710  135.6618  153.4828 H   0  0  0  0  0  0  0  0  0  0  0  0  # atno 10764 bound_to 10752
  153.0508  135.5175  154.7760 H   0  0  0  0  0  0  0  0  0  0  0  0  # atno 10765 bound_to 10752
  139.9564  134.7136  156.0743 H   0  0  0  0  0  0  0  0  0  0  0  0  # atno 11005 bound_to 11000
  145.0105  139.3514  143.6122 LP  0  0  0  0  0  0  0  0  0  0  0  0  # atno 17320 bound_to 7965
  146.3448  139.9365  142.8746 LP  0  0  0  0  0  0  0  0  0  0  0  0  # atno 17321 bound_to 7965
  139.4782  144.5542  151.8340 LP  0  0  0  0  0  0  0  0  0  0  0  0  # atno 17342 bound_to 10162
  140.4643  144.1678  150.5910 LP  0  0  0  0  0  0  0  0  0  0  0  0  # atno 17343 bound_to 10162
  156.0308  130.3765  150.1694 LP  0  0  0  0  0  0  0  0  0  0  0  0  # atno 17370 bound_to 10713
  156.9883  130.9885  151.3421 LP  0  0  0  0  0  0  0  0  0  0  0  0  # atno 17371 bound_to 10713
  141.1236  133.6605  156.3279 LP  0  0  0  0  0  0  0  0  0  0  0  0  # atno 17394 bound_to 11000
  140.5599  134.5945  157.5430 LP  0  0  0  0  0  0  0  0  0  0  0  0  # atno 17395 bound_to 11000

$$$$
