AV-unprocessed.smi:1933|AV-procd|sdf|7816|dock7
  -GOLD-   22720 9563D 1   1.00000     0.00000
 Structure written by MMmdl.
 47 49  0  0  0  0  0  0  0  0  1 V2000
  144.6998  137.3975  152.4321 O   0  0  0  0  0  0  0  0  0  0  0  0
  145.8763  137.0849  152.2474 C   0  0  0  0  0  0  0  0  0  0  0  0
  146.9016  137.9361  152.3941 N   0  0  0  0  0  0  0  0  0  0  0  0
  146.7896  139.3431  152.7685 C   0  0  0  0  0  0  0  0  0  0  0  0
  147.4589  139.6246  154.1405 C   0  0  1  0  0  0  0  0  0  0  0  0
  149.0001  139.8429  154.0161 C   0  0  2  0  0  0  0  0  0  0  0  0
  149.8847  138.5951  154.1038 C   0  0  0  0  0  0  0  0  0  0  0  0
  150.9450  138.9675  155.1388 C   0  0  0  0  0  0  0  0  0  0  0  0
  150.9978  140.3832  155.0850 O   0  0  0  0  0  0  0  0  0  0  0  0
  149.6603  140.8432  154.9803 C   0  0  0  0  0  0  0  0  0  0  0  0
  146.7492  140.6042  154.9891 N   0  0  0  0  0  0  0  0  0  0  0  0
  145.4239  140.1536  155.4096 C   0  0  0  0  0  0  0  0  0  0  0  0
  144.7797  141.1292  156.4076 C   0  0  0  0  0  0  0  0  0  0  0  0
  144.7081  142.4237  155.8203 O   0  0  0  0  0  0  0  0  0  0  0  0
  145.9865  142.9257  155.4455 C   0  0  0  0  0  0  0  0  0  0  0  0
  146.6633  141.9618  154.4546 C   0  0  0  0  0  0  0  0  0  0  0  0
  146.3076  135.8673  151.8734 N   0  0  0  0  0  0  0  0  0  0  0  0
  145.5346  134.7089  151.5943 C   0  0  0  0  0  0  0  0  0  0  0  0
  146.2816  133.5603  151.2471 C   0  0  0  0  0  0  0  0  0  0  0  0
  145.6085  132.3593  150.9502 C   0  0  0  0  0  0  0  0  0  0  0  0
  144.2035  132.3377  151.0077 C   0  0  0  0  0  0  0  0  0  0  0  0
  143.5361  133.5248  151.3616 C   0  0  0  0  0  0  0  0  0  0  0  0
  144.1793  134.6768  151.6468 N   0  0  0  0  0  0  0  0  0  0  0  0
  147.8336  137.5881  152.2227 H   0  0  0  0  0  0  0  0  0  0  0  0
  147.2201  139.9882  152.0016 H   0  0  0  0  0  0  0  0  0  0  0  0
  145.7252  139.5714  152.7963 H   0  0  0  0  0  0  0  0  0  0  0  0
  147.3866  138.6822  154.6855 H   0  0  0  0  0  0  0  0  0  0  0  0
  149.1736  140.2512  153.0190 H   0  0  0  0  0  0  0  0  0  0  0  0
  149.3621  137.6815  154.3852 H   0  0  0  0  0  0  0  0  0  0  0  0
  150.3541  138.4092  153.1370 H   0  0  0  0  0  0  0  0  0  0  0  0
  150.6369  138.6557  156.1376 H   0  0  0  0  0  0  0  0  0  0  0  0
  151.9158  138.5200  154.9262 H   0  0  0  0  0  0  0  0  0  0  0  0
  149.6350  141.8645  154.6005 H   0  0  0  0  0  0  0  0  0  0  0  0
  149.2027  140.8524  155.9672 H   0  0  0  0  0  0  0  0  0  0  0  0
  144.7636  140.0594  154.5478 H   0  0  0  0  0  0  0  0  0  0  0  0
  145.4926  139.1652  155.8649 H   0  0  0  0  0  0  0  0  0  0  0  0
  143.7737  140.7988  156.6659 H   0  0  0  0  0  0  0  0  0  0  0  0
  145.3530  141.1706  157.3351 H   0  0  0  0  0  0  0  0  0  0  0  0
  145.8650  143.9098  154.9930 H   0  0  0  0  0  0  0  0  0  0  0  0
  146.6051  143.0573  156.3348 H   0  0  0  0  0  0  0  0  0  0  0  0
  147.6562  142.3510  154.2467 H   0  0  0  0  0  0  0  0  0  0  0  0
  146.1098  141.9634  153.5152 H   0  0  0  0  0  0  0  0  0  0  0  0
  147.3051  135.7583  151.7668 H   0  0  0  0  0  0  0  0  0  0  0  0
  147.3607  133.5944  151.2074 H   0  0  0  0  0  0  0  0  0  0  0  0
  146.1613  131.4708  150.6831 H   0  0  0  0  0  0  0  0  0  0  0  0
  143.6520  131.4359  150.7868 H   0  0  0  0  0  0  0  0  0  0  0  0
  142.4580  133.5509  151.4179 H   0  0  0  0  0  0  0  0  0  0  0  0
  1  2  2  0  0  0  0
  2  3  1  0  0  0  0
  2 17  1  0  0  0  0
  3  4  1  0  0  0  0
  3 24  1  0  0  0  0
  4  5  1  0  0  0  0
  4 25  1  0  0  0  0
  4 26  1  0  0  0  0
  5  6  1  0  0  0  0
  5 11  1  0  0  0  0
  5 27  1  0  0  0  0
  6 10  1  0  0  0  0
  6  7  1  0  0  0  0
  6 28  1  0  0  0  0
  7  8  1  0  0  0  0
  7 29  1  0  0  0  0
  7 30  1  0  0  0  0
  8  9  1  0  0  0  0
  8 31  1  0  0  0  0
  8 32  1  0  0  0  0
  9 10  1  0  0  0  0
 10 33  1  0  0  0  0
 10 34  1  0  0  0  0
 11 16  1  0  0  0  0
 11 12  1  0  0  0  0
 12 13  1  0  0  0  0
 12 35  1  0  0  0  0
 12 36  1  0  0  0  0
 13 14  1  0  0  0  0
 13 37  1  0  0  0  0
 13 38  1  0  0  0  0
 14 15  1  0  0  0  0
 15 16  1  0  0  0  0
 15 39  1  0  0  0  0
 15 40  1  0  0  0  0
 16 41  1  0  0  0  0
 16 42  1  0  0  0  0
 17 18  1  0  0  0  0
 17 43  1  0  0  0  0
 18 23  1  0  0  0  0
 18 19  2  0  0  0  0
 19 20  1  0  0  0  0
 19 44  1  0  0  0  0
 20 21  2  0  0  0  0
 20 45  1  0  0  0  0
 21 22  1  0  0  0  0
 21 46  1  0  0  0  0
 22 23  2  0  0  0  0
 22 47  1  0  0  0  0
M  END
> <s_m_source_file>
AV-unprocessed.smi

> <i_m_source_file_index>
1933

> <i_lp_mmshare_version>
43012

> <i_f3d_flags>
0

> <s_epik_input>
bjFbY0hdW2NIXVtjSF1bY0hdYzFbTkhdQyg9TylbTkhdW0NIMl1bQ0BIXShbQ0BASF0yW0NIMl1bQ0gyXU9bQ0gyXTIpTjNbQ0gyXVtDSDJdT1tDSDJdW0NIMl0z

> <s_epik_cmdline>
J2VwaWtfcHl0aG9uJywgJy1waCcsICc3LjAnLCAnLXRuJywgJzgnLCAnLW1hJywgJzIwMCcsICctbWV0YWxfYmluZGluZycsICctaW1hZScsICc8aW5maWxlLm1hZT4nLCAnLW9tYWUnLCAnPG91dGZpbGUubWFlPic=

> <r_epik_Ionization_Penalty>
0.125062

> <r_epik_Ionization_Penalty_Charging>
0

> <r_epik_Ionization_Penalty_Neutral>
0.125062

> <r_epik_State_Penalty>
0.114484

> <r_epik_Charging_Adjusted_Penalty>
0.114484

> <i_epik_Tot_Q>
0

> <i_epik_Tot_abs_Q>
0

> <r_epik_Metal_State_Penalty>
0.114484

> <b_epik_Metal_Only>
0

> <s_lp_Force_Field>
OPLS_2005

> <r_lp_Energy>
56.3046

> <b_lp_Chiralities_Consistent>
1

> <s_lp_Variant>
AV-unprocessed.smi:1933-2

> <Gold.Version>
5.8.1

> <Gold.Id.Protein>
6NUR|6NUR_protein|mol2

> <Gold.PLP.Fitness>
46.0186

> <Gold.PLP.PLP>
-36.9644

> <Gold.PLP.part.hbond>
-2.9011

> <Gold.PLP.part.metal>
0.0000

> <Gold.PLP.part.buried>
-3.4939

> <Gold.PLP.part.nonpolar>
-32.4570

> <Gold.PLP.part.repulsive>
2.1600

> <Gold.PLP.ligand.clash>
0.0000

> <Gold.PLP.ligand.torsion>
1.5420

> <Gold.PLP.Chemscore.Hbond>
2.9200

> <Gold.PLP.Chemscore.CHOScore>
1.0000

> <Gold.PLP.Chemscore.Metal>
0.0000

> <Gold.Chemscore.Hbonds>
donor molecule, donor type, donor heavy atom, donor atom, acceptor molecule, acceptor atom, score
      L1  H     3    24       P1  7948  1.00
      L1  H    17    43       P1  7948  1.00
      P1  H  7989  7998       L1     9  1.00
      L1  C    22    47       P1 10186  0.88

> <Gold.PLP.Chemscore.Internal.Correction>
0.3782

> <Gold.Rescore>
     Score         DG    S(hbond)    S(metal)    S(lipo)     H(rot)  DE(clash)    DE(int)     intcor
     14.85     -17.27       2.05        0.00      79.72       1.72       0.06       2.37       ----

> <Gold.Chemscore.Fitness>
14.8490

> <Gold.Chemscore.DG>
-17.2709

> <Gold.Chemscore.ZeroCoef>
-5.4800

> <Gold.Chemscore.Hbond>
2.0529

> <Gold.Chemscore.Metal>
0.0000

> <Gold.Chemscore.Lipo>
79.7222

> <Gold.Chemscore.Internal_Hbond>
0.0000

> <Gold.Chemscore.DEClash>
0.0553

> <Gold.Chemscore.DEInternal>
2.3666

> <Gold.Chemscore.Rot>
1.7161

> <Gold.Chemscore.Internal.Correction>
   9.000000E+99

> <Gold.Chemscore.Hbonds>
donor molecule, donor type, donor heavy atom, donor atom, acceptor molecule, acceptor atom, score
      L1  H     3    24       P1  7948  0.95
      L1  H    17    43       P1  7948  0.99
      P1  H  7989  7998       L1     9  0.20

> <Gold.Chemscore.Hbond.Weighted>
-6.8566

> <Gold.Chemscore.Metal.Weighted>
-0.0000

> <Gold.Chemscore.Lipo.Weighted>
-9.3275

> <Gold.Chemscore.Internal_Hbond.Weighted>
0.0000

> <Gold.Chemscore.DEClash.Weighted>
0.0553

> <Gold.Chemscore.DEInternal.Weighted>
2.3666

> <Gold.Chemscore.Rot.Weighted>
4.3932

> <Gold.Chemscore.Internal.Correction.Weighted>
   9.000000E+99

> <Gold.Protein.RotatedTorsions>
[ 6907 6896 6895 6894 ] final   -2.79 input  -60.11 | X-H torsion
[ 7974 7965 7964 7962 ] final   91.93 input  175.53 | X-H torsion
[ 8008 7997 7996 7995 ] final  -53.19 input   59.86 | X-H torsion
[ 10167 10162 10161 10158 ] final  -27.83 input  -65.29 | X-H torsion
[ 10718 10713 10712 10709 ] final  170.89 input   66.30 | X-H torsion
[ 10763 10752 10751 10750 ] final   52.81 input  -60.55 | X-H torsion
[ 11005 11000 10999 10996 ] final   71.42 input  -57.11 | X-H torsion

> <Gold.Protein.ActiveResidues>
 VAL166  LYS551  ARG553  GLY616  TRP617  ASP618  TYR619  PRO620  LYS621  CYS622 
 ASP623  PHE694  ASN695  SER759  ASP760  ASP761  ALA762  ILE779  LEU786  VAL792 
 PHE793  MET794  SER795  GLU796  ALA797  LYS798  CYS799  TRP800  GLU811  SER814 

> <Gold.Protein.RotatedAtoms>
  151.5242  135.1067  159.9886 H   0  0  0  0  0  0  0  0  0  0  0  0  # atno 6907 bound_to 6896
  152.4607  133.7812  159.6862 H   0  0  0  0  0  0  0  0  0  0  0  0  # atno 6908 bound_to 6896
  150.8568  133.7639  159.3031 H   0  0  0  0  0  0  0  0  0  0  0  0  # atno 6909 bound_to 6896
  145.4990  139.2276  143.2788 H   0  0  0  0  0  0  0  0  0  0  0  0  # atno 7974 bound_to 7965
  154.4126  140.1206  156.5114 H   0  0  0  0  0  0  0  0  0  0  0  0  # atno 8008 bound_to 7997
  155.6795  140.3496  155.4830 H   0  0  0  0  0  0  0  0  0  0  0  0  # atno 8009 bound_to 7997
  155.9563  140.1114  157.0924 H   0  0  0  0  0  0  0  0  0  0  0  0  # atno 8010 bound_to 7997
  140.7274  143.4060  151.1184 H   0  0  0  0  0  0  0  0  0  0  0  0  # atno 10167 bound_to 10162
  157.0015  131.0177  151.2829 H   0  0  0  0  0  0  0  0  0  0  0  0  # atno 10718 bound_to 10713
  152.9791  135.5800  154.4639 H   0  0  0  0  0  0  0  0  0  0  0  0  # atno 10763 bound_to 10752
  154.4211  135.2771  155.1976 H   0  0  0  0  0  0  0  0  0  0  0  0  # atno 10764 bound_to 10752
  154.3725  135.6164  153.5801 H   0  0  0  0  0  0  0  0  0  0  0  0  # atno 10765 bound_to 10752
  139.9544  134.7169  156.0786 H   0  0  0  0  0  0  0  0  0  0  0  0  # atno 11005 bound_to 11000
  146.2237  140.5790  142.9005 LP  0  0  0  0  0  0  0  0  0  0  0  0  # atno 17320 bound_to 7965
  144.7791  140.5801  143.6618 LP  0  0  0  0  0  0  0  0  0  0  0  0  # atno 17321 bound_to 7965
  139.7687  143.8526  152.3116 LP  0  0  0  0  0  0  0  0  0  0  0  0  # atno 17342 bound_to 10162
  139.8437  144.7197  150.9299 LP  0  0  0  0  0  0  0  0  0  0  0  0  # atno 17343 bound_to 10162
  157.5387  130.8105  149.8002 LP  0  0  0  0  0  0  0  0  0  0  0  0  # atno 17370 bound_to 10713
  156.0169  130.3810  150.2082 LP  0  0  0  0  0  0  0  0  0  0  0  0  # atno 17371 bound_to 10713
  141.1213  133.6612  156.3223 LP  0  0  0  0  0  0  0  0  0  0  0  0  # atno 17394 bound_to 11000
  140.5643  134.5903  157.5441 LP  0  0  0  0  0  0  0  0  0  0  0  0  # atno 17395 bound_to 11000

$$$$
