AV-unprocessed.smi:1994|AV-procd|sdf|8072|dock7
  -GOLD-   2272010283D 1   1.00000     0.00000
 Structure written by MMmdl.
 39 41  0  0  0  0  0  0  0  0  1 V2000
  149.2016  140.6837  155.6907 C   0  0  0  0  0  0  0  0  0  0  0  0
  150.1028  141.0227  156.8354 C   0  0  0  0  0  0  0  0  0  0  0  0
  150.3507  142.2820  157.1964 N   0  0  0  0  0  0  0  0  0  0  0  0
  151.2184  142.1269  158.2602 C   0  0  0  0  0  0  0  0  0  0  0  0
  151.8495  143.0910  159.0787 C   0  0  0  0  0  0  0  0  0  0  0  0
  152.7106  142.6889  160.1209 C   0  0  0  0  0  0  0  0  0  0  0  0
  152.9510  141.3204  160.3604 C   0  0  0  0  0  0  0  0  0  0  0  0
  152.3305  140.3436  159.5581 C   0  0  0  0  0  0  0  0  0  0  0  0
  151.4734  140.7499  158.5179 C   0  0  0  0  0  0  0  0  0  0  0  0
  150.7223  140.0645  157.5674 N   0  0  0  0  0  0  0  0  0  0  0  0
  150.6372  138.6192  157.4057 C   0  0  0  0  0  0  0  0  0  0  0  0
  150.1836  137.9002  158.6925 C   0  0  2  0  0  0  0  0  0  0  0  0
  150.9734  136.7469  158.9046 O   0  0  0  0  0  0  0  0  0  0  0  0
  148.7099  137.4725  158.6364 C   0  0  0  0  0  0  0  0  0  0  0  0
  148.2631  137.1757  159.9529 O   0  0  0  0  0  0  0  0  0  0  0  0
  148.1036  135.8525  160.3067 C   0  0  0  0  0  0  0  0  0  0  0  0
  148.4435  134.7590  159.4696 C   0  0  0  0  0  0  0  0  0  0  0  0
  148.2500  133.4354  159.9107 C   0  0  0  0  0  0  0  0  0  0  0  0
  147.7155  133.1871  161.1883 C   0  0  0  0  0  0  0  0  0  0  0  0
  147.3749  134.2652  162.0257 C   0  0  0  0  0  0  0  0  0  0  0  0
  147.5691  135.5892  161.5863 C   0  0  0  0  0  0  0  0  0  0  0  0
  147.2373  136.6181  162.4024 F   0  0  0  0  0  0  0  0  0  0  0  0
  148.7799  141.5903  155.2555 H   0  0  0  0  0  0  0  0  0  0  0  0
  148.3799  140.0516  156.0262 H   0  0  0  0  0  0  0  0  0  0  0  0
  149.7586  140.1588  154.9144 H   0  0  0  0  0  0  0  0  0  0  0  0
  151.6715  144.1417  158.9035 H   0  0  0  0  0  0  0  0  0  0  0  0
  153.1890  143.4344  160.7394 H   0  0  0  0  0  0  0  0  0  0  0  0
  153.6122  141.0210  161.1605 H   0  0  0  0  0  0  0  0  0  0  0  0
  152.5104  139.2946  159.7407 H   0  0  0  0  0  0  0  0  0  0  0  0
  149.9535  138.3990  156.5856 H   0  0  0  0  0  0  0  0  0  0  0  0
  151.6126  138.2473  157.0896 H   0  0  0  0  0  0  0  0  0  0  0  0
  150.3281  138.5556  159.5517 H   0  0  0  0  0  0  0  0  0  0  0  0
  151.5748  136.6591  158.1808 H   0  0  0  0  0  0  0  0  0  0  0  0
  148.1066  138.2670  158.1935 H   0  0  0  0  0  0  0  0  0  0  0  0
  148.6108  136.5830  158.0117 H   0  0  0  0  0  0  0  0  0  0  0  0
  148.8564  134.9081  158.4836 H   0  0  0  0  0  0  0  0  0  0  0  0
  148.5131  132.6089  159.2669 H   0  0  0  0  0  0  0  0  0  0  0  0
  147.5672  132.1718  161.5255 H   0  0  0  0  0  0  0  0  0  0  0  0
  146.9644  134.0773  163.0070 H   0  0  0  0  0  0  0  0  0  0  0  0
  1  2  1  0  0  0  0
  1 23  1  0  0  0  0
  1 24  1  0  0  0  0
  1 25  1  0  0  0  0
  2 10  1  0  0  0  0
  2  3  2  0  0  0  0
  3  4  1  0  0  0  0
  4  9  2  0  0  0  0
  4  5  1  0  0  0  0
  5  6  2  0  0  0  0
  5 26  1  0  0  0  0
  6  7  1  0  0  0  0
  6 27  1  0  0  0  0
  7  8  2  0  0  0  0
  7 28  1  0  0  0  0
  8  9  1  0  0  0  0
  8 29  1  0  0  0  0
  9 10  1  0  0  0  0
 10 11  1  0  0  0  0
 11 12  1  0  0  0  0
 11 30  1  0  0  0  0
 11 31  1  0  0  0  0
 12 13  1  0  0  0  0
 12 14  1  0  0  0  0
 12 32  1  0  0  0  0
 13 33  1  0  0  0  0
 14 15  1  0  0  0  0
 14 34  1  0  0  0  0
 14 35  1  0  0  0  0
 15 16  1  0  0  0  0
 16 21  1  0  0  0  0
 16 17  2  0  0  0  0
 17 18  1  0  0  0  0
 17 36  1  0  0  0  0
 18 19  2  0  0  0  0
 18 37  1  0  0  0  0
 19 20  1  0  0  0  0
 19 38  1  0  0  0  0
 20 21  2  0  0  0  0
 20 39  1  0  0  0  0
 21 22  1  0  0  0  0
M  END
> <s_m_source_file>
AV-unprocessed.smi

> <i_m_source_file_index>
1994

> <i_lp_mmshare_version>
43012

> <i_f3d_flags>
0

> <s_epik_input>
W2NIXTFbY0hdW2NIXVtjSF1jKGMxMiluKGMobjIpW0NIM10pW0NIMl1bQ0BIXShbT0hdKVtDSDJdT2MzW2NIXVtjSF1bY0hdW2NIXWMzRg==

> <s_epik_cmdline>
J2VwaWtfcHl0aG9uJywgJy1waCcsICc3LjAnLCAnLXRuJywgJzgnLCAnLW1hJywgJzIwMCcsICctbWV0YWxfYmluZGluZycsICctaW1hZScsICc8aW5maWxlLm1hZT4nLCAnLW9tYWUnLCAnPG91dGZpbGUubWFlPic=

> <r_lp_tautomer_probability>
1

> <r_epik_Ionization_Penalty>
0.112614

> <r_epik_Ionization_Penalty_Charging>
0

> <r_epik_Ionization_Penalty_Neutral>
0.112614

> <r_epik_State_Penalty>
0.10231

> <r_epik_Charging_Adjusted_Penalty>
0.10231

> <i_epik_Tot_Q>
0

> <i_epik_Tot_abs_Q>
0

> <r_epik_Metal_State_Penalty>
0.000111664

> <b_epik_Metal_Only>
0

> <s_lp_Force_Field>
OPLS_2005

> <r_lp_Energy>
14.6988

> <b_lp_Chiralities_Consistent>
1

> <s_lp_Variant>
AV-unprocessed.smi:1994-1

> <Gold.Version>
5.8.1

> <Gold.Id.Protein>
6NUR|6NUR_protein|mol2

> <Gold.PLP.Fitness>
50.7756

> <Gold.PLP.PLP>
-46.8721

> <Gold.PLP.part.hbond>
-3.0000

> <Gold.PLP.part.metal>
0.0000

> <Gold.PLP.part.buried>
-4.4255

> <Gold.PLP.part.nonpolar>
-39.2600

> <Gold.PLP.part.repulsive>
0.0934

> <Gold.PLP.ligand.clash>
0.0000

> <Gold.PLP.ligand.torsion>
1.0865

> <Gold.PLP.Chemscore.Hbond>
2.0163

> <Gold.PLP.Chemscore.CHOScore>
0.0000

> <Gold.PLP.Chemscore.Metal>
0.0000

> <Gold.Chemscore.Hbonds>
donor molecule, donor type, donor heavy atom, donor atom, acceptor molecule, acceptor atom, score
      P1  H  6896  6907       L1    13  0.99
      P1  H  6931  6943       L1    15  0.13
      P1  H  6934  6947       L1    15  0.14

> <Gold.PLP.Chemscore.Internal.Correction>
0.0275

> <Gold.Rescore>
     Score         DG    S(hbond)    S(metal)    S(lipo)     H(rot)  DE(clash)    DE(int)     intcor
     15.42     -16.42       1.19        0.00     107.43       2.19       0.09       0.91       ----

> <Gold.Chemscore.Fitness>
15.4227

> <Gold.Chemscore.DG>
-16.4183

> <Gold.Chemscore.ZeroCoef>
-5.4800

> <Gold.Chemscore.Hbond>
1.1893

> <Gold.Chemscore.Metal>
0.0000

> <Gold.Chemscore.Lipo>
107.4258

> <Gold.Chemscore.Internal_Hbond>
0.0000

> <Gold.Chemscore.DEClash>
0.0854

> <Gold.Chemscore.DEInternal>
0.9102

> <Gold.Chemscore.Rot>
2.1886

> <Gold.Chemscore.Internal.Correction>
   9.000000E+99

> <Gold.Chemscore.Hbonds>
donor molecule, donor type, donor heavy atom, donor atom, acceptor molecule, acceptor atom, score
      P1  H  6896  6907       L1    13  0.42
      P1  H  6931  6943       L1    15  0.07
      P1  H  6934  6947       L1    15  0.11

> <Gold.Chemscore.Hbond.Weighted>
-3.9723

> <Gold.Chemscore.Metal.Weighted>
-0.0000

> <Gold.Chemscore.Lipo.Weighted>
-12.5688

> <Gold.Chemscore.Internal_Hbond.Weighted>
0.0000

> <Gold.Chemscore.DEClash.Weighted>
0.0854

> <Gold.Chemscore.DEInternal.Weighted>
0.9102

> <Gold.Chemscore.Rot.Weighted>
5.6028

> <Gold.Chemscore.Internal.Correction.Weighted>
   9.000000E+99

> <Gold.Protein.RotatedTorsions>
[ 6907 6896 6895 6894 ] final  -31.48 input  -60.11 | X-H torsion
[ 7974 7965 7964 7962 ] final  -13.55 input  175.53 | X-H torsion
[ 8008 7997 7996 7995 ] final  -39.84 input   59.86 | X-H torsion
[ 10167 10162 10161 10158 ] final  -74.00 input  -65.29 | X-H torsion
[ 10718 10713 10712 10709 ] final -106.83 input   66.30 | X-H torsion
[ 10763 10752 10751 10750 ] final   47.56 input  -60.55 | X-H torsion
[ 11005 11000 10999 10996 ] final   65.85 input  -57.11 | X-H torsion

> <Gold.Protein.ActiveResidues>
 VAL166  LYS551  ARG553  GLY616  TRP617  ASP618  TYR619  PRO620  LYS621  CYS622 
 ASP623  PHE694  ASN695  SER759  ASP760  ASP761  ALA762  ILE779  LEU786  VAL792 
 PHE793  MET794  SER795  GLU796  ALA797  LYS798  CYS799  TRP800  GLU811  SER814 

> <Gold.Protein.RotatedAtoms>
  151.0915  134.9919  159.8404 H   0  0  0  0  0  0  0  0  0  0  0  0  # atno 6907 bound_to 6896
  152.5429  134.2059  159.8741 H   0  0  0  0  0  0  0  0  0  0  0  0  # atno 6908 bound_to 6896
  151.2096  133.4520  159.2631 H   0  0  0  0  0  0  0  0  0  0  0  0  # atno 6909 bound_to 6896
  146.2110  140.3219  142.8391 H   0  0  0  0  0  0  0  0  0  0  0  0  # atno 7974 bound_to 7965
  154.4018  140.1541  156.2929 H   0  0  0  0  0  0  0  0  0  0  0  0  # atno 8008 bound_to 7997
  155.8770  140.3446  155.5839 H   0  0  0  0  0  0  0  0  0  0  0  0  # atno 8009 bound_to 7997
  155.7711  140.0830  157.2098 H   0  0  0  0  0  0  0  0  0  0  0  0  # atno 8010 bound_to 7997
  140.5063  143.2352  151.7668 H   0  0  0  0  0  0  0  0  0  0  0  0  # atno 10167 bound_to 10162
  156.0408  130.5632  150.7736 H   0  0  0  0  0  0  0  0  0  0  0  0  # atno 10718 bound_to 10713
  152.9799  135.5972  154.3783 H   0  0  0  0  0  0  0  0  0  0  0  0  # atno 10763 bound_to 10752
  154.3450  135.2767  155.2404 H   0  0  0  0  0  0  0  0  0  0  0  0  # atno 10764 bound_to 10752
  154.4469  135.5999  153.6221 H   0  0  0  0  0  0  0  0  0  0  0  0  # atno 10765 bound_to 10752
  139.9868  134.6654  156.0161 H   0  0  0  0  0  0  0  0  0  0  0  0  # atno 11005 bound_to 11000
  144.8913  140.7528  143.5924 LP  0  0  0  0  0  0  0  0  0  0  0  0  # atno 17320 bound_to 7965
  145.3142  139.1809  143.4622 LP  0  0  0  0  0  0  0  0  0  0  0  0  # atno 17321 bound_to 7965
  139.4884  144.4452  151.9718 LP  0  0  0  0  0  0  0  0  0  0  0  0  # atno 17342 bound_to 10162
  140.3543  144.3051  150.5944 LP  0  0  0  0  0  0  0  0  0  0  0  0  # atno 17343 bound_to 10162
  157.5223  131.0932  151.0063 LP  0  0  0  0  0  0  0  0  0  0  0  0  # atno 17370 bound_to 10713
  157.0390  130.5741  149.5353 LP  0  0  0  0  0  0  0  0  0  0  0  0  # atno 17371 bound_to 10713
  141.1532  133.6546  156.4078 LP  0  0  0  0  0  0  0  0  0  0  0  0  # atno 17394 bound_to 11000
  140.4986  134.6508  157.5239 LP  0  0  0  0  0  0  0  0  0  0  0  0  # atno 17395 bound_to 11000

$$$$
