AV-unprocessed.smi:2845|AV-procd|sdf|10948|dock2
  -GOLD-   2272015403D 1   1.00000     0.00000
 Structure written by MMmdl.
 43 45  0  0  0  0  0  0  0  0  2 V2000
  152.7084  143.6755  161.3997 C   0  0  0  0  0  0  0  0  0  0  0  0
  152.4545  142.9187  160.1071 C   0  0  0  0  0  0  0  0  0  0  0  0
  151.5556  143.4716  159.1664 C   0  0  0  0  0  0  0  0  0  0  0  0
  151.3459  142.7566  157.9931 C   0  0  0  0  0  0  0  0  0  0  0  0
  150.5365  143.0263  156.8867 N   0  3  0  0  0  0  0  0  0  0  0  0
  150.6657  142.0240  155.9729 C   0  0  0  0  0  0  0  0  0  0  0  0
  151.5432  141.1176  156.4824 N   0  0  0  0  0  0  0  0  0  0  0  0
  152.0441  139.8587  155.9181 C   0  0  0  0  0  0  0  0  0  0  0  0
  150.9096  138.9561  155.3867 C   0  0  1  0  0  0  0  0  0  0  0  0
  150.4727  139.4408  154.1334 O   0  0  0  0  0  0  0  0  0  0  0  0
  151.3180  137.4761  155.2343 C   0  0  0  0  0  0  0  0  0  0  0  0
  152.1930  137.0147  156.2992 N   0  0  0  0  0  0  0  0  0  0  0  0
  151.9215  136.6894  157.5670 C   0  0  0  0  0  0  0  0  0  0  0  0
  152.9837  136.3100  158.2666 N   0  0  0  0  0  0  0  0  0  0  0  0
  153.9364  136.4516  157.3001 C   0  0  0  0  0  0  0  0  0  0  0  0
  155.6801  136.0300  157.6057 S   0  0  1  0  0  0  0  0  0  0  0  0
  155.3189  134.4354  158.4804 C   0  0  0  0  0  0  0  0  0  0  0  0
  156.2698  135.6616  156.2425 O   0  0  0  0  0  0  0  0  0  0  0  0
  153.5287  136.8892  156.1116 N   0  0  0  0  0  0  0  0  0  0  0  0
  151.9945  141.5330  157.7395 C   0  0  0  0  0  0  0  0  0  0  0  0
  152.8818  140.9733  158.6556 C   0  0  0  0  0  0  0  0  0  0  0  0
  153.1083  141.6846  159.8549 C   0  0  0  0  0  0  0  0  0  0  0  0
  154.0703  141.0976  160.8736 C   0  0  0  0  0  0  0  0  0  0  0  0
  152.1243  144.5953  161.4456 H   0  0  0  0  0  0  0  0  0  0  0  0
  153.7614  143.9450  161.4843 H   0  0  0  0  0  0  0  0  0  0  0  0
  152.4364  143.0653  162.2614 H   0  0  0  0  0  0  0  0  0  0  0  0
  151.0542  144.4103  159.3522 H   0  0  0  0  0  0  0  0  0  0  0  0
  150.1631  141.9599  155.0184 H   0  0  0  0  0  0  0  0  0  0  0  0
  152.7420  140.1055  155.1167 H   0  0  0  0  0  0  0  0  0  0  0  0
  152.6301  139.3591  156.6902 H   0  0  0  0  0  0  0  0  0  0  0  0
  150.0558  139.0123  156.0632 H   0  0  0  0  0  0  0  0  0  0  0  0
  149.7914  138.8700  153.8128 H   0  0  0  0  0  0  0  0  0  0  0  0
  150.4337  136.8376  155.2231 H   0  0  0  0  0  0  0  0  0  0  0  0
  151.8290  137.3242  154.2823 H   0  0  0  0  0  0  0  0  0  0  0  0
  150.9256  136.7212  157.9840 H   0  0  0  0  0  0  0  0  0  0  0  0
  154.5659  134.5835  159.2548 H   0  0  0  0  0  0  0  0  0  0  0  0
  156.2248  134.0515  158.9489 H   0  0  0  0  0  0  0  0  0  0  0  0
  154.9504  133.6901  157.7758 H   0  0  0  0  0  0  0  0  0  0  0  0
  153.3780  140.0335  158.4650 H   0  0  0  0  0  0  0  0  0  0  0  0
  154.4854  140.1503  160.5299 H   0  0  0  0  0  0  0  0  0  0  0  0
  153.5611  140.9122  161.8196 H   0  0  0  0  0  0  0  0  0  0  0  0
  154.9018  141.7792  161.0535 H   0  0  0  0  0  0  0  0  0  0  0  0
  149.9407  143.8347  156.7610 H   0  0  0  0  0  0  0  0  0  0  0  0
  1  2  1  0  0  0  0
  1 24  1  0  0  0  0
  1 25  1  0  0  0  0
  1 26  1  0  0  0  0
  2 22  1  0  0  0  0
  2  3  2  0  0  0  0
  3  4  1  0  0  0  0
  3 27  1  0  0  0  0
  4 20  2  0  0  0  0
  4  5  1  0  0  0  0
  5  6  2  0  0  0  0
  5 43  1  0  0  0  0
  6  7  1  0  0  0  0
  6 28  1  0  0  0  0
  7  8  1  0  0  0  0
  7 20  1  0  0  0  0
  8  9  1  0  0  0  0
  8 29  1  0  0  0  0
  8 30  1  0  0  0  0
  9 10  1  0  0  0  0
  9 11  1  0  0  0  0
  9 31  1  0  0  0  0
 10 32  1  0  0  0  0
 11 12  1  0  0  0  0
 11 33  1  0  0  0  0
 11 34  1  0  0  0  0
 12 19  1  0  0  0  0
 12 13  1  0  0  0  0
 13 14  2  0  0  0  0
 13 35  1  0  0  0  0
 14 15  1  0  0  0  0
 15 16  1  0  0  0  0
 15 19  2  0  0  0  0
 16 17  1  0  0  0  0
 16 18  2  0  0  0  0
 17 36  1  0  0  0  0
 17 37  1  0  0  0  0
 17 38  1  0  0  0  0
 20 21  1  0  0  0  0
 21 22  2  0  0  0  0
 21 39  1  0  0  0  0
 22 23  1  0  0  0  0
 23 40  1  0  0  0  0
 23 41  1  0  0  0  0
 23 42  1  0  0  0  0
M  CHG  1   5   1
M  END
> <s_m_source_file>
AV-unprocessed.smi

> <i_m_source_file_index>
2845

> <i_lp_mmshare_version>
43012

> <i_f3d_flags>
0

> <s_epik_input>
W0NIM11jKFtjSF0xKWMoW0NIM10pW2NIXWMoYzEyKW4oW2NIXW4yKVtDSDJdW0NASF0oW09IXSlbQ0gyXW4zW2NIXW5jKG4zKVtTQF0oPU8pW0NIM10=

> <s_epik_cmdline>
J2VwaWtfcHl0aG9uJywgJy1waCcsICc3LjAnLCAnLXRuJywgJzgnLCAnLW1hJywgJzIwMCcsICctbWV0YWxfYmluZGluZycsICctaW1hZScsICc8aW5maWxlLm1hZT4nLCAnLW9tYWUnLCAnPG91dGZpbGUubWFlPic=

> <r_lp_tautomer_probability>
1

> <r_epik_Ionization_Penalty>
1.12076

> <r_epik_Ionization_Penalty_Charging>
1.12075

> <r_epik_Ionization_Penalty_Neutral>
1.54566e-06

> <r_epik_State_Penalty>
1.17957

> <r_epik_Charging_Adjusted_Penalty>
2.30033

> <i_epik_Tot_Q>
1

> <i_epik_Tot_abs_Q>
1

> <r_epik_Metal_State_Penalty>
1.26402

> <b_epik_Metal_Only>
0

> <s_lp_Force_Field>
OPLS_2005

> <r_lp_Energy>
13.65

> <b_lp_Chiralities_Consistent>
1

> <s_lp_Variant>
AV-unprocessed.smi:2845-6

> <Gold.Version>
5.8.1

> <Gold.Id.Protein>
6NUR|6NUR_protein|mol2

> <Gold.PLP.Fitness>
54.4772

> <Gold.PLP.PLP>
-41.8947

> <Gold.PLP.part.hbond>
-5.4582

> <Gold.PLP.part.metal>
0.0000

> <Gold.PLP.part.buried>
-4.9727

> <Gold.PLP.part.nonpolar>
-31.1990

> <Gold.PLP.part.repulsive>
0.0296

> <Gold.PLP.ligand.clash>
0.0000

> <Gold.PLP.ligand.torsion>
1.2325

> <Gold.PLP.Chemscore.Hbond>
4.6723

> <Gold.PLP.Chemscore.CHOScore>
0.0000

> <Gold.PLP.Chemscore.Metal>
0.0000

> <Gold.Chemscore.Hbonds>
donor molecule, donor type, donor heavy atom, donor atom, acceptor molecule, acceptor atom, score
      L1  H     5    43       P1  8028  1.89
      P1  H  6896  6907       L1    14  0.10
      P1  H  7989  7998       L1    10  1.00
      P1  H 10752 10763       L1    18  0.98
      P1  H 10752 10765       L1    19  0.14

> <Gold.PLP.Chemscore.Internal.Correction>
1.0306

> <Gold.Rescore>
     Score         DG    S(hbond)    S(metal)    S(lipo)     H(rot)  DE(clash)    DE(int)     intcor
     19.22     -20.53       3.13        0.00      99.82       2.77       0.03       1.27       ----

> <Gold.Chemscore.Fitness>
19.2217

> <Gold.Chemscore.DG>
-20.5268

> <Gold.Chemscore.ZeroCoef>
-5.4800

> <Gold.Chemscore.Hbond>
3.1301

> <Gold.Chemscore.Metal>
0.0000

> <Gold.Chemscore.Lipo>
99.8174

> <Gold.Chemscore.Internal_Hbond>
0.0000

> <Gold.Chemscore.DEClash>
0.0303

> <Gold.Chemscore.DEInternal>
1.2748

> <Gold.Chemscore.Rot>
2.7681

> <Gold.Chemscore.Internal.Correction>
   9.000000E+99

> <Gold.Chemscore.Hbonds>
donor molecule, donor type, donor heavy atom, donor atom, acceptor molecule, acceptor atom, score
      L1  H     5    43       P1  8028  0.91
      P1  H  6896  6907       L1    14  0.04
      P1  H  7989  7998       L1    10  0.81
      P1  H 10752 10763       L1    18  0.78

> <Gold.Chemscore.Hbond.Weighted>
-10.4545

> <Gold.Chemscore.Metal.Weighted>
-0.0000

> <Gold.Chemscore.Lipo.Weighted>
-11.6786

> <Gold.Chemscore.Internal_Hbond.Weighted>
0.0000

> <Gold.Chemscore.DEClash.Weighted>
0.0303

> <Gold.Chemscore.DEInternal.Weighted>
1.2748

> <Gold.Chemscore.Rot.Weighted>
7.0863

> <Gold.Chemscore.Internal.Correction.Weighted>
   9.000000E+99

> <Gold.Protein.RotatedTorsions>
[ 6907 6896 6895 6894 ] final   28.36 input  -60.11 | X-H torsion
[ 7974 7965 7964 7962 ] final  119.04 input  175.53 | X-H torsion
[ 8008 7997 7996 7995 ] final  172.97 input   59.86 | X-H torsion
[ 10167 10162 10161 10158 ] final -119.46 input  -65.29 | X-H torsion
[ 10718 10713 10712 10709 ] final    7.05 input   66.30 | X-H torsion
[ 10763 10752 10751 10750 ] final -153.31 input  -60.55 | X-H torsion
[ 11005 11000 10999 10996 ] final    3.82 input  -57.11 | X-H torsion

> <Gold.Protein.ActiveResidues>
 VAL166  LYS551  ARG553  GLY616  TRP617  ASP618  TYR619  PRO620  LYS621  CYS622 
 ASP623  PHE694  ASN695  SER759  ASP760  ASP761  ALA762  ILE779  LEU786  VAL792 
 PHE793  MET794  SER795  GLU796  ALA797  LYS798  CYS799  TRP800  GLU811  SER814 

> <Gold.Protein.RotatedAtoms>
  152.0158  134.9851  160.0569 H   0  0  0  0  0  0  0  0  0  0  0  0  # atno 6907 bound_to 6896
  152.1385  133.4445  159.4763 H   0  0  0  0  0  0  0  0  0  0  0  0  # atno 6908 bound_to 6896
  150.6863  134.2252  159.4456 H   0  0  0  0  0  0  0  0  0  0  0  0  # atno 6909 bound_to 6896
  145.1479  139.3228  143.4582 H   0  0  0  0  0  0  0  0  0  0  0  0  # atno 7974 bound_to 7965
  156.1122  140.1472  156.9323 H   0  0  0  0  0  0  0  0  0  0  0  0  # atno 8008 bound_to 7997
  154.4775  140.0890  156.7340 H   0  0  0  0  0  0  0  0  0  0  0  0  # atno 8009 bound_to 7997
  155.4577  140.3437  155.4311 H   0  0  0  0  0  0  0  0  0  0  0  0  # atno 8010 bound_to 7997
  140.0464  143.5103  152.2104 H   0  0  0  0  0  0  0  0  0  0  0  0  # atno 10167 bound_to 10162
  156.9311  130.5826  149.5649 H   0  0  0  0  0  0  0  0  0  0  0  0  # atno 10718 bound_to 10713
  154.7936  135.3216  154.7719 H   0  0  0  0  0  0  0  0  0  0  0  0  # atno 10763 bound_to 10752
  153.8402  135.6871  153.4808 H   0  0  0  0  0  0  0  0  0  0  0  0  # atno 10764 bound_to 10752
  153.1617  135.4658  154.9723 H   0  0  0  0  0  0  0  0  0  0  0  0  # atno 10765 bound_to 10752
  140.5888  133.9944  155.8079 H   0  0  0  0  0  0  0  0  0  0  0  0  # atno 11005 bound_to 11000
  146.3498  140.1542  142.8592 LP  0  0  0  0  0  0  0  0  0  0  0  0  # atno 17320 bound_to 7965
  145.0462  140.8983  143.5023 LP  0  0  0  0  0  0  0  0  0  0  0  0  # atno 17321 bound_to 7965
  139.5981  144.7573  151.3238 LP  0  0  0  0  0  0  0  0  0  0  0  0  # atno 17342 bound_to 10162
  140.7237  143.7065  150.7803 LP  0  0  0  0  0  0  0  0  0  0  0  0  # atno 17343 bound_to 10162
  156.0446  130.5525  150.8852 LP  0  0  0  0  0  0  0  0  0  0  0  0  # atno 17370 bound_to 10713
  157.5846  131.0946  150.9217 LP  0  0  0  0  0  0  0  0  0  0  0  0  # atno 17371 bound_to 10713
  141.0948  133.9860  157.3177 LP  0  0  0  0  0  0  0  0  0  0  0  0  # atno 17394 bound_to 11000
  139.9283  135.0201  156.8313 LP  0  0  0  0  0  0  0  0  0  0  0  0  # atno 17395 bound_to 11000

$$$$
