#       Name:                AV-unprocessed.smi:1047
#       Creating user name   scv26
#       Creation time:       Fri Mar 27 03:05:48 2020


#       File generated by GOLD software.
#

@<TRIPOS>MOLECULE
AV-unprocessed.smi:1047
    62    64     1
SMALL
NO_CHARGES


@<TRIPOS>ATOM
      1 ****        -6.2393   4.0165  -2.1673 C.3            1 S1                 0.0000
      2 ****        -5.0680   4.4443  -1.2713 C.3            1 S1                 0.0000
      3 ****        -5.0515   3.7212   0.0283 N.4            1 S1                 1.0000
      4 ****        -4.2648   4.4110   1.0794 C.3            1 S1                 0.0000
      5 ****        -2.7550   4.1868   0.8815 C.3            1 S1                 0.0000
      6 ****        -2.4820   2.7905   0.8604 O.3            1 S1                 0.0000
      7 ****        -3.1317   2.1209  -0.2159 C.3            1 S1                 0.0000
      8 ****        -2.7182   0.6416  -0.1741 C.3            1 S1                 0.0000
      9 ****        -1.2837   0.4723  -0.4823 N.4            1 S1                 1.0000
     10 ****        -0.8211  -0.9298  -0.4395 C.3            1 S1                 0.0000
     11 ****         0.6787  -1.0378  -0.7624 C.3            1 S1                 0.0000
     12 ****         1.4110  -0.4215   0.2786 O.3            1 S1                 0.0000
     13 ****         1.1262  -2.5053  -0.9117 C.3            1 S1                 0.0000
     14 ****         2.5521  -2.6410  -1.2450 N.pl3          1 S1                 0.0000
     15 ****         3.1684  -2.5852  -2.4574 C.2            1 S1                 0.0000
     16 ****         4.4996  -2.7845  -2.2521 N.pl3          1 S1                 1.0000
     17 ****         4.7381  -2.9730  -0.8895 C.ar           1 S1                 0.0000
     18 ****         5.9197  -3.2116  -0.1982 C.ar           1 S1                 0.0000
     19 ****         5.8281  -3.3592   1.2041 C.ar           1 S1                 0.0000
     20 ****         7.1014  -3.6235   1.9898 C.3            1 S1                 0.0000
     21 ****         4.5778  -3.2633   1.8679 C.ar           1 S1                 0.0000
     22 ****         4.4920  -3.4205   3.3766 C.3            1 S1                 0.0000
     23 ****         3.3868  -3.0212   1.1463 C.ar           1 S1                 0.0000
     24 ****         3.4935  -2.8809  -0.2358 C.ar           1 S1                 0.0000
     25 ****        -4.6595   2.2902  -0.0552 C.3            1 S1                 0.0000
     26 ****        -6.2828   4.6375  -3.0623 H              1 S1                 0.0000
     27 ****        -7.1923   4.1220  -1.6480 H              1 S1                 0.0000
     28 ****        -6.1479   2.9827  -2.4989 H              1 S1                 0.0000
     29 ****        -4.1219   4.3246  -1.7987 H              1 S1                 0.0000
     30 ****        -5.1754   5.5125  -1.0790 H              1 S1                 0.0000
     31 ****        -4.5002   5.4756   1.1040 H              1 S1                 0.0000
     32 ****        -4.5637   4.0105   2.0490 H              1 S1                 0.0000
     33 ****        -2.3997   4.6569  -0.0365 H              1 S1                 0.0000
     34 ****        -2.2000   4.6399   1.7031 H              1 S1                 0.0000
     35 ****        -2.8051   2.5495  -1.1648 H              1 S1                 0.0000
     36 ****        -2.9365   0.2163   0.8065 H              1 S1                 0.0000
     37 ****        -3.2977   0.0765  -0.9054 H              1 S1                 0.0000
     38 ****        -1.1000   0.8440  -1.4032 H              1 S1                 0.0000
     39 ****        -1.0313  -1.3588   0.5417 H              1 S1                 0.0000
     40 ****        -1.3962  -1.5035  -1.1676 H              1 S1                 0.0000
     41 ****         0.8908  -0.5065  -1.6914 H              1 S1                 0.0000
     42 ****         2.3324  -0.4843   0.0761 H              1 S1                 0.0000
     43 ****         0.9087  -3.0809  -0.0116 H              1 S1                 0.0000
     44 ****         0.5661  -2.9818  -1.7173 H              1 S1                 0.0000
     45 ****         2.6889  -2.4179  -3.4113 H              1 S1                 0.0000
     46 ****         6.8686  -3.2823  -0.7100 H              1 S1                 0.0000
     47 ****         7.0298  -4.5690   2.5282 H              1 S1                 0.0000
     48 ****         7.2795  -2.8258   2.7114 H              1 S1                 0.0000
     49 ****         7.9708  -3.6795   1.3340 H              1 S1                 0.0000
     50 ****         3.4687  -3.2997   3.7333 H              1 S1                 0.0000
     51 ****         5.1084  -2.6726   3.8761 H              1 S1                 0.0000
     52 ****         4.8352  -4.4102   3.6783 H              1 S1                 0.0000
     53 ****         2.4373  -2.9465   1.6554 H              1 S1                 0.0000
     54 ****        -4.9801   1.8034   0.8671 H              1 S1                 0.0000
     55 ****        -5.1917   1.7848  -0.8602 H              1 S1                 0.0000
     56 ****        -0.7460   0.9996   0.1916 H              1 S1                 0.0000
     57 ****        -6.0099   3.7387   0.3480 H              1 S1                 0.0000
     58 ****         5.1920  -2.7952  -2.9904 H              1 S1                 0.0000
     59 ****        -2.7944   2.3902   1.7218 LP             1 S1                 0.0000
     60 ****        -1.4948   2.6587   0.7702 LP             1 S1                 0.0000
     61 ****         1.2235  -0.8865   1.1438 LP             1 S1                 0.0000
     62 ****         1.1470   0.5402   0.3530 LP             1 S1                 0.0000
@<TRIPOS>BOND
    1    1    2 1     
    2    1   26 1     
    3    1   27 1     
    4    1   28 1     
    5    2    3 1     
    6    2   29 1     
    7    2   30 1     
    8    3   25 1     
    9    3    4 1     
   10    3   57 1     
   11    4    5 1     
   12    4   31 1     
   13    4   32 1     
   14    5    6 1     
   15    5   33 1     
   16    5   34 1     
   17    6    7 1     
   18    7    8 1     
   19    7   25 1     
   20    7   35 1     
   21    8    9 1     
   22    8   36 1     
   23    8   37 1     
   24    9   10 1     
   25    9   38 1     
   26    9   56 1     
   27   10   11 1     
   28   10   39 1     
   29   10   40 1     
   30   11   12 1     
   31   11   13 1     
   32   11   41 1     
   33   12   42 1     
   34   13   14 1     
   35   13   43 1     
   36   13   44 1     
   37   14   24 1     
   38   14   15 1     
   39   15   16 2     
   40   15   45 1     
   41   16   17 1     
   42   16   58 1     
   43   17   24 ar    
   44   17   18 ar    
   45   18   19 ar    
   46   18   46 1     
   47   19   20 1     
   48   19   21 ar    
   49   20   47 1     
   50   20   48 1     
   51   20   49 1     
   52   21   22 1     
   53   21   23 ar    
   54   22   50 1     
   55   22   51 1     
   56   22   52 1     
   57   23   24 ar    
   58   23   53 1     
   59   25   54 1     
   60   25   55 1     
   61    6   59 1     
   62    6   60 1     
   63   12   61 1     
   64   12   62 1     
@<TRIPOS>SUBSTRUCTURE
      1 S1             1
@<TRIPOS>SET
LONE_PAIRS      STATIC     ATOMS    <user>   **** ""
4 59 60 61 62
DONOR_HYDROGENS      STATIC     ATOMS    <user>   **** ""
5 57 38 56 42 58
ATOM$BLUE        STATIC     ATOMS    COLORGROUP SYSTEM
4 59 60 61 62
ATOM$RED        STATIC     ATOMS    COLORGROUP SYSTEM
5 57 38 56 42 58
