#       Name:                AV-unprocessed.smi:1410
#       Creating user name   scv26
#       Creation time:       Fri Mar 27 05:37:10 2020


#       File generated by GOLD software.
#

@<TRIPOS>MOLECULE
AV-unprocessed.smi:1410
    45    46     1
SMALL
NO_CHARGES


@<TRIPOS>ATOM
      1 ****        -5.9189   3.1702   0.3089 N.pl3          1 S1                -1.0000
      2 ****        -5.2112   2.5455   1.2694 C.2            1 S1                 0.0000
      3 ****        -4.8629   2.9903   2.3612 O.2            1 S1                 0.0000
      4 ****        -4.8084   1.1223   0.8683 C.3            1 S1                 0.0000
      5 ****        -3.3312   1.0164   0.7697 N.4            1 S1                 1.0000
      6 ****        -2.7852   1.6016  -0.4845 C.3            1 S1                 0.0000
      7 ****        -1.2480   1.5914  -0.4769 C.3            1 S1                 0.0000
      8 ****        -0.7045   0.1692  -0.2689 C.3            1 S1                 0.0000
      9 ****         0.7531   0.2032  -0.1892 N.am           1 S1                 0.0000
     10 ****         1.5665  -0.8203  -0.4868 C.2            1 S1                 0.0000
     11 ****         1.1623  -1.9273  -0.8418 O.2            1 S1                 0.0000
     12 ****         2.8573  -0.4803  -0.3264 N.am           1 S1                 0.0000
     13 ****         4.0157  -1.2662  -0.5748 C.ar           1 S1                 0.0000
     14 ****         5.2111  -0.8959   0.0804 C.ar           1 S1                 0.0000
     15 ****         6.3886  -1.6364  -0.1500 C.ar           1 S1                 0.0000
     16 ****         6.3681  -2.6848  -1.0006 N.pl3          1 S1                 1.0000
     17 ****         5.2543  -3.0671  -1.6612 C.ar           1 S1                 0.0000
     18 ****         4.0466  -2.3650  -1.4711 C.ar           1 S1                 0.0000
     19 ****        -1.3127  -0.4318   1.0113 C.3            1 S1                 0.0000
     20 ****        -2.8495  -0.3729   0.9776 C.3            1 S1                 0.0000
     21 ****        -6.2379   4.1319   0.4781 H              1 S1                 0.0000
     22 ****        -5.1786   0.4582   1.6505 H              1 S1                 0.0000
     23 ****        -5.2775   0.7955  -0.0625 H              1 S1                 0.0000
     24 ****        -3.1605   1.0409  -1.3421 H              1 S1                 0.0000
     25 ****        -3.1309   2.6283  -0.6056 H              1 S1                 0.0000
     26 ****        -0.8736   2.0025  -1.4152 H              1 S1                 0.0000
     27 ****        -0.8868   2.2492   0.3154 H              1 S1                 0.0000
     28 ****        -1.0036  -0.4388  -1.1250 H              1 S1                 0.0000
     29 ****         1.1709   1.0752   0.1012 H              1 S1                 0.0000
     30 ****         3.0304   0.4353   0.0621 H              1 S1                 0.0000
     31 ****         5.2293  -0.0556   0.7595 H              1 S1                 0.0000
     32 ****         7.3392  -1.4217   0.3159 H              1 S1                 0.0000
     33 ****         5.3627  -3.9137  -2.3234 H              1 S1                 0.0000
     34 ****         3.1738  -2.6746  -2.0256 H              1 S1                 0.0000
     35 ****        -0.9898  -1.4664   1.1335 H              1 S1                 0.0000
     36 ****        -0.9496   0.1107   1.8858 H              1 S1                 0.0000
     37 ****        -3.2420  -0.7626   1.9176 H              1 S1                 0.0000
     38 ****        -3.2339  -1.0141   0.1827 H              1 S1                 0.0000
     39 ****        -2.9658   1.5646   1.5356 H              1 S1                 0.0000
     40 ****         7.2313  -3.2068  -1.1548 H              1 S1                 0.0000
     41 ****        -6.1296   2.7071  -0.5519 LP             1 S1                 0.0000
     42 ****        -5.1069   3.9245   2.6215 LP             1 S1                 0.0000
     43 ****        -4.3355   2.4179   2.9891 LP             1 S1                 0.0000
     44 ****         0.1804  -2.0994  -0.9207 LP             1 S1                 0.0000
     45 ****         1.8159  -2.6546  -1.0513 LP             1 S1                 0.0000
@<TRIPOS>BOND
    1    1    2 1     
    2    1   21 1     
    3    2    3 2     
    4    2    4 1     
    5    4    5 1     
    6    4   22 1     
    7    4   23 1     
    8    5   20 1     
    9    5    6 1     
   10    5   39 1     
   11    6    7 1     
   12    6   24 1     
   13    6   25 1     
   14    7    8 1     
   15    7   26 1     
   16    7   27 1     
   17    8    9 1     
   18    8   19 1     
   19    8   28 1     
   20    9   10 am    
   21    9   29 1     
   22   10   11 2     
   23   10   12 am    
   24   12   13 1     
   25   12   30 1     
   26   13   18 ar    
   27   13   14 ar    
   28   14   15 ar    
   29   14   31 1     
   30   15   16 ar    
   31   15   32 1     
   32   16   17 ar    
   33   16   40 1     
   34   17   18 ar    
   35   17   33 1     
   36   18   34 1     
   37   19   20 1     
   38   19   35 1     
   39   19   36 1     
   40   20   37 1     
   41   20   38 1     
   42    1   41 1     
   43    3   42 1     
   44    3   43 1     
   45   11   44 1     
   46   11   45 1     
@<TRIPOS>SUBSTRUCTURE
      1 S1             1
@<TRIPOS>SET
LONE_PAIRS      STATIC     ATOMS    <user>   **** ""
5 41 42 43 44 45
DONOR_HYDROGENS      STATIC     ATOMS    <user>   **** ""
5 21 39 29 30 40
ATOM$BLUE        STATIC     ATOMS    COLORGROUP SYSTEM
5 41 42 43 44 45
ATOM$RED        STATIC     ATOMS    COLORGROUP SYSTEM
5 21 39 29 30 40
