#       Name:                AV-unprocessed.smi:1048
#       Creating user name   scv26
#       Creation time:       Fri Mar 27 03:10:08 2020


#       File generated by GOLD software.
#

@<TRIPOS>MOLECULE
AV-unprocessed.smi:1048
    51    52     1
SMALL
NO_CHARGES


@<TRIPOS>ATOM
      1 ****        -4.4864   4.4377  -1.4403 C.3            1 S1                 0.0000
      2 ****        -4.0169   2.9810  -1.5612 C.3            1 S1                 0.0000
      3 ****        -4.4002   2.1543  -0.3220 C.3            1 S1                 0.0000
      4 ****        -3.8931   0.7069  -0.4354 C.3            1 S1                 0.0000
      5 ****        -2.4234   0.6714  -0.6449 N.4            1 S1                 1.0000
      6 ****        -1.8761  -0.7095  -0.6056 C.3            1 S1                 0.0000
      7 ****        -0.4000  -0.7424  -0.1595 C.3            1 S1                 0.0000
      8 ****        -0.3556  -0.2827   1.1778 O.3            1 S1                 0.0000
      9 ****         0.1786  -2.1708  -0.2113 C.3            1 S1                 0.0000
     10 ****         1.6378  -2.1665  -0.1952 N.am           1 S1                 0.0000
     11 ****         2.3946  -2.2325   0.9091 C.2            1 S1                 0.0000
     12 ****         1.9284  -2.3111   2.0454 O.2            1 S1                 0.0000
     13 ****         3.7026  -2.1812   0.6041 N.am           1 S1                 0.0000
     14 ****         4.8201  -2.2152   1.4818 C.ar           1 S1                 0.0000
     15 ****         6.0568  -1.7456   0.9936 C.ar           1 S1                 0.0000
     16 ****         7.1858  -1.7818   1.8336 C.ar           1 S1                 0.0000
     17 ****         7.0352  -2.2978   3.1350 C.ar           1 S1                 0.0000
     18 ****         5.8635  -2.7651   3.6144 N.ar           1 S1                 0.0000
     19 ****         4.7841  -2.7257   2.8036 C.ar           1 S1                 0.0000
     20 ****        -2.0293   1.4275  -1.8632 C.3            1 S1                 0.0000
     21 ****        -2.4973   2.8903  -1.7822 C.3            1 S1                 0.0000
     22 ****        -4.0258   4.9339  -0.5855 H              1 S1                 0.0000
     23 ****        -5.5679   4.4930  -1.3128 H              1 S1                 0.0000
     24 ****        -4.2302   5.0084  -2.3335 H              1 S1                 0.0000
     25 ****        -4.5134   2.5433  -2.4287 H              1 S1                 0.0000
     26 ****        -3.9831   2.6153   0.5746 H              1 S1                 0.0000
     27 ****        -5.4831   2.1541  -0.1930 H              1 S1                 0.0000
     28 ****        -4.1490   0.1687   0.4781 H              1 S1                 0.0000
     29 ****        -4.3925   0.1929  -1.2583 H              1 S1                 0.0000
     30 ****        -2.4598  -1.3226   0.0832 H              1 S1                 0.0000
     31 ****        -1.9937  -1.1682  -1.5887 H              1 S1                 0.0000
     32 ****         0.2009  -0.0834  -0.7859 H              1 S1                 0.0000
     33 ****        -0.7353  -0.9417   1.7396 H              1 S1                 0.0000
     34 ****        -0.2319  -2.8000   0.5808 H              1 S1                 0.0000
     35 ****        -0.1098  -2.6442  -1.1504 H              1 S1                 0.0000
     36 ****         2.1047  -2.1033  -1.0881 H              1 S1                 0.0000
     37 ****         3.9248  -2.0450  -0.3710 H              1 S1                 0.0000
     38 ****         6.1415  -1.3572  -0.0110 H              1 S1                 0.0000
     39 ****         8.1442  -1.4234   1.4884 H              1 S1                 0.0000
     40 ****         7.8796  -2.3421   3.8068 H              1 S1                 0.0000
     41 ****         3.8854  -3.1368   3.2350 H              1 S1                 0.0000
     42 ****        -0.9475   1.4099  -1.9892 H              1 S1                 0.0000
     43 ****        -2.4557   0.9468  -2.7453 H              1 S1                 0.0000
     44 ****        -2.2225   3.4135  -2.6988 H              1 S1                 0.0000
     45 ****        -1.9728   3.3953  -0.9696 H              1 S1                 0.0000
     46 ****        -2.0184   1.1534   0.1456 H              1 S1                 0.0000
     47 ****        -0.8756   0.5676   1.2583 LP             1 S1                 0.0000
     48 ****         0.5940  -0.1194   1.4456 LP             1 S1                 0.0000
     49 ****         0.9376  -2.3284   2.1792 LP             1 S1                 0.0000
     50 ****         2.5405  -2.3577   2.8348 LP             1 S1                 0.0000
     51 ****         5.7964  -3.1300   4.5430 LP             1 S1                 0.0000
@<TRIPOS>BOND
    1    1    2 1     
    2    1   22 1     
    3    1   23 1     
    4    1   24 1     
    5    2   21 1     
    6    2    3 1     
    7    2   25 1     
    8    3    4 1     
    9    3   26 1     
   10    3   27 1     
   11    4    5 1     
   12    4   28 1     
   13    4   29 1     
   14    5    6 1     
   15    5   20 1     
   16    5   46 1     
   17    6    7 1     
   18    6   30 1     
   19    6   31 1     
   20    7    8 1     
   21    7    9 1     
   22    7   32 1     
   23    8   33 1     
   24    9   10 1     
   25    9   34 1     
   26    9   35 1     
   27   10   11 am    
   28   10   36 1     
   29   11   12 2     
   30   11   13 am    
   31   13   14 1     
   32   13   37 1     
   33   14   19 ar    
   34   14   15 ar    
   35   15   16 ar    
   36   15   38 1     
   37   16   17 ar    
   38   16   39 1     
   39   17   18 ar    
   40   17   40 1     
   41   18   19 ar    
   42   19   41 1     
   43   20   21 1     
   44   20   42 1     
   45   20   43 1     
   46   21   44 1     
   47   21   45 1     
   48    8   47 1     
   49    8   48 1     
   50   12   49 1     
   51   12   50 1     
   52   18   51 1     
@<TRIPOS>SUBSTRUCTURE
      1 S1             1
@<TRIPOS>SET
LONE_PAIRS      STATIC     ATOMS    <user>   **** ""
5 47 48 49 50 51
DONOR_HYDROGENS      STATIC     ATOMS    <user>   **** ""
4 46 33 36 37
ATOM$BLUE        STATIC     ATOMS    COLORGROUP SYSTEM
5 47 48 49 50 51
ATOM$RED        STATIC     ATOMS    COLORGROUP SYSTEM
4 46 33 36 37
