AV-unprocessed.smi:2007|AV-procd|sdf|8133|dock5
  -GOLD-   2272010363D 1   1.00000     0.00000
 Structure written by MMmdl.
 36 37  0  0  0  0  0  0  0  0  1 V2000
  146.7638  140.5541  153.7097 C   0  0  0  0  0  0  0  0  0  0  0  0
  147.7715  139.4918  154.1691 C   0  0  2  0  0  0  0  0  0  0  0  0
  149.2231  139.9877  153.9861 C   0  0  0  0  0  0  0  0  0  0  0  0
  150.1996  139.4550  154.9373 N   0  0  0  0  0  0  0  0  0  0  0  0
  151.1933  138.6242  154.2674 C   0  0  0  0  0  0  0  0  0  0  0  0
  152.2145  138.0420  155.2603 C   0  0  0  0  0  0  0  0  0  0  0  0
  152.8427  139.1015  155.9744 O   0  0  0  0  0  0  0  0  0  0  0  0
  151.9111  139.9184  156.6766 C   0  0  0  0  0  0  0  0  0  0  0  0
  150.8885  140.5034  155.6875 C   0  0  0  0  0  0  0  0  0  0  0  0
  147.5528  138.2671  153.4009 N   0  0  0  0  0  0  0  0  0  0  0  0
  146.3699  137.6656  153.2036 C   0  0  0  0  0  0  0  0  0  0  0  0
  145.3008  138.1071  153.6256 O   0  0  0  0  0  0  0  0  0  0  0  0
  146.5145  136.5318  152.4956 N   0  0  0  0  0  0  0  0  0  0  0  0
  145.5162  135.5878  152.1386 C   0  0  0  0  0  0  0  0  0  0  0  0
  144.9754  134.7038  152.9854 N   0  0  0  0  0  0  0  0  0  0  0  0
  144.0257  133.8918  152.3608 C   0  0  0  0  0  0  0  0  0  0  0  0
  143.8536  134.1739  151.0283 C   0  0  0  0  0  0  0  0  0  0  0  0
  144.8847  135.4776  150.5020 S   0  0  0  0  0  0  0  0  0  0  0  0
  146.8802  141.4759  154.2802 H   0  0  0  0  0  0  0  0  0  0  0  0
  145.7386  140.2094  153.8489 H   0  0  0  0  0  0  0  0  0  0  0  0
  146.8938  140.7976  152.6546 H   0  0  0  0  0  0  0  0  0  0  0  0
  147.5731  139.3110  155.2259 H   0  0  0  0  0  0  0  0  0  0  0  0
  149.5364  139.7255  152.9744 H   0  0  0  0  0  0  0  0  0  0  0  0
  149.2409  141.0780  154.0257 H   0  0  0  0  0  0  0  0  0  0  0  0
  150.6988  137.8067  153.7415 H   0  0  0  0  0  0  0  0  0  0  0  0
  151.7177  139.2102  153.5113 H   0  0  0  0  0  0  0  0  0  0  0  0
  151.7275  137.3610  155.9601 H   0  0  0  0  0  0  0  0  0  0  0  0
  152.9749  137.4681  154.7306 H   0  0  0  0  0  0  0  0  0  0  0  0
  151.4088  139.3313  157.4473 H   0  0  0  0  0  0  0  0  0  0  0  0
  152.4498  140.7189  157.1836 H   0  0  0  0  0  0  0  0  0  0  0  0
  151.3979  141.1783  154.9980 H   0  0  0  0  0  0  0  0  0  0  0  0
  150.1746  141.1083  156.2443 H   0  0  0  0  0  0  0  0  0  0  0  0
  148.3746  137.8283  153.0127 H   0  0  0  0  0  0  0  0  0  0  0  0
  147.4516  136.3047  152.1980 H   0  0  0  0  0  0  0  0  0  0  0  0
  143.5184  133.1356  152.9415 H   0  0  0  0  0  0  0  0  0  0  0  0
  143.1863  133.6946  150.3276 H   0  0  0  0  0  0  0  0  0  0  0  0
  1  2  1  0  0  0  0
  1 19  1  0  0  0  0
  1 20  1  0  0  0  0
  1 21  1  0  0  0  0
  2  3  1  0  0  0  0
  2 10  1  0  0  0  0
  2 22  1  0  0  0  0
  3  4  1  0  0  0  0
  3 23  1  0  0  0  0
  3 24  1  0  0  0  0
  4  9  1  0  0  0  0
  4  5  1  0  0  0  0
  5  6  1  0  0  0  0
  5 25  1  0  0  0  0
  5 26  1  0  0  0  0
  6  7  1  0  0  0  0
  6 27  1  0  0  0  0
  6 28  1  0  0  0  0
  7  8  1  0  0  0  0
  8  9  1  0  0  0  0
  8 29  1  0  0  0  0
  8 30  1  0  0  0  0
  9 31  1  0  0  0  0
  9 32  1  0  0  0  0
 10 11  1  0  0  0  0
 10 33  1  0  0  0  0
 11 12  2  0  0  0  0
 11 13  1  0  0  0  0
 13 14  1  0  0  0  0
 13 34  1  0  0  0  0
 14 18  1  0  0  0  0
 14 15  2  0  0  0  0
 15 16  1  0  0  0  0
 16 17  2  0  0  0  0
 16 35  1  0  0  0  0
 17 18  1  0  0  0  0
 17 36  1  0  0  0  0
M  END
> <s_m_source_file>
AV-unprocessed.smi

> <i_m_source_file_index>
2007

> <i_lp_mmshare_version>
43012

> <i_f3d_flags>
0

> <s_epik_input>
W0NIMl0xW0NIMl1PW0NIMl1bQ0gyXU4xW0NIMl1bQ0BASF0oW0NIM10pW05IXUMoPU8pW05IXWMybltjSF1bY0hdczI=

> <s_epik_cmdline>
J2VwaWtfcHl0aG9uJywgJy1waCcsICc3LjAnLCAnLXRuJywgJzgnLCAnLW1hJywgJzIwMCcsICctbWV0YWxfYmluZGluZycsICctaW1hZScsICc8aW5maWxlLm1hZT4nLCAnLW9tYWUnLCAnPG91dGZpbGUubWFlPic=

> <r_lp_tautomer_probability>
0.999

> <r_epik_Ionization_Penalty>
0.219197

> <r_epik_Ionization_Penalty_Charging>
0

> <r_epik_Ionization_Penalty_Neutral>
0.219197

> <r_epik_State_Penalty>
0.209349

> <r_epik_Charging_Adjusted_Penalty>
0.209349

> <i_epik_Tot_Q>
0

> <i_epik_Tot_abs_Q>
0

> <r_epik_Metal_State_Penalty>
0.254604

> <b_epik_Metal_Only>
0

> <s_lp_Force_Field>
OPLS_2005

> <r_lp_Energy>
23.8142

> <b_lp_Chiralities_Consistent>
1

> <s_lp_Variant>
AV-unprocessed.smi:2007-1

> <Gold.Version>
5.8.1

> <Gold.Id.Protein>
6NUR|6NUR_protein|mol2

> <Gold.PLP.Fitness>
35.9519

> <Gold.PLP.PLP>
-25.2916

> <Gold.PLP.part.hbond>
-2.9777

> <Gold.PLP.part.metal>
0.0000

> <Gold.PLP.part.buried>
-0.8583

> <Gold.PLP.part.nonpolar>
-23.0850

> <Gold.PLP.part.repulsive>
0.6198

> <Gold.PLP.ligand.clash>
0.0000

> <Gold.PLP.ligand.torsion>
1.8974

> <Gold.PLP.Chemscore.Hbond>
2.8318

> <Gold.PLP.Chemscore.CHOScore>
1.9764

> <Gold.PLP.Chemscore.Metal>
0.0000

> <Gold.Chemscore.Hbonds>
donor molecule, donor type, donor heavy atom, donor atom, acceptor molecule, acceptor atom, score
      L1  H    10    33       P1  7948  0.84
      L1  H    13    34       P1  7948  0.99
      P1  H  7997  8008       L1     7  1.00
      L1  C    16    35       P1 10957  1.00
      L1  C    17    36       P1 10186  0.98

> <Gold.PLP.Chemscore.Internal.Correction>
0.0305

> <Gold.Rescore>
     Score         DG    S(hbond)    S(metal)    S(lipo)     H(rot)  DE(clash)    DE(int)     intcor
     14.41     -17.83       2.73        0.00      62.22       1.58       0.21       3.21       ----

> <Gold.Chemscore.Fitness>
14.4054

> <Gold.Chemscore.DG>
-17.8308

> <Gold.Chemscore.ZeroCoef>
-5.4800

> <Gold.Chemscore.Hbond>
2.7313

> <Gold.Chemscore.Metal>
0.0000

> <Gold.Chemscore.Lipo>
62.2176

> <Gold.Chemscore.Internal_Hbond>
0.0000

> <Gold.Chemscore.DEClash>
0.2119

> <Gold.Chemscore.DEInternal>
3.2135

> <Gold.Chemscore.Rot>
1.5825

> <Gold.Chemscore.Internal.Correction>
   9.000000E+99

> <Gold.Chemscore.Hbonds>
donor molecule, donor type, donor heavy atom, donor atom, acceptor molecule, acceptor atom, score
      L1  H    10    33       P1  7948  0.77
      L1  H    13    34       P1  7948  0.92
      P1  H  7997  8008       L1     7  0.38

> <Gold.Chemscore.Hbond.Weighted>
-9.1226

> <Gold.Chemscore.Metal.Weighted>
-0.0000

> <Gold.Chemscore.Lipo.Weighted>
-7.2795

> <Gold.Chemscore.Internal_Hbond.Weighted>
0.0000

> <Gold.Chemscore.DEClash.Weighted>
0.2119

> <Gold.Chemscore.DEInternal.Weighted>
3.2135

> <Gold.Chemscore.Rot.Weighted>
4.0512

> <Gold.Chemscore.Internal.Correction.Weighted>
   9.000000E+99

> <Gold.Protein.RotatedTorsions>
[ 6907 6896 6895 6894 ] final  -33.60 input  -60.11 | X-H torsion
[ 7974 7965 7964 7962 ] final -118.88 input  175.53 | X-H torsion
[ 8008 7997 7996 7995 ] final  -19.43 input   59.86 | X-H torsion
[ 10167 10162 10161 10158 ] final  -68.83 input  -65.29 | X-H torsion
[ 10718 10713 10712 10709 ] final   16.29 input   66.30 | X-H torsion
[ 10763 10752 10751 10750 ] final  179.94 input  -60.55 | X-H torsion
[ 11005 11000 10999 10996 ] final  106.90 input  -57.11 | X-H torsion

> <Gold.Protein.ActiveResidues>
 VAL166  LYS551  ARG553  GLY616  TRP617  ASP618  TYR619  PRO620  LYS621  CYS622 
 ASP623  PHE694  ASN695  SER759  ASP760  ASP761  ALA762  ILE779  LEU786  VAL792 
 PHE793  MET794  SER795  GLU796  ALA797  LYS798  CYS799  TRP800  GLU811  SER814 

> <Gold.Protein.RotatedAtoms>
  151.0634  134.9752  159.8271 H   0  0  0  0  0  0  0  0  0  0  0  0  # atno 6907 bound_to 6896
  152.5398  134.2389  159.8864 H   0  0  0  0  0  0  0  0  0  0  0  0  # atno 6908 bound_to 6896
  151.2410  133.4356  159.2641 H   0  0  0  0  0  0  0  0  0  0  0  0  # atno 6909 bound_to 6896
  145.0688  140.8344  143.4108 H   0  0  0  0  0  0  0  0  0  0  0  0  # atno 7974 bound_to 7965
  154.4837  140.2089  155.9704 H   0  0  0  0  0  0  0  0  0  0  0  0  # atno 8008 bound_to 7997
  156.1204  140.3214  155.8169 H   0  0  0  0  0  0  0  0  0  0  0  0  # atno 8009 bound_to 7997
  155.4478  140.0515  157.2995 H   0  0  0  0  0  0  0  0  0  0  0  0  # atno 8010 bound_to 7997
  140.5477  143.2312  151.6970 H   0  0  0  0  0  0  0  0  0  0  0  0  # atno 10167 bound_to 10162
  157.0657  130.6327  149.5795 H   0  0  0  0  0  0  0  0  0  0  0  0  # atno 10718 bound_to 10713
  154.5272  135.2797  155.1212 H   0  0  0  0  0  0  0  0  0  0  0  0  # atno 10763 bound_to 10752
  154.2746  135.6297  153.5327 H   0  0  0  0  0  0  0  0  0  0  0  0  # atno 10764 bound_to 10752
  152.9949  135.5636  154.5776 H   0  0  0  0  0  0  0  0  0  0  0  0  # atno 10765 bound_to 10752
  139.8820  134.9384  156.5737 H   0  0  0  0  0  0  0  0  0  0  0  0  # atno 11005 bound_to 11000
  145.1318  139.2627  143.5535 LP  0  0  0  0  0  0  0  0  0  0  0  0  # atno 17320 bound_to 7965
  146.3528  140.0971  142.8609 LP  0  0  0  0  0  0  0  0  0  0  0  0  # atno 17321 bound_to 7965
  139.5014  144.3868  152.0320 LP  0  0  0  0  0  0  0  0  0  0  0  0  # atno 17342 bound_to 10162
  140.2982  144.3676  150.6068 LP  0  0  0  0  0  0  0  0  0  0  0  0  # atno 17343 bound_to 10162
  155.9965  130.5034  150.7499 LP  0  0  0  0  0  0  0  0  0  0  0  0  # atno 17370 bound_to 10713
  157.4919  131.0911  151.0417 LP  0  0  0  0  0  0  0  0  0  0  0  0  # atno 17371 bound_to 10713
  140.8079  133.8453  155.8784 LP  0  0  0  0  0  0  0  0  0  0  0  0  # atno 17394 bound_to 11000
  140.9533  134.1750  157.4711 LP  0  0  0  0  0  0  0  0  0  0  0  0  # atno 17395 bound_to 11000

$$$$
