#       Name:                AV-unprocessed.smi:1683
#       Creating user name   scv26
#       Creation time:       Fri Mar 27 07:50:52 2020


#       File generated by GOLD software.
#

@<TRIPOS>MOLECULE
AV-unprocessed.smi:1683
    40    41     1
SMALL
NO_CHARGES


@<TRIPOS>ATOM
      1 ****        -1.7313   0.2613  -2.0694 O.2            1 S1                 0.0000
      2 ****        -2.1177   0.6218  -0.9578 C.2            1 S1                 0.0000
      3 ****        -2.0116  -0.1353   0.1436 N.am           1 S1                 0.0000
      4 ****        -1.4545  -1.4837   0.1850 C.3            1 S1                 0.0000
      5 ****         0.0823  -1.4913   0.0662 C.3            1 S1                 0.0000
      6 ****         0.7047  -2.8807   0.1529 C.3            1 S1                 0.0000
      7 ****         2.1601  -2.5690   0.4878 C.3            1 S1                 0.0000
      8 ****         2.1172  -1.3910   1.3833 N.4            1 S1                 1.0000
      9 ****         3.2997  -0.4971   1.3080 C.3            1 S1                 0.0000
     10 ****         4.5777  -1.1426   1.8735 C.3            1 S1                 0.0000
     11 ****         4.9872  -2.1557   1.1108 F              1 S1                 0.0000
     12 ****         5.5449  -0.2274   1.9104 F              1 S1                 0.0000
     13 ****         4.3594  -1.5834   3.1124 F              1 S1                 0.0000
     14 ****         0.8205  -0.7055   1.1604 C.3            1 S1                 0.0000
     15 ****        -2.6907   1.8050  -0.6843 N.am           1 S1                 0.0000
     16 ****        -2.9568   2.8596  -1.5931 C.2            1 S1                 0.0000
     17 ****        -2.6605   2.9489  -2.9851 C.2            1 S1                 0.0000
     18 ****        -3.0709   4.1040  -3.4896 N.2            1 S1                 0.0000
     19 ****        -3.6232   4.7503  -2.4383 N.pl3          1 S1                 0.0000
     20 ****        -3.5734   4.0300  -1.2653 C.2            1 S1                 0.0000
     21 ****        -4.0258   5.6715  -2.5371 H              1 S1                 0.0000
     22 ****        -2.3620   0.2401   1.0130 H              1 S1                 0.0000
     23 ****        -1.7591  -1.9432   1.1258 H              1 S1                 0.0000
     24 ****        -1.8975  -2.0873  -0.6092 H              1 S1                 0.0000
     25 ****         0.3673  -1.0697  -0.8994 H              1 S1                 0.0000
     26 ****         0.2497  -3.4547   0.9619 H              1 S1                 0.0000
     27 ****         0.5976  -3.4517  -0.7699 H              1 S1                 0.0000
     28 ****         2.6669  -3.4130   0.9562 H              1 S1                 0.0000
     29 ****         2.6952  -2.3206  -0.4304 H              1 S1                 0.0000
     30 ****         3.4561  -0.1650   0.2804 H              1 S1                 0.0000
     31 ****         3.0847   0.3981   1.8936 H              1 S1                 0.0000
     32 ****         0.9386   0.3409   0.8748 H              1 S1                 0.0000
     33 ****         0.2647  -0.7269   2.0986 H              1 S1                 0.0000
     34 ****        -2.9720   1.9669   0.2715 H              1 S1                 0.0000
     35 ****        -2.1744   2.2395  -3.6384 H              1 S1                 0.0000
     36 ****        -3.9704   4.4024  -0.3324 H              1 S1                 0.0000
     37 ****         2.0790  -1.7470   2.3280 H              1 S1                 0.0000
     38 ****        -1.3124  -0.6392  -2.1853 LP             1 S1                 0.0000
     39 ****        -1.8364   0.8690  -2.8566 LP             1 S1                 0.0000
     40 ****        -2.9903   4.4246  -4.4334 LP             1 S1                 0.0000
@<TRIPOS>BOND
    1    1    2 2     
    2    2    3 am    
    3    2   15 am    
    4    3    4 1     
    5    3   22 1     
    6    4    5 1     
    7    4   23 1     
    8    4   24 1     
    9    5   14 1     
   10    5    6 1     
   11    5   25 1     
   12    6    7 1     
   13    6   26 1     
   14    6   27 1     
   15    7    8 1     
   16    7   28 1     
   17    7   29 1     
   18    8    9 1     
   19    8   14 1     
   20    8   37 1     
   21    9   10 1     
   22    9   30 1     
   23    9   31 1     
   24   10   11 1     
   25   10   12 1     
   26   10   13 1     
   27   14   32 1     
   28   14   33 1     
   29   15   16 1     
   30   15   34 1     
   31   16   20 2     
   32   16   17 1     
   33   17   18 2     
   34   17   35 1     
   35   18   19 1     
   36   19   21 1     
   37   19   20 1     
   38   20   36 1     
   39    1   38 1     
   40    1   39 1     
   41   18   40 1     
@<TRIPOS>SUBSTRUCTURE
      1 S1             1
@<TRIPOS>SET
LONE_PAIRS      STATIC     ATOMS    <user>   **** ""
3 38 39 40
DONOR_HYDROGENS      STATIC     ATOMS    <user>   **** ""
4 22 37 34 21
ATOM$BLUE        STATIC     ATOMS    COLORGROUP SYSTEM
3 38 39 40
ATOM$RED        STATIC     ATOMS    COLORGROUP SYSTEM
4 22 37 34 21
