#       Name:                AV-unprocessed.smi:896
#       Creating user name   scv26
#       Creation time:       Fri Mar 27 01:56:29 2020


#       File generated by GOLD software.
#

@<TRIPOS>MOLECULE
AV-unprocessed.smi:896
    54    55     1
SMALL
NO_CHARGES


@<TRIPOS>ATOM
      1 ****        -7.8033   3.2877   1.4965 C.3            1 S1                 0.0000
      2 ****        -7.2622   1.9804   1.6516 O.3            1 S1                 0.0000
      3 ****        -5.8900   1.8370   1.6636 C.ar           1 S1                 0.0000
      4 ****        -5.3478   0.5449   1.7993 C.ar           1 S1                 0.0000
      5 ****        -3.9488   0.3917   1.8061 C.ar           1 S1                 0.0000
      6 ****        -3.1290   1.5376   1.6695 C.ar           1 S1                 0.0000
      7 ****        -1.7069   1.4826   1.6849 N.am           1 S1                 0.0000
      8 ****        -0.9102   0.4652   1.3158 C.2            1 S1                 0.0000
      9 ****        -1.2967  -0.6203   0.8820 O.2            1 S1                 0.0000
     10 ****         0.3842   0.7850   1.4572 N.am           1 S1                 0.0000
     11 ****         1.5013  -0.0949   1.1336 C.3            1 S1                 0.0000
     12 ****         1.8062  -0.0867  -0.3760 C.3            1 S1                 0.0000
     13 ****         3.0147  -0.9565  -0.7763 C.3            1 S1                 0.0000
     14 ****         3.4219  -0.6921  -2.2380 C.3            1 S1                 0.0000
     15 ****         4.6113  -1.5695  -2.6616 C.3            1 S1                 0.0000
     16 ****         4.3052  -3.0077  -2.4672 N.4            1 S1                 1.0000
     17 ****         5.3798  -3.8862  -2.9770 C.3            1 S1                 0.0000
     18 ****         3.9460  -3.3110  -1.0603 C.3            1 S1                 0.0000
     19 ****         2.7467  -2.4652  -0.5993 C.3            1 S1                 0.0000
     20 ****        -3.7707   2.7950   1.5596 C.ar           1 S1                 0.0000
     21 ****        -2.9754   4.0827   1.4360 C.3            1 S1                 0.0000
     22 ****        -5.1138   2.9424   1.5506 N.ar           1 S1                 0.0000
     23 ****        -8.8915   3.2307   1.5074 H              1 S1                 0.0000
     24 ****        -7.5051   3.7319   0.5456 H              1 S1                 0.0000
     25 ****        -7.4984   3.9459   2.3114 H              1 S1                 0.0000
     26 ****        -5.9940  -0.3147   1.8997 H              1 S1                 0.0000
     27 ****        -3.5329  -0.5963   1.9305 H              1 S1                 0.0000
     28 ****        -1.2428   2.3439   1.9330 H              1 S1                 0.0000
     29 ****         0.6130   1.7006   1.8159 H              1 S1                 0.0000
     30 ****         2.3737   0.2472   1.6910 H              1 S1                 0.0000
     31 ****         1.2832  -1.1030   1.4876 H              1 S1                 0.0000
     32 ****         0.9269  -0.4069  -0.9369 H              1 S1                 0.0000
     33 ****         1.9961   0.9439  -0.6799 H              1 S1                 0.0000
     34 ****         3.8570  -0.6796  -0.1404 H              1 S1                 0.0000
     35 ****         2.5750  -0.8841  -2.8987 H              1 S1                 0.0000
     36 ****         3.6823   0.3588  -2.3693 H              1 S1                 0.0000
     37 ****         4.8438  -1.3837  -3.7109 H              1 S1                 0.0000
     38 ****         5.4998  -1.3024  -2.0871 H              1 S1                 0.0000
     39 ****         6.3080  -3.7291  -2.4261 H              1 S1                 0.0000
     40 ****         5.5706  -3.6888  -4.0323 H              1 S1                 0.0000
     41 ****         5.0977  -4.9352  -2.8809 H              1 S1                 0.0000
     42 ****         3.7003  -4.3696  -0.9667 H              1 S1                 0.0000
     43 ****         4.8063  -3.1267  -0.4146 H              1 S1                 0.0000
     44 ****         2.5335  -2.6967   0.4440 H              1 S1                 0.0000
     45 ****         1.8595  -2.7522  -1.1657 H              1 S1                 0.0000
     46 ****        -2.3172   4.0417   0.5676 H              1 S1                 0.0000
     47 ****        -2.3652   4.2380   2.3262 H              1 S1                 0.0000
     48 ****        -3.6291   4.9484   1.3210 H              1 S1                 0.0000
     49 ****         3.4852  -3.2056  -3.0229 H              1 S1                 0.0000
     50 ****        -7.6113   1.4242   0.8974 LP             1 S1                 0.0000
     51 ****        -7.6051   1.6192   2.5187 LP             1 S1                 0.0000
     52 ****        -2.2755  -0.7986   0.7812 LP             1 S1                 0.0000
     53 ****        -0.6318  -1.3236   0.6305 LP             1 S1                 0.0000
     54 ****        -5.5268   3.8489   1.4624 LP             1 S1                 0.0000
@<TRIPOS>BOND
    1    1    2 1     
    2    1   23 1     
    3    1   24 1     
    4    1   25 1     
    5    2    3 1     
    6    3   22 ar    
    7    3    4 ar    
    8    4    5 ar    
    9    4   26 1     
   10    5    6 ar    
   11    5   27 1     
   12    6    7 1     
   13    6   20 ar    
   14    7    8 am    
   15    7   28 1     
   16    8    9 2     
   17    8   10 am    
   18   10   11 1     
   19   10   29 1     
   20   11   12 1     
   21   11   30 1     
   22   11   31 1     
   23   12   13 1     
   24   12   32 1     
   25   12   33 1     
   26   13   19 1     
   27   13   14 1     
   28   13   34 1     
   29   14   15 1     
   30   14   35 1     
   31   14   36 1     
   32   15   16 1     
   33   15   37 1     
   34   15   38 1     
   35   16   17 1     
   36   16   18 1     
   37   16   49 1     
   38   17   39 1     
   39   17   40 1     
   40   17   41 1     
   41   18   19 1     
   42   18   42 1     
   43   18   43 1     
   44   19   44 1     
   45   19   45 1     
   46   20   21 1     
   47   20   22 ar    
   48   21   46 1     
   49   21   47 1     
   50   21   48 1     
   51    2   50 1     
   52    2   51 1     
   53    9   52 1     
   54    9   53 1     
   55   22   54 1     
@<TRIPOS>SUBSTRUCTURE
      1 S1             1
@<TRIPOS>SET
LONE_PAIRS      STATIC     ATOMS    <user>   **** ""
5 50 51 52 53 54
DONOR_HYDROGENS      STATIC     ATOMS    <user>   **** ""
3 28 29 49
ATOM$BLUE        STATIC     ATOMS    COLORGROUP SYSTEM
5 50 51 52 53 54
ATOM$RED        STATIC     ATOMS    COLORGROUP SYSTEM
3 28 29 49
