AV-unprocessed.smi:2083|AV-procd|sdf|8501|dock10
  -GOLD-   2272011213D 1   1.00000     0.00000
 Structure written by MMmdl.
 44 45  0  0  0  0  0  0  0  0  3 V2000
  151.9606  141.3283  157.8895 C   0  0  0  0  0  0  0  0  0  0  0  0
  151.6634  140.5809  156.6348 C   0  0  0  0  0  0  0  0  0  0  0  0
  150.5733  140.5473  155.8125 C   0  0  0  0  0  0  0  0  0  0  0  0
  150.9589  139.6275  154.7996 C   0  0  0  0  0  0  0  0  0  0  0  0
  150.2064  139.2427  153.7574 N   0  5  0  0  0  0  0  0  0  0  0  0
  148.8682  139.1070  153.8958 C   0  0  0  0  0  0  0  0  0  0  0  0
  148.2458  139.0288  154.9575 O   0  0  0  0  0  0  0  0  0  0  0  0
  148.2132  139.0441  152.7274 N   0  0  0  0  0  0  0  0  0  0  0  0
  146.7721  138.8873  152.5458 C   0  0  0  0  0  0  0  0  0  0  0  0
  146.1808  137.7345  153.3964 C   0  0  1  0  0  0  0  0  0  0  0  0
  144.7374  138.0623  153.8518 C   0  0  0  0  0  0  0  0  0  0  0  0
  146.3072  136.4464  152.6385 N   0  3  2  0  0  0  0  0  0  0  0  0
  145.5805  136.3668  151.3378 C   0  0  0  0  0  0  0  0  0  0  0  0
  145.9077  135.0657  150.5856 C   0  0  0  0  0  0  0  0  0  0  0  0
  145.6263  133.8301  151.4487 C   0  0  0  0  0  0  0  0  0  0  0  0
  146.3403  133.9325  152.8064 C   0  0  1  0  0  0  0  0  0  0  0  0
  147.8599  133.7110  152.7070 C   0  0  0  0  0  0  0  0  0  0  0  0
  145.9891  135.2664  153.4940 C   0  0  0  0  0  0  0  0  0  0  0  0
  152.1706  139.1357  154.9970 N   0  0  0  0  0  0  0  0  0  0  0  0
  152.6322  139.7473  156.1688 O   0  0  0  0  0  0  0  0  0  0  0  0
  151.2173  141.1053  158.6550 H   0  0  0  0  0  0  0  0  0  0  0  0
  151.9488  142.4031  157.7091 H   0  0  0  0  0  0  0  0  0  0  0  0
  152.9415  141.0621  158.2840 H   0  0  0  0  0  0  0  0  0  0  0  0
  149.6484  141.0942  155.9175 H   0  0  0  0  0  0  0  0  0  0  0  0
  148.7710  139.1151  151.8888 H   0  0  0  0  0  0  0  0  0  0  0  0
  146.2455  139.8183  152.7620 H   0  0  0  0  0  0  0  0  0  0  0  0
  146.6196  138.7068  151.4831 H   0  0  0  0  0  0  0  0  0  0  0  0
  146.7722  137.6415  154.3089 H   0  0  0  0  0  0  0  0  0  0  0  0
  144.6986  138.9878  154.4255 H   0  0  0  0  0  0  0  0  0  0  0  0
  144.3300  137.2962  154.5113 H   0  0  0  0  0  0  0  0  0  0  0  0
  144.0657  138.1796  153.0007 H   0  0  0  0  0  0  0  0  0  0  0  0
  144.5062  136.4441  151.5122 H   0  0  0  0  0  0  0  0  0  0  0  0
  145.8646  137.1886  150.6815 H   0  0  0  0  0  0  0  0  0  0  0  0
  145.3226  135.0136  149.6667 H   0  0  0  0  0  0  0  0  0  0  0  0
  146.9538  135.0735  150.2781 H   0  0  0  0  0  0  0  0  0  0  0  0
  144.5510  133.7478  151.6126 H   0  0  0  0  0  0  0  0  0  0  0  0
  145.9259  132.9224  150.9232 H   0  0  0  0  0  0  0  0  0  0  0  0
  145.9535  133.1292  153.4351 H   0  0  0  0  0  0  0  0  0  0  0  0
  148.3478  134.4845  152.1139 H   0  0  0  0  0  0  0  0  0  0  0  0
  148.0863  132.7483  152.2478 H   0  0  0  0  0  0  0  0  0  0  0  0
  148.3200  133.7177  153.6956 H   0  0  0  0  0  0  0  0  0  0  0  0
  146.5121  135.3199  154.4478 H   0  0  0  0  0  0  0  0  0  0  0  0
  144.9243  135.2837  153.7329 H   0  0  0  0  0  0  0  0  0  0  0  0
  147.2859  136.3737  152.3994 H   0  0  0  0  0  0  0  0  0  0  0  0
  1  2  1  0  0  0  0
  1 21  1  0  0  0  0
  1 22  1  0  0  0  0
  1 23  1  0  0  0  0
  2 20  1  0  0  0  0
  2  3  2  0  0  0  0
  3  4  1  0  0  0  0
  3 24  1  0  0  0  0
  4  5  1  0  0  0  0
  4 19  2  0  0  0  0
  5  6  1  0  0  0  0
  6  7  2  0  0  0  0
  6  8  1  0  0  0  0
  8  9  1  0  0  0  0
  8 25  1  0  0  0  0
  9 10  1  0  0  0  0
  9 26  1  0  0  0  0
  9 27  1  0  0  0  0
 10 11  1  0  0  0  0
 10 12  1  0  0  0  0
 10 28  1  0  0  0  0
 11 29  1  0  0  0  0
 11 30  1  0  0  0  0
 11 31  1  0  0  0  0
 12 18  1  0  0  0  0
 12 13  1  0  0  0  0
 12 44  1  0  0  0  0
 13 14  1  0  0  0  0
 13 32  1  0  0  0  0
 13 33  1  0  0  0  0
 14 15  1  0  0  0  0
 14 34  1  0  0  0  0
 14 35  1  0  0  0  0
 15 16  1  0  0  0  0
 15 36  1  0  0  0  0
 15 37  1  0  0  0  0
 16 17  1  0  0  0  0
 16 18  1  0  0  0  0
 16 38  1  0  0  0  0
 17 39  1  0  0  0  0
 17 40  1  0  0  0  0
 17 41  1  0  0  0  0
 18 42  1  0  0  0  0
 18 43  1  0  0  0  0
 19 20  1  0  0  0  0
M  CHG  1   5  -1
M  CHG  1  12   1
M  END
> <s_m_source_file>
AV-unprocessed.smi

> <i_m_source_file_index>
2083

> <i_lp_mmshare_version>
43012

> <i_f3d_flags>
0

> <s_epik_input>
W0NIM11jMVtjSF1jKG5vMSlbTkhdQyg9TylbTkhdW0NIMl1bQ0BIXShbQ0gzXSlOMltDSDJdW0NIMl1bQ0gyXVtDQEBIXShbQ0gzXSlbQ0gyXTI=

> <s_epik_cmdline>
J2VwaWtfcHl0aG9uJywgJy1waCcsICc3LjAnLCAnLXRuJywgJzgnLCAnLW1hJywgJzIwMCcsICctbWV0YWxfYmluZGluZycsICctaW1hZScsICc8aW5maWxlLm1hZT4nLCAnLW9tYWUnLCAnPG91dGZpbGUubWFlPic=

> <r_epik_Ionization_Penalty>
6.22434

> <r_epik_Ionization_Penalty_Charging>
6.22425

> <r_epik_Ionization_Penalty_Neutral>
9.62407e-05

> <r_epik_State_Penalty>
6.22423

> <r_epik_Charging_Adjusted_Penalty>
12.4485

> <i_epik_Tot_Q>
0

> <i_epik_Tot_abs_Q>
2

> <r_epik_Metal_State_Penalty>
2.16764

> <b_epik_Metal_Only>
1

> <s_lp_Force_Field>
OPLS_2005

> <r_lp_Energy>
14.1674

> <b_lp_Chiralities_Consistent>
1

> <s_lp_Variant>
AV-unprocessed.smi:2083-12

> <Gold.Version>
5.8.1

> <Gold.Id.Protein>
6NUR|6NUR_protein|mol2

> <Gold.PLP.Fitness>
40.3036

> <Gold.PLP.PLP>
-30.1921

> <Gold.PLP.part.hbond>
-4.0774

> <Gold.PLP.part.metal>
0.0000

> <Gold.PLP.part.buried>
-3.5854

> <Gold.PLP.part.nonpolar>
-22.8974

> <Gold.PLP.part.repulsive>
1.0246

> <Gold.PLP.ligand.clash>
0.0000

> <Gold.PLP.ligand.torsion>
0.7787

> <Gold.PLP.Chemscore.Hbond>
3.8320

> <Gold.PLP.Chemscore.CHOScore>
0.0000

> <Gold.PLP.Chemscore.Metal>
0.0000

> <Gold.Chemscore.Hbonds>
donor molecule, donor type, donor heavy atom, donor atom, acceptor molecule, acceptor atom, score
      L1  H     8    25       P1  7957  0.63
      L1  H    12    44       P1  7948  2.00
      P1  H  7997  8009       L1    20  1.00

> <Gold.PLP.Chemscore.Internal.Correction>
0.1729

> <Gold.Rescore>
     Score         DG    S(hbond)    S(metal)    S(lipo)     H(rot)  DE(clash)    DE(int)     intcor
     13.97     -17.58       2.85        0.00      55.29       1.52       0.42       3.19       ----

> <Gold.Chemscore.Fitness>
13.9680

> <Gold.Chemscore.DG>
-17.5770

> <Gold.Chemscore.ZeroCoef>
-5.4800

> <Gold.Chemscore.Hbond>
2.8493

> <Gold.Chemscore.Metal>
0.0000

> <Gold.Chemscore.Lipo>
55.2901

> <Gold.Chemscore.Internal_Hbond>
0.0000

> <Gold.Chemscore.DEClash>
0.4212

> <Gold.Chemscore.DEInternal>
3.1877

> <Gold.Chemscore.Rot>
1.5190

> <Gold.Chemscore.Internal.Correction>
   9.000000E+99

> <Gold.Chemscore.Hbonds>
donor molecule, donor type, donor heavy atom, donor atom, acceptor molecule, acceptor atom, score
      L1  H     8    25       P1  7957  0.59
      L1  H    12    44       P1  7948  1.00
      P1  H  7997  8009       L1    20  0.90

> <Gold.Chemscore.Hbond.Weighted>
-9.5166

> <Gold.Chemscore.Metal.Weighted>
-0.0000

> <Gold.Chemscore.Lipo.Weighted>
-6.4689

> <Gold.Chemscore.Internal_Hbond.Weighted>
0.0000

> <Gold.Chemscore.DEClash.Weighted>
0.4212

> <Gold.Chemscore.DEInternal.Weighted>
3.1877

> <Gold.Chemscore.Rot.Weighted>
3.8886

> <Gold.Chemscore.Internal.Correction.Weighted>
   9.000000E+99

> <Gold.Protein.RotatedTorsions>
[ 6907 6896 6895 6894 ] final  -54.60 input  -60.11 | X-H torsion
[ 7974 7965 7964 7962 ] final -102.94 input  175.53 | X-H torsion
[ 8008 7997 7996 7995 ] final -152.16 input   59.86 | X-H torsion
[ 10167 10162 10161 10158 ] final   56.05 input  -65.29 | X-H torsion
[ 10718 10713 10712 10709 ] final  -60.60 input   66.30 | X-H torsion
[ 10763 10752 10751 10750 ] final   -2.32 input  -60.55 | X-H torsion
[ 11005 11000 10999 10996 ] final  115.57 input  -57.11 | X-H torsion

> <Gold.Protein.ActiveResidues>
 VAL166  LYS551  ARG553  GLY616  TRP617  ASP618  TYR619  PRO620  LYS621  CYS622 
 ASP623  PHE694  ASN695  SER759  ASP760  ASP761  ALA762  ILE779  LEU786  VAL792 
 PHE793  MET794  SER795  GLU796  ALA797  LYS798  CYS799  TRP800  GLU811  SER814 

> <Gold.Protein.RotatedAtoms>
  150.8324  134.7583  159.6864 H   0  0  0  0  0  0  0  0  0  0  0  0  # atno 6907 bound_to 6896
  152.4426  134.5556  159.9889 H   0  0  0  0  0  0  0  0  0  0  0  0  # atno 6908 bound_to 6896
  151.5714  133.3352  159.3026 H   0  0  0  0  0  0  0  0  0  0  0  0  # atno 6909 bound_to 6896
  145.2623  140.9273  143.3034 H   0  0  0  0  0  0  0  0  0  0  0  0  # atno 7974 bound_to 7965
  155.6507  140.0712  157.2588 H   0  0  0  0  0  0  0  0  0  0  0  0  # atno 8008 bound_to 7997
  154.4163  140.1734  156.1722 H   0  0  0  0  0  0  0  0  0  0  0  0  # atno 8009 bound_to 7997
  155.9779  140.3356  155.6639 H   0  0  0  0  0  0  0  0  0  0  0  0  # atno 8010 bound_to 7997
  140.2129  144.3870  150.6481 H   0  0  0  0  0  0  0  0  0  0  0  0  # atno 10167 bound_to 10162
  156.0979  130.4190  150.0877 H   0  0  0  0  0  0  0  0  0  0  0  0  # atno 10718 bound_to 10713
  153.3564  135.6988  153.6747 H   0  0  0  0  0  0  0  0  0  0  0  0  # atno 10763 bound_to 10752
  153.5453  135.3564  155.2736 H   0  0  0  0  0  0  0  0  0  0  0  0  # atno 10764 bound_to 10752
  154.8661  135.4213  154.2811 H   0  0  0  0  0  0  0  0  0  0  0  0  # atno 10765 bound_to 10752
  139.9014  134.9586  156.7066 H   0  0  0  0  0  0  0  0  0  0  0  0  # atno 11005 bound_to 11000
  144.9408  139.4192  143.6450 LP  0  0  0  0  0  0  0  0  0  0  0  0  # atno 17320 bound_to 7965
  146.3271  139.8366  142.8898 LP  0  0  0  0  0  0  0  0  0  0  0  0  # atno 17321 bound_to 7965
  140.6310  143.2187  151.6495 LP  0  0  0  0  0  0  0  0  0  0  0  0  # atno 17342 bound_to 10162
  139.5173  144.3320  152.0818 LP  0  0  0  0  0  0  0  0  0  0  0  0  # atno 17343 bound_to 10162
  156.8871  130.9576  151.3593 LP  0  0  0  0  0  0  0  0  0  0  0  0  # atno 17370 bound_to 10713
  157.6144  130.8607  149.9004 LP  0  0  0  0  0  0  0  0  0  0  0  0  # atno 17371 bound_to 10713
  140.7108  133.9224  155.8083 LP  0  0  0  0  0  0  0  0  0  0  0  0  # atno 17394 bound_to 11000
  141.0301  134.0768  157.4023 LP  0  0  0  0  0  0  0  0  0  0  0  0  # atno 17395 bound_to 11000

$$$$
