AV-unprocessed.smi:247|AV-procd|sdf|1893|dock6
  -GOLD-   2262020553D 1   1.00000     0.00000
 Structure written by MMmdl.
 61 65  0  0  0  0  0  0  0  0  1 V2000
  146.5652  137.2507  150.9638 O   0  0  0  0  0  0  0  0  0  0  0  0
  145.6463  137.1100  152.0296 C   0  0  0  0  0  0  0  0  0  0  0  0
  145.1025  135.6629  152.1913 C   0  0  0  0  0  0  0  0  0  0  0  0
  143.7916  135.7161  153.0388 C   0  0  0  0  0  0  0  0  0  0  0  0
  143.9877  135.7050  154.4818 N   0  0  0  0  0  0  0  0  0  0  0  0
  143.2779  134.9704  155.4054 C   0  0  0  0  0  0  0  0  0  0  0  0
  143.6429  135.1327  156.6474 N   0  0  0  0  0  0  0  0  0  0  0  0
  144.7013  136.0294  156.5741 C   0  0  0  0  0  0  0  0  0  0  0  0
  145.5452  136.6432  157.5405 C   0  0  0  0  0  0  0  0  0  0  0  0
  145.4113  136.3991  158.8676 N   0  0  0  0  0  0  0  0  0  0  0  0
  144.1515  136.8732  159.4214 C   0  0  0  0  0  0  0  0  0  0  0  0
  143.9998  136.1633  160.7596 C   0  0  0  0  0  0  0  0  0  0  0  0
  144.6760  134.8175  160.5123 C   0  0  0  0  0  0  0  0  0  0  0  0
  145.7553  135.0928  159.4448 C   0  0  2  0  0  0  0  0  0  0  0  0
  147.2092  135.0032  160.0126 C   0  0  2  0  0  0  0  0  0  0  0  0
  147.6312  133.5851  160.4612 C   0  0  0  0  0  0  0  0  0  0  0  0
  147.0707  133.2676  161.7314 O   0  0  0  0  0  0  0  0  0  0  0  0
  147.5670  134.0988  162.7749 C   0  0  0  0  0  0  0  0  0  0  0  0
  147.1778  135.5641  162.5254 C   0  0  0  0  0  0  0  0  0  0  0  0
  147.6072  136.0128  161.1192 C   0  0  2  0  0  0  0  0  0  0  0  0
  147.1497  137.3216  160.8463 O   0  0  0  0  0  0  0  0  0  0  0  0
  146.4985  137.4983  157.0858 N   0  0  0  0  0  0  0  0  0  0  0  0
  146.6167  137.7437  155.7779 C   0  0  0  0  0  0  0  0  0  0  0  0
  145.8970  137.2506  154.7684 N   0  0  0  0  0  0  0  0  0  0  0  0
  144.9373  136.3925  155.2186 C   0  0  0  0  0  0  0  0  0  0  0  0
  144.8667  135.0322  150.7943 C   0  0  0  0  0  0  0  0  0  0  0  0
  144.5489  133.5288  150.8774 C   0  0  0  0  0  0  0  0  0  0  0  0
  145.6040  132.8494  151.5472 O   0  0  0  0  0  0  0  0  0  0  0  0
  145.7810  133.2803  152.8914 C   0  0  0  0  0  0  0  0  0  0  0  0
  146.1419  134.7782  152.9276 C   0  0  0  0  0  0  0  0  0  0  0  0
  147.4341  137.0758  151.2917 H   0  0  0  0  0  0  0  0  0  0  0  0
  146.1419  137.4335  152.9456 H   0  0  0  0  0  0  0  0  0  0  0  0
  144.8327  137.8113  151.8448 H   0  0  0  0  0  0  0  0  0  0  0  0
  143.2004  136.5996  152.8040 H   0  0  0  0  0  0  0  0  0  0  0  0
  143.1539  134.8689  152.7829 H   0  0  0  0  0  0  0  0  0  0  0  0
  142.4675  134.3120  155.1289 H   0  0  0  0  0  0  0  0  0  0  0  0
  144.1485  137.9558  159.5488 H   0  0  0  0  0  0  0  0  0  0  0  0
  143.3300  136.6059  158.7545 H   0  0  0  0  0  0  0  0  0  0  0  0
  144.5290  136.7174  161.5350 H   0  0  0  0  0  0  0  0  0  0  0  0
  142.9592  136.0668  161.0698 H   0  0  0  0  0  0  0  0  0  0  0  0
  145.0657  134.3734  161.4288 H   0  0  0  0  0  0  0  0  0  0  0  0
  143.9412  134.1210  160.1058 H   0  0  0  0  0  0  0  0  0  0  0  0
  145.6409  134.3015  158.7051 H   0  0  0  0  0  0  0  0  0  0  0  0
  147.8471  135.2561  159.1643 H   0  0  0  0  0  0  0  0  0  0  0  0
  147.3267  132.8334  159.7357 H   0  0  0  0  0  0  0  0  0  0  0  0
  148.7185  133.5167  160.5216 H   0  0  0  0  0  0  0  0  0  0  0  0
  147.1505  133.7593  163.7235 H   0  0  0  0  0  0  0  0  0  0  0  0
  148.6504  133.9940  162.8497 H   0  0  0  0  0  0  0  0  0  0  0  0
  146.1084  135.6851  162.6672 H   0  0  0  0  0  0  0  0  0  0  0  0
  147.6453  136.2008  163.2771 H   0  0  0  0  0  0  0  0  0  0  0  0
  148.6968  136.0698  161.1266 H   0  0  0  0  0  0  0  0  0  0  0  0
  146.2654  137.2692  160.5174 H   0  0  0  0  0  0  0  0  0  0  0  0
  147.3970  138.4376  155.5023 H   0  0  0  0  0  0  0  0  0  0  0  0
  144.0819  135.5570  150.2506 H   0  0  0  0  0  0  0  0  0  0  0  0
  145.7635  135.1417  150.1837 H   0  0  0  0  0  0  0  0  0  0  0  0
  143.6000  133.3436  151.3813 H   0  0  0  0  0  0  0  0  0  0  0  0
  144.4532  133.1154  149.8734 H   0  0  0  0  0  0  0  0  0  0  0  0
  144.8874  133.0637  153.4766 H   0  0  0  0  0  0  0  0  0  0  0  0
  146.5874  132.6975  153.3364 H   0  0  0  0  0  0  0  0  0  0  0  0
  147.1234  134.8846  152.4647 H   0  0  0  0  0  0  0  0  0  0  0  0
  146.2608  135.1087  153.9601 H   0  0  0  0  0  0  0  0  0  0  0  0
  1  2  1  0  0  0  0
  1 31  1  0  0  0  0
  2  3  1  0  0  0  0
  2 32  1  0  0  0  0
  2 33  1  0  0  0  0
  3 30  1  0  0  0  0
  3  4  1  0  0  0  0
  3 26  1  0  0  0  0
  4  5  1  0  0  0  0
  4 34  1  0  0  0  0
  4 35  1  0  0  0  0
  5 25  1  0  0  0  0
  5  6  1  0  0  0  0
  6  7  2  0  0  0  0
  6 36  1  0  0  0  0
  7  8  1  0  0  0  0
  8 25  2  0  0  0  0
  8  9  1  0  0  0  0
  9 10  1  0  0  0  0
  9 22  2  0  0  0  0
 10 14  1  0  0  0  0
 10 11  1  0  0  0  0
 11 12  1  0  0  0  0
 11 37  1  0  0  0  0
 11 38  1  0  0  0  0
 12 13  1  0  0  0  0
 12 39  1  0  0  0  0
 12 40  1  0  0  0  0
 13 14  1  0  0  0  0
 13 41  1  0  0  0  0
 13 42  1  0  0  0  0
 14 15  1  0  0  0  0
 14 43  1  0  0  0  0
 15 20  1  0  0  0  0
 15 16  1  0  0  0  0
 15 44  1  0  0  0  0
 16 17  1  0  0  0  0
 16 45  1  0  0  0  0
 16 46  1  0  0  0  0
 17 18  1  0  0  0  0
 18 19  1  0  0  0  0
 18 47  1  0  0  0  0
 18 48  1  0  0  0  0
 19 20  1  0  0  0  0
 19 49  1  0  0  0  0
 19 50  1  0  0  0  0
 20 21  1  0  0  0  0
 20 51  1  0  0  0  0
 21 52  1  0  0  0  0
 22 23  1  0  0  0  0
 23 24  2  0  0  0  0
 23 53  1  0  0  0  0
 24 25  1  0  0  0  0
 26 27  1  0  0  0  0
 26 54  1  0  0  0  0
 26 55  1  0  0  0  0
 27 28  1  0  0  0  0
 27 56  1  0  0  0  0
 27 57  1  0  0  0  0
 28 29  1  0  0  0  0
 29 30  1  0  0  0  0
 29 58  1  0  0  0  0
 29 59  1  0  0  0  0
 30 60  1  0  0  0  0
 30 61  1  0  0  0  0
M  END
> <s_m_source_file>
AV-unprocessed.smi

> <i_m_source_file_index>
247

> <i_lp_mmshare_version>
43012

> <i_f3d_flags>
0

> <s_epik_input>
W0NIMl0xW0NIMl1PW0NIMl1bQ0gyXUMxKFtDSDJdW09IXSlbQ0gyXW4oW2NIXW4yKWMoYzIzKW5bY0hdbmMzTjRbQ0gyXVtDSDJdW0NIMl1bQ0BIXTRbQ0BASF01W0NIMl1PW0NIMl1bQ0gyXVtDQEhdNVtPSF0=

> <s_epik_cmdline>
J2VwaWtfcHl0aG9uJywgJy1waCcsICc3LjAnLCAnLXRuJywgJzgnLCAnLW1hJywgJzIwMCcsICctbWV0YWxfYmluZGluZycsICctaW1hZScsICc8aW5maWxlLm1hZT4nLCAnLW9tYWUnLCAnPG91dGZpbGUubWFlPic=

> <r_lp_tautomer_probability>
1

> <r_epik_Ionization_Penalty>
0.00362597

> <r_epik_Ionization_Penalty_Charging>
0

> <r_epik_Ionization_Penalty_Neutral>
0.00362597

> <r_epik_State_Penalty>
0.00241433

> <r_epik_Charging_Adjusted_Penalty>
0.00241433

> <i_epik_Tot_Q>
0

> <i_epik_Tot_abs_Q>
0

> <r_epik_Metal_State_Penalty>
-0

> <b_epik_Metal_Only>
0

> <s_lp_Force_Field>
OPLS_2005

> <r_lp_Energy>
64.0337

> <b_lp_Chiralities_Consistent>
1

> <s_lp_Variant>
AV-unprocessed.smi:247-6

> <Gold.Version>
5.8.1

> <Gold.Id.Protein>
6NUR|6NUR_protein|mol2

> <Gold.PLP.Fitness>
39.6745

> <Gold.PLP.PLP>
-30.7821

> <Gold.PLP.part.hbond>
-4.5084

> <Gold.PLP.part.metal>
0.0000

> <Gold.PLP.part.buried>
-4.6926

> <Gold.PLP.part.nonpolar>
-22.8541

> <Gold.PLP.part.repulsive>
0.2303

> <Gold.PLP.ligand.clash>
0.0000

> <Gold.PLP.ligand.torsion>
1.0771

> <Gold.PLP.Chemscore.Hbond>
2.0380

> <Gold.PLP.Chemscore.CHOScore>
1.5254

> <Gold.PLP.Chemscore.Metal>
0.0000

> <Gold.Chemscore.Hbonds>
donor molecule, donor type, donor heavy atom, donor atom, acceptor molecule, acceptor atom, score
      L1  H     1    31       P1  7948  1.00
      P1  H  6931  6943       L1    21  0.09
      P1  H  6934  6947       L1    21  0.75
      L1  C     6    36       P1 10957  0.84
      L1  C     6    36       P1 11000  0.64

> <Gold.PLP.Chemscore.Internal.Correction>
0.3565

> <Gold.Rescore>
     Score         DG    S(hbond)    S(metal)    S(lipo)     H(rot)  DE(clash)    DE(int)     intcor
     10.15     -12.71       1.96        0.00      76.38       3.23       0.04       2.52       ----

> <Gold.Chemscore.Fitness>
10.1517

> <Gold.Chemscore.DG>
-12.7085

> <Gold.Chemscore.ZeroCoef>
-5.4800

> <Gold.Chemscore.Hbond>
1.9627

> <Gold.Chemscore.Metal>
0.0000

> <Gold.Chemscore.Lipo>
76.3806

> <Gold.Chemscore.Internal_Hbond>
0.0000

> <Gold.Chemscore.DEClash>
0.0408

> <Gold.Chemscore.DEInternal>
2.5160

> <Gold.Chemscore.Rot>
3.2278

> <Gold.Chemscore.Internal.Correction>
   9.000000E+99

> <Gold.Chemscore.Hbonds>
donor molecule, donor type, donor heavy atom, donor atom, acceptor molecule, acceptor atom, score
      L1  H     1    31       P1  7948  1.00
      P1  H  6931  6943       L1    21  0.01
      P1  H  6934  6947       L1    21  0.09

> <Gold.Chemscore.Hbond.Weighted>
-6.5553

> <Gold.Chemscore.Metal.Weighted>
-0.0000

> <Gold.Chemscore.Lipo.Weighted>
-8.9365

> <Gold.Chemscore.Internal_Hbond.Weighted>
0.0000

> <Gold.Chemscore.DEClash.Weighted>
0.0408

> <Gold.Chemscore.DEInternal.Weighted>
2.5160

> <Gold.Chemscore.Rot.Weighted>
8.2633

> <Gold.Chemscore.Internal.Correction.Weighted>
   9.000000E+99

> <Gold.Protein.RotatedTorsions>
[ 6907 6896 6895 6894 ] final  106.54 input  -60.11 | X-H torsion
[ 7974 7965 7964 7962 ] final -169.91 input  175.53 | X-H torsion
[ 8008 7997 7996 7995 ] final   14.05 input   59.86 | X-H torsion
[ 10167 10162 10161 10158 ] final   97.16 input  -65.29 | X-H torsion
[ 10718 10713 10712 10709 ] final -129.52 input   66.30 | X-H torsion
[ 10763 10752 10751 10750 ] final   34.13 input  -60.55 | X-H torsion
[ 11005 11000 10999 10996 ] final -170.66 input  -57.11 | X-H torsion

> <Gold.Protein.ActiveResidues>
 VAL166  LYS551  ARG553  GLY616  TRP617  ASP618  TYR619  PRO620  LYS621  CYS622 
 ASP623  PHE694  ASN695  SER759  ASP760  ASP761  ALA762  ILE779  LEU786  VAL792 
 PHE793  MET794  SER795  GLU796  ALA797  LYS798  CYS799  TRP800  GLU811  SER814 

> <Gold.Protein.RotatedAtoms>
  152.5190  133.9366  159.7605 H   0  0  0  0  0  0  0  0  0  0  0  0  # atno 6907 bound_to 6896
  150.9705  133.6341  159.2746 H   0  0  0  0  0  0  0  0  0  0  0  0  # atno 6908 bound_to 6896
  151.3554  135.0898  159.9469 H   0  0  0  0  0  0  0  0  0  0  0  0  # atno 6909 bound_to 6896
  144.7178  140.2150  143.6323 H   0  0  0  0  0  0  0  0  0  0  0  0  # atno 7974 bound_to 7965
  154.8431  140.2918  155.5647 H   0  0  0  0  0  0  0  0  0  0  0  0  # atno 8008 bound_to 7997
  156.3013  140.2510  156.3308 H   0  0  0  0  0  0  0  0  0  0  0  0  # atno 8009 bound_to 7997
  154.9104  140.0388  157.1932 H   0  0  0  0  0  0  0  0  0  0  0  0  # atno 8010 bound_to 7997
  139.7827  144.6882  151.0000 H   0  0  0  0  0  0  0  0  0  0  0  0  # atno 10167 bound_to 10162
  156.2055  130.6884  151.0589 H   0  0  0  0  0  0  0  0  0  0  0  0  # atno 10718 bound_to 10713
  153.0178  135.6368  154.1621 H   0  0  0  0  0  0  0  0  0  0  0  0  # atno 10763 bound_to 10752
  154.1358  135.2837  155.3175 H   0  0  0  0  0  0  0  0  0  0  0  0  # atno 10764 bound_to 10752
  154.6161  135.5540  153.7586 H   0  0  0  0  0  0  0  0  0  0  0  0  # atno 10765 bound_to 10752
  140.5170  134.5746  157.5036 H   0  0  0  0  0  0  0  0  0  0  0  0  # atno 11005 bound_to 11000
  145.8554  139.2196  143.1747 LP  0  0  0  0  0  0  0  0  0  0  0  0  # atno 17320 bound_to 7965
  146.0222  140.8337  142.9918 LP  0  0  0  0  0  0  0  0  0  0  0  0  # atno 17321 bound_to 7965
  140.7819  143.4465  151.0474 LP  0  0  0  0  0  0  0  0  0  0  0  0  # atno 17342 bound_to 10162
  139.8145  143.7904  152.3173 LP  0  0  0  0  0  0  0  0  0  0  0  0  # atno 17343 bound_to 10162
  157.7009  131.0776  150.6822 LP  0  0  0  0  0  0  0  0  0  0  0  0  # atno 17370 bound_to 10713
  156.6880  130.4586  149.5608 LP  0  0  0  0  0  0  0  0  0  0  0  0  # atno 17371 bound_to 10713
  139.9627  134.7426  156.0204 LP  0  0  0  0  0  0  0  0  0  0  0  0  # atno 17394 bound_to 11000
  141.1355  133.6576  156.3581 LP  0  0  0  0  0  0  0  0  0  0  0  0  # atno 17395 bound_to 11000

$$$$
