AV-unprocessed.smi:2072|AV-procd|sdf|8445|dock3
  -GOLD-   2272011143D 1   1.00000     0.00000
 Structure written by MMmdl.
 40 42  0  0  0  0  0  0  0  0  2 V2000
  145.4690  138.0224  153.5742 O   0  0  0  0  0  0  0  0  0  0  0  0
  146.4729  137.5324  153.0589 C   0  0  0  0  0  0  0  0  0  0  0  0
  147.7073  138.0638  153.0844 N   0  0  0  0  0  0  0  0  0  0  0  0
  148.1515  139.2856  153.6618 C   0  0  0  0  0  0  0  0  0  0  0  0
  147.3598  140.4528  153.7997 C   0  0  0  0  0  0  0  0  0  0  0  0
  147.9338  141.5992  154.3821 C   0  0  0  0  0  0  0  0  0  0  0  0
  149.2770  141.5419  154.8003 C   0  0  0  0  0  0  0  0  0  0  0  0
  150.0456  140.4408  154.6687 N   0  0  0  0  0  0  0  0  0  0  0  0
  149.4884  139.3454  154.1103 C   0  0  0  0  0  0  0  0  0  0  0  0
  146.4636  136.3630  152.4025 N   0  0  0  0  0  0  0  0  0  0  0  0
  145.2765  135.5456  152.1571 C   0  0  1  0  0  0  0  0  0  0  0  0
  144.7973  135.5996  150.6944 C   0  0  0  0  0  0  0  0  0  0  0  0
  144.3423  134.1696  150.3862 C   0  0  0  0  0  0  0  0  0  0  0  0
  145.2705  133.3544  151.1779 N   0  3  2  0  0  0  0  0  0  0  0  0
  144.9950  131.9121  151.3335 C   0  0  0  0  0  0  0  0  0  0  0  0
  146.2128  131.2583  152.0215 C   0  0  0  0  0  0  0  0  0  0  0  0
  146.6082  131.9828  153.3288 C   0  0  0  0  0  0  0  0  0  0  0  0
  146.7447  133.5080  153.1257 C   0  0  0  0  0  0  0  0  0  0  0  0
  145.4590  134.0401  152.4679 C   0  0  1  0  0  0  0  0  0  0  0  0
  148.4324  137.5110  152.6511 H   0  0  0  0  0  0  0  0  0  0  0  0
  146.3355  140.5041  153.4683 H   0  0  0  0  0  0  0  0  0  0  0  0
  147.3570  142.5044  154.5020 H   0  0  0  0  0  0  0  0  0  0  0  0
  149.7473  142.4044  155.2489 H   0  0  0  0  0  0  0  0  0  0  0  0
  150.1348  138.4845  154.0197 H   0  0  0  0  0  0  0  0  0  0  0  0
  147.3353  136.0289  152.0183 H   0  0  0  0  0  0  0  0  0  0  0  0
  144.4630  135.9224  152.7809 H   0  0  0  0  0  0  0  0  0  0  0  0
  144.0055  136.3328  150.5372 H   0  0  0  0  0  0  0  0  0  0  0  0
  145.6255  135.8626  150.0344 H   0  0  0  0  0  0  0  0  0  0  0  0
  143.3201  134.0077  150.7316 H   0  0  0  0  0  0  0  0  0  0  0  0
  144.3935  133.9313  149.3234 H   0  0  0  0  0  0  0  0  0  0  0  0
  144.0874  131.7628  151.9203 H   0  0  0  0  0  0  0  0  0  0  0  0
  144.8276  131.4601  150.3553 H   0  0  0  0  0  0  0  0  0  0  0  0
  146.0083  130.2067  152.2240 H   0  0  0  0  0  0  0  0  0  0  0  0
  147.0610  131.2780  151.3358 H   0  0  0  0  0  0  0  0  0  0  0  0
  145.8494  131.7890  154.0881 H   0  0  0  0  0  0  0  0  0  0  0  0
  147.5406  131.5716  153.7169 H   0  0  0  0  0  0  0  0  0  0  0  0
  146.9139  133.9903  154.0884 H   0  0  0  0  0  0  0  0  0  0  0  0
  147.6115  133.7277  152.5011 H   0  0  0  0  0  0  0  0  0  0  0  0
  144.6209  133.7637  153.1115 H   0  0  0  0  0  0  0  0  0  0  0  0
  146.1569  133.4227  150.6987 H   0  0  0  0  0  0  0  0  0  0  0  0
  1  2  2  0  0  0  0
  2  3  1  0  0  0  0
  2 10  1  0  0  0  0
  3  4  1  0  0  0  0
  3 20  1  0  0  0  0
  4  9  1  0  0  0  0
  4  5  2  0  0  0  0
  5  6  1  0  0  0  0
  5 21  1  0  0  0  0
  6  7  2  0  0  0  0
  6 22  1  0  0  0  0
  7  8  1  0  0  0  0
  7 23  1  0  0  0  0
  8  9  2  0  0  0  0
  9 24  1  0  0  0  0
 10 11  1  0  0  0  0
 10 25  1  0  0  0  0
 11 19  1  0  0  0  0
 11 12  1  0  0  0  0
 11 26  1  0  0  0  0
 12 13  1  0  0  0  0
 12 27  1  0  0  0  0
 12 28  1  0  0  0  0
 13 14  1  0  0  0  0
 13 29  1  0  0  0  0
 13 30  1  0  0  0  0
 14 19  1  0  0  0  0
 14 15  1  0  0  0  0
 14 40  1  0  0  0  0
 15 16  1  0  0  0  0
 15 31  1  0  0  0  0
 15 32  1  0  0  0  0
 16 17  1  0  0  0  0
 16 33  1  0  0  0  0
 16 34  1  0  0  0  0
 17 18  1  0  0  0  0
 17 35  1  0  0  0  0
 17 36  1  0  0  0  0
 18 19  1  0  0  0  0
 18 37  1  0  0  0  0
 18 38  1  0  0  0  0
 19 39  1  0  0  0  0
M  CHG  1  14   1
M  END
> <s_m_source_file>
AV-unprocessed.smi

> <i_m_source_file_index>
2072

> <i_lp_mmshare_version>
43012

> <i_f3d_flags>
0

> <s_epik_input>
W0NIMl0xW0NIMl1bQ0gyXVtDSDJdW0NASF0oTjEyKVtDQEBIXShbQ0gyXVtDSDJdMilbTkhdQyg9TylbTkhdYzNbY0hdW2NIXVtjSF1uW2NIXTM=

> <s_epik_cmdline>
J2VwaWtfcHl0aG9uJywgJy1waCcsICc3LjAnLCAnLXRuJywgJzgnLCAnLW1hJywgJzIwMCcsICctbWV0YWxfYmluZGluZycsICctaW1hZScsICc8aW5maWxlLm1hZT4nLCAnLW9tYWUnLCAnPG91dGZpbGUubWFlPic=

> <r_lp_tautomer_probability>
1

> <r_epik_Ionization_Penalty>
0.00482425

> <r_epik_Ionization_Penalty_Charging>
0.000974069

> <r_epik_Ionization_Penalty_Neutral>
0.00385018

> <r_epik_State_Penalty>
-0

> <r_epik_Charging_Adjusted_Penalty>
0.000974069

> <i_epik_Tot_Q>
1

> <i_epik_Tot_abs_Q>
1

> <r_epik_Metal_State_Penalty>
-0

> <b_epik_Metal_Only>
0

> <s_lp_Force_Field>
OPLS_2005

> <r_lp_Energy>
44.3374

> <b_lp_Chiralities_Consistent>
1

> <s_lp_Variant>
AV-unprocessed.smi:2072-4

> <Gold.Version>
5.8.1

> <Gold.Id.Protein>
6NUR|6NUR_protein|mol2

> <Gold.PLP.Fitness>
41.2170

> <Gold.PLP.PLP>
-30.1840

> <Gold.PLP.part.hbond>
-3.1008

> <Gold.PLP.part.metal>
0.0000

> <Gold.PLP.part.buried>
0.3533

> <Gold.PLP.part.nonpolar>
-27.7032

> <Gold.PLP.part.repulsive>
0.7814

> <Gold.PLP.ligand.clash>
0.0000

> <Gold.PLP.ligand.torsion>
0.3398

> <Gold.PLP.Chemscore.Hbond>
2.9040

> <Gold.PLP.Chemscore.CHOScore>
1.0000

> <Gold.PLP.Chemscore.Metal>
0.0000

> <Gold.Chemscore.Hbonds>
donor molecule, donor type, donor heavy atom, donor atom, acceptor molecule, acceptor atom, score
      L1  H     3    20       P1  7948  1.00
      L1  H    10    25       P1  7948  0.99
      P1  H  7989  7998       L1     8  0.93
      L1  C     7    23       P1  8028  1.00

> <Gold.PLP.Chemscore.Internal.Correction>
0.0005

> <Gold.Rescore>
     Score         DG    S(hbond)    S(metal)    S(lipo)     H(rot)  DE(clash)    DE(int)     intcor
     18.32     -19.71       2.28        0.00      78.36       1.00       0.34       1.05       ----

> <Gold.Chemscore.Fitness>
18.3214

> <Gold.Chemscore.DG>
-19.7138

> <Gold.Chemscore.ZeroCoef>
-5.4800

> <Gold.Chemscore.Hbond>
2.2833

> <Gold.Chemscore.Metal>
0.0000

> <Gold.Chemscore.Lipo>
78.3564

> <Gold.Chemscore.Internal_Hbond>
0.0000

> <Gold.Chemscore.DEClash>
0.3383

> <Gold.Chemscore.DEInternal>
1.0541

> <Gold.Chemscore.Rot>
1.0000

> <Gold.Chemscore.Internal.Correction>
   9.000000E+99

> <Gold.Chemscore.Hbonds>
donor molecule, donor type, donor heavy atom, donor atom, acceptor molecule, acceptor atom, score
      L1  H     3    20       P1  7948  0.95
      L1  H    10    25       P1  7948  0.94
      P1  H  7989  7998       L1     8  0.30

> <Gold.Chemscore.Hbond.Weighted>
-7.6261

> <Gold.Chemscore.Metal.Weighted>
-0.0000

> <Gold.Chemscore.Lipo.Weighted>
-9.1677

> <Gold.Chemscore.Internal_Hbond.Weighted>
0.0000

> <Gold.Chemscore.DEClash.Weighted>
0.3383

> <Gold.Chemscore.DEInternal.Weighted>
1.0541

> <Gold.Chemscore.Rot.Weighted>
2.5600

> <Gold.Chemscore.Internal.Correction.Weighted>
   9.000000E+99

> <Gold.Protein.RotatedTorsions>
[ 6907 6896 6895 6894 ] final -125.17 input  -60.11 | X-H torsion
[ 7974 7965 7964 7962 ] final  179.23 input  175.53 | X-H torsion
[ 8008 7997 7996 7995 ] final  147.13 input   59.86 | X-H torsion
[ 10167 10162 10161 10158 ] final  103.22 input  -65.29 | X-H torsion
[ 10718 10713 10712 10709 ] final -114.20 input   66.30 | X-H torsion
[ 10763 10752 10751 10750 ] final   38.97 input  -60.55 | X-H torsion
[ 11005 11000 10999 10996 ] final  176.89 input  -57.11 | X-H torsion

> <Gold.Protein.ActiveResidues>
 VAL166  LYS551  ARG553  GLY616  TRP617  ASP618  TYR619  PRO620  LYS621  CYS622 
 ASP623  PHE694  ASN695  SER759  ASP760  ASP761  ALA762  ILE779  LEU786  VAL792 
 PHE793  MET794  SER795  GLU796  ALA797  LYS798  CYS799  TRP800  GLU811  SER814 

> <Gold.Protein.RotatedAtoms>
  150.8840  133.7332  159.2923 H   0  0  0  0  0  0  0  0  0  0  0  0  # atno 6907 bound_to 6896
  151.4904  135.1056  159.9811 H   0  0  0  0  0  0  0  0  0  0  0  0  # atno 6908 bound_to 6896
  152.4778  133.8135  159.7071 H   0  0  0  0  0  0  0  0  0  0  0  0  # atno 6909 bound_to 6896
  144.7147  140.0518  143.6435 H   0  0  0  0  0  0  0  0  0  0  0  0  # atno 7974 bound_to 7965
  156.2834  140.2164  156.5488 H   0  0  0  0  0  0  0  0  0  0  0  0  # atno 8008 bound_to 7997
  154.7308  140.0495  157.0747 H   0  0  0  0  0  0  0  0  0  0  0  0  # atno 8009 bound_to 7997
  155.0356  140.3140  155.4746 H   0  0  0  0  0  0  0  0  0  0  0  0  # atno 8010 bound_to 7997
  139.7282  144.7042  151.0764 H   0  0  0  0  0  0  0  0  0  0  0  0  # atno 10167 bound_to 10162
  156.0814  130.6014  150.8743 H   0  0  0  0  0  0  0  0  0  0  0  0  # atno 10718 bound_to 10713
  152.9983  135.6234  154.2390 H   0  0  0  0  0  0  0  0  0  0  0  0  # atno 10763 bound_to 10752
  154.2131  135.2799  155.2953 H   0  0  0  0  0  0  0  0  0  0  0  0  # atno 10764 bound_to 10752
  154.5590  135.5711  153.7049 H   0  0  0  0  0  0  0  0  0  0  0  0  # atno 10765 bound_to 10752
  140.3781  134.6971  157.4434 H   0  0  0  0  0  0  0  0  0  0  0  0  # atno 11005 bound_to 11000
  145.9938  139.3036  143.0969 LP  0  0  0  0  0  0  0  0  0  0  0  0  # atno 17320 bound_to 7965
  145.8872  140.9326  143.0570 LP  0  0  0  0  0  0  0  0  0  0  0  0  # atno 17321 bound_to 7965
  140.7766  143.5078  150.9691 LP  0  0  0  0  0  0  0  0  0  0  0  0  # atno 17342 bound_to 10162
  139.8765  143.7125  152.3161 LP  0  0  0  0  0  0  0  0  0  0  0  0  # atno 17343 bound_to 10162
  157.5933  131.0944  150.9083 LP  0  0  0  0  0  0  0  0  0  0  0  0  # atno 17370 bound_to 10713
  156.9255  130.5330  149.5279 LP  0  0  0  0  0  0  0  0  0  0  0  0  # atno 17371 bound_to 10713
  140.0500  134.6145  155.8874 LP  0  0  0  0  0  0  0  0  0  0  0  0  # atno 17394 bound_to 11000
  141.1932  133.6578  156.5540 LP  0  0  0  0  0  0  0  0  0  0  0  0  # atno 17395 bound_to 11000

$$$$
