AV-unprocessed.smi:3353|AV-procd|sdf|12954|dock1
  -GOLD-   2272019393D 1   1.00000     0.00000
 Structure written by MMmdl.
 43 44  0  0  0  0  0  0  0  0  2 V2000
  151.8167  141.7998  157.6560 C   0  0  0  0  0  0  0  0  0  0  0  0
  151.2410  141.7600  156.2353 C   0  0  0  0  0  0  0  0  0  0  0  0
  151.3376  140.4355  155.6532 N   0  0  0  0  0  0  0  0  0  0  0  0
  150.3140  139.5588  155.3531 C   0  0  0  0  0  0  0  0  0  0  0  0
  150.9178  138.4537  154.8230 C   0  0  0  0  0  0  0  0  0  0  0  0
  150.3366  137.2516  154.3463 N   0  0  0  0  0  0  0  0  0  0  0  0
  150.2792  136.0676  154.9775 C   0  0  0  0  0  0  0  0  0  0  0  0
  150.7313  135.8409  156.0997 O   0  0  0  0  0  0  0  0  0  0  0  0
  149.6601  135.1466  154.2264 N   0  0  0  0  0  0  0  0  0  0  0  0
  149.4326  133.7570  154.6135 C   0  0  0  0  0  0  0  0  0  0  0  0
  148.6267  132.9820  153.5430 C   0  0  1  0  0  0  0  0  0  0  0  0
  148.0882  131.6507  154.1150 C   0  0  0  0  0  0  0  0  0  0  0  0
  147.5161  133.8187  153.0000 N   0  3  0  0  0  0  0  0  0  0  0  0
  146.7053  133.1805  151.9401 C   0  0  0  0  0  0  0  0  0  0  0  0
  145.3956  133.9694  151.8721 C   0  0  0  0  0  0  0  0  0  0  0  0
  145.2853  134.6961  153.2147 C   0  0  0  0  0  0  0  0  0  0  0  0
  146.5372  134.2980  154.0002 C   0  0  0  0  0  0  0  0  0  0  0  0
  152.3094  138.7314  154.8315 C   0  0  0  0  0  0  0  0  0  0  0  0
  152.5557  139.9312  155.3354 N   0  0  0  0  0  0  0  0  0  0  0  0
  151.7459  142.8036  158.0751 H   0  0  0  0  0  0  0  0  0  0  0  0
  152.8675  141.5092  157.6620 H   0  0  0  0  0  0  0  0  0  0  0  0
  151.2772  141.1239  158.3202 H   0  0  0  0  0  0  0  0  0  0  0  0
  150.1942  142.0667  156.2401 H   0  0  0  0  0  0  0  0  0  0  0  0
  151.7744  142.4623  155.5935 H   0  0  0  0  0  0  0  0  0  0  0  0
  149.2785  139.8011  155.5409 H   0  0  0  0  0  0  0  0  0  0  0  0
  149.9214  137.3007  153.4275 H   0  0  0  0  0  0  0  0  0  0  0  0
  149.3195  135.4282  153.3187 H   0  0  0  0  0  0  0  0  0  0  0  0
  150.3766  133.2412  154.7990 H   0  0  0  0  0  0  0  0  0  0  0  0
  148.8995  133.7840  155.5636 H   0  0  0  0  0  0  0  0  0  0  0  0
  149.2994  132.7437  152.7171 H   0  0  0  0  0  0  0  0  0  0  0  0
  148.8865  131.0323  154.5250 H   0  0  0  0  0  0  0  0  0  0  0  0
  147.6013  131.0450  153.3512 H   0  0  0  0  0  0  0  0  0  0  0  0
  147.3666  131.8272  154.9132 H   0  0  0  0  0  0  0  0  0  0  0  0
  147.2191  133.1742  150.9785 H   0  0  0  0  0  0  0  0  0  0  0  0
  146.4929  132.1464  152.2172 H   0  0  0  0  0  0  0  0  0  0  0  0
  145.4338  134.6965  151.0600 H   0  0  0  0  0  0  0  0  0  0  0  0
  144.5436  133.3145  151.6867 H   0  0  0  0  0  0  0  0  0  0  0  0
  145.2673  135.7744  153.0507 H   0  0  0  0  0  0  0  0  0  0  0  0
  144.3744  134.4306  153.7528 H   0  0  0  0  0  0  0  0  0  0  0  0
  146.2928  133.4862  154.6876 H   0  0  0  0  0  0  0  0  0  0  0  0
  146.9261  135.1314  154.5859 H   0  0  0  0  0  0  0  0  0  0  0  0
  153.1316  138.1163  154.4965 H   0  0  0  0  0  0  0  0  0  0  0  0
  147.9291  134.6433  152.5877 H   0  0  0  0  0  0  0  0  0  0  0  0
  1  2  1  0  0  0  0
  1 20  1  0  0  0  0
  1 21  1  0  0  0  0
  1 22  1  0  0  0  0
  2  3  1  0  0  0  0
  2 23  1  0  0  0  0
  2 24  1  0  0  0  0
  3 19  1  0  0  0  0
  3  4  1  0  0  0  0
  4  5  2  0  0  0  0
  4 25  1  0  0  0  0
  5  6  1  0  0  0  0
  5 18  1  0  0  0  0
  6  7  1  0  0  0  0
  6 26  1  0  0  0  0
  7  8  2  0  0  0  0
  7  9  1  0  0  0  0
  9 10  1  0  0  0  0
  9 27  1  0  0  0  0
 10 11  1  0  0  0  0
 10 28  1  0  0  0  0
 10 29  1  0  0  0  0
 11 12  1  0  0  0  0
 11 13  1  0  0  0  0
 11 30  1  0  0  0  0
 12 31  1  0  0  0  0
 12 32  1  0  0  0  0
 12 33  1  0  0  0  0
 13 17  1  0  0  0  0
 13 14  1  0  0  0  0
 13 43  1  0  0  0  0
 14 15  1  0  0  0  0
 14 34  1  0  0  0  0
 14 35  1  0  0  0  0
 15 16  1  0  0  0  0
 15 36  1  0  0  0  0
 15 37  1  0  0  0  0
 16 17  1  0  0  0  0
 16 38  1  0  0  0  0
 16 39  1  0  0  0  0
 17 40  1  0  0  0  0
 17 41  1  0  0  0  0
 18 19  2  0  0  0  0
 18 42  1  0  0  0  0
M  CHG  1  13   1
M  END
> <s_m_source_file>
AV-unprocessed.smi

> <i_m_source_file_index>
3353

> <i_lp_mmshare_version>
43012

> <i_f3d_flags>
0

> <s_epik_input>
W0NIM11bQ0gyXW4xW2NIXWMoW2NIXW4xKVtOSF1DKD1PKVtOSF1bQ0gyXVtDQEhdKFtDSDNdKU4yW0NIMl1bQ0gyXVtDSDJdW0NIMl0y

> <s_epik_cmdline>
J2VwaWtfcHl0aG9uJywgJy1waCcsICc3LjAnLCAnLXRuJywgJzgnLCAnLW1hJywgJzIwMCcsICctbWV0YWxfYmluZGluZycsICctaW1hZScsICc8aW5maWxlLm1hZT4nLCAnLW9tYWUnLCAnPG91dGZpbGUubWFlPic=

> <r_lp_tautomer_probability>
1

> <r_epik_Ionization_Penalty>
0.000914091

> <r_epik_Ionization_Penalty_Charging>
0.000761583

> <r_epik_Ionization_Penalty_Neutral>
0.000152508

> <r_epik_State_Penalty>
0.000487427

> <r_epik_Charging_Adjusted_Penalty>
0.00124901

> <i_epik_Tot_Q>
1

> <i_epik_Tot_abs_Q>
1

> <r_epik_Metal_State_Penalty>
-0

> <b_epik_Metal_Only>
0

> <s_lp_Force_Field>
OPLS_2005

> <r_lp_Energy>
35.4291

> <b_lp_Chiralities_Consistent>
1

> <s_lp_Variant>
AV-unprocessed.smi:3353-2

> <Gold.Version>
5.8.1

> <Gold.Id.Protein>
6NUR|6NUR_protein|mol2

> <Gold.PLP.Fitness>
47.0604

> <Gold.PLP.PLP>
-35.3285

> <Gold.PLP.part.hbond>
-6.4176

> <Gold.PLP.part.metal>
0.0000

> <Gold.PLP.part.buried>
-2.2996

> <Gold.PLP.part.nonpolar>
-28.0119

> <Gold.PLP.part.repulsive>
0.1487

> <Gold.PLP.ligand.clash>
0.0000

> <Gold.PLP.ligand.torsion>
0.9352

> <Gold.PLP.Chemscore.Hbond>
4.5120

> <Gold.PLP.Chemscore.CHOScore>
0.0000

> <Gold.PLP.Chemscore.Metal>
0.0000

> <Gold.Chemscore.Hbonds>
donor molecule, donor type, donor heavy atom, donor atom, acceptor molecule, acceptor atom, score
      L1  H     6    26       P1  7948  0.80
      L1  H     9    27       P1  7948  0.90
      L1  H    13    43       P1  7948  2.00
      P1  H  7997  8009       L1    19  1.00

> <Gold.PLP.Chemscore.Internal.Correction>
0.0663

> <Gold.Rescore>
     Score         DG    S(hbond)    S(metal)    S(lipo)     H(rot)  DE(clash)    DE(int)     intcor
     15.71     -16.68       2.26        0.00      66.61       1.61       0.11       0.85       ----

> <Gold.Chemscore.Fitness>
15.7135

> <Gold.Chemscore.DG>
-16.6807

> <Gold.Chemscore.ZeroCoef>
-5.4800

> <Gold.Chemscore.Hbond>
2.2556

> <Gold.Chemscore.Metal>
0.0000

> <Gold.Chemscore.Lipo>
66.6081

> <Gold.Chemscore.Internal_Hbond>
0.0000

> <Gold.Chemscore.DEClash>
0.1132

> <Gold.Chemscore.DEInternal>
0.8541

> <Gold.Chemscore.Rot>
1.6117

> <Gold.Chemscore.Internal.Correction>
   9.000000E+99

> <Gold.Chemscore.Hbonds>
donor molecule, donor type, donor heavy atom, donor atom, acceptor molecule, acceptor atom, score
      L1  H     6    26       P1  7948  0.34
      L1  H     9    27       P1  7948  0.18
      L1  H    13    43       P1  7948  0.68
      P1  H  7997  8009       L1    19  0.89

> <Gold.Chemscore.Hbond.Weighted>
-7.5336

> <Gold.Chemscore.Metal.Weighted>
-0.0000

> <Gold.Chemscore.Lipo.Weighted>
-7.7932

> <Gold.Chemscore.Internal_Hbond.Weighted>
0.0000

> <Gold.Chemscore.DEClash.Weighted>
0.1132

> <Gold.Chemscore.DEInternal.Weighted>
0.8541

> <Gold.Chemscore.Rot.Weighted>
4.1260

> <Gold.Chemscore.Internal.Correction.Weighted>
   9.000000E+99

> <Gold.Protein.RotatedTorsions>
[ 6907 6896 6895 6894 ] final   70.20 input  -60.11 | X-H torsion
[ 7974 7965 7964 7962 ] final -178.95 input  175.53 | X-H torsion
[ 8008 7997 7996 7995 ] final -143.23 input   59.86 | X-H torsion
[ 10167 10162 10161 10158 ] final -137.78 input  -65.29 | X-H torsion
[ 10718 10713 10712 10709 ] final  -66.41 input   66.30 | X-H torsion
[ 10763 10752 10751 10750 ] final  -38.31 input  -60.55 | X-H torsion
[ 11005 11000 10999 10996 ] final  -84.77 input  -57.11 | X-H torsion

> <Gold.Protein.ActiveResidues>
 VAL166  LYS551  ARG553  GLY616  TRP617  ASP618  TYR619  PRO620  LYS621  CYS622 
 ASP623  PHE694  ASN695  SER759  ASP760  ASP761  ALA762  ILE779  LEU786  VAL792 
 PHE793  MET794  SER795  GLU796  ALA797  LYS798  CYS799  TRP800  GLU811  SER814 

> <Gold.Protein.RotatedAtoms>
  152.4734  134.4904  159.9693 H   0  0  0  0  0  0  0  0  0  0  0  0  # atno 6907 bound_to 6896
  151.4925  133.3516  159.2863 H   0  0  0  0  0  0  0  0  0  0  0  0  # atno 6908 bound_to 6896
  150.8758  134.8168  159.7250 H   0  0  0  0  0  0  0  0  0  0  0  0  # atno 6909 bound_to 6896
  144.7133  140.0791  143.6426 H   0  0  0  0  0  0  0  0  0  0  0  0  # atno 7974 bound_to 7965
  155.5071  140.0580  157.2929 H   0  0  0  0  0  0  0  0  0  0  0  0  # atno 8008 bound_to 7997
  154.4565  140.1975  156.0313 H   0  0  0  0  0  0  0  0  0  0  0  0  # atno 8009 bound_to 7997
  156.0809  140.3247  155.7697 H   0  0  0  0  0  0  0  0  0  0  0  0  # atno 8010 bound_to 7997
  139.8543  143.7158  152.2655 H   0  0  0  0  0  0  0  0  0  0  0  0  # atno 10167 bound_to 10162
  156.0614  130.4261  150.1705 H   0  0  0  0  0  0  0  0  0  0  0  0  # atno 10718 bound_to 10713
  153.9107  135.6793  153.4751 H   0  0  0  0  0  0  0  0  0  0  0  0  # atno 10763 bound_to 10752
  153.1080  135.4796  154.8982 H   0  0  0  0  0  0  0  0  0  0  0  0  # atno 10764 bound_to 10752
  154.7528  135.3189  154.8480 H   0  0  0  0  0  0  0  0  0  0  0  0  # atno 10765 bound_to 10752
  141.1647  133.7363  156.8916 H   0  0  0  0  0  0  0  0  0  0  0  0  # atno 11005 bound_to 11000
  145.9717  139.2875  143.1095 LP  0  0  0  0  0  0  0  0  0  0  0  0  # atno 17320 bound_to 7965
  145.9109  140.9181  143.0454 LP  0  0  0  0  0  0  0  0  0  0  0  0  # atno 17321 bound_to 7965
  139.7435  144.7553  151.0616 LP  0  0  0  0  0  0  0  0  0  0  0  0  # atno 17342 bound_to 10162
  140.7783  143.4944  150.9851 LP  0  0  0  0  0  0  0  0  0  0  0  0  # atno 17343 bound_to 10162
  156.9772  130.9853  151.3445 LP  0  0  0  0  0  0  0  0  0  0  0  0  # atno 17370 bound_to 10713
  157.5625  130.8255  149.8284 LP  0  0  0  0  0  0  0  0  0  0  0  0  # atno 17371 bound_to 10713
  140.1644  134.9143  157.2756 LP  0  0  0  0  0  0  0  0  0  0  0  0  # atno 17394 bound_to 11000
  140.2573  134.3612  155.7419 LP  0  0  0  0  0  0  0  0  0  0  0  0  # atno 17395 bound_to 11000

$$$$
