AV-unprocessed.smi:3165|AV-procd|sdf|12090|dock3
  -GOLD-   2272017523D 1   1.00000     0.00000
 Structure written by MMmdl.
 37 38  0  0  0  0  0  0  0  0  1 V2000
  149.9817  140.0125  154.4291 C   0  0  0  0  0  0  0  0  0  0  0  0
  149.4247  141.4482  154.5224 C   0  0  1  0  0  0  0  0  0  0  0  0
  147.9204  141.5210  154.1891 C   0  0  0  0  0  0  0  0  0  0  0  0
  147.5042  140.5184  153.2245 N   0  0  0  0  0  0  0  0  0  0  0  0
  147.0874  140.7075  151.9238 C   0  0  0  0  0  0  0  0  0  0  0  0
  146.7918  139.4780  151.4089 C   0  0  0  0  0  0  0  0  0  0  0  0
  147.0591  138.5875  152.4860 C   0  0  0  0  0  0  0  0  0  0  0  0
  147.4828  139.2132  153.5722 N   0  0  0  0  0  0  0  0  0  0  0  0
  149.6472  142.0353  155.8466 N   0  0  0  0  0  0  0  0  0  0  0  0
  150.8600  141.5986  156.5402 C   0  0  0  0  0  0  0  0  0  0  0  0
  151.1434  142.4545  157.7864 C   0  0  2  0  0  0  0  0  0  0  0  0
  151.6714  143.8687  157.4640 C   0  0  0  0  0  0  0  0  0  0  0  0
  151.9681  144.6368  158.7563 C   0  0  0  0  0  0  0  0  0  0  0  0
  152.8857  143.7993  159.6539 C   0  0  0  0  0  0  0  0  0  0  0  0
  152.2870  142.4011  159.8778 C   0  0  0  0  0  0  0  0  0  0  0  0
  152.0611  141.7572  158.6271 O   0  0  0  0  0  0  0  0  0  0  0  0
  149.8024  139.5781  153.4458 H   0  0  0  0  0  0  0  0  0  0  0  0
  149.5156  139.3593  155.1676 H   0  0  0  0  0  0  0  0  0  0  0  0
  151.0594  139.9810  154.5856 H   0  0  0  0  0  0  0  0  0  0  0  0
  149.9492  142.0553  153.7835 H   0  0  0  0  0  0  0  0  0  0  0  0
  147.3248  141.4114  155.0976 H   0  0  0  0  0  0  0  0  0  0  0  0
  147.6756  142.5002  153.7751 H   0  0  0  0  0  0  0  0  0  0  0  0
  147.0377  141.6903  151.4786 H   0  0  0  0  0  0  0  0  0  0  0  0
  146.4372  139.2498  150.4149 H   0  0  0  0  0  0  0  0  0  0  0  0
  146.9571  137.5127  152.5113 H   0  0  0  0  0  0  0  0  0  0  0  0
  149.6511  143.0478  155.7728 H   0  0  0  0  0  0  0  0  0  0  0  0
  150.7699  140.5559  156.8436 H   0  0  0  0  0  0  0  0  0  0  0  0
  151.7158  141.6565  155.8666 H   0  0  0  0  0  0  0  0  0  0  0  0
  150.2023  142.5528  158.3303 H   0  0  0  0  0  0  0  0  0  0  0  0
  152.5848  143.8051  156.8717 H   0  0  0  0  0  0  0  0  0  0  0  0
  150.9461  144.4153  156.8607 H   0  0  0  0  0  0  0  0  0  0  0  0
  152.4301  145.5982  158.5299 H   0  0  0  0  0  0  0  0  0  0  0  0
  151.0357  144.8512  159.2798 H   0  0  0  0  0  0  0  0  0  0  0  0
  153.8670  143.7043  159.1877 H   0  0  0  0  0  0  0  0  0  0  0  0
  153.0401  144.3019  160.6091 H   0  0  0  0  0  0  0  0  0  0  0  0
  152.9718  141.7916  160.4678 H   0  0  0  0  0  0  0  0  0  0  0  0
  151.3539  142.4637  160.4395 H   0  0  0  0  0  0  0  0  0  0  0  0
  1  2  1  0  0  0  0
  1 17  1  0  0  0  0
  1 18  1  0  0  0  0
  1 19  1  0  0  0  0
  2  3  1  0  0  0  0
  2  9  1  0  0  0  0
  2 20  1  0  0  0  0
  3  4  1  0  0  0  0
  3 21  1  0  0  0  0
  3 22  1  0  0  0  0
  4  8  1  0  0  0  0
  4  5  1  0  0  0  0
  5  6  2  0  0  0  0
  5 23  1  0  0  0  0
  6  7  1  0  0  0  0
  6 24  1  0  0  0  0
  7  8  2  0  0  0  0
  7 25  1  0  0  0  0
  9 10  1  0  0  0  0
  9 26  1  0  0  0  0
 10 11  1  0  0  0  0
 10 27  1  0  0  0  0
 10 28  1  0  0  0  0
 11 16  1  0  0  0  0
 11 12  1  0  0  0  0
 11 29  1  0  0  0  0
 12 13  1  0  0  0  0
 12 30  1  0  0  0  0
 12 31  1  0  0  0  0
 13 14  1  0  0  0  0
 13 32  1  0  0  0  0
 13 33  1  0  0  0  0
 14 15  1  0  0  0  0
 14 34  1  0  0  0  0
 14 35  1  0  0  0  0
 15 16  1  0  0  0  0
 15 36  1  0  0  0  0
 15 37  1  0  0  0  0
M  END
> <s_m_source_file>
AV-unprocessed.smi

> <i_m_source_file_index>
3165

> <i_lp_mmshare_version>
43012

> <i_f3d_flags>
0

> <s_epik_input>
bjFbY0hdW2NIXVtjSF1uMVtDSDJdW0NAQEhdKFtDSDNdKVtOSF1bQ0gyXVtDQEBIXTJbQ0gyXVtDSDJdW0NIMl1bQ0gyXU8y

> <s_epik_cmdline>
J2VwaWtfcHl0aG9uJywgJy1waCcsICc3LjAnLCAnLXRuJywgJzgnLCAnLW1hJywgJzIwMCcsICctbWV0YWxfYmluZGluZycsICctaW1hZScsICc8aW5maWxlLm1hZT4nLCAnLW9tYWUnLCAnPG91dGZpbGUubWFlPic=

> <r_lp_tautomer_probability>
1

> <r_epik_Ionization_Penalty>
2.51982

> <r_epik_Ionization_Penalty_Charging>
0

> <r_epik_Ionization_Penalty_Neutral>
2.51982

> <r_epik_State_Penalty>
2.68614

> <r_epik_Charging_Adjusted_Penalty>
2.68614

> <i_epik_Tot_Q>
0

> <i_epik_Tot_abs_Q>
0

> <r_epik_Metal_State_Penalty>
2.6861

> <b_epik_Metal_Only>
0

> <s_lp_Force_Field>
OPLS_2005

> <r_lp_Energy>
15.9673

> <b_lp_Chiralities_Consistent>
1

> <s_lp_Variant>
AV-unprocessed.smi:3165-6

> <Gold.Version>
5.8.1

> <Gold.Id.Protein>
6NUR|6NUR_protein|mol2

> <Gold.PLP.Fitness>
40.4938

> <Gold.PLP.PLP>
-37.1046

> <Gold.PLP.part.hbond>
-1.0000

> <Gold.PLP.part.metal>
0.0000

> <Gold.PLP.part.buried>
2.5562

> <Gold.PLP.part.nonpolar>
-39.2000

> <Gold.PLP.part.repulsive>
0.1798

> <Gold.PLP.ligand.clash>
0.0000

> <Gold.PLP.ligand.torsion>
0.8233

> <Gold.PLP.Chemscore.Hbond>
1.0000

> <Gold.PLP.Chemscore.CHOScore>
0.6664

> <Gold.PLP.Chemscore.Metal>
0.0000

> <Gold.Chemscore.Hbonds>
donor molecule, donor type, donor heavy atom, donor atom, acceptor molecule, acceptor atom, score
      L1  H     9    26       P1  8028  1.00
      L1  C     7    25       P1  7948  0.71

> <Gold.PLP.Chemscore.Internal.Correction>
0.0367

> <Gold.Rescore>
     Score         DG    S(hbond)    S(metal)    S(lipo)     H(rot)  DE(clash)    DE(int)     intcor
     15.54     -18.07       1.00        0.00     113.61       1.57       0.28       2.26       ----

> <Gold.Chemscore.Fitness>
15.5380

> <Gold.Chemscore.DG>
-18.0740

> <Gold.Chemscore.ZeroCoef>
-5.4800

> <Gold.Chemscore.Hbond>
0.9968

> <Gold.Chemscore.Metal>
0.0000

> <Gold.Chemscore.Lipo>
113.6067

> <Gold.Chemscore.Internal_Hbond>
0.0000

> <Gold.Chemscore.DEClash>
0.2794

> <Gold.Chemscore.DEInternal>
2.2567

> <Gold.Chemscore.Rot>
1.5731

> <Gold.Chemscore.Internal.Correction>
   9.000000E+99

> <Gold.Chemscore.Hbonds>
donor molecule, donor type, donor heavy atom, donor atom, acceptor molecule, acceptor atom, score
      L1  H     9    26       P1  8028  0.98

> <Gold.Chemscore.Hbond.Weighted>
-3.3293

> <Gold.Chemscore.Metal.Weighted>
-0.0000

> <Gold.Chemscore.Lipo.Weighted>
-13.2920

> <Gold.Chemscore.Internal_Hbond.Weighted>
0.0000

> <Gold.Chemscore.DEClash.Weighted>
0.2794

> <Gold.Chemscore.DEInternal.Weighted>
2.2567

> <Gold.Chemscore.Rot.Weighted>
4.0273

> <Gold.Chemscore.Internal.Correction.Weighted>
   9.000000E+99

> <Gold.Protein.RotatedTorsions>
[ 6907 6896 6895 6894 ] final  113.38 input  -60.11 | X-H torsion
[ 7974 7965 7964 7962 ] final   96.52 input  175.53 | X-H torsion
[ 8008 7997 7996 7995 ] final  -86.21 input   59.86 | X-H torsion
[ 10167 10162 10161 10158 ] final  152.04 input  -65.29 | X-H torsion
[ 10718 10713 10712 10709 ] final   16.01 input   66.30 | X-H torsion
[ 10763 10752 10751 10750 ] final -114.09 input  -60.55 | X-H torsion
[ 11005 11000 10999 10996 ] final  -30.87 input  -57.11 | X-H torsion

> <Gold.Protein.ActiveResidues>
 VAL166  LYS551  ARG553  GLY616  TRP617  ASP618  TYR619  PRO620  LYS621  CYS622 
 ASP623  PHE694  ASN695  SER759  ASP760  ASP761  ALA762  ILE779  LEU786  VAL792 
 PHE793  MET794  SER795  GLU796  ALA797  LYS798  CYS799  TRP800  GLU811  SER814 

> <Gold.Protein.RotatedAtoms>
  152.4864  133.8384  159.7139 H   0  0  0  0  0  0  0  0  0  0  0  0  # atno 6907 bound_to 6896
  150.8954  133.7178  159.2899 H   0  0  0  0  0  0  0  0  0  0  0  0  # atno 6908 bound_to 6896
  151.4637  135.1044  159.9784 H   0  0  0  0  0  0  0  0  0  0  0  0  # atno 6909 bound_to 6896
  145.4377  139.2304  143.3109 H   0  0  0  0  0  0  0  0  0  0  0  0  # atno 7974 bound_to 7965
  154.6493  140.0581  156.9937 H   0  0  0  0  0  0  0  0  0  0  0  0  # atno 8008 bound_to 7997
  155.1395  140.3264  155.4437 H   0  0  0  0  0  0  0  0  0  0  0  0  # atno 8009 bound_to 7997
  156.2568  140.1966  156.6512 H   0  0  0  0  0  0  0  0  0  0  0  0  # atno 8010 bound_to 7997
  139.4836  144.5391  151.7595 H   0  0  0  0  0  0  0  0  0  0  0  0  # atno 10167 bound_to 10162
  157.0617  130.6311  149.5787 H   0  0  0  0  0  0  0  0  0  0  0  0  # atno 10718 bound_to 10713
  154.8425  135.4430  154.1452 H   0  0  0  0  0  0  0  0  0  0  0  0  # atno 10763 bound_to 10752
  153.2627  135.6937  153.7568 H   0  0  0  0  0  0  0  0  0  0  0  0  # atno 10764 bound_to 10752
  153.6839  135.3398  155.3160 H   0  0  0  0  0  0  0  0  0  0  0  0  # atno 10765 bound_to 10752
  140.9420  133.7273  156.1089 H   0  0  0  0  0  0  0  0  0  0  0  0  # atno 11005 bound_to 11000
  146.2573  140.5121  142.8868 LP  0  0  0  0  0  0  0  0  0  0  0  0  # atno 17320 bound_to 7965
  144.8142  140.6438  143.6395 LP  0  0  0  0  0  0  0  0  0  0  0  0  # atno 17321 bound_to 7965
  140.4927  144.1286  150.5954 LP  0  0  0  0  0  0  0  0  0  0  0  0  # atno 17342 bound_to 10162
  140.4152  143.2637  151.9783 LP  0  0  0  0  0  0  0  0  0  0  0  0  # atno 17343 bound_to 10162
  155.9976  130.5048  150.7542 LP  0  0  0  0  0  0  0  0  0  0  0  0  # atno 17370 bound_to 10713
  157.4949  131.0914  151.0383 LP  0  0  0  0  0  0  0  0  0  0  0  0  # atno 17371 bound_to 10713
  140.7721  134.3820  157.5505 LP  0  0  0  0  0  0  0  0  0  0  0  0  # atno 17394 bound_to 11000
  139.8823  134.9029  156.2842 LP  0  0  0  0  0  0  0  0  0  0  0  0  # atno 17395 bound_to 11000

$$$$
