AV-unprocessed.smi:1638|AV-procd|sdf|6546|dock8
  -GOLD-   22720 7233D 1   1.00000     0.00000
 Structure written by MMmdl.
 41 42  0  0  0  0  0  0  0  0  2 V2000
  154.1734  133.0239  164.5967 C   0  0  0  0  0  0  0  0  0  0  0  0
  154.5549  134.2179  163.7902 C   0  0  0  0  0  0  0  0  0  0  0  0
  155.3682  134.1460  162.7296 N   0  0  0  0  0  0  0  0  0  0  0  0
  155.5799  135.3863  162.1439 N   0  0  0  0  0  0  0  0  0  0  0  0
  154.9189  136.3606  162.7840 C   0  0  0  0  0  0  0  0  0  0  0  0
  154.9644  137.7276  162.4008 N   0  0  0  0  0  0  0  0  0  0  0  0
  154.1569  138.3786  161.5448 C   0  0  0  0  0  0  0  0  0  0  0  0
  153.1926  137.8863  160.9583 O   0  0  0  0  0  0  0  0  0  0  0  0
  154.5264  139.6600  161.4025 N   0  0  0  0  0  0  0  0  0  0  0  0
  153.8562  140.6248  160.5380 C   0  0  0  0  0  0  0  0  0  0  0  0
  153.2099  141.7603  161.3565 C   0  0  0  0  0  0  0  0  0  0  0  0
  152.5911  142.8116  160.5048 N   0  3  0  0  0  0  0  0  0  0  0  0
  153.4304  143.1555  159.3265 C   0  0  0  0  0  0  0  0  0  0  0  0
  152.5593  143.3686  158.0764 C   0  0  0  0  0  0  0  0  0  0  0  0
  151.8651  144.7360  158.0075 C   0  0  0  0  0  0  0  0  0  0  0  0
  150.9824  145.0587  159.2226 C   0  0  0  0  0  0  0  0  0  0  0  0
  151.8061  145.2653  160.5026 C   0  0  0  0  0  0  0  0  0  0  0  0
  152.1102  143.9799  161.2987 C   0  0  0  0  0  0  0  0  0  0  0  0
  153.9734  135.8354  164.1666 S   0  0  0  0  0  0  0  0  0  0  0  0
  154.3616  132.1066  164.0376 H   0  0  0  0  0  0  0  0  0  0  0  0
  153.1141  133.0653  164.8503 H   0  0  0  0  0  0  0  0  0  0  0  0
  154.7540  132.9975  165.5187 H   0  0  0  0  0  0  0  0  0  0  0  0
  155.7064  138.2687  162.8196 H   0  0  0  0  0  0  0  0  0  0  0  0
  155.3311  139.9865  161.9176 H   0  0  0  0  0  0  0  0  0  0  0  0
  154.5951  141.0362  159.8497 H   0  0  0  0  0  0  0  0  0  0  0  0
  153.1206  140.0995  159.9279 H   0  0  0  0  0  0  0  0  0  0  0  0
  152.4604  141.3682  162.0458 H   0  0  0  0  0  0  0  0  0  0  0  0
  153.9935  142.2043  161.9720 H   0  0  0  0  0  0  0  0  0  0  0  0
  154.0823  144.0064  159.5290 H   0  0  0  0  0  0  0  0  0  0  0  0
  154.1019  142.3270  159.0991 H   0  0  0  0  0  0  0  0  0  0  0  0
  153.1901  143.2695  157.1923 H   0  0  0  0  0  0  0  0  0  0  0  0
  151.8191  142.5708  158.0012 H   0  0  0  0  0  0  0  0  0  0  0  0
  152.6146  145.5188  157.8839 H   0  0  0  0  0  0  0  0  0  0  0  0
  151.2511  144.7689  157.1068 H   0  0  0  0  0  0  0  0  0  0  0  0
  150.4443  145.9827  159.0074 H   0  0  0  0  0  0  0  0  0  0  0  0
  150.2193  144.2933  159.3692 H   0  0  0  0  0  0  0  0  0  0  0  0
  152.7301  145.7958  160.2695 H   0  0  0  0  0  0  0  0  0  0  0  0
  151.2572  145.9370  161.1637 H   0  0  0  0  0  0  0  0  0  0  0  0
  151.2016  143.6798  161.8204 H   0  0  0  0  0  0  0  0  0  0  0  0
  152.8426  144.2226  162.0704 H   0  0  0  0  0  0  0  0  0  0  0  0
  151.7660  142.3841  160.1095 H   0  0  0  0  0  0  0  0  0  0  0  0
  1  2  1  0  0  0  0
  1 20  1  0  0  0  0
  1 21  1  0  0  0  0
  1 22  1  0  0  0  0
  2 19  1  0  0  0  0
  2  3  2  0  0  0  0
  3  4  1  0  0  0  0
  4  5  2  0  0  0  0
  5  6  1  0  0  0  0
  5 19  1  0  0  0  0
  6  7  1  0  0  0  0
  6 23  1  0  0  0  0
  7  8  2  0  0  0  0
  7  9  1  0  0  0  0
  9 10  1  0  0  0  0
  9 24  1  0  0  0  0
 10 11  1  0  0  0  0
 10 25  1  0  0  0  0
 10 26  1  0  0  0  0
 11 12  1  0  0  0  0
 11 27  1  0  0  0  0
 11 28  1  0  0  0  0
 12 18  1  0  0  0  0
 12 13  1  0  0  0  0
 12 41  1  0  0  0  0
 13 14  1  0  0  0  0
 13 29  1  0  0  0  0
 13 30  1  0  0  0  0
 14 15  1  0  0  0  0
 14 31  1  0  0  0  0
 14 32  1  0  0  0  0
 15 16  1  0  0  0  0
 15 33  1  0  0  0  0
 15 34  1  0  0  0  0
 16 17  1  0  0  0  0
 16 35  1  0  0  0  0
 16 36  1  0  0  0  0
 17 18  1  0  0  0  0
 17 37  1  0  0  0  0
 17 38  1  0  0  0  0
 18 39  1  0  0  0  0
 18 40  1  0  0  0  0
M  CHG  1  12   1
M  END
> <s_m_source_file>
AV-unprocessed.smi

> <i_m_source_file_index>
1638

> <i_lp_mmshare_version>
43012

> <i_f3d_flags>
0

> <s_epik_input>
W0NIM11jMW5uYyhzMSlbTkhdQyg9TylbTkhdW0NIMl1bQ0gyXU4yW0NIMl1bQ0gyXVtDSDJdW0NIMl1bQ0gyXVtDSDJdMg==

> <s_epik_cmdline>
J2VwaWtfcHl0aG9uJywgJy1waCcsICc3LjAnLCAnLXRuJywgJzgnLCAnLW1hJywgJzIwMCcsICctbWV0YWxfYmluZGluZycsICctaW1hZScsICc8aW5maWxlLm1hZT4nLCAnLW9tYWUnLCAnPG91dGZpbGUubWFlPic=

> <r_lp_tautomer_probability>
1

> <r_epik_Ionization_Penalty>
0.00683162

> <r_epik_Ionization_Penalty_Charging>
0.00256589

> <r_epik_Ionization_Penalty_Neutral>
0.00426573

> <r_epik_State_Penalty>
0.0020046

> <r_epik_Charging_Adjusted_Penalty>
0.00457048

> <i_epik_Tot_Q>
1

> <i_epik_Tot_abs_Q>
1

> <r_epik_Metal_State_Penalty>
0.375345

> <b_epik_Metal_Only>
0

> <s_lp_Force_Field>
OPLS_2005

> <r_lp_Energy>
20.2813

> <b_lp_Chiralities_Consistent>
1

> <s_lp_Variant>
AV-unprocessed.smi:1638-1

> <Gold.Version>
5.8.1

> <Gold.Id.Protein>
6NUR|6NUR_protein|mol2

> <Gold.PLP.Fitness>
39.8622

> <Gold.PLP.PLP>
-41.5282

> <Gold.PLP.part.hbond>
0.0000

> <Gold.PLP.part.metal>
0.0000

> <Gold.PLP.part.buried>
-5.2030

> <Gold.PLP.part.nonpolar>
-35.8820

> <Gold.PLP.part.repulsive>
0.0584

> <Gold.PLP.ligand.clash>
0.0000

> <Gold.PLP.ligand.torsion>
0.8564

> <Gold.PLP.Chemscore.Hbond>
0.0000

> <Gold.PLP.Chemscore.CHOScore>
0.0000

> <Gold.PLP.Chemscore.Metal>
0.0000

> <Gold.PLP.Chemscore.Internal.Correction>
0.0468

> <Gold.Rescore>
     Score         DG    S(hbond)    S(metal)    S(lipo)     H(rot)  DE(clash)    DE(int)     intcor
     13.87     -15.04       0.00        0.00     116.69       1.60       0.35       0.82       ----

> <Gold.Chemscore.Fitness>
13.8703

> <Gold.Chemscore.DG>
-15.0434

> <Gold.Chemscore.ZeroCoef>
-5.4800

> <Gold.Chemscore.Hbond>
0.0000

> <Gold.Chemscore.Metal>
0.0000

> <Gold.Chemscore.Lipo>
116.6919

> <Gold.Chemscore.Internal_Hbond>
0.0000

> <Gold.Chemscore.DEClash>
0.3546

> <Gold.Chemscore.DEInternal>
0.8184

> <Gold.Chemscore.Rot>
1.5975

> <Gold.Chemscore.Internal.Correction>
   9.000000E+99

> <Gold.Chemscore.Hbond.Weighted>
-0.0000

> <Gold.Chemscore.Metal.Weighted>
-0.0000

> <Gold.Chemscore.Lipo.Weighted>
-13.6529

> <Gold.Chemscore.Internal_Hbond.Weighted>
0.0000

> <Gold.Chemscore.DEClash.Weighted>
0.3546

> <Gold.Chemscore.DEInternal.Weighted>
0.8184

> <Gold.Chemscore.Rot.Weighted>
4.0896

> <Gold.Chemscore.Internal.Correction.Weighted>
   9.000000E+99

> <Gold.Protein.RotatedTorsions>
[ 6907 6896 6895 6894 ] final   42.70 input  -60.11 | X-H torsion
[ 7974 7965 7964 7962 ] final  167.72 input  175.53 | X-H torsion
[ 8008 7997 7996 7995 ] final   21.01 input   59.86 | X-H torsion
[ 10167 10162 10161 10158 ] final  -72.77 input  -65.29 | X-H torsion
[ 10718 10713 10712 10709 ] final  -59.68 input   66.30 | X-H torsion
[ 10763 10752 10751 10750 ] final  -71.87 input  -60.55 | X-H torsion
[ 11005 11000 10999 10996 ] final -118.06 input  -57.11 | X-H torsion

> <Gold.Protein.ActiveResidues>
 VAL166  LYS551  ARG553  GLY616  TRP617  ASP618  TYR619  PRO620  LYS621  CYS622 
 ASP623  PHE694  ASN695  SER759  ASP760  ASP761  ALA762  ILE779  LEU786  VAL792 
 PHE793  MET794  SER795  GLU796  ALA797  LYS798  CYS799  TRP800  GLU811  SER814 

> <Gold.Protein.RotatedAtoms>
  152.2112  134.8500  160.0496 H   0  0  0  0  0  0  0  0  0  0  0  0  # atno 6907 bound_to 6896
  151.9318  133.3608  159.3941 H   0  0  0  0  0  0  0  0  0  0  0  0  # atno 6908 bound_to 6896
  150.6977  134.4454  159.5356 H   0  0  0  0  0  0  0  0  0  0  0  0  # atno 6909 bound_to 6896
  144.7414  139.8802  143.6395 H   0  0  0  0  0  0  0  0  0  0  0  0  # atno 7974 bound_to 7965
  154.9442  140.3057  155.5106 H   0  0  0  0  0  0  0  0  0  0  0  0  # atno 8008 bound_to 7997
  156.2993  140.2331  156.4451 H   0  0  0  0  0  0  0  0  0  0  0  0  # atno 8009 bound_to 7997
  154.8117  140.0428  157.1335 H   0  0  0  0  0  0  0  0  0  0  0  0  # atno 8010 bound_to 7997
  140.5165  143.2337  151.7504 H   0  0  0  0  0  0  0  0  0  0  0  0  # atno 10167 bound_to 10162
  156.1044  130.4182  150.0749 H   0  0  0  0  0  0  0  0  0  0  0  0  # atno 10718 bound_to 10713
  154.4378  135.5948  153.6110 H   0  0  0  0  0  0  0  0  0  0  0  0  # atno 10763 bound_to 10752
  152.9803  135.5991  154.3759 H   0  0  0  0  0  0  0  0  0  0  0  0  # atno 10764 bound_to 10752
  154.3606  135.2841  155.2301 H   0  0  0  0  0  0  0  0  0  0  0  0  # atno 10765 bound_to 10752
  141.0312  133.9978  157.3140 H   0  0  0  0  0  0  0  0  0  0  0  0  # atno 11005 bound_to 11000
  146.1217  139.4236  143.0224 LP  0  0  0  0  0  0  0  0  0  0  0  0  # atno 17320 bound_to 7965
  145.7295  141.0047  143.1359 LP  0  0  0  0  0  0  0  0  0  0  0  0  # atno 17321 bound_to 7965
  139.4911  144.4316  151.9865 LP  0  0  0  0  0  0  0  0  0  0  0  0  # atno 17342 bound_to 10162
  140.3411  144.3202  150.5967 LP  0  0  0  0  0  0  0  0  0  0  0  0  # atno 17343 bound_to 10162
  156.8728  130.9530  151.3607 LP  0  0  0  0  0  0  0  0  0  0  0  0  # atno 17370 bound_to 10713
  157.6219  130.8661  149.9123 LP  0  0  0  0  0  0  0  0  0  0  0  0  # atno 17371 bound_to 10713
  139.9209  135.0200  156.8060 LP  0  0  0  0  0  0  0  0  0  0  0  0  # atno 17394 bound_to 11000
  140.6403  133.9824  155.7704 LP  0  0  0  0  0  0  0  0  0  0  0  0  # atno 17395 bound_to 11000

$$$$
