#       Name:                AV-unprocessed.smi:133
#       Creating user name   scv26
#       Creation time:       Thu Mar 26 18:30:44 2020


#       File generated by GOLD software.
#

@<TRIPOS>MOLECULE
AV-unprocessed.smi:133
    55    58     1
SMALL
NO_CHARGES


@<TRIPOS>ATOM
      1 ****        -0.3547  -0.0737  -1.1489 O.2            1 S1                 0.0000
      2 ****         0.2050  -0.8417  -0.3653 C.2            1 S1                 0.0000
      3 ****         1.7361  -0.8412  -0.2293 C.3            1 S1                 0.0000
      4 ****         2.4100   0.1596  -1.0859 N.am           1 S1                 0.0000
      5 ****         2.7886  -0.2157  -2.3991 C.2            1 S1                 0.0000
      6 ****         2.5841  -1.3545  -2.8221 O.2            1 S1                 0.0000
      7 ****         3.4143   0.8319  -3.1976 C.2            1 S1                 0.0000
      8 ****         3.7921   0.5709  -4.4605 F              1 S1                 0.0000
      9 ****         3.6164   2.0647  -2.6893 C.2            1 S1                 0.0000
     10 ****         3.2629   2.4120  -1.4004 N.am           1 S1                 0.0000
     11 ****         3.4817   3.8322  -0.9325 C.3            1 S1                 0.0000
     12 ****         4.3509   3.9375   0.3350 C.3            1 S1                 0.0000
     13 ****         3.4412   4.6649   1.3118 C.3            1 S1                 0.0000
     14 ****         2.4343   5.3491   0.3934 C.3            1 S1                 0.0000
     15 ****         2.2419   4.4017  -0.6453 O.3            1 S1                 0.0000
     16 ****         2.6162   1.4636  -0.5745 C.2            1 S1                 0.0000
     17 ****         2.2342   1.7634   0.5578 O.2            1 S1                 0.0000
     18 ****        -0.4326  -1.7425   0.4041 N.am           1 S1                 0.0000
     19 ****        -1.8280  -1.9876   0.5113 C.ar           1 S1                 0.0000
     20 ****        -2.8170  -0.9962   0.2573 C.ar           1 S1                 0.0000
     21 ****        -4.1902  -1.2933   0.4013 C.ar           1 S1                 0.0000
     22 ****        -4.5538  -2.5870   0.8108 C.ar           1 S1                 0.0000
     23 ****        -3.5932  -3.5542   1.0747 C.ar           1 S1                 0.0000
     24 ****        -2.2221  -3.2773   0.9380 C.ar           1 S1                 0.0000
     25 ****        -4.2186  -4.8530   1.5049 C.3            1 S1                 0.0000
     26 ****        -5.7335  -4.6265   1.2811 C.3            1 S1                 0.0000
     27 ****        -5.9457  -3.1138   1.0297 C.3            1 S1                 0.0000
     28 ****         1.9897  -0.6877   0.8209 H              1 S1                 0.0000
     29 ****         2.1019  -1.8467  -0.4429 H              1 S1                 0.0000
     30 ****         4.0779   2.8062  -3.3251 H              1 S1                 0.0000
     31 ****         3.9318   4.3607  -1.7742 H              1 S1                 0.0000
     32 ****         4.6788   2.9643   0.7016 H              1 S1                 0.0000
     33 ****         5.2336   4.5337   0.1014 H              1 S1                 0.0000
     34 ****         2.9298   3.9479   1.9549 H              1 S1                 0.0000
     35 ****         3.9770   5.3674   1.9506 H              1 S1                 0.0000
     36 ****         1.4984   5.5893   0.8980 H              1 S1                 0.0000
     37 ****         2.8492   6.2685  -0.0231 H              1 S1                 0.0000
     38 ****         0.1584  -2.3734   0.9254 H              1 S1                 0.0000
     39 ****        -2.5429   0.0056  -0.0355 H              1 S1                 0.0000
     40 ****        -4.9411  -0.5413   0.2078 H              1 S1                 0.0000
     41 ****        -1.4876  -4.0407   1.1505 H              1 S1                 0.0000
     42 ****        -3.8368  -5.6926   0.9229 H              1 S1                 0.0000
     43 ****        -3.9964  -5.0280   2.5581 H              1 S1                 0.0000
     44 ****        -6.0318  -5.1677   0.3823 H              1 S1                 0.0000
     45 ****        -6.3437  -5.0095   2.0997 H              1 S1                 0.0000
     46 ****        -6.3839  -2.6260   1.9009 H              1 S1                 0.0000
     47 ****        -6.5835  -2.9252   0.1655 H              1 S1                 0.0000
     48 ****         0.1875   0.5575  -1.7035 LP             1 S1                 0.0000
     49 ****        -1.3513  -0.0813  -1.2304 LP             1 S1                 0.0000
     50 ****         2.1433  -2.0340  -2.2357 LP             1 S1                 0.0000
     51 ****         2.8589  -1.5993  -3.7519 LP             1 S1                 0.0000
     52 ****         1.6025   3.6934  -0.3464 LP             1 S1                 0.0000
     53 ****         1.8791   4.8566  -1.4586 LP             1 S1                 0.0000
     54 ****         1.7729   1.0825   1.1265 LP             1 S1                 0.0000
     55 ****         2.3855   2.6878   0.9081 LP             1 S1                 0.0000
@<TRIPOS>BOND
    1    1    2 2     
    2    2    3 1     
    3    2   18 am    
    4    3    4 1     
    5    3   28 1     
    6    3   29 1     
    7    4   16 am    
    8    4    5 am    
    9    5    6 2     
   10    5    7 1     
   11    7    8 1     
   12    7    9 2     
   13    9   10 1     
   14    9   30 1     
   15   10   11 1     
   16   10   16 am    
   17   11   15 1     
   18   11   12 1     
   19   11   31 1     
   20   12   13 1     
   21   12   32 1     
   22   12   33 1     
   23   13   14 1     
   24   13   34 1     
   25   13   35 1     
   26   14   15 1     
   27   14   36 1     
   28   14   37 1     
   29   16   17 2     
   30   18   19 1     
   31   18   38 1     
   32   19   24 ar    
   33   19   20 ar    
   34   20   21 ar    
   35   20   39 1     
   36   21   22 ar    
   37   21   40 1     
   38   22   27 1     
   39   22   23 ar    
   40   23   24 ar    
   41   23   25 1     
   42   24   41 1     
   43   25   26 1     
   44   25   42 1     
   45   25   43 1     
   46   26   27 1     
   47   26   44 1     
   48   26   45 1     
   49   27   46 1     
   50   27   47 1     
   51    1   48 1     
   52    1   49 1     
   53    6   50 1     
   54    6   51 1     
   55   15   52 1     
   56   15   53 1     
   57   17   54 1     
   58   17   55 1     
@<TRIPOS>SUBSTRUCTURE
      1 S1             1
@<TRIPOS>SET
LONE_PAIRS      STATIC     ATOMS    <user>   **** ""
8 48 49 50 51 52 53 54 55
DONOR_HYDROGENS      STATIC     ATOMS    <user>   **** ""
1 38
ATOM$BLUE        STATIC     ATOMS    COLORGROUP SYSTEM
8 48 49 50 51 52 53 54 55
ATOM$RED        STATIC     ATOMS    COLORGROUP SYSTEM
1 38
