AV-unprocessed.smi:282|AV-procd|sdf|2124|dock7
  -GOLD-   2262021433D 1   1.00000     0.00000
 Structure written by MMmdl.
 65 69  0  0  0  0  0  0  0  0  2 V2000
  145.1733  143.0230  154.8255 C   0  0  0  0  0  0  0  0  0  0  0  0
  146.6496  142.6796  154.5846 C   0  0  0  0  0  0  0  0  0  0  0  0
  147.1041  141.3997  155.3180 C   0  0  1  0  0  0  0  0  0  0  0  0
  148.6438  141.3003  155.3936 C   0  0  0  0  0  0  0  0  0  0  0  0
  149.2174  142.2508  156.3818 N   0  3  2  0  0  0  0  0  0  0  0  0
  150.7003  142.1763  156.4226 C   0  0  0  0  0  0  0  0  0  0  0  0
  151.2882  143.2477  157.3538 C   0  0  0  0  0  0  0  0  0  0  0  0
  150.7009  143.1226  158.7644 C   0  0  0  0  0  0  0  0  0  0  0  0
  149.1697  143.1830  158.6991 C   0  0  0  0  0  0  0  0  0  0  0  0
  148.6024  142.1211  157.7358 C   0  0  1  0  0  0  0  0  0  0  0  0
  147.0663  142.2287  157.6550 C   0  0  0  0  0  0  0  0  0  0  0  0
  146.5249  141.3042  156.6623 N   0  0  0  0  0  0  0  0  0  0  0  0
  146.1393  140.0907  157.1369 C   0  0  0  0  0  0  0  0  0  0  0  0
  146.4319  138.9626  156.4366 N   0  0  0  0  0  0  0  0  0  0  0  0
  146.0648  137.7648  156.9006 C   0  0  0  0  0  0  0  0  0  0  0  0
  145.4056  137.4720  158.0227 N   0  0  0  0  0  0  0  0  0  0  0  0
  145.0993  138.5991  158.7264 C   0  0  0  0  0  0  0  0  0  0  0  0
  145.4295  139.9348  158.3609 C   0  0  0  0  0  0  0  0  0  0  0  0
  144.9537  140.8188  159.3216 N   0  0  0  0  0  0  0  0  0  0  0  0
  144.3856  140.0493  160.2094 C   0  0  0  0  0  0  0  0  0  0  0  0
  144.4106  138.7027  159.9232 N   0  0  0  0  0  0  0  0  0  0  0  0
  143.8531  137.6286  160.7330 C   0  0  0  0  0  0  0  0  0  0  0  0
  144.9031  136.7815  161.5122 C   0  0  0  0  0  0  0  0  0  0  0  0
  144.2092  135.6671  162.3476 C   0  0  0  0  0  0  0  0  0  0  0  0
  143.2323  136.1872  163.2271 O   0  0  0  0  0  0  0  0  0  0  0  0
  145.8998  136.1361  160.5167 C   0  0  0  0  0  0  0  0  0  0  0  0
  147.1481  135.5535  161.2046 C   0  0  0  0  0  0  0  0  0  0  0  0
  147.7957  136.5578  161.9746 O   0  0  0  0  0  0  0  0  0  0  0  0
  146.9745  137.0695  163.0163 C   0  0  0  0  0  0  0  0  0  0  0  0
  145.7227  137.7353  162.4173 C   0  0  0  0  0  0  0  0  0  0  0  0
  144.8848  143.9084  154.2585 H   0  0  0  0  0  0  0  0  0  0  0  0
  144.9776  143.2285  155.8782 H   0  0  0  0  0  0  0  0  0  0  0  0
  144.5226  142.2042  154.5169 H   0  0  0  0  0  0  0  0  0  0  0  0
  146.7959  142.5448  153.5123 H   0  0  0  0  0  0  0  0  0  0  0  0
  147.2720  143.5297  154.8639 H   0  0  0  0  0  0  0  0  0  0  0  0
  146.7474  140.5642  154.7137 H   0  0  0  0  0  0  0  0  0  0  0  0
  148.9347  140.2877  155.6761 H   0  0  0  0  0  0  0  0  0  0  0  0
  149.0788  141.4802  154.4097 H   0  0  0  0  0  0  0  0  0  0  0  0
  151.0064  141.1827  156.7545 H   0  0  0  0  0  0  0  0  0  0  0  0
  151.1003  142.3119  155.4172 H   0  0  0  0  0  0  0  0  0  0  0  0
  152.3738  143.1540  157.3923 H   0  0  0  0  0  0  0  0  0  0  0  0
  151.0763  144.2397  156.9529 H   0  0  0  0  0  0  0  0  0  0  0  0
  151.0154  142.1806  159.2151 H   0  0  0  0  0  0  0  0  0  0  0  0
  151.0829  143.9189  159.4041 H   0  0  0  0  0  0  0  0  0  0  0  0
  148.7546  143.0418  159.6978 H   0  0  0  0  0  0  0  0  0  0  0  0
  148.8605  144.1780  158.3754 H   0  0  0  0  0  0  0  0  0  0  0  0
  148.8568  141.1318  158.1215 H   0  0  0  0  0  0  0  0  0  0  0  0
  146.6411  142.0508  158.6424 H   0  0  0  0  0  0  0  0  0  0  0  0
  146.7727  143.2427  157.3829 H   0  0  0  0  0  0  0  0  0  0  0  0
  146.3372  136.9204  156.2848 H   0  0  0  0  0  0  0  0  0  0  0  0
  143.9213  140.4467  161.1002 H   0  0  0  0  0  0  0  0  0  0  0  0
  143.1395  138.0730  161.4281 H   0  0  0  0  0  0  0  0  0  0  0  0
  143.2602  136.9886  160.0783 H   0  0  0  0  0  0  0  0  0  0  0  0
  143.7334  134.9327  161.6978 H   0  0  0  0  0  0  0  0  0  0  0  0
  144.9252  135.1089  162.9482 H   0  0  0  0  0  0  0  0  0  0  0  0
  143.1868  137.1235  163.1064 H   0  0  0  0  0  0  0  0  0  0  0  0
  145.4105  135.3559  159.9328 H   0  0  0  0  0  0  0  0  0  0  0  0
  146.2325  136.8879  159.7999 H   0  0  0  0  0  0  0  0  0  0  0  0
  146.8996  134.6982  161.8334 H   0  0  0  0  0  0  0  0  0  0  0  0
  147.8479  135.1903  160.4517 H   0  0  0  0  0  0  0  0  0  0  0  0
  146.7131  136.2768  163.7179 H   0  0  0  0  0  0  0  0  0  0  0  0
  147.5485  137.8050  163.5800 H   0  0  0  0  0  0  0  0  0  0  0  0
  146.0504  138.5956  161.8319 H   0  0  0  0  0  0  0  0  0  0  0  0
  145.1008  138.1411  163.2156 H   0  0  0  0  0  0  0  0  0  0  0  0
  148.9839  143.1766  156.0524 H   0  0  0  0  0  0  0  0  0  0  0  0
  1  2  1  0  0  0  0
  1 31  1  0  0  0  0
  1 32  1  0  0  0  0
  1 33  1  0  0  0  0
  2  3  1  0  0  0  0
  2 34  1  0  0  0  0
  2 35  1  0  0  0  0
  3 12  1  0  0  0  0
  3  4  1  0  0  0  0
  3 36  1  0  0  0  0
  4  5  1  0  0  0  0
  4 37  1  0  0  0  0
  4 38  1  0  0  0  0
  5 10  1  0  0  0  0
  5  6  1  0  0  0  0
  5 65  1  0  0  0  0
  6  7  1  0  0  0  0
  6 39  1  0  0  0  0
  6 40  1  0  0  0  0
  7  8  1  0  0  0  0
  7 41  1  0  0  0  0
  7 42  1  0  0  0  0
  8  9  1  0  0  0  0
  8 43  1  0  0  0  0
  8 44  1  0  0  0  0
  9 10  1  0  0  0  0
  9 45  1  0  0  0  0
  9 46  1  0  0  0  0
 10 11  1  0  0  0  0
 10 47  1  0  0  0  0
 11 12  1  0  0  0  0
 11 48  1  0  0  0  0
 11 49  1  0  0  0  0
 12 13  1  0  0  0  0
 13 18  1  0  0  0  0
 13 14  2  0  0  0  0
 14 15  1  0  0  0  0
 15 16  2  0  0  0  0
 15 50  1  0  0  0  0
 16 17  1  0  0  0  0
 17 21  1  0  0  0  0
 17 18  2  0  0  0  0
 18 19  1  0  0  0  0
 19 20  2  0  0  0  0
 20 21  1  0  0  0  0
 20 51  1  0  0  0  0
 21 22  1  0  0  0  0
 22 23  1  0  0  0  0
 22 52  1  0  0  0  0
 22 53  1  0  0  0  0
 23 30  1  0  0  0  0
 23 24  1  0  0  0  0
 23 26  1  0  0  0  0
 24 25  1  0  0  0  0
 24 54  1  0  0  0  0
 24 55  1  0  0  0  0
 25 56  1  0  0  0  0
 26 27  1  0  0  0  0
 26 57  1  0  0  0  0
 26 58  1  0  0  0  0
 27 28  1  0  0  0  0
 27 59  1  0  0  0  0
 27 60  1  0  0  0  0
 28 29  1  0  0  0  0
 29 30  1  0  0  0  0
 29 61  1  0  0  0  0
 29 62  1  0  0  0  0
 30 63  1  0  0  0  0
 30 64  1  0  0  0  0
M  CHG  1   5   1
M  END
> <s_m_source_file>
AV-unprocessed.smi

> <i_m_source_file_index>
282

> <i_lp_mmshare_version>
43012

> <i_f3d_flags>
0

> <s_epik_input>
W0NIMl0xW0NIMl1bQ0gyXVtDSDJdW0NAQEhdKE4xMilbQ0gyXU4oW0NAQEhdKFtDSDJdMilbQ0gyXVtDSDNdKWMobltjSF1uMyljKGMzNCluW2NIXW40W0NIMl1DNShbQ0gyXVtPSF0pW0NIMl1bQ0gyXU9bQ0gyXVtDSDJdNQ==

> <s_epik_cmdline>
J2VwaWtfcHl0aG9uJywgJy1waCcsICc3LjAnLCAnLXRuJywgJzgnLCAnLW1hJywgJzIwMCcsICctbWV0YWxfYmluZGluZycsICctaW1hZScsICc8aW5maWxlLm1hZT4nLCAnLW9tYWUnLCAnPG91dGZpbGUubWFlPic=

> <r_lp_tautomer_probability>
1

> <r_epik_Ionization_Penalty>
0.00308583

> <r_epik_Ionization_Penalty_Charging>
0.00300384

> <r_epik_Ionization_Penalty_Neutral>
8.19894e-05

> <r_epik_State_Penalty>
-0

> <r_epik_Charging_Adjusted_Penalty>
0.00300384

> <i_epik_Tot_Q>
1

> <i_epik_Tot_abs_Q>
1

> <r_epik_Metal_State_Penalty>
-0

> <b_epik_Metal_Only>
0

> <s_lp_Force_Field>
OPLS_2005

> <r_lp_Energy>
57.1852

> <b_lp_Chiralities_Consistent>
1

> <s_lp_Variant>
AV-unprocessed.smi:282-8

> <Gold.Version>
5.8.1

> <Gold.Id.Protein>
6NUR|6NUR_protein|mol2

> <Gold.PLP.Fitness>
45.7554

> <Gold.PLP.PLP>
-37.8445

> <Gold.PLP.part.hbond>
-3.4203

> <Gold.PLP.part.metal>
0.0000

> <Gold.PLP.part.buried>
-6.2340

> <Gold.PLP.part.nonpolar>
-29.6924

> <Gold.PLP.part.repulsive>
0.0573

> <Gold.PLP.ligand.clash>
0.0000

> <Gold.PLP.ligand.torsion>
0.7016

> <Gold.PLP.Chemscore.Hbond>
3.0069

> <Gold.PLP.Chemscore.CHOScore>
0.0000

> <Gold.PLP.Chemscore.Metal>
0.0000

> <Gold.Chemscore.Hbonds>
donor molecule, donor type, donor heavy atom, donor atom, acceptor molecule, acceptor atom, score
      L1  H     5    65       P1  8028  2.00
      P1  H  6931  6943       L1    28  0.59
      P1  H  6934  6946       L1    19  0.03

> <Gold.PLP.Chemscore.Internal.Correction>
0.2933

> <Gold.Rescore>
     Score         DG    S(hbond)    S(metal)    S(lipo)     H(rot)  DE(clash)    DE(int)     intcor
     15.05     -17.22       1.84        0.00      96.00       2.20       0.25       1.93       ----

> <Gold.Chemscore.Fitness>
15.0476

> <Gold.Chemscore.DG>
-17.2202

> <Gold.Chemscore.ZeroCoef>
-5.4800

> <Gold.Chemscore.Hbond>
1.8417

> <Gold.Chemscore.Metal>
0.0000

> <Gold.Chemscore.Lipo>
95.9981

> <Gold.Chemscore.Internal_Hbond>
0.0000

> <Gold.Chemscore.DEClash>
0.2474

> <Gold.Chemscore.DEInternal>
1.9252

> <Gold.Chemscore.Rot>
2.2042

> <Gold.Chemscore.Internal.Correction>
   9.000000E+99

> <Gold.Chemscore.Hbonds>
donor molecule, donor type, donor heavy atom, donor atom, acceptor molecule, acceptor atom, score
      L1  H     5    65       P1  8028  0.98
      P1  H  6931  6943       L1    28  0.06

> <Gold.Chemscore.Hbond.Weighted>
-6.1513

> <Gold.Chemscore.Metal.Weighted>
-0.0000

> <Gold.Chemscore.Lipo.Weighted>
-11.2318

> <Gold.Chemscore.Internal_Hbond.Weighted>
0.0000

> <Gold.Chemscore.DEClash.Weighted>
0.2474

> <Gold.Chemscore.DEInternal.Weighted>
1.9252

> <Gold.Chemscore.Rot.Weighted>
5.6429

> <Gold.Chemscore.Internal.Correction.Weighted>
   9.000000E+99

> <Gold.Protein.RotatedTorsions>
[ 6907 6896 6895 6894 ] final    2.95 input  -60.11 | X-H torsion
[ 7974 7965 7964 7962 ] final -162.95 input  175.53 | X-H torsion
[ 8008 7997 7996 7995 ] final  -40.60 input   59.86 | X-H torsion
[ 10167 10162 10161 10158 ] final   37.37 input  -65.29 | X-H torsion
[ 10718 10713 10712 10709 ] final  159.23 input   66.30 | X-H torsion
[ 10763 10752 10751 10750 ] final  -92.59 input  -60.55 | X-H torsion
[ 11005 11000 10999 10996 ] final   71.60 input  -57.11 | X-H torsion

> <Gold.Protein.ActiveResidues>
 VAL166  LYS551  ARG553  GLY616  TRP617  ASP618  TYR619  PRO620  LYS621  CYS622 
 ASP623  PHE694  ASN695  SER759  ASP760  ASP761  ALA762  ILE779  LEU786  VAL792 
 PHE793  MET794  SER795  GLU796  ALA797  LYS798  CYS799  TRP800  GLU811  SER814 

> <Gold.Protein.RotatedAtoms>
  151.6171  135.1035  160.0093 H   0  0  0  0  0  0  0  0  0  0  0  0  # atno 6907 bound_to 6896
  152.4177  133.7061  159.6463 H   0  0  0  0  0  0  0  0  0  0  0  0  # atno 6908 bound_to 6896
  150.8065  133.8426  159.3224 H   0  0  0  0  0  0  0  0  0  0  0  0  # atno 6909 bound_to 6896
  144.7341  140.3178  143.6176 H   0  0  0  0  0  0  0  0  0  0  0  0  # atno 7974 bound_to 7965
  154.4011  140.1521  156.3053 H   0  0  0  0  0  0  0  0  0  0  0  0  # atno 8008 bound_to 7997
  155.8664  140.3451  155.5769 H   0  0  0  0  0  0  0  0  0  0  0  0  # atno 8009 bound_to 7997
  155.7823  140.0845  157.2043 H   0  0  0  0  0  0  0  0  0  0  0  0  # atno 8010 bound_to 7997
  140.4039  144.1686  150.6135 H   0  0  0  0  0  0  0  0  0  0  0  0  # atno 10167 bound_to 10162
  157.1670  131.0601  151.2202 H   0  0  0  0  0  0  0  0  0  0  0  0  # atno 10718 bound_to 10713
  154.6876  135.5225  153.8348 H   0  0  0  0  0  0  0  0  0  0  0  0  # atno 10763 bound_to 10752
  153.0609  135.6568  154.0475 H   0  0  0  0  0  0  0  0  0  0  0  0  # atno 10764 bound_to 10752
  154.0354  135.2982  155.3342 H   0  0  0  0  0  0  0  0  0  0  0  0  # atno 10765 bound_to 10752
  139.9534  134.7186  156.0808 H   0  0  0  0  0  0  0  0  0  0  0  0  # atno 11005 bound_to 11000
  145.7600  139.1821  143.2272 LP  0  0  0  0  0  0  0  0  0  0  0  0  # atno 17320 bound_to 7965
  146.0994  140.7562  142.9556 LP  0  0  0  0  0  0  0  0  0  0  0  0  # atno 17321 bound_to 7965
  140.4710  143.2413  151.9088 LP  0  0  0  0  0  0  0  0  0  0  0  0  # atno 17342 bound_to 10162
  139.4784  144.5369  151.8585 LP  0  0  0  0  0  0  0  0  0  0  0  0  # atno 17343 bound_to 10162
  157.4079  130.7369  149.6816 LP  0  0  0  0  0  0  0  0  0  0  0  0  # atno 17370 bound_to 10713
  155.9744  130.4103  150.3924 LP  0  0  0  0  0  0  0  0  0  0  0  0  # atno 17371 bound_to 10713
  141.1202  133.6615  156.3195 LP  0  0  0  0  0  0  0  0  0  0  0  0  # atno 17394 bound_to 11000
  140.5664  134.5883  157.5447 LP  0  0  0  0  0  0  0  0  0  0  0  0  # atno 17395 bound_to 11000

$$$$
