AV-unprocessed.smi:467|AV-procd|sdf|2646|dock10
  -GOLD-   2262023 53D 1   1.00000     0.00000
 Structure written by MMmdl.
 45 47  0  0  0  0  0  0  0  0  2 V2000
  153.2891  142.6622  160.8888 C   0  0  0  0  0  0  0  0  0  0  0  0
  152.5730  142.3542  159.5856 C   0  0  0  0  0  0  0  0  0  0  0  0
  152.8916  141.1657  158.8908 C   0  0  0  0  0  0  0  0  0  0  0  0
  152.2507  140.8440  157.6744 C   0  0  0  0  0  0  0  0  0  0  0  0
  152.4075  139.7522  156.8377 N   0  0  0  0  0  0  0  0  0  0  0  0
  151.5380  140.0286  155.8706 C   0  0  0  0  0  0  0  0  0  0  0  0
  150.8314  141.1698  155.9834 N   0  0  0  0  0  0  0  0  0  0  0  0
  149.8333  141.6736  155.0564 C   0  0  0  0  0  0  0  0  0  0  0  0
  148.7099  140.6549  154.7844 C   0  0  1  0  0  0  0  0  0  0  0  0
  147.4928  141.3429  154.5621 O   0  0  0  0  0  0  0  0  0  0  0  0
  149.0169  139.7808  153.5527 C   0  0  0  0  0  0  0  0  0  0  0  0
  148.0424  138.6724  153.3859 N   0  3  0  0  0  0  0  0  0  0  0  0
  147.6625  138.0500  154.6764 C   0  0  0  0  0  0  0  0  0  0  0  0
  146.7007  136.8725  154.4438 C   0  0  0  0  0  0  0  0  0  0  0  0
  145.5559  137.3251  153.7319 O   0  0  0  0  0  0  0  0  0  0  0  0
  145.8963  137.8446  152.4527 C   0  0  0  0  0  0  0  0  0  0  0  0
  146.8303  139.0555  152.6195 C   0  0  0  0  0  0  0  0  0  0  0  0
  151.2727  141.7499  157.1685 C   0  0  0  0  0  0  0  0  0  0  0  0
  150.9448  142.9340  157.8529 C   0  0  0  0  0  0  0  0  0  0  0  0
  151.5964  143.2411  159.0658 C   0  0  0  0  0  0  0  0  0  0  0  0
  151.2387  144.5242  159.7951 C   0  0  0  0  0  0  0  0  0  0  0  0
  154.0397  141.9057  161.1195 H   0  0  0  0  0  0  0  0  0  0  0  0
  152.5792  142.6932  161.7158 H   0  0  0  0  0  0  0  0  0  0  0  0
  153.7950  143.6262  160.8295 H   0  0  0  0  0  0  0  0  0  0  0  0
  153.6349  140.4894  159.2869 H   0  0  0  0  0  0  0  0  0  0  0  0
  151.4049  139.3618  155.0312 H   0  0  0  0  0  0  0  0  0  0  0  0
  149.4204  142.6012  155.4549 H   0  0  0  0  0  0  0  0  0  0  0  0
  150.3375  141.9346  154.1248 H   0  0  0  0  0  0  0  0  0  0  0  0
  148.5883  140.0314  155.6698 H   0  0  0  0  0  0  0  0  0  0  0  0
  147.6780  142.2651  154.4661 H   0  0  0  0  0  0  0  0  0  0  0  0
  149.0095  140.4167  152.6658 H   0  0  0  0  0  0  0  0  0  0  0  0
  150.0240  139.3653  153.6168 H   0  0  0  0  0  0  0  0  0  0  0  0
  148.5548  137.6953  155.1940 H   0  0  0  0  0  0  0  0  0  0  0  0
  147.1927  138.7962  155.3192 H   0  0  0  0  0  0  0  0  0  0  0  0
  147.1925  136.0688  153.8934 H   0  0  0  0  0  0  0  0  0  0  0  0
  146.3809  136.4549  155.3987 H   0  0  0  0  0  0  0  0  0  0  0  0
  146.3662  137.0705  151.8439 H   0  0  0  0  0  0  0  0  0  0  0  0
  144.9825  138.1428  151.9382 H   0  0  0  0  0  0  0  0  0  0  0  0
  146.3050  139.8585  153.1391 H   0  0  0  0  0  0  0  0  0  0  0  0
  147.1029  139.4375  151.6363 H   0  0  0  0  0  0  0  0  0  0  0  0
  150.1994  143.6020  157.4478 H   0  0  0  0  0  0  0  0  0  0  0  0
  150.4557  145.0743  159.2726 H   0  0  0  0  0  0  0  0  0  0  0  0
  152.1107  145.1741  159.8715 H   0  0  0  0  0  0  0  0  0  0  0  0
  150.8796  144.3059  160.8011 H   0  0  0  0  0  0  0  0  0  0  0  0
  148.5160  137.9551  152.8546 H   0  0  0  0  0  0  0  0  0  0  0  0
  1  2  1  0  0  0  0
  1 22  1  0  0  0  0
  1 23  1  0  0  0  0
  1 24  1  0  0  0  0
  2 20  1  0  0  0  0
  2  3  2  0  0  0  0
  3  4  1  0  0  0  0
  3 25  1  0  0  0  0
  4 18  2  0  0  0  0
  4  5  1  0  0  0  0
  5  6  2  0  0  0  0
  6  7  1  0  0  0  0
  6 26  1  0  0  0  0
  7  8  1  0  0  0  0
  7 18  1  0  0  0  0
  8  9  1  0  0  0  0
  8 27  1  0  0  0  0
  8 28  1  0  0  0  0
  9 10  1  0  0  0  0
  9 11  1  0  0  0  0
  9 29  1  0  0  0  0
 10 30  1  0  0  0  0
 11 12  1  0  0  0  0
 11 31  1  0  0  0  0
 11 32  1  0  0  0  0
 12 17  1  0  0  0  0
 12 13  1  0  0  0  0
 12 45  1  0  0  0  0
 13 14  1  0  0  0  0
 13 33  1  0  0  0  0
 13 34  1  0  0  0  0
 14 15  1  0  0  0  0
 14 35  1  0  0  0  0
 14 36  1  0  0  0  0
 15 16  1  0  0  0  0
 16 17  1  0  0  0  0
 16 37  1  0  0  0  0
 16 38  1  0  0  0  0
 17 39  1  0  0  0  0
 17 40  1  0  0  0  0
 18 19  1  0  0  0  0
 19 20  2  0  0  0  0
 19 41  1  0  0  0  0
 20 21  1  0  0  0  0
 21 42  1  0  0  0  0
 21 43  1  0  0  0  0
 21 44  1  0  0  0  0
M  CHG  1  12   1
M  END
> <s_m_source_file>
AV-unprocessed.smi

> <i_m_source_file_index>
467

> <i_lp_mmshare_version>
43012

> <i_f3d_flags>
0

> <s_epik_input>
W0NIM11jKFtjSF0xKWMoW0NIM10pW2NIXWMoYzEyKW4oW2NIXW4yKVtDSDJdW0NASF0oW09IXSlbQ0gyXU4zW0NIMl1bQ0gyXU9bQ0gyXVtDSDJdMw==

> <s_epik_cmdline>
J2VwaWtfcHl0aG9uJywgJy1waCcsICc3LjAnLCAnLXRuJywgJzgnLCAnLW1hJywgJzIwMCcsICctbWV0YWxfYmluZGluZycsICctaW1hZScsICc8aW5maWxlLm1hZT4nLCAnLW9tYWUnLCAnPG91dGZpbGUubWFlPic=

> <r_epik_Ionization_Penalty>
0.695168

> <r_epik_Ionization_Penalty_Charging>
0.608065

> <r_epik_Ionization_Penalty_Neutral>
0.0871028

> <r_epik_State_Penalty>
0.731876

> <r_epik_Charging_Adjusted_Penalty>
1.33994

> <i_epik_Tot_Q>
1

> <i_epik_Tot_abs_Q>
1

> <r_epik_Metal_State_Penalty>
0.652189

> <b_epik_Metal_Only>
0

> <s_lp_Force_Field>
OPLS_2005

> <r_lp_Energy>
21.2169

> <b_lp_Chiralities_Consistent>
1

> <s_lp_Variant>
AV-unprocessed.smi:467-4

> <Gold.Version>
5.8.1

> <Gold.Id.Protein>
6NUR|6NUR_protein|mol2

> <Gold.PLP.Fitness>
46.8387

> <Gold.PLP.PLP>
-39.2666

> <Gold.PLP.part.hbond>
-3.0000

> <Gold.PLP.part.metal>
0.0000

> <Gold.PLP.part.buried>
1.4621

> <Gold.PLP.part.nonpolar>
-37.5917

> <Gold.PLP.part.repulsive>
0.1866

> <Gold.PLP.ligand.clash>
0.0000

> <Gold.PLP.ligand.torsion>
0.7288

> <Gold.PLP.Chemscore.Hbond>
3.0000

> <Gold.PLP.Chemscore.CHOScore>
0.0000

> <Gold.PLP.Chemscore.Metal>
0.0000

> <Gold.Chemscore.Hbonds>
donor molecule, donor type, donor heavy atom, donor atom, acceptor molecule, acceptor atom, score
      L1  H    12    45       P1  7948  2.00
      P1  H  7997  8008       L1     5  0.80

> <Gold.PLP.Chemscore.Internal.Correction>
0.0297

> <Gold.Rescore>
     Score         DG    S(hbond)    S(metal)    S(lipo)     H(rot)  DE(clash)    DE(int)     intcor
     14.72     -17.37       1.02        0.00     118.39       2.10       1.81       0.84       ----

> <Gold.Chemscore.Fitness>
14.7211

> <Gold.Chemscore.DG>
-17.3658

> <Gold.Chemscore.ZeroCoef>
-5.4800

> <Gold.Chemscore.Hbond>
1.0221

> <Gold.Chemscore.Metal>
0.0000

> <Gold.Chemscore.Lipo>
118.3851

> <Gold.Chemscore.Internal_Hbond>
0.0000

> <Gold.Chemscore.DEClash>
1.8055

> <Gold.Chemscore.DEInternal>
0.8392

> <Gold.Chemscore.Rot>
2.1011

> <Gold.Chemscore.Internal.Correction>
   9.000000E+99

> <Gold.Chemscore.Hbonds>
donor molecule, donor type, donor heavy atom, donor atom, acceptor molecule, acceptor atom, score
      L1  H    12    45       P1  7948  0.94
      P1  H  7997  8008       L1     5  0.10

> <Gold.Chemscore.Hbond.Weighted>
-3.4137

> <Gold.Chemscore.Metal.Weighted>
-0.0000

> <Gold.Chemscore.Lipo.Weighted>
-13.8511

> <Gold.Chemscore.Internal_Hbond.Weighted>
0.0000

> <Gold.Chemscore.DEClash.Weighted>
1.8055

> <Gold.Chemscore.DEInternal.Weighted>
0.8392

> <Gold.Chemscore.Rot.Weighted>
5.3789

> <Gold.Chemscore.Internal.Correction.Weighted>
   9.000000E+99

> <Gold.Protein.RotatedTorsions>
[ 6907 6896 6895 6894 ] final -118.27 input  -60.11 | X-H torsion
[ 7974 7965 7964 7962 ] final -170.23 input  175.53 | X-H torsion
[ 8008 7997 7996 7995 ] final  -42.57 input   59.86 | X-H torsion
[ 10167 10162 10161 10158 ] final  178.42 input  -65.29 | X-H torsion
[ 10718 10713 10712 10709 ] final    0.88 input   66.30 | X-H torsion
[ 10763 10752 10751 10750 ] final   14.23 input  -60.55 | X-H torsion
[ 11005 11000 10999 10996 ] final  112.35 input  -57.11 | X-H torsion

> <Gold.Protein.ActiveResidues>
 VAL166  LYS551  ARG553  GLY616  TRP617  ASP618  TYR619  PRO620  LYS621  CYS622 
 ASP623  PHE694  ASN695  SER759  ASP760  ASP761  ALA762  ILE779  LEU786  VAL792 
 PHE793  MET794  SER795  GLU796  ALA797  LYS798  CYS799  TRP800  GLU811  SER814 

> <Gold.Protein.RotatedAtoms>
  150.8205  133.8260  159.3140 H   0  0  0  0  0  0  0  0  0  0  0  0  # atno 6907 bound_to 6896
  151.6020  135.1045  160.0072 H   0  0  0  0  0  0  0  0  0  0  0  0  # atno 6908 bound_to 6896
  152.4295  133.7211  159.6590 H   0  0  0  0  0  0  0  0  0  0  0  0  # atno 6909 bound_to 6896
  144.7173  140.2103  143.6328 H   0  0  0  0  0  0  0  0  0  0  0  0  # atno 7974 bound_to 7965
  154.3998  140.1470  156.3376 H   0  0  0  0  0  0  0  0  0  0  0  0  # atno 8008 bound_to 7997
  155.8386  140.3463  155.5596 H   0  0  0  0  0  0  0  0  0  0  0  0  # atno 8009 bound_to 7997
  155.8111  140.0884  157.1893 H   0  0  0  0  0  0  0  0  0  0  0  0  # atno 8010 bound_to 7997
  139.5293  144.2682  152.0650 H   0  0  0  0  0  0  0  0  0  0  0  0  # atno 10167 bound_to 10162
  156.8399  130.5517  149.5678 H   0  0  0  0  0  0  0  0  0  0  0  0  # atno 10718 bound_to 10713
  153.1642  135.6801  153.8699 H   0  0  0  0  0  0  0  0  0  0  0  0  # atno 10763 bound_to 10752
  153.8084  135.3146  155.3399 H   0  0  0  0  0  0  0  0  0  0  0  0  # atno 10764 bound_to 10752
  154.7954  135.4810  154.0238 H   0  0  0  0  0  0  0  0  0  0  0  0  # atno 10765 bound_to 10752
  139.8925  134.9528  156.6572 H   0  0  0  0  0  0  0  0  0  0  0  0  # atno 11005 bound_to 11000
  145.8597  139.2216  143.1724 LP  0  0  0  0  0  0  0  0  0  0  0  0  # atno 17320 bound_to 7965
  146.0185  140.8370  142.9935 LP  0  0  0  0  0  0  0  0  0  0  0  0  # atno 17321 bound_to 7965
  140.2143  144.4531  150.6371 LP  0  0  0  0  0  0  0  0  0  0  0  0  # atno 17342 bound_to 10162
  140.6460  143.2213  151.6185 LP  0  0  0  0  0  0  0  0  0  0  0  0  # atno 17343 bound_to 10162
  156.0886  130.5878  150.9693 LP  0  0  0  0  0  0  0  0  0  0  0  0  # atno 17370 bound_to 10713
  157.6361  131.0916  150.8345 LP  0  0  0  0  0  0  0  0  0  0  0  0  # atno 17371 bound_to 10713
  140.7475  133.8926  155.8322 LP  0  0  0  0  0  0  0  0  0  0  0  0  # atno 17394 bound_to 11000
  141.0028  134.1127  157.4300 LP  0  0  0  0  0  0  0  0  0  0  0  0  # atno 17395 bound_to 11000

$$$$
