AV-unprocessed.smi:213|AV-procd|sdf|1642|dock2
  -GOLD-   2262020 13D 1   1.00000     0.00000
 Structure written by MMmdl.
 58 61  0  0  0  0  0  0  0  0  1 V2000
  146.5112  132.8824  154.5826 C   0  0  0  0  0  0  0  0  0  0  0  0
  147.1918  132.0147  153.5081 C   0  0  1  0  0  0  0  0  0  0  0  0
  147.1841  132.6103  152.0789 C   0  0  0  0  0  0  0  0  0  0  0  0
  145.8682  132.8666  151.4864 N   0  0  0  0  0  0  0  0  0  0  0  0
  145.1964  131.6129  151.1538 C   0  0  0  0  0  0  0  0  0  0  0  0
  143.8081  131.8460  150.5331 C   0  0  0  0  0  0  0  0  0  0  0  0
  143.9363  132.6589  149.3721 O   0  0  0  0  0  0  0  0  0  0  0  0
  144.5522  133.9116  149.6490 C   0  0  0  0  0  0  0  0  0  0  0  0
  145.9400  133.6791  150.2721 C   0  0  0  0  0  0  0  0  0  0  0  0
  148.5675  131.7195  153.9171 N   0  0  0  0  0  0  0  0  0  0  0  0
  149.6013  132.7511  153.9055 C   0  0  0  0  0  0  0  0  0  0  0  0
  148.8831  130.4951  154.4112 C   0  0  0  0  0  0  0  0  0  0  0  0
  150.0152  130.3710  155.1533 N   0  0  0  0  0  0  0  0  0  0  0  0
  150.3603  129.1881  155.6693 C   0  0  0  0  0  0  0  0  0  0  0  0
  149.7334  128.0156  155.5606 N   0  0  0  0  0  0  0  0  0  0  0  0
  148.6067  128.1275  154.8012 C   0  0  0  0  0  0  0  0  0  0  0  0
  148.1104  129.3163  154.1936 C   0  0  0  0  0  0  0  0  0  0  0  0
  146.9481  129.0286  153.4851 N   0  0  0  0  0  0  0  0  0  0  0  0
  146.7646  127.7502  153.6708 C   0  0  0  0  0  0  0  0  0  0  0  0
  147.7153  127.1305  154.4485 N   0  0  0  0  0  0  0  0  0  0  0  0
  147.7658  125.7255  154.8117 C   0  0  0  0  0  0  0  0  0  0  0  0
  148.4438  124.8644  153.7283 C   0  0  2  0  0  0  0  0  0  0  0  0
  148.5826  125.5956  152.5246 O   0  0  0  0  0  0  0  0  0  0  0  0
  147.7051  123.5360  153.4708 C   0  0  2  0  0  0  0  0  0  0  0  0
  146.3072  123.6435  152.8548 C   0  0  0  0  0  0  0  0  0  0  0  0
  145.6840  122.3411  153.3043 C   0  0  0  0  0  0  0  0  0  0  0  0
  146.2566  122.1935  154.7116 C   0  0  0  0  0  0  0  0  0  0  0  0
  147.5597  122.7684  154.6639 O   0  0  0  0  0  0  0  0  0  0  0  0
  145.4272  132.8592  154.4958 H   0  0  0  0  0  0  0  0  0  0  0  0
  146.8400  133.9206  154.5340 H   0  0  0  0  0  0  0  0  0  0  0  0
  146.7392  132.5088  155.5816 H   0  0  0  0  0  0  0  0  0  0  0  0
  146.6348  131.0787  153.4843 H   0  0  0  0  0  0  0  0  0  0  0  0
  147.8034  133.5066  152.0287 H   0  0  0  0  0  0  0  0  0  0  0  0
  147.6955  131.8805  151.4492 H   0  0  0  0  0  0  0  0  0  0  0  0
  145.8105  131.0356  150.4607 H   0  0  0  0  0  0  0  0  0  0  0  0
  145.0838  131.0037  152.0514 H   0  0  0  0  0  0  0  0  0  0  0  0
  143.3518  130.8961  150.2545 H   0  0  0  0  0  0  0  0  0  0  0  0
  143.1401  132.3257  151.2502 H   0  0  0  0  0  0  0  0  0  0  0  0
  144.6431  134.4766  148.7211 H   0  0  0  0  0  0  0  0  0  0  0  0
  143.9204  134.4957  150.3203 H   0  0  0  0  0  0  0  0  0  0  0  0
  146.3862  134.6469  150.4757 H   0  0  0  0  0  0  0  0  0  0  0  0
  146.5835  133.1913  149.5382 H   0  0  0  0  0  0  0  0  0  0  0  0
  150.5625  132.3339  153.6031 H   0  0  0  0  0  0  0  0  0  0  0  0
  149.7122  133.1910  154.8969 H   0  0  0  0  0  0  0  0  0  0  0  0
  149.3517  133.5497  153.2072 H   0  0  0  0  0  0  0  0  0  0  0  0
  151.2688  129.1805  156.2534 H   0  0  0  0  0  0  0  0  0  0  0  0
  145.9292  127.2199  153.2373 H   0  0  0  0  0  0  0  0  0  0  0  0
  148.3053  125.6379  155.7556 H   0  0  0  0  0  0  0  0  0  0  0  0
  146.7492  125.3779  154.9995 H   0  0  0  0  0  0  0  0  0  0  0  0
  149.4539  124.6228  154.0610 H   0  0  0  0  0  0  0  0  0  0  0  0
  149.4306  126.0129  152.5272 H   0  0  0  0  0  0  0  0  0  0  0  0
  148.3161  122.9293  152.8002 H   0  0  0  0  0  0  0  0  0  0  0  0
  145.7450  124.4790  153.2728 H   0  0  0  0  0  0  0  0  0  0  0  0
  146.3287  123.7568  151.7706 H   0  0  0  0  0  0  0  0  0  0  0  0
  144.5940  122.3574  153.2862 H   0  0  0  0  0  0  0  0  0  0  0  0
  146.0260  121.5222  152.6699 H   0  0  0  0  0  0  0  0  0  0  0  0
  145.6563  122.7588  155.4256 H   0  0  0  0  0  0  0  0  0  0  0  0
  146.2892  121.1557  155.0438 H   0  0  0  0  0  0  0  0  0  0  0  0
  1  2  1  0  0  0  0
  1 29  1  0  0  0  0
  1 30  1  0  0  0  0
  1 31  1  0  0  0  0
  2  3  1  0  0  0  0
  2 10  1  0  0  0  0
  2 32  1  0  0  0  0
  3  4  1  0  0  0  0
  3 33  1  0  0  0  0
  3 34  1  0  0  0  0
  4  9  1  0  0  0  0
  4  5  1  0  0  0  0
  5  6  1  0  0  0  0
  5 35  1  0  0  0  0
  5 36  1  0  0  0  0
  6  7  1  0  0  0  0
  6 37  1  0  0  0  0
  6 38  1  0  0  0  0
  7  8  1  0  0  0  0
  8  9  1  0  0  0  0
  8 39  1  0  0  0  0
  8 40  1  0  0  0  0
  9 41  1  0  0  0  0
  9 42  1  0  0  0  0
 10 11  1  0  0  0  0
 10 12  1  0  0  0  0
 11 43  1  0  0  0  0
 11 44  1  0  0  0  0
 11 45  1  0  0  0  0
 12 17  1  0  0  0  0
 12 13  2  0  0  0  0
 13 14  1  0  0  0  0
 14 15  2  0  0  0  0
 14 46  1  0  0  0  0
 15 16  1  0  0  0  0
 16 20  1  0  0  0  0
 16 17  2  0  0  0  0
 17 18  1  0  0  0  0
 18 19  2  0  0  0  0
 19 20  1  0  0  0  0
 19 47  1  0  0  0  0
 20 21  1  0  0  0  0
 21 22  1  0  0  0  0
 21 48  1  0  0  0  0
 21 49  1  0  0  0  0
 22 23  1  0  0  0  0
 22 24  1  0  0  0  0
 22 50  1  0  0  0  0
 23 51  1  0  0  0  0
 24 28  1  0  0  0  0
 24 25  1  0  0  0  0
 24 52  1  0  0  0  0
 25 26  1  0  0  0  0
 25 53  1  0  0  0  0
 25 54  1  0  0  0  0
 26 27  1  0  0  0  0
 26 55  1  0  0  0  0
 26 56  1  0  0  0  0
 27 28  1  0  0  0  0
 27 57  1  0  0  0  0
 27 58  1  0  0  0  0
M  END
> <s_m_source_file>
AV-unprocessed.smi

> <i_m_source_file_index>
213

> <i_lp_mmshare_version>
43012

> <i_f3d_flags>
0

> <s_epik_input>
W0NIMl0xW0NIMl1PW0NIMl1bQ0gyXU4xW0NIMl1bQ0BASF0oW0NIM10pTihbQ0gzXSljKG5bY0hdbjIpYyhjMjMpbltjSF1uM1tDSDJdW0NASF0oW09IXSlbQ0BASF00W0NIMl1bQ0gyXVtDSDJdTzQ=

> <s_epik_cmdline>
J2VwaWtfcHl0aG9uJywgJy1waCcsICc3LjAnLCAnLXRuJywgJzgnLCAnLW1hJywgJzIwMCcsICctbWV0YWxfYmluZGluZycsICctaW1hZScsICc8aW5maWxlLm1hZT4nLCAnLW9tYWUnLCAnPG91dGZpbGUubWFlPic=

> <r_lp_tautomer_probability>
1

> <r_epik_Ionization_Penalty>
0.423322

> <r_epik_Ionization_Penalty_Charging>
0

> <r_epik_Ionization_Penalty_Neutral>
0.423322

> <r_epik_State_Penalty>
0.569486

> <r_epik_Charging_Adjusted_Penalty>
0.569486

> <i_epik_Tot_Q>
0

> <i_epik_Tot_abs_Q>
0

> <r_epik_Metal_State_Penalty>
0.568671

> <b_epik_Metal_Only>
0

> <s_lp_Force_Field>
OPLS_2005

> <r_lp_Energy>
55.7593

> <b_lp_Chiralities_Consistent>
1

> <s_lp_Variant>
AV-unprocessed.smi:213-10

> <Gold.Version>
5.8.1

> <Gold.Id.Protein>
6NUR|6NUR_protein|mol2

> <Gold.PLP.Fitness>
47.2834

> <Gold.PLP.PLP>
-46.7714

> <Gold.PLP.part.hbond>
-1.9317

> <Gold.PLP.part.metal>
0.0000

> <Gold.PLP.part.buried>
-9.0320

> <Gold.PLP.part.nonpolar>
-38.6619

> <Gold.PLP.part.repulsive>
3.2811

> <Gold.PLP.ligand.clash>
0.0000

> <Gold.PLP.ligand.torsion>
1.4341

> <Gold.PLP.Chemscore.Hbond>
1.0000

> <Gold.PLP.Chemscore.CHOScore>
0.0000

> <Gold.PLP.Chemscore.Metal>
0.0000

> <Gold.PLP.Chemscore.Internal.Correction>
0.3801

> <Gold.Rescore>
     Score         DG    S(hbond)    S(metal)    S(lipo)     H(rot)  DE(clash)    DE(int)     intcor
      9.34     -11.90       0.98        0.00      86.91       2.74       0.15       2.41       ----

> <Gold.Chemscore.Fitness>
9.3442

> <Gold.Chemscore.DG>
-11.9038

> <Gold.Chemscore.ZeroCoef>
-5.4800

> <Gold.Chemscore.Hbond>
0.9774

> <Gold.Chemscore.Metal>
0.0000

> <Gold.Chemscore.Lipo>
86.9051

> <Gold.Chemscore.Internal_Hbond>
0.0000

> <Gold.Chemscore.DEClash>
0.1482

> <Gold.Chemscore.DEInternal>
2.4114

> <Gold.Chemscore.Rot>
2.7378

> <Gold.Chemscore.Internal.Correction>
   9.000000E+99

> <Gold.Chemscore.Hbond.Weighted>
-3.2646

> <Gold.Chemscore.Metal.Weighted>
-0.0000

> <Gold.Chemscore.Lipo.Weighted>
-10.1679

> <Gold.Chemscore.Internal_Hbond.Weighted>
0.0000

> <Gold.Chemscore.DEClash.Weighted>
0.1482

> <Gold.Chemscore.DEInternal.Weighted>
2.4114

> <Gold.Chemscore.Rot.Weighted>
7.0087

> <Gold.Chemscore.Internal.Correction.Weighted>
   9.000000E+99

> <Gold.Protein.RotatedTorsions>
[ 6907 6896 6895 6894 ] final  115.82 input  -60.11 | X-H torsion
[ 7974 7965 7964 7962 ] final  -27.61 input  175.53 | X-H torsion
[ 8008 7997 7996 7995 ] final  156.60 input   59.86 | X-H torsion
[ 10167 10162 10161 10158 ] final -164.02 input  -65.29 | X-H torsion
[ 10718 10713 10712 10709 ] final   19.76 input   66.30 | X-H torsion
[ 10763 10752 10751 10750 ] final  139.27 input  -60.55 | X-H torsion
[ 11005 11000 10999 10996 ] final -139.63 input  -57.11 | X-H torsion

> <Gold.Protein.ActiveResidues>
 VAL166  LYS551  ARG553  GLY616  TRP617  ASP618  TYR619  PRO620  LYS621  CYS622 
 ASP623  PHE694  ASN695  SER759  ASP760  ASP761  ALA762  ILE779  LEU786  VAL792 
 PHE793  MET794  SER795  GLU796  ALA797  LYS798  CYS799  TRP800  GLU811  SER814 

> <Gold.Protein.RotatedAtoms>
  152.4717  133.8045  159.6970 H   0  0  0  0  0  0  0  0  0  0  0  0  # atno 6907 bound_to 6896
  150.8710  133.7495  159.2967 H   0  0  0  0  0  0  0  0  0  0  0  0  # atno 6908 bound_to 6896
  151.5030  135.1066  159.9886 H   0  0  0  0  0  0  0  0  0  0  0  0  # atno 6909 bound_to 6896
  146.1346  140.5174  142.8678 H   0  0  0  0  0  0  0  0  0  0  0  0  # atno 7974 bound_to 7965
  156.2413  140.1908  156.6979 H   0  0  0  0  0  0  0  0  0  0  0  0  # atno 8008 bound_to 7997
  154.6203  140.0609  156.9633 H   0  0  0  0  0  0  0  0  0  0  0  0  # atno 8009 bound_to 7997
  155.1872  140.3281  155.4367 H   0  0  0  0  0  0  0  0  0  0  0  0  # atno 8010 bound_to 7997
  139.6279  144.0496  152.1991 H   0  0  0  0  0  0  0  0  0  0  0  0  # atno 10167 bound_to 10162
  157.1149  130.6525  149.5908 H   0  0  0  0  0  0  0  0  0  0  0  0  # atno 10718 bound_to 10713
  153.9034  135.3019  155.3448 H   0  0  0  0  0  0  0  0  0  0  0  0  # atno 10763 bound_to 10752
  154.7659  135.4911  153.9556 H   0  0  0  0  0  0  0  0  0  0  0  0  # atno 10764 bound_to 10752
  153.1232  135.6787  153.9401 H   0  0  0  0  0  0  0  0  0  0  0  0  # atno 10765 bound_to 10752
  140.8500  134.2297  157.4765 H   0  0  0  0  0  0  0  0  0  0  0  0  # atno 11005 bound_to 11000
  144.7726  140.5671  143.6660 LP  0  0  0  0  0  0  0  0  0  0  0  0  # atno 17320 bound_to 7965
  145.5184  139.1477  143.3566 LP  0  0  0  0  0  0  0  0  0  0  0  0  # atno 17321 bound_to 7965
  140.0154  144.6193  150.7612 LP  0  0  0  0  0  0  0  0  0  0  0  0  # atno 17342 bound_to 10162
  140.7422  143.2829  151.3547 LP  0  0  0  0  0  0  0  0  0  0  0  0  # atno 17343 bound_to 10162
  155.9842  130.4865  150.6969 LP  0  0  0  0  0  0  0  0  0  0  0  0  # atno 17370 bound_to 10713
  157.4527  131.0874  151.0829 LP  0  0  0  0  0  0  0  0  0  0  0  0  # atno 17371 bound_to 10713
  139.8704  134.9679  156.4611 LP  0  0  0  0  0  0  0  0  0  0  0  0  # atno 17394 bound_to 11000
  140.8800  133.7925  155.9456 LP  0  0  0  0  0  0  0  0  0  0  0  0  # atno 17395 bound_to 11000

$$$$
