#       Name:                AV-unprocessed.smi:1593
#       Creating user name   scv26
#       Creation time:       Fri Mar 27 07:04:25 2020


#       File generated by GOLD software.
#

@<TRIPOS>MOLECULE
AV-unprocessed.smi:1593
    44    45     1
SMALL
NO_CHARGES


@<TRIPOS>ATOM
      1 ****        -7.2461   1.9769   0.8263 C.3            1 S1                 0.0000
      2 ****        -5.7933   1.6452   0.8334 C.2            1 S1                 0.0000
      3 ****        -5.1084   0.4626   0.8319 C.2            1 S1                 0.0000
      4 ****        -3.7509   0.8798   0.8415 C.2            1 S1                 0.0000
      5 ****        -2.6974  -0.0697   0.8420 N.am           1 S1                 0.0000
      6 ****        -1.3762   0.1761   0.8320 C.2            1 S1                 0.0000
      7 ****        -0.8614   1.2947   0.8319 O.2            1 S1                 0.0000
      8 ****        -0.6657  -0.9611   0.8185 N.am           1 S1                 0.0000
      9 ****         0.7911  -1.0293   0.8138 C.3            1 S1                 0.0000
     10 ****         1.3680  -0.7311  -0.5837 C.3            1 S1                 0.0000
     11 ****         2.8485  -0.8253  -0.6160 N.4            1 S1                 1.0000
     12 ****         3.3687  -1.0500  -1.9860 C.3            1 S1                 0.0000
     13 ****         4.9006  -1.1859  -1.9675 C.3            1 S1                 0.0000
     14 ****         5.4759  -0.0249  -1.3821 O.3            1 S1                 0.0000
     15 ****         5.0559   0.1546  -0.0354 C.3            1 S1                 0.0000
     16 ****         3.5292   0.3358   0.0104 C.3            1 S1                 0.0000
     17 ****        -3.6189   2.1974   0.8486 N.2            1 S1                 0.0000
     18 ****        -4.9274   2.6947   0.8437 O.3            1 S1                 0.0000
     19 ****        -7.8532   1.0714   0.8299 H              1 S1                 0.0000
     20 ****        -7.5054   2.5543  -0.0611 H              1 S1                 0.0000
     21 ****        -7.5118   2.5662   1.7041 H              1 S1                 0.0000
     22 ****        -5.5159  -0.5375   0.8245 H              1 S1                 0.0000
     23 ****        -2.9816  -1.0381   0.8441 H              1 S1                 0.0000
     24 ****        -1.1660  -1.8383   0.8208 H              1 S1                 0.0000
     25 ****         1.1815  -0.3405   1.5634 H              1 S1                 0.0000
     26 ****         1.0840  -2.0306   1.1305 H              1 S1                 0.0000
     27 ****         0.9485  -1.4557  -1.2834 H              1 S1                 0.0000
     28 ****         1.0582   0.2530  -0.9385 H              1 S1                 0.0000
     29 ****         2.9275  -1.9541  -2.4071 H              1 S1                 0.0000
     30 ****         3.0751  -0.2190  -2.6294 H              1 S1                 0.0000
     31 ****         5.2069  -2.0769  -1.4169 H              1 S1                 0.0000
     32 ****         5.2796  -1.2939  -2.9838 H              1 S1                 0.0000
     33 ****         5.3663  -0.6972   0.5721 H              1 S1                 0.0000
     34 ****         5.5512   1.0350   0.3748 H              1 S1                 0.0000
     35 ****         3.2490   1.2514  -0.5130 H              1 S1                 0.0000
     36 ****         3.2135   0.4526   1.0466 H              1 S1                 0.0000
     37 ****         3.0999  -1.6434  -0.0796 H              1 S1                 0.0000
     38 ****        -1.4390   2.1110   0.8397 LP             1 S1                 0.0000
     39 ****         0.1343   1.3869   0.8240 LP             1 S1                 0.0000
     40 ****         5.2020   0.7755  -1.9155 LP             1 S1                 0.0000
     41 ****         6.4718  -0.1131  -1.4010 LP             1 S1                 0.0000
     42 ****        -2.7684   2.7234   0.8559 LP             1 S1                 0.0000
     43 ****        -5.0798   3.2487   1.6621 LP             1 S1                 0.0000
     44 ****        -5.0706   3.2570   0.0292 LP             1 S1                 0.0000
@<TRIPOS>BOND
    1    1    2 1     
    2    1   19 1     
    3    1   20 1     
    4    1   21 1     
    5    2   18 1     
    6    2    3 2     
    7    3    4 1     
    8    3   22 1     
    9    4    5 1     
   10    4   17 2     
   11    5    6 am    
   12    5   23 1     
   13    6    7 2     
   14    6    8 am    
   15    8    9 1     
   16    8   24 1     
   17    9   10 1     
   18    9   25 1     
   19    9   26 1     
   20   10   11 1     
   21   10   27 1     
   22   10   28 1     
   23   11   16 1     
   24   11   12 1     
   25   11   37 1     
   26   12   13 1     
   27   12   29 1     
   28   12   30 1     
   29   13   14 1     
   30   13   31 1     
   31   13   32 1     
   32   14   15 1     
   33   15   16 1     
   34   15   33 1     
   35   15   34 1     
   36   16   35 1     
   37   16   36 1     
   38   17   18 1     
   39    7   38 1     
   40    7   39 1     
   41   14   40 1     
   42   14   41 1     
   43   17   42 1     
   44   18   43 1     
   45   18   44 1     
@<TRIPOS>SUBSTRUCTURE
      1 S1             1
@<TRIPOS>SET
LONE_PAIRS      STATIC     ATOMS    <user>   **** ""
7 38 39 40 41 42 43 44
DONOR_HYDROGENS      STATIC     ATOMS    <user>   **** ""
3 23 24 37
ATOM$BLUE        STATIC     ATOMS    COLORGROUP SYSTEM
7 38 39 40 41 42 43 44
ATOM$RED        STATIC     ATOMS    COLORGROUP SYSTEM
3 23 24 37
