AV-unprocessed.smi:2183|AV-procd|sdf|8865|dock10
  -GOLD-   2272012 63D 1   1.00000     0.00000
 Structure written by MMmdl.
 40 42  0  0  0  0  0  0  0  0  1 V2000
  152.9400  139.1028  155.9758 O   0  0  0  0  0  0  0  0  0  0  0  0
  152.1901  139.0366  157.1692 C   0  0  0  0  0  0  0  0  0  0  0  0
  152.0777  140.3609  157.8617 C   0  0  0  0  0  0  0  0  0  0  0  0
  152.4717  140.5226  159.1255 N   0  0  0  0  0  0  0  0  0  0  0  0
  152.2194  141.8604  159.3555 C   0  0  0  0  0  0  0  0  0  0  0  0
  152.4266  142.6486  160.5102 C   0  0  0  0  0  0  0  0  0  0  0  0
  152.0943  144.0193  160.5077 C   0  0  0  0  0  0  0  0  0  0  0  0
  151.5523  144.6200  159.3531 C   0  0  0  0  0  0  0  0  0  0  0  0
  151.3365  143.8521  158.1926 C   0  0  0  0  0  0  0  0  0  0  0  0
  151.6669  142.4835  158.2012 C   0  0  0  0  0  0  0  0  0  0  0  0
  151.5784  141.4682  157.2532 N   0  0  0  0  0  0  0  0  0  0  0  0
  151.0696  141.6156  155.8947 C   0  0  0  0  0  0  0  0  0  0  0  0
  150.1603  140.4453  155.4672 C   0  0  2  0  0  0  0  0  0  0  0  0
  150.8422  139.6130  154.5511 O   0  0  0  0  0  0  0  0  0  0  0  0
  148.8592  140.9271  154.8099 C   0  0  0  0  0  0  0  0  0  0  0  0
  148.0224  141.4907  155.8111 O   0  0  0  0  0  0  0  0  0  0  0  0
  146.9995  142.3243  155.4146 C   0  0  0  0  0  0  0  0  0  0  0  0
  146.1876  142.8669  156.4320 C   0  0  0  0  0  0  0  0  0  0  0  0
  145.1181  143.7277  156.1192 C   0  0  0  0  0  0  0  0  0  0  0  0
  144.8496  144.0560  154.7774 C   0  0  0  0  0  0  0  0  0  0  0  0
  143.5403  145.1106  154.3904 Cl  0  0  0  0  0  0  0  0  0  0  0  0
  145.6517  143.5219  153.7517 C   0  0  0  0  0  0  0  0  0  0  0  0
  146.7215  142.6608  154.0653 C   0  0  0  0  0  0  0  0  0  0  0  0
  153.1908  138.2259  155.7296 H   0  0  0  0  0  0  0  0  0  0  0  0
  151.1911  138.6719  156.9272 H   0  0  0  0  0  0  0  0  0  0  0  0
  152.6309  138.3017  157.8428 H   0  0  0  0  0  0  0  0  0  0  0  0
  152.8435  142.1983  161.3987 H   0  0  0  0  0  0  0  0  0  0  0  0
  152.2574  144.6127  161.3954 H   0  0  0  0  0  0  0  0  0  0  0  0
  151.3027  145.6709  159.3586 H   0  0  0  0  0  0  0  0  0  0  0  0
  150.9225  144.3102  157.3067 H   0  0  0  0  0  0  0  0  0  0  0  0
  150.5143  142.5531  155.8505 H   0  0  0  0  0  0  0  0  0  0  0  0
  151.8966  141.7230  155.1943 H   0  0  0  0  0  0  0  0  0  0  0  0
  149.9095  139.8344  156.3347 H   0  0  0  0  0  0  0  0  0  0  0  0
  150.5769  138.7187  154.7037 H   0  0  0  0  0  0  0  0  0  0  0  0
  149.0820  141.6595  154.0322 H   0  0  0  0  0  0  0  0  0  0  0  0
  148.3475  140.0826  154.3448 H   0  0  0  0  0  0  0  0  0  0  0  0
  146.3872  142.6200  157.4646 H   0  0  0  0  0  0  0  0  0  0  0  0
  144.5055  144.1344  156.9103 H   0  0  0  0  0  0  0  0  0  0  0  0
  145.4481  143.7719  152.7209 H   0  0  0  0  0  0  0  0  0  0  0  0
  147.3137  142.2711  153.2515 H   0  0  0  0  0  0  0  0  0  0  0  0
  1  2  1  0  0  0  0
  1 24  1  0  0  0  0
  2  3  1  0  0  0  0
  2 25  1  0  0  0  0
  2 26  1  0  0  0  0
  3 11  1  0  0  0  0
  3  4  2  0  0  0  0
  4  5  1  0  0  0  0
  5 10  2  0  0  0  0
  5  6  1  0  0  0  0
  6  7  2  0  0  0  0
  6 27  1  0  0  0  0
  7  8  1  0  0  0  0
  7 28  1  0  0  0  0
  8  9  2  0  0  0  0
  8 29  1  0  0  0  0
  9 10  1  0  0  0  0
  9 30  1  0  0  0  0
 10 11  1  0  0  0  0
 11 12  1  0  0  0  0
 12 13  1  0  0  0  0
 12 31  1  0  0  0  0
 12 32  1  0  0  0  0
 13 14  1  0  0  0  0
 13 15  1  0  0  0  0
 13 33  1  0  0  0  0
 14 34  1  0  0  0  0
 15 16  1  0  0  0  0
 15 35  1  0  0  0  0
 15 36  1  0  0  0  0
 16 17  1  0  0  0  0
 17 23  1  0  0  0  0
 17 18  2  0  0  0  0
 18 19  1  0  0  0  0
 18 37  1  0  0  0  0
 19 20  2  0  0  0  0
 19 38  1  0  0  0  0
 20 21  1  0  0  0  0
 20 22  1  0  0  0  0
 22 23  2  0  0  0  0
 22 39  1  0  0  0  0
 23 40  1  0  0  0  0
M  END
> <s_m_source_file>
AV-unprocessed.smi

> <i_m_source_file_index>
2183

> <i_lp_mmshare_version>
43012

> <i_f3d_flags>
0

> <s_epik_input>
W2NIXTFbY0hdW2NIXVtjSF1jKGMxMiluKGMobjIpW0NIMl1bT0hdKVtDSDJdW0NASF0oW09IXSlbQ0gyXU9jM1tjSF1bY0hdYyhDbClbY0hdW2NIXTM=

> <s_epik_cmdline>
J2VwaWtfcHl0aG9uJywgJy1waCcsICc3LjAnLCAnLXRuJywgJzgnLCAnLW1hJywgJzIwMCcsICctbWV0YWxfYmluZGluZycsICctaW1hZScsICc8aW5maWxlLm1hZT4nLCAnLW9tYWUnLCAnPG91dGZpbGUubWFlPic=

> <r_lp_tautomer_probability>
1

> <r_epik_Ionization_Penalty>
0.0586933

> <r_epik_Ionization_Penalty_Charging>
0

> <r_epik_Ionization_Penalty_Neutral>
0.0586933

> <r_epik_State_Penalty>
0.0507031

> <r_epik_Charging_Adjusted_Penalty>
0.0507031

> <i_epik_Tot_Q>
0

> <i_epik_Tot_abs_Q>
0

> <r_epik_Metal_State_Penalty>
5.29335e-05

> <b_epik_Metal_Only>
0

> <s_lp_Force_Field>
OPLS_2005

> <r_lp_Energy>
13.44

> <b_lp_Chiralities_Consistent>
1

> <s_lp_Variant>
AV-unprocessed.smi:2183-1

> <Gold.Version>
5.8.1

> <Gold.Id.Protein>
6NUR|6NUR_protein|mol2

> <Gold.PLP.Fitness>
52.2888

> <Gold.PLP.PLP>
-48.3606

> <Gold.PLP.part.hbond>
-2.0000

> <Gold.PLP.part.metal>
0.0000

> <Gold.PLP.part.buried>
-7.4005

> <Gold.PLP.part.nonpolar>
-38.5709

> <Gold.PLP.part.repulsive>
0.0999

> <Gold.PLP.ligand.clash>
0.0000

> <Gold.PLP.ligand.torsion>
1.0701

> <Gold.PLP.Chemscore.Hbond>
2.0000

> <Gold.PLP.Chemscore.CHOScore>
0.0000

> <Gold.PLP.Chemscore.Metal>
0.0000

> <Gold.Chemscore.Hbonds>
donor molecule, donor type, donor heavy atom, donor atom, acceptor molecule, acceptor atom, score
      P1  H  7989  7998       L1    14  1.00
      P1  H  7997  8010       L1     1  1.00

> <Gold.PLP.Chemscore.Internal.Correction>
0.0684

> <Gold.Rescore>
     Score         DG    S(hbond)    S(metal)    S(lipo)     H(rot)  DE(clash)    DE(int)     intcor
     14.33     -18.26       1.90        0.00     121.28       3.04       0.29       3.64       ----

> <Gold.Chemscore.Fitness>
14.3274

> <Gold.Chemscore.DG>
-18.2554

> <Gold.Chemscore.ZeroCoef>
-5.4800

> <Gold.Chemscore.Hbond>
1.9033

> <Gold.Chemscore.Metal>
0.0000

> <Gold.Chemscore.Lipo>
121.2825

> <Gold.Chemscore.Internal_Hbond>
0.0000

> <Gold.Chemscore.DEClash>
0.2889

> <Gold.Chemscore.DEInternal>
3.6392

> <Gold.Chemscore.Rot>
3.0358

> <Gold.Chemscore.Internal.Correction>
   9.000000E+99

> <Gold.Chemscore.Hbonds>
donor molecule, donor type, donor heavy atom, donor atom, acceptor molecule, acceptor atom, score
      P1  H  7989  7998       L1    14  0.30
      P1  H  7997  8010       L1     1  0.47

> <Gold.Chemscore.Hbond.Weighted>
-6.3570

> <Gold.Chemscore.Metal.Weighted>
-0.0000

> <Gold.Chemscore.Lipo.Weighted>
-14.1901

> <Gold.Chemscore.Internal_Hbond.Weighted>
0.0000

> <Gold.Chemscore.DEClash.Weighted>
0.2889

> <Gold.Chemscore.DEInternal.Weighted>
3.6392

> <Gold.Chemscore.Rot.Weighted>
7.7716

> <Gold.Chemscore.Internal.Correction.Weighted>
   9.000000E+99

> <Gold.Protein.RotatedTorsions>
[ 6907 6896 6895 6894 ] final  -74.03 input  -60.11 | X-H torsion
[ 7974 7965 7964 7962 ] final  -48.22 input  175.53 | X-H torsion
[ 8008 7997 7996 7995 ] final   79.54 input   59.86 | X-H torsion
[ 10167 10162 10161 10158 ] final -169.80 input  -65.29 | X-H torsion
[ 10718 10713 10712 10709 ] final  163.86 input   66.30 | X-H torsion
[ 10763 10752 10751 10750 ] final  176.72 input  -60.55 | X-H torsion
[ 11005 11000 10999 10996 ] final -100.55 input  -57.11 | X-H torsion

> <Gold.Protein.ActiveResidues>
 VAL166  LYS551  ARG553  GLY616  TRP617  ASP618  TYR619  PRO620  LYS621  CYS622 
 ASP623  PHE694  ASN695  SER759  ASP760  ASP761  ALA762  ILE779  LEU786  VAL792 
 PHE793  MET794  SER795  GLU796  ALA797  LYS798  CYS799  TRP800  GLU811  SER814 

> <Gold.Protein.RotatedAtoms>
  150.7108  134.4929  159.5523 H   0  0  0  0  0  0  0  0  0  0  0  0  # atno 6907 bound_to 6896
  152.2543  134.8098  160.0450 H   0  0  0  0  0  0  0  0  0  0  0  0  # atno 6908 bound_to 6896
  151.8834  133.3465  159.3811 H   0  0  0  0  0  0  0  0  0  0  0  0  # atno 6909 bound_to 6896
  145.9534  140.7550  142.9493 H   0  0  0  0  0  0  0  0  0  0  0  0  # atno 7974 bound_to 7965
  155.8711  140.3449  155.5822 H   0  0  0  0  0  0  0  0  0  0  0  0  # atno 8008 bound_to 7997
  155.7826  140.0860  157.2070 H   0  0  0  0  0  0  0  0  0  0  0  0  # atno 8009 bound_to 7997
  154.4017  140.1498  156.3057 H   0  0  0  0  0  0  0  0  0  0  0  0  # atno 8010 bound_to 7997
  139.5901  144.1233  152.1623 H   0  0  0  0  0  0  0  0  0  0  0  0  # atno 10167 bound_to 10162
  157.1025  131.0447  151.2491 H   0  0  0  0  0  0  0  0  0  0  0  0  # atno 10718 bound_to 10713
  154.4849  135.2776  155.1542 H   0  0  0  0  0  0  0  0  0  0  0  0  # atno 10763 bound_to 10752
  154.3237  135.6204  153.5523 H   0  0  0  0  0  0  0  0  0  0  0  0  # atno 10764 bound_to 10752
  152.9880  135.5749  154.5257 H   0  0  0  0  0  0  0  0  0  0  0  0  # atno 10765 bound_to 10752
  141.1266  133.8408  157.1117 H   0  0  0  0  0  0  0  0  0  0  0  0  # atno 11005 bound_to 11000
  144.6800  140.2472  143.7336 LP  0  0  0  0  0  0  0  0  0  0  0  0  # atno 17320 bound_to 7965
  145.8140  139.2015  143.1977 LP  0  0  0  0  0  0  0  0  0  0  0  0  # atno 17321 bound_to 7965
  140.0805  144.5704  150.7126 LP  0  0  0  0  0  0  0  0  0  0  0  0  # atno 17342 bound_to 10162
  140.7165  143.2549  151.4416 LP  0  0  0  0  0  0  0  0  0  0  0  0  # atno 17343 bound_to 10162
  157.4628  130.7663  149.7252 LP  0  0  0  0  0  0  0  0  0  0  0  0  # atno 17370 bound_to 10713
  155.9870  130.3970  150.3186 LP  0  0  0  0  0  0  0  0  0  0  0  0  # atno 17371 bound_to 10713
  140.0271  134.9919  157.0707 LP  0  0  0  0  0  0  0  0  0  0  0  0  # atno 17394 bound_to 11000
  140.4345  134.1746  155.7170 LP  0  0  0  0  0  0  0  0  0  0  0  0  # atno 17395 bound_to 11000

$$$$
