#       Name:                AV-unprocessed.smi:2328
#       Creating user name   scv26
#       Creation time:       Fri Mar 27 12:52:20 2020


#       File generated by GOLD software.
#

@<TRIPOS>MOLECULE
AV-unprocessed.smi:2328
    45    45     1
SMALL
NO_CHARGES


@<TRIPOS>ATOM
      1 ****         1.7017  -0.6327  -4.4424 C.3            1 S1                 0.0000
      2 ****         1.6242  -0.3449  -2.9280 C.3            1 S1                 0.0000
      3 ****         0.6664  -1.2263  -2.0488 C.3            1 S1                 0.0000
      4 ****         0.4632  -0.5673  -0.7385 N.am           1 S1                 0.0000
      5 ****         1.3053  -0.0833   0.1989 C.2            1 S1                 0.0000
      6 ****         2.5196  -0.1495   0.0146 O.2            1 S1                 0.0000
      7 ****         0.7745   0.5625   1.4914 C.3            1 S1                 0.0000
      8 ****         1.7160   1.6385   2.0070 C.ar           1 S1                 0.0000
      9 ****         2.6541   1.3586   3.0224 C.ar           1 S1                 0.0000
     10 ****         3.5034   2.3914   3.4642 C.ar           1 S1                 0.0000
     11 ****         3.3781   3.6630   2.8699 C.ar           1 S1                 0.0000
     12 ****         2.4835   3.9429   1.8976 N.ar           1 S1                 0.0000
     13 ****         1.6728   2.9472   1.4801 C.ar           1 S1                 0.0000
     14 ****         1.2427  -2.6671  -1.8838 C.2            1 S1                 0.0000
     15 ****         1.2540  -3.2274  -0.6683 N.am           1 S1                 0.0000
     16 ****         1.6568  -3.2934  -2.8563 O.2            1 S1                 0.0000
     17 ****        -0.7582  -1.3284  -2.7095 C.3            1 S1                 0.0000
     18 ****        -1.4181   0.0447  -2.9727 C.3            1 S1                 0.0000
     19 ****        -1.7638  -2.2029  -1.9221 C.3            1 S1                 0.0000
     20 ****         2.3937   0.0629  -4.9172 H              1 S1                 0.0000
     21 ****         0.7412  -0.5069  -4.9398 H              1 S1                 0.0000
     22 ****         2.0658  -1.6343  -4.6629 H              1 S1                 0.0000
     23 ****         2.6453  -0.4270  -2.5617 H              1 S1                 0.0000
     24 ****         1.3657   0.7071  -2.8011 H              1 S1                 0.0000
     25 ****        -0.5117  -0.4148  -0.5241 H              1 S1                 0.0000
     26 ****        -0.1985   1.0256   1.3424 H              1 S1                 0.0000
     27 ****         0.6512  -0.2102   2.2508 H              1 S1                 0.0000
     28 ****         2.7244   0.3711   3.4544 H              1 S1                 0.0000
     29 ****         4.2340   2.2133   4.2392 H              1 S1                 0.0000
     30 ****         4.0135   4.4775   3.1849 H              1 S1                 0.0000
     31 ****         0.9690   3.2018   0.7011 H              1 S1                 0.0000
     32 ****         1.6292  -4.1571  -0.5467 H              1 S1                 0.0000
     33 ****         0.8922  -2.7157   0.1234 H              1 S1                 0.0000
     34 ****        -0.6467  -1.8142  -3.6794 H              1 S1                 0.0000
     35 ****        -1.6030   0.5904  -2.0471 H              1 S1                 0.0000
     36 ****        -2.3794  -0.0774  -3.4721 H              1 S1                 0.0000
     37 ****        -0.8137   0.6822  -3.6163 H              1 S1                 0.0000
     38 ****        -1.9409  -1.8151  -0.9186 H              1 S1                 0.0000
     39 ****        -1.4314  -3.2364  -1.8263 H              1 S1                 0.0000
     40 ****        -2.7284  -2.2365  -2.4293 H              1 S1                 0.0000
     41 ****         2.8763  -0.5596  -0.8248 LP             1 S1                 0.0000
     42 ****         3.1501   0.2068   0.7042 LP             1 S1                 0.0000
     43 ****         2.4235   4.8583   1.4996 LP             1 S1                 0.0000
     44 ****         1.6268  -2.8805  -3.7666 LP             1 S1                 0.0000
     45 ****         2.0237  -4.2160  -2.7375 LP             1 S1                 0.0000
@<TRIPOS>BOND
    1    1    2 1     
    2    1   20 1     
    3    1   21 1     
    4    1   22 1     
    5    2    3 1     
    6    2   23 1     
    7    2   24 1     
    8    3    4 1     
    9    3   14 1     
   10    3   17 1     
   11    4    5 am    
   12    4   25 1     
   13    5    6 2     
   14    5    7 1     
   15    7    8 1     
   16    7   26 1     
   17    7   27 1     
   18    8   13 ar    
   19    8    9 ar    
   20    9   10 ar    
   21    9   28 1     
   22   10   11 ar    
   23   10   29 1     
   24   11   12 ar    
   25   11   30 1     
   26   12   13 ar    
   27   13   31 1     
   28   14   15 am    
   29   14   16 2     
   30   15   32 1     
   31   15   33 1     
   32   17   18 1     
   33   17   19 1     
   34   17   34 1     
   35   18   35 1     
   36   18   36 1     
   37   18   37 1     
   38   19   38 1     
   39   19   39 1     
   40   19   40 1     
   41    6   41 1     
   42    6   42 1     
   43   12   43 1     
   44   16   44 1     
   45   16   45 1     
@<TRIPOS>SUBSTRUCTURE
      1 S1             1
@<TRIPOS>SET
LONE_PAIRS      STATIC     ATOMS    <user>   **** ""
5 41 42 43 44 45
DONOR_HYDROGENS      STATIC     ATOMS    <user>   **** ""
3 25 32 33
ATOM$BLUE        STATIC     ATOMS    COLORGROUP SYSTEM
5 41 42 43 44 45
ATOM$RED        STATIC     ATOMS    COLORGROUP SYSTEM
3 25 32 33
