AV-unprocessed.smi:298|AV-procd|sdf|2263|dock8
  -GOLD-   2262022153D 1   1.00000     0.00000
 Structure written by MMmdl.
 39 41  0  0  0  0  0  0  0  0  2 V2000
  152.0986  144.8058  160.2613 C   0  0  0  0  0  0  0  0  0  0  0  0
  151.9516  143.5965  159.3535 C   0  0  0  0  0  0  0  0  0  0  0  0
  151.1865  143.7292  158.1726 C   0  0  0  0  0  0  0  0  0  0  0  0
  151.0686  142.6053  157.3638 C   0  0  0  0  0  0  0  0  0  0  0  0
  150.3949  142.4131  156.1556 N   0  3  0  0  0  0  0  0  0  0  0  0
  150.5690  141.1287  155.7377 C   0  0  0  0  0  0  0  0  0  0  0  0
  151.3455  140.4991  156.6609 N   0  0  0  0  0  0  0  0  0  0  0  0
  151.8384  139.1163  156.6976 C   0  0  0  0  0  0  0  0  0  0  0  0
  152.3923  138.6440  155.3396 C   0  0  2  0  0  0  0  0  0  0  0  0
  153.0312  139.7249  154.6852 O   0  0  0  0  0  0  0  0  0  0  0  0
  151.2866  138.0653  154.4372 C   0  0  0  0  0  0  0  0  0  0  0  0
  150.8108  136.7744  154.8991 N   0  0  0  0  0  0  0  0  0  0  0  0
  149.6301  136.1704  154.7300 C   0  0  0  0  0  0  0  0  0  0  0  0
  149.5501  134.9742  155.2995 N   0  0  0  0  0  0  0  0  0  0  0  0
  150.8041  134.9107  155.8347 C   0  0  0  0  0  0  0  0  0  0  0  0
  151.2469  133.7543  156.5950 C   0  0  0  0  0  0  0  0  0  0  0  0
  151.5996  132.8335  157.2008 N   0  0  0  0  0  0  0  0  0  0  0  0
  151.6040  135.9555  155.6313 N   0  0  0  0  0  0  0  0  0  0  0  0
  151.6806  141.3808  157.6935 C   0  0  0  0  0  0  0  0  0  0  0  0
  152.4396  141.2326  158.8514 C   0  0  0  0  0  0  0  0  0  0  0  0
  152.5711  142.3642  159.6879 C   0  0  0  0  0  0  0  0  0  0  0  0
  153.3920  142.2331  160.9594 C   0  0  0  0  0  0  0  0  0  0  0  0
  151.5311  145.6580  159.8864 H   0  0  0  0  0  0  0  0  0  0  0  0
  153.1444  145.1061  160.3306 H   0  0  0  0  0  0  0  0  0  0  0  0
  151.7347  144.5800  161.2639 H   0  0  0  0  0  0  0  0  0  0  0  0
  150.7137  144.6644  157.9108 H   0  0  0  0  0  0  0  0  0  0  0  0
  150.1685  140.6905  154.8349 H   0  0  0  0  0  0  0  0  0  0  0  0
  152.5982  139.0421  157.4769 H   0  0  0  0  0  0  0  0  0  0  0  0
  151.0091  138.4810  157.0122 H   0  0  0  0  0  0  0  0  0  0  0  0
  153.1457  137.8741  155.5114 H   0  0  0  0  0  0  0  0  0  0  0  0
  153.3856  139.4146  153.8660 H   0  0  0  0  0  0  0  0  0  0  0  0
  150.4367  138.7479  154.3970 H   0  0  0  0  0  0  0  0  0  0  0  0
  151.6471  137.9554  153.4135 H   0  0  0  0  0  0  0  0  0  0  0  0
  148.8143  136.6129  154.1773 H   0  0  0  0  0  0  0  0  0  0  0  0
  152.9115  140.2946  159.1043 H   0  0  0  0  0  0  0  0  0  0  0  0
  153.8345  141.2405  161.0482 H   0  0  0  0  0  0  0  0  0  0  0  0
  152.7662  142.3994  161.8365 H   0  0  0  0  0  0  0  0  0  0  0  0
  154.2041  142.9605  160.9695 H   0  0  0  0  0  0  0  0  0  0  0  0
  149.8571  143.1060  155.6506 H   0  0  0  0  0  0  0  0  0  0  0  0
  1  2  1  0  0  0  0
  1 23  1  0  0  0  0
  1 24  1  0  0  0  0
  1 25  1  0  0  0  0
  2 21  1  0  0  0  0
  2  3  2  0  0  0  0
  3  4  1  0  0  0  0
  3 26  1  0  0  0  0
  4 19  2  0  0  0  0
  4  5  1  0  0  0  0
  5  6  2  0  0  0  0
  5 39  1  0  0  0  0
  6  7  1  0  0  0  0
  6 27  1  0  0  0  0
  7  8  1  0  0  0  0
  7 19  1  0  0  0  0
  8  9  1  0  0  0  0
  8 28  1  0  0  0  0
  8 29  1  0  0  0  0
  9 10  1  0  0  0  0
  9 11  1  0  0  0  0
  9 30  1  0  0  0  0
 10 31  1  0  0  0  0
 11 12  1  0  0  0  0
 11 32  1  0  0  0  0
 11 33  1  0  0  0  0
 12 18  1  0  0  0  0
 12 13  1  0  0  0  0
 13 14  2  0  0  0  0
 13 34  1  0  0  0  0
 14 15  1  0  0  0  0
 15 16  1  0  0  0  0
 15 18  2  0  0  0  0
 16 17  3  0  0  0  0
 19 20  1  0  0  0  0
 20 21  2  0  0  0  0
 20 35  1  0  0  0  0
 21 22  1  0  0  0  0
 22 36  1  0  0  0  0
 22 37  1  0  0  0  0
 22 38  1  0  0  0  0
M  CHG  1   5   1
M  END
> <s_m_source_file>
AV-unprocessed.smi

> <i_m_source_file_index>
298

> <i_lp_mmshare_version>
43012

> <i_f3d_flags>
0

> <s_epik_input>
W0NIM11jKFtjSF0xKWMoW0NIM10pW2NIXWMoYzEyKW4oW2NIXW4yKVtDSDJdW0NASF0oW09IXSlbQ0gyXW4zW2NIXW5jKG4zKUMjTg==

> <s_epik_cmdline>
J2VwaWtfcHl0aG9uJywgJy1waCcsICc3LjAnLCAnLXRuJywgJzgnLCAnLW1hJywgJzIwMCcsICctbWV0YWxfYmluZGluZycsICctaW1hZScsICc8aW5maWxlLm1hZT4nLCAnLW9tYWUnLCAnPG91dGZpbGUubWFlPic=

> <r_epik_Ionization_Penalty>
1.12076

> <r_epik_Ionization_Penalty_Charging>
1.12075

> <r_epik_Ionization_Penalty_Neutral>
1.54565e-06

> <r_epik_State_Penalty>
1.17957

> <r_epik_Charging_Adjusted_Penalty>
2.30033

> <i_epik_Tot_Q>
1

> <i_epik_Tot_abs_Q>
1

> <r_epik_Metal_State_Penalty>
1.26402

> <b_epik_Metal_Only>
0

> <s_lp_Force_Field>
OPLS_2005

> <r_lp_Energy>
16.3626

> <b_lp_Chiralities_Consistent>
1

> <s_lp_Variant>
AV-unprocessed.smi:298-3

> <Gold.Version>
5.8.1

> <Gold.Id.Protein>
6NUR|6NUR_protein|mol2

> <Gold.PLP.Fitness>
61.6745

> <Gold.PLP.PLP>
-46.5489

> <Gold.PLP.part.hbond>
-5.0000

> <Gold.PLP.part.metal>
0.0000

> <Gold.PLP.part.buried>
-3.5486

> <Gold.PLP.part.nonpolar>
-39.2261

> <Gold.PLP.part.repulsive>
0.2707

> <Gold.PLP.ligand.clash>
0.0000

> <Gold.PLP.ligand.torsion>
0.9247

> <Gold.PLP.Chemscore.Hbond>
4.9875

> <Gold.PLP.Chemscore.CHOScore>
0.6629

> <Gold.PLP.Chemscore.Metal>
0.0000

> <Gold.Chemscore.Hbonds>
donor molecule, donor type, donor heavy atom, donor atom, acceptor molecule, acceptor atom, score
      L1  H     5    39       P1  8028  1.98
      P1  H  6896  6908       L1    17  0.80
      P1  H  7989  7998       L1    10  0.07
      P1  H  7997  8010       L1    10  1.00
      P1  H 10752 10764       L1    18  1.00
      L1  C    13    34       P1  7948  0.65

> <Gold.PLP.Chemscore.Internal.Correction>
0.0238

> <Gold.Rescore>
     Score         DG    S(hbond)    S(metal)    S(lipo)     H(rot)  DE(clash)    DE(int)     intcor
     20.00     -20.85       3.32        0.00     104.09       3.09       0.12       0.73       ----

> <Gold.Chemscore.Fitness>
19.9990

> <Gold.Chemscore.DG>
-20.8495

> <Gold.Chemscore.ZeroCoef>
-5.4800

> <Gold.Chemscore.Hbond>
3.3230

> <Gold.Chemscore.Metal>
0.0000

> <Gold.Chemscore.Lipo>
104.0942

> <Gold.Chemscore.Internal_Hbond>
0.0000

> <Gold.Chemscore.DEClash>
0.1196

> <Gold.Chemscore.DEInternal>
0.7309

> <Gold.Chemscore.Rot>
3.0892

> <Gold.Chemscore.Internal.Correction>
   9.000000E+99

> <Gold.Chemscore.Hbonds>
donor molecule, donor type, donor heavy atom, donor atom, acceptor molecule, acceptor atom, score
      L1  H     5    39       P1  8028  0.94
      P1  H  6896  6908       L1    17  0.46
      P1  H  7997  8010       L1    10  0.31
      P1  H 10752 10764       L1    18  0.64

> <Gold.Chemscore.Hbond.Weighted>
-11.0989

> <Gold.Chemscore.Metal.Weighted>
-0.0000

> <Gold.Chemscore.Lipo.Weighted>
-12.1790

> <Gold.Chemscore.Internal_Hbond.Weighted>
0.0000

> <Gold.Chemscore.DEClash.Weighted>
0.1196

> <Gold.Chemscore.DEInternal.Weighted>
0.7309

> <Gold.Chemscore.Rot.Weighted>
7.9084

> <Gold.Chemscore.Internal.Correction.Weighted>
   9.000000E+99

> <Gold.Protein.RotatedTorsions>
[ 6907 6896 6895 6894 ] final   73.21 input  -60.11 | X-H torsion
[ 7974 7965 7964 7962 ] final   14.31 input  175.53 | X-H torsion
[ 8008 7997 7996 7995 ] final  118.92 input   59.86 | X-H torsion
[ 10167 10162 10161 10158 ] final   59.58 input  -65.29 | X-H torsion
[ 10718 10713 10712 10709 ] final   70.60 input   66.30 | X-H torsion
[ 10763 10752 10751 10750 ] final  -48.07 input  -60.55 | X-H torsion
[ 11005 11000 10999 10996 ] final  -77.63 input  -57.11 | X-H torsion

> <Gold.Protein.ActiveResidues>
 VAL166  LYS551  ARG553  GLY616  TRP617  ASP618  TYR619  PRO620  LYS621  CYS622 
 ASP623  PHE694  ASN695  SER759  ASP760  ASP761  ALA762  ILE779  LEU786  VAL792 
 PHE793  MET794  SER795  GLU796  ALA797  LYS798  CYS799  TRP800  GLU811  SER814 

> <Gold.Protein.RotatedAtoms>
  152.4911  134.4455  159.9557 H   0  0  0  0  0  0  0  0  0  0  0  0  # atno 6907 bound_to 6896
  151.4442  133.3629  159.2794 H   0  0  0  0  0  0  0  0  0  0  0  0  # atno 6908 bound_to 6896
  150.9066  134.8505  159.7457 H   0  0  0  0  0  0  0  0  0  0  0  0  # atno 6909 bound_to 6896
  146.2308  139.9059  142.8532 H   0  0  0  0  0  0  0  0  0  0  0  0  # atno 7974 bound_to 7965
  156.2570  140.2864  156.0911 H   0  0  0  0  0  0  0  0  0  0  0  0  # atno 8008 bound_to 7997
  155.1462  140.0396  157.2828 H   0  0  0  0  0  0  0  0  0  0  0  0  # atno 8009 bound_to 7997
  154.6494  140.2541  155.7238 H   0  0  0  0  0  0  0  0  0  0  0  0  # atno 8010 bound_to 7997
  140.1749  144.4240  150.6643 H   0  0  0  0  0  0  0  0  0  0  0  0  # atno 10167 bound_to 10162
  157.6408  130.9485  150.0673 H   0  0  0  0  0  0  0  0  0  0  0  0  # atno 10718 bound_to 10713
  154.0717  135.6603  153.4825 H   0  0  0  0  0  0  0  0  0  0  0  0  # atno 10763 bound_to 10752
  153.0388  135.5159  154.7560 H   0  0  0  0  0  0  0  0  0  0  0  0  # atno 10764 bound_to 10752
  154.6628  135.3017  154.9812 H   0  0  0  0  0  0  0  0  0  0  0  0  # atno 10765 bound_to 10752
  141.1661  133.7030  156.7850 H   0  0  0  0  0  0  0  0  0  0  0  0  # atno 11005 bound_to 11000
  145.2277  140.9960  143.4009 LP  0  0  0  0  0  0  0  0  0  0  0  0  # atno 17320 bound_to 7965
  144.9556  139.4035  143.6381 LP  0  0  0  0  0  0  0  0  0  0  0  0  # atno 17321 bound_to 7965
  140.6558  143.2237  151.5972 LP  0  0  0  0  0  0  0  0  0  0  0  0  # atno 17342 bound_to 10162
  139.5321  144.2885  152.1172 LP  0  0  0  0  0  0  0  0  0  0  0  0  # atno 17343 bound_to 10162
  156.1688  130.3646  149.9195 LP  0  0  0  0  0  0  0  0  0  0  0  0  # atno 17370 bound_to 10713
  156.7175  130.8994  151.3615 LP  0  0  0  0  0  0  0  0  0  0  0  0  # atno 17371 bound_to 10713
  140.2367  134.8645  157.3532 LP  0  0  0  0  0  0  0  0  0  0  0  0  # atno 17394 bound_to 11000
  140.1837  134.4458  155.7757 LP  0  0  0  0  0  0  0  0  0  0  0  0  # atno 17395 bound_to 11000

$$$$
