#       Name:                AV-unprocessed.smi:3085
#       Creating user name   scv26
#       Creation time:       Fri Mar 27 17:14:39 2020


#       File generated by GOLD software.
#

@<TRIPOS>MOLECULE
AV-unprocessed.smi:3085
    32    33     1
SMALL
NO_CHARGES


@<TRIPOS>ATOM
      1 ****        -4.1867   1.6009   1.5584 C.3            1 S1                 0.0000
      2 ****        -3.7265   0.1708   1.2549 C.3            1 S1                 0.0000
      3 ****        -2.2390   0.0416   1.2193 C.2            1 S1                 0.0000
      4 ****        -1.5475   0.0968   0.0717 N.pl3          1 S1                 0.0000
      5 ****        -0.2767  -0.0344   0.4805 C.2            1 S1                 0.0000
      6 ****         0.8694  -0.0418  -0.4816 C.3            1 S1                 0.0000
      7 ****         1.4245  -1.4590  -0.7233 C.3            1 S1                 0.0000
      8 ****         2.6146  -1.3937  -1.5937 N.4            1 S1                 1.0000
      9 ****         3.6351  -0.4778  -1.0462 C.3            1 S1                 0.0000
     10 ****         3.0181   0.9077  -0.7855 C.3            1 S1                 0.0000
     11 ****         1.8924   0.7792   0.0770 O.3            1 S1                 0.0000
     12 ****        -0.1656  -0.1672   1.8066 N.2            1 S1                 0.0000
     13 ****        -1.4599  -0.1117   2.2940 N.2            1 S1                 0.0000
     14 ****        -1.9001   0.2129  -0.8673 H              1 S1                 0.0000
     15 ****        -5.2748   1.6635   1.5753 H              1 S1                 0.0000
     16 ****        -3.8240   2.2996   0.8041 H              1 S1                 0.0000
     17 ****        -3.8193   1.9345   2.5294 H              1 S1                 0.0000
     18 ****        -4.1179  -0.5113   2.0106 H              1 S1                 0.0000
     19 ****        -4.1362  -0.1574   0.2990 H              1 S1                 0.0000
     20 ****         0.5336   0.3950  -1.4245 H              1 S1                 0.0000
     21 ****         1.7028  -1.9267   0.2224 H              1 S1                 0.0000
     22 ****         0.6706  -2.0952  -1.1877 H              1 S1                 0.0000
     23 ****         3.0108  -2.3179  -1.6914 H              1 S1                 0.0000
     24 ****         4.0301  -0.8936  -0.1182 H              1 S1                 0.0000
     25 ****         4.4680  -0.4029  -1.7457 H              1 S1                 0.0000
     26 ****         3.7511   1.5626  -0.3142 H              1 S1                 0.0000
     27 ****         2.7205   1.3843  -1.7209 H              1 S1                 0.0000
     28 ****         2.3330  -1.0578  -2.5037 H              1 S1                 0.0000
     29 ****         2.1939   0.3737   0.9400 LP             1 S1                 0.0000
     30 ****         1.5151   1.6890   0.2500 LP             1 S1                 0.0000
     31 ****         0.6756  -0.2824   2.3349 LP             1 S1                 0.0000
     32 ****        -1.7506  -0.1734   3.2489 LP             1 S1                 0.0000
@<TRIPOS>BOND
    1    1    2 1     
    2    1   15 1     
    3    1   16 1     
    4    1   17 1     
    5    2   18 1     
    6    2   19 1     
    7    2    3 1     
    8    3    4 1     
    9    3   13 2     
   10    4   14 1     
   11    4    5 1     
   12    5   12 2     
   13    5    6 1     
   14    6   11 1     
   15    6    7 1     
   16    6   20 1     
   17    7    8 1     
   18    7   21 1     
   19    7   22 1     
   20    8    9 1     
   21    8   23 1     
   22    8   28 1     
   23    9   10 1     
   24    9   24 1     
   25    9   25 1     
   26   10   11 1     
   27   10   26 1     
   28   10   27 1     
   29   12   13 1     
   30   11   29 1     
   31   11   30 1     
   32   12   31 1     
   33   13   32 1     
@<TRIPOS>SUBSTRUCTURE
      1 S1             1
@<TRIPOS>SET
LONE_PAIRS      STATIC     ATOMS    <user>   **** ""
4 29 30 31 32
DONOR_HYDROGENS      STATIC     ATOMS    <user>   **** ""
3 14 23 28
ATOM$BLUE        STATIC     ATOMS    COLORGROUP SYSTEM
4 29 30 31 32
ATOM$RED        STATIC     ATOMS    COLORGROUP SYSTEM
3 14 23 28
