AV-unprocessed.smi:218|AV-procd|sdf|1670|dock6
  -GOLD-   2262020 83D 1   1.00000     0.00000
 Structure written by MMmdl.
 54 57  0  0  0  0  0  0  0  0  1 V2000
  152.3655  142.7428  161.2488 C   0  0  0  0  0  0  0  0  0  0  0  0
  152.9912  142.5426  159.8633 C   0  0  0  0  0  0  0  0  0  0  0  0
  152.9051  143.8281  159.0225 C   0  0  0  0  0  0  0  0  0  0  0  0
  152.2676  141.4847  159.2315 O   0  0  0  0  0  0  0  0  0  0  0  0
  150.9359  141.6524  158.9038 C   0  0  0  0  0  0  0  0  0  0  0  0
  150.2656  140.5867  158.2697 C   0  0  0  0  0  0  0  0  0  0  0  0
  148.9081  140.7446  157.9219 C   0  0  0  0  0  0  0  0  0  0  0  0
  148.1524  139.6266  157.2334 C   0  0  0  0  0  0  0  0  0  0  0  0
  147.0131  139.1480  158.0044 N   0  0  0  0  0  0  0  0  0  0  0  0
  146.0774  138.3719  157.4179 C   0  0  0  0  0  0  0  0  0  0  0  0
  144.9195  138.0653  158.0597 N   0  0  0  0  0  0  0  0  0  0  0  0
  144.0050  137.2990  157.4575 C   0  0  0  0  0  0  0  0  0  0  0  0
  144.0495  136.7442  156.2443 N   0  0  0  0  0  0  0  0  0  0  0  0
  145.2119  137.0487  155.5968 C   0  0  0  0  0  0  0  0  0  0  0  0
  146.2677  137.8504  156.1122 C   0  0  0  0  0  0  0  0  0  0  0  0
  147.2897  137.9411  155.1761 N   0  0  0  0  0  0  0  0  0  0  0  0
  146.8595  137.2293  154.1685 C   0  0  0  0  0  0  0  0  0  0  0  0
  145.6210  136.6516  154.3400 N   0  0  0  0  0  0  0  0  0  0  0  0
  144.8652  135.7937  153.3726 C   0  0  2  0  0  0  0  0  0  0  0  0
  145.6887  134.7239  153.0333 O   0  0  0  0  0  0  0  0  0  0  0  0
  145.5128  134.4078  151.6603 C   0  0  2  0  0  0  0  0  0  0  0  0
  146.7544  133.6713  151.1353 C   0  0  0  0  0  0  0  0  0  0  0  0
  146.7939  132.3580  151.6519 O   0  0  0  0  0  0  0  0  0  0  0  0
  145.2991  135.7812  151.0166 C   0  0  1  0  0  0  0  0  0  0  0  0
  144.5666  135.6562  149.8140 O   0  0  0  0  0  0  0  0  0  0  0  0
  144.4864  136.5295  152.0664 C   0  0  2  0  0  0  0  0  0  0  0  0
  144.7914  137.9129  152.0553 O   0  0  0  0  0  0  0  0  0  0  0  0
  148.2727  141.9663  158.2210 C   0  0  0  0  0  0  0  0  0  0  0  0
  149.0246  142.9734  158.8566 C   0  0  0  0  0  0  0  0  0  0  0  0
  150.3241  142.8283  159.1917 N   0  0  0  0  0  0  0  0  0  0  0  0
  143.9941  135.4447  153.9287 H   0  0  0  0  0  0  0  0  0  0  0  0
  144.6117  133.8007  151.5478 H   0  0  0  0  0  0  0  0  0  0  0  0
  146.2573  136.2712  150.8361 H   0  0  0  0  0  0  0  0  0  0  0  0
  143.4160  136.3888  151.9077 H   0  0  0  0  0  0  0  0  0  0  0  0
  152.8760  143.5325  161.8008 H   0  0  0  0  0  0  0  0  0  0  0  0
  152.4307  141.8298  161.8413 H   0  0  0  0  0  0  0  0  0  0  0  0
  151.3123  143.0147  161.1725 H   0  0  0  0  0  0  0  0  0  0  0  0
  154.0356  142.2674  160.0185 H   0  0  0  0  0  0  0  0  0  0  0  0
  153.4152  144.6537  159.5194 H   0  0  0  0  0  0  0  0  0  0  0  0
  151.8680  144.1246  158.8640 H   0  0  0  0  0  0  0  0  0  0  0  0
  153.3658  143.7033  158.0430 H   0  0  0  0  0  0  0  0  0  0  0  0
  150.7878  139.6667  158.0512 H   0  0  0  0  0  0  0  0  0  0  0  0
  147.8068  139.9682  156.2568 H   0  0  0  0  0  0  0  0  0  0  0  0
  148.8475  138.8041  157.0605 H   0  0  0  0  0  0  0  0  0  0  0  0
  146.9726  139.4407  158.9703 H   0  0  0  0  0  0  0  0  0  0  0  0
  143.1103  137.1017  158.0294 H   0  0  0  0  0  0  0  0  0  0  0  0
  147.4405  137.1029  153.2666 H   0  0  0  0  0  0  0  0  0  0  0  0
  146.7129  133.5926  150.0486 H   0  0  0  0  0  0  0  0  0  0  0  0
  147.6696  134.2086  151.3864 H   0  0  0  0  0  0  0  0  0  0  0  0
  147.5207  131.9013  151.2564 H   0  0  0  0  0  0  0  0  0  0  0  0
  145.0831  135.1539  149.2022 H   0  0  0  0  0  0  0  0  0  0  0  0
  144.6335  138.2443  151.1838 H   0  0  0  0  0  0  0  0  0  0  0  0
  147.2349  142.1317  157.9719 H   0  0  0  0  0  0  0  0  0  0  0  0
  148.5698  143.9217  159.1017 H   0  0  0  0  0  0  0  0  0  0  0  0
  1  2  1  0  0  0  0
  1 35  1  0  0  0  0
  1 36  1  0  0  0  0
  1 37  1  0  0  0  0
  2  3  1  0  0  0  0
  2  4  1  0  0  0  0
  2 38  1  0  0  0  0
  3 39  1  0  0  0  0
  3 40  1  0  0  0  0
  3 41  1  0  0  0  0
  4  5  1  0  0  0  0
  5 30  1  0  0  0  0
  5  6  2  0  0  0  0
  6  7  1  0  0  0  0
  6 42  1  0  0  0  0
  7  8  1  0  0  0  0
  7 28  2  0  0  0  0
  8  9  1  0  0  0  0
  8 43  1  0  0  0  0
  8 44  1  0  0  0  0
  9 10  1  0  0  0  0
  9 45  1  0  0  0  0
 10 15  1  0  0  0  0
 10 11  2  0  0  0  0
 11 12  1  0  0  0  0
 12 13  2  0  0  0  0
 12 46  1  0  0  0  0
 13 14  1  0  0  0  0
 14 18  1  0  0  0  0
 14 15  2  0  0  0  0
 15 16  1  0  0  0  0
 16 17  2  0  0  0  0
 17 18  1  0  0  0  0
 17 47  1  0  0  0  0
 18 19  1  0  0  0  0
 19 31  1  0  0  0  0
 19 26  1  0  0  0  0
 19 20  1  0  0  0  0
 20 21  1  0  0  0  0
 21 32  1  0  0  0  0
 21 22  1  0  0  0  0
 21 24  1  0  0  0  0
 22 23  1  0  0  0  0
 22 48  1  0  0  0  0
 22 49  1  0  0  0  0
 23 50  1  0  0  0  0
 24 33  1  0  0  0  0
 24 25  1  0  0  0  0
 24 26  1  0  0  0  0
 25 51  1  0  0  0  0
 26 34  1  0  0  0  0
 26 27  1  0  0  0  0
 27 52  1  0  0  0  0
 28 29  1  0  0  0  0
 28 53  1  0  0  0  0
 29 30  2  0  0  0  0
 29 54  1  0  0  0  0
M  END
> <s_m_source_file>
AV-unprocessed.smi

> <i_m_source_file_index>
218

> <i_lp_mmshare_version>
43012

> <i_f3d_flags>
0

> <s_epik_input>
W0NIM11bQ0hdKFtDSDNdKU9jMVtjSF1jKFtjSF1bY0hdbjEpW0NIMl1bTkhdYyhuW2NIXW4yKWMoYzIzKW5bY0hdbjNbQ0BASF00T1tDQEhdKFtDSDJdW09IXSlbQ0BASF0oW09IXSlbQ0BIXTRbT0hd

> <s_epik_cmdline>
J2VwaWtfcHl0aG9uJywgJy1waCcsICc3LjAnLCAnLXRuJywgJzgnLCAnLW1hJywgJzIwMCcsICctbWV0YWxfYmluZGluZycsICctaW1hZScsICc8aW5maWxlLm1hZT4nLCAnLW9tYWUnLCAnPG91dGZpbGUubWFlPic=

> <r_lp_tautomer_probability>
1

> <r_epik_Ionization_Penalty>
0.00457014

> <r_epik_Ionization_Penalty_Charging>
0

> <r_epik_Ionization_Penalty_Neutral>
0.00457014

> <r_epik_State_Penalty>
-0

> <r_epik_Charging_Adjusted_Penalty>
0

> <i_epik_Tot_Q>
0

> <i_epik_Tot_abs_Q>
0

> <r_epik_Metal_State_Penalty>
-0

> <b_epik_Metal_Only>
0

> <s_epik_Chemistry_Notes>
This compound contains an acetal/aminal-like group ( X-CH(R)-Y where X, Y are N, S, or O) that may be acid/base labile, releasing an aldehyde.

> <s_lp_Force_Field>
OPLS_2005

> <r_lp_Energy>
38.9245

> <b_lp_Chiralities_Consistent>
1

> <s_lp_Variant>
AV-unprocessed.smi:218-9

> <Gold.Version>
5.8.1

> <Gold.Id.Protein>
6NUR|6NUR_protein|mol2

> <Gold.PLP.Fitness>
50.8555

> <Gold.PLP.PLP>
-36.0723

> <Gold.PLP.part.hbond>
-4.6281

> <Gold.PLP.part.metal>
0.0000

> <Gold.PLP.part.buried>
-6.8526

> <Gold.PLP.part.nonpolar>
-24.4612

> <Gold.PLP.part.repulsive>
0.3506

> <Gold.PLP.ligand.clash>
0.0000

> <Gold.PLP.ligand.torsion>
0.2080

> <Gold.PLP.Chemscore.Hbond>
3.0000

> <Gold.PLP.Chemscore.CHOScore>
1.9758

> <Gold.PLP.Chemscore.Metal>
0.0000

> <Gold.Chemscore.Hbonds>
donor molecule, donor type, donor heavy atom, donor atom, acceptor molecule, acceptor atom, score
      L1  H    23    50       P1 10747  0.98
      L1  H    25    51       P1  7921  1.00
      L1  H    27    52       P1 10171  1.00
      L1  C    17    47       P1  7948  1.00
      L1  C    29    54       P1  8029  0.28

> <Gold.PLP.Chemscore.Internal.Correction>
0.2717

> <Gold.Rescore>
     Score         DG    S(hbond)    S(metal)    S(lipo)     H(rot)  DE(clash)    DE(int)     intcor
      6.65     -11.28       2.98        0.00      71.95       4.90       0.09       4.54       ----

> <Gold.Chemscore.Fitness>
6.6521

> <Gold.Chemscore.DG>
-11.2844

> <Gold.Chemscore.ZeroCoef>
-5.4800

> <Gold.Chemscore.Hbond>
2.9755

> <Gold.Chemscore.Metal>
0.0000

> <Gold.Chemscore.Lipo>
71.9481

> <Gold.Chemscore.Internal_Hbond>
0.0000

> <Gold.Chemscore.DEClash>
0.0885

> <Gold.Chemscore.DEInternal>
4.5438

> <Gold.Chemscore.Rot>
4.9029

> <Gold.Chemscore.Internal.Correction>
   9.000000E+99

> <Gold.Chemscore.Hbonds>
donor molecule, donor type, donor heavy atom, donor atom, acceptor molecule, acceptor atom, score
      L1  H    23    50       P1 10747  0.91
      L1  H    25    51       P1  7921  0.99
      L1  H    27    52       P1 10171  0.98

> <Gold.Chemscore.Hbond.Weighted>
-9.9380

> <Gold.Chemscore.Metal.Weighted>
-0.0000

> <Gold.Chemscore.Lipo.Weighted>
-8.4179

> <Gold.Chemscore.Internal_Hbond.Weighted>
0.0000

> <Gold.Chemscore.DEClash.Weighted>
0.0885

> <Gold.Chemscore.DEInternal.Weighted>
4.5438

> <Gold.Chemscore.Rot.Weighted>
12.5515

> <Gold.Chemscore.Internal.Correction.Weighted>
   9.000000E+99

> <Gold.Protein.RotatedTorsions>
[ 6907 6896 6895 6894 ] final  117.17 input  -60.11 | X-H torsion
[ 7974 7965 7964 7962 ] final    1.58 input  175.53 | X-H torsion
[ 8008 7997 7996 7995 ] final    6.31 input   59.86 | X-H torsion
[ 10167 10162 10161 10158 ] final  -29.48 input  -65.29 | X-H torsion
[ 10718 10713 10712 10709 ] final    9.60 input   66.30 | X-H torsion
[ 10763 10752 10751 10750 ] final   81.04 input  -60.55 | X-H torsion
[ 11005 11000 10999 10996 ] final  -97.99 input  -57.11 | X-H torsion

> <Gold.Protein.ActiveResidues>
 VAL166  LYS551  ARG553  GLY616  TRP617  ASP618  TYR619  PRO620  LYS621  CYS622 
 ASP623  PHE694  ASN695  SER759  ASP760  ASP761  ALA762  ILE779  LEU786  VAL792 
 PHE793  MET794  SER795  GLU796  ALA797  LYS798  CYS799  TRP800  GLU811  SER814 

> <Gold.Protein.RotatedAtoms>
  152.4630  133.7862  159.6876 H   0  0  0  0  0  0  0  0  0  0  0  0  # atno 6907 bound_to 6896
  150.8581  133.7674  159.3008 H   0  0  0  0  0  0  0  0  0  0  0  0  # atno 6908 bound_to 6896
  151.5248  135.1070  159.9939 H   0  0  0  0  0  0  0  0  0  0  0  0  # atno 6909 bound_to 6896
  146.2441  140.0965  142.8349 H   0  0  0  0  0  0  0  0  0  0  0  0  # atno 7974 bound_to 7965
  154.7393  140.2746  155.6387 H   0  0  0  0  0  0  0  0  0  0  0  0  # atno 8008 bound_to 7997
  156.2870  140.2700  156.2042 H   0  0  0  0  0  0  0  0  0  0  0  0  # atno 8009 bound_to 7997
  155.0279  140.0371  157.2452 H   0  0  0  0  0  0  0  0  0  0  0  0  # atno 8010 bound_to 7997
  140.7260  143.3925  151.1405 H   0  0  0  0  0  0  0  0  0  0  0  0  # atno 10167 bound_to 10162
  156.9687  130.5961  149.5667 H   0  0  0  0  0  0  0  0  0  0  0  0  # atno 10718 bound_to 10713
  153.1083  135.4780  154.8991 H   0  0  0  0  0  0  0  0  0  0  0  0  # atno 10763 bound_to 10752
  154.7454  135.3092  154.8657 H   0  0  0  0  0  0  0  0  0  0  0  0  # atno 10764 bound_to 10752
  153.9253  135.6850  153.4800 H   0  0  0  0  0  0  0  0  0  0  0  0  # atno 10765 bound_to 10752
  141.1360  133.8211  157.0779 H   0  0  0  0  0  0  0  0  0  0  0  0  # atno 11005 bound_to 11000
  145.0605  140.9084  143.4941 LP  0  0  0  0  0  0  0  0  0  0  0  0  # atno 17320 bound_to 7965
  145.1080  139.2777  143.5652 LP  0  0  0  0  0  0  0  0  0  0  0  0  # atno 17321 bound_to 7965
  139.7532  143.8747  152.3082 LP  0  0  0  0  0  0  0  0  0  0  0  0  # atno 17342 bound_to 10162
  139.8607  144.7118  150.9103 LP  0  0  0  0  0  0  0  0  0  0  0  0  # atno 17343 bound_to 10162
  156.0291  130.5384  150.8488 LP  0  0  0  0  0  0  0  0  0  0  0  0  # atno 17370 bound_to 10713
  157.5607  131.0946  150.9563 LP  0  0  0  0  0  0  0  0  0  0  0  0  # atno 17371 bound_to 10713
  140.0470  134.9825  157.1067 LP  0  0  0  0  0  0  0  0  0  0  0  0  # atno 17394 bound_to 11000
  140.4048  134.2044  155.7163 LP  0  0  0  0  0  0  0  0  0  0  0  0  # atno 17395 bound_to 11000

$$$$
