AV-unprocessed.smi:620|AV-procd|sdf|3087|dock9
  -GOLD-   22720 0 13D 1   1.00000     0.00000
 Structure written by MMmdl.
 33 35  0  0  0  0  0  0  0  0  1 V2000
  146.9797  133.7104  162.1487 C   0  0  0  0  0  0  0  0  0  0  0  0
  147.4578  134.9653  161.5016 C   0  0  0  0  0  0  0  0  0  0  0  0
  147.2998  136.1743  162.0553 N   0  0  0  0  0  0  0  0  0  0  0  0
  147.8319  137.1890  161.2707 N   0  0  0  0  0  0  0  0  0  0  0  0
  148.3747  136.7167  160.1450 C   0  0  0  0  0  0  0  0  0  0  0  0
  148.9633  137.6429  159.2483 N   0  0  0  0  0  0  0  0  0  0  0  0
  150.1150  137.5171  158.5695 C   0  0  0  0  0  0  0  0  0  0  0  0
  150.8543  136.5336  158.6000 O   0  0  0  0  0  0  0  0  0  0  0  0
  150.3672  138.6123  157.8381 N   0  0  0  0  0  0  0  0  0  0  0  0
  151.5355  138.8180  156.9881 C   0  0  0  0  0  0  0  0  0  0  0  0
  151.8285  140.2903  156.7464 C   0  0  0  0  0  0  0  0  0  0  0  0
  151.4066  141.3508  157.7362 C   0  0  0  0  0  0  0  0  0  0  0  0
  150.7292  141.2633  156.3883 C   0  0  0  0  0  0  0  0  0  0  0  0
  151.3958  138.0841  155.6667 C   0  0  0  0  0  0  0  0  0  0  0  0
  152.2448  138.4571  154.4752 C   0  0  0  0  0  0  0  0  0  0  0  0
  150.7590  138.7389  154.4637 C   0  0  0  0  0  0  0  0  0  0  0  0
  148.2804  134.9666  159.9470 S   0  0  0  0  0  0  0  0  0  0  0  0
  146.4778  133.9293  163.0920 H   0  0  0  0  0  0  0  0  0  0  0  0
  147.8241  133.0507  162.3479 H   0  0  0  0  0  0  0  0  0  0  0  0
  146.2794  133.1948  161.4913 H   0  0  0  0  0  0  0  0  0  0  0  0
  148.4516  138.5027  159.1153 H   0  0  0  0  0  0  0  0  0  0  0  0
  149.6993  139.3684  157.8738 H   0  0  0  0  0  0  0  0  0  0  0  0
  152.4019  138.3894  157.4963 H   0  0  0  0  0  0  0  0  0  0  0  0
  152.7881  140.4643  156.2624 H   0  0  0  0  0  0  0  0  0  0  0  0
  150.8276  141.0410  158.6036 H   0  0  0  0  0  0  0  0  0  0  0  0
  152.0902  142.1803  157.9042 H   0  0  0  0  0  0  0  0  0  0  0  0
  150.9606  142.0329  155.6548 H   0  0  0  0  0  0  0  0  0  0  0  0
  149.7057  140.8944  156.3689 H   0  0  0  0  0  0  0  0  0  0  0  0
  151.1920  137.0209  155.7827 H   0  0  0  0  0  0  0  0  0  0  0  0
  152.9170  139.3068  154.5779 H   0  0  0  0  0  0  0  0  0  0  0  0
  152.6087  137.6481  153.8449 H   0  0  0  0  0  0  0  0  0  0  0  0
  150.1331  138.1170  153.8269 H   0  0  0  0  0  0  0  0  0  0  0  0
  150.4485  139.7782  154.5506 H   0  0  0  0  0  0  0  0  0  0  0  0
  1  2  1  0  0  0  0
  1 18  1  0  0  0  0
  1 19  1  0  0  0  0
  1 20  1  0  0  0  0
  2 17  1  0  0  0  0
  2  3  2  0  0  0  0
  3  4  1  0  0  0  0
  4  5  2  0  0  0  0
  5  6  1  0  0  0  0
  5 17  1  0  0  0  0
  6  7  1  0  0  0  0
  6 21  1  0  0  0  0
  7  8  2  0  0  0  0
  7  9  1  0  0  0  0
  9 10  1  0  0  0  0
  9 22  1  0  0  0  0
 10 11  1  0  0  0  0
 10 14  1  0  0  0  0
 10 23  1  0  0  0  0
 11 13  1  0  0  0  0
 11 12  1  0  0  0  0
 11 24  1  0  0  0  0
 12 13  1  0  0  0  0
 12 25  1  0  0  0  0
 12 26  1  0  0  0  0
 13 27  1  0  0  0  0
 13 28  1  0  0  0  0
 14 16  1  0  0  0  0
 14 15  1  0  0  0  0
 14 29  1  0  0  0  0
 15 16  1  0  0  0  0
 15 30  1  0  0  0  0
 15 31  1  0  0  0  0
 16 32  1  0  0  0  0
 16 33  1  0  0  0  0
M  END
> <s_m_source_file>
AV-unprocessed.smi

> <i_m_source_file_index>
620

> <i_lp_mmshare_version>
43012

> <i_f3d_flags>
0

> <s_epik_input>
W0NIM11jMW5uYyhzMSlbTkhdQyg9TylbTkhdW0NIXShbQ0hdMltDSDJdW0NIMl0yKVtDSF0zW0NIMl1bQ0gyXTM=

> <s_epik_cmdline>
J2VwaWtfcHl0aG9uJywgJy1waCcsICc3LjAnLCAnLXRuJywgJzgnLCAnLW1hJywgJzIwMCcsICctbWV0YWxfYmluZGluZycsICctaW1hZScsICc8aW5maWxlLm1hZT4nLCAnLW9tYWUnLCAnPG91dGZpbGUubWFlPic=

> <r_lp_tautomer_probability>
1

> <r_epik_Ionization_Penalty>
0.000349386

> <r_epik_Ionization_Penalty_Charging>
0

> <r_epik_Ionization_Penalty_Neutral>
0.000349386

> <r_epik_State_Penalty>
-0

> <r_epik_Charging_Adjusted_Penalty>
0

> <i_epik_Tot_Q>
0

> <i_epik_Tot_abs_Q>
0

> <r_epik_Metal_State_Penalty>
0.178889

> <b_epik_Metal_Only>
0

> <s_lp_Force_Field>
OPLS_2005

> <r_lp_Energy>
21.1743

> <b_lp_Chiralities_Consistent>
1

> <s_lp_Variant>
AV-unprocessed.smi:620-1

> <Gold.Version>
5.8.1

> <Gold.Id.Protein>
6NUR|6NUR_protein|mol2

> <Gold.PLP.Fitness>
37.1864

> <Gold.PLP.PLP>
-30.2883

> <Gold.PLP.part.hbond>
-3.0000

> <Gold.PLP.part.metal>
0.0000

> <Gold.PLP.part.buried>
-4.6092

> <Gold.PLP.part.nonpolar>
-22.8358

> <Gold.PLP.part.repulsive>
0.2890

> <Gold.PLP.ligand.clash>
0.0000

> <Gold.PLP.ligand.torsion>
1.6905

> <Gold.PLP.Chemscore.Hbond>
2.7200

> <Gold.PLP.Chemscore.CHOScore>
0.0000

> <Gold.PLP.Chemscore.Metal>
0.0000

> <Gold.Chemscore.Hbonds>
donor molecule, donor type, donor heavy atom, donor atom, acceptor molecule, acceptor atom, score
      P1  H  6896  6908       L1     8  0.90
      P1  H  6931  6943       L1     4  1.00
      P1  H  6934  6947       L1     4  0.77

> <Gold.PLP.Chemscore.Internal.Correction>
2.1191

> <Gold.Rescore>
     Score         DG    S(hbond)    S(metal)    S(lipo)     H(rot)  DE(clash)    DE(int)     intcor
     15.29     -17.20       2.30        0.00      66.01       1.44       0.05       1.86       ----

> <Gold.Chemscore.Fitness>
15.2860

> <Gold.Chemscore.DG>
-17.1992

> <Gold.Chemscore.ZeroCoef>
-5.4800

> <Gold.Chemscore.Hbond>
2.3003

> <Gold.Chemscore.Metal>
0.0000

> <Gold.Chemscore.Lipo>
66.0061

> <Gold.Chemscore.Internal_Hbond>
0.0000

> <Gold.Chemscore.DEClash>
0.0534

> <Gold.Chemscore.DEInternal>
1.8598

> <Gold.Chemscore.Rot>
1.4400

> <Gold.Chemscore.Internal.Correction>
   9.000000E+99

> <Gold.Chemscore.Hbonds>
donor molecule, donor type, donor heavy atom, donor atom, acceptor molecule, acceptor atom, score
      P1  H  6896  6908       L1     8  0.88
      P1  H  6931  6943       L1     4  0.42
      P1  H  6934  6947       L1     4  0.52

> <Gold.Chemscore.Hbond.Weighted>
-7.6829

> <Gold.Chemscore.Metal.Weighted>
-0.0000

> <Gold.Chemscore.Lipo.Weighted>
-7.7227

> <Gold.Chemscore.Internal_Hbond.Weighted>
0.0000

> <Gold.Chemscore.DEClash.Weighted>
0.0534

> <Gold.Chemscore.DEInternal.Weighted>
1.8598

> <Gold.Chemscore.Rot.Weighted>
3.6864

> <Gold.Chemscore.Internal.Correction.Weighted>
   9.000000E+99

> <Gold.Protein.RotatedTorsions>
[ 6907 6896 6895 6894 ] final -151.70 input  -60.11 | X-H torsion
[ 7974 7965 7964 7962 ] final -155.71 input  175.53 | X-H torsion
[ 8008 7997 7996 7995 ] final -104.75 input   59.86 | X-H torsion
[ 10167 10162 10161 10158 ] final  -99.96 input  -65.29 | X-H torsion
[ 10718 10713 10712 10709 ] final   79.07 input   66.30 | X-H torsion
[ 10763 10752 10751 10750 ] final  152.06 input  -60.55 | X-H torsion
[ 11005 11000 10999 10996 ] final -172.15 input  -57.11 | X-H torsion

> <Gold.Protein.ActiveResidues>
 VAL166  LYS551  ARG553  GLY616  TRP617  ASP618  TYR619  PRO620  LYS621  CYS622 
 ASP623  PHE694  ASN695  SER759  ASP760  ASP761  ALA762  ILE779  LEU786  VAL792 
 PHE793  MET794  SER795  GLU796  ALA797  LYS798  CYS799  TRP800  GLU811  SER814 

> <Gold.Protein.RotatedAtoms>
  151.2170  133.4523  159.2599 H   0  0  0  0  0  0  0  0  0  0  0  0  # atno 6907 bound_to 6896
  151.0921  134.9922  159.8418 H   0  0  0  0  0  0  0  0  0  0  0  0  # atno 6908 bound_to 6896
  152.5435  134.2103  159.8800 H   0  0  0  0  0  0  0  0  0  0  0  0  # atno 6909 bound_to 6896
  144.7627  140.4212  143.5964 H   0  0  0  0  0  0  0  0  0  0  0  0  # atno 7974 bound_to 7965
  154.8899  140.0416  157.1832 H   0  0  0  0  0  0  0  0  0  0  0  0  # atno 8008 bound_to 7997
  154.8552  140.2935  155.5552 H   0  0  0  0  0  0  0  0  0  0  0  0  # atno 8009 bound_to 7997
  156.2997  140.2457  156.3517 H   0  0  0  0  0  0  0  0  0  0  0  0  # atno 8010 bound_to 7997
  140.2569  143.3434  152.0662 H   0  0  0  0  0  0  0  0  0  0  0  0  # atno 10167 bound_to 10162
  157.6765  130.9897  150.1879 H   0  0  0  0  0  0  0  0  0  0  0  0  # atno 10718 bound_to 10713
  154.1139  135.2837  155.3224 H   0  0  0  0  0  0  0  0  0  0  0  0  # atno 10763 bound_to 10752
  154.6471  135.5382  153.7860 H   0  0  0  0  0  0  0  0  0  0  0  0  # atno 10764 bound_to 10752
  153.0336  135.6500  154.1296 H   0  0  0  0  0  0  0  0  0  0  0  0  # atno 10765 bound_to 10752
  140.5002  134.5901  157.4985 H   0  0  0  0  0  0  0  0  0  0  0  0  # atno 11005 bound_to 11000
  145.6567  139.1574  143.2831 LP  0  0  0  0  0  0  0  0  0  0  0  0  # atno 17320 bound_to 7965
  146.1706  140.6651  142.9235 LP  0  0  0  0  0  0  0  0  0  0  0  0  # atno 17321 bound_to 7965
  139.5028  144.6743  151.6166 LP  0  0  0  0  0  0  0  0  0  0  0  0  # atno 17342 bound_to 10162
  140.5996  143.9633  150.6377 LP  0  0  0  0  0  0  0  0  0  0  0  0  # atno 17343 bound_to 10162
  156.2597  130.3709  149.8144 LP  0  0  0  0  0  0  0  0  0  0  0  0  # atno 17370 bound_to 10713
  156.5892  130.8499  151.3403 LP  0  0  0  0  0  0  0  0  0  0  0  0  # atno 17371 bound_to 10713
  139.9718  134.7281  156.0027 LP  0  0  0  0  0  0  0  0  0  0  0  0  # atno 17394 bound_to 11000
  141.1439  133.6559  156.3810 LP  0  0  0  0  0  0  0  0  0  0  0  0  # atno 17395 bound_to 11000

$$$$
