#       Name:                AV-unprocessed.smi:2100
#       Creating user name   scv26
#       Creation time:       Fri Mar 27 11:30:39 2020


#       File generated by GOLD software.
#

@<TRIPOS>MOLECULE
AV-unprocessed.smi:2100
    45    46     1
SMALL
NO_CHARGES


@<TRIPOS>ATOM
      1 ****        -0.6755   2.8904  -1.5976 C.3            1 S1                 0.0000
      2 ****        -1.2003   2.1606  -0.3564 C.3            1 S1                 0.0000
      3 ****        -1.1474   0.6338  -0.5263 C.3            1 S1                 0.0000
      4 ****        -1.7693  -0.0477   0.6245 N.3            1 S1                 0.0000
      5 ****        -1.4967  -1.7545   0.7933 S.o2           1 S1                 0.0000
      6 ****        -2.2240  -2.1813   1.9998 O.2            1 S1                 0.0000
      7 ****        -1.8897  -2.3507  -0.4943 O.2            1 S1                 0.0000
      8 ****         0.1041  -1.6778   1.0267 N.pl3          1 S1                -1.0000
      9 ****         0.8849  -2.9025   1.0558 C.3            1 S1                 0.0000
     10 ****         2.3949  -2.5700   1.0269 C.3            1 S1                 0.0000
     11 ****         2.8888  -1.9095  -0.2595 C.ar           1 S1                 0.0000
     12 ****         2.9633  -0.5012  -0.3628 C.ar           1 S1                 0.0000
     13 ****         3.4228   0.0653  -1.5665 C.ar           1 S1                 0.0000
     14 ****         3.8018  -0.7911  -2.6176 C.ar           1 S1                 0.0000
     15 ****         3.7030  -2.1821  -2.4163 C.ar           1 S1                 0.0000
     16 ****         3.2618  -2.7366  -1.2670 N.ar           1 S1                 0.0000
     17 ****        -3.1253   0.4473   0.9115 C.3            1 S1                 0.0000
     18 ****        -3.1628   1.9857   1.0033 C.3            1 S1                 0.0000
     19 ****        -2.5887   2.5320   2.3231 C.3            1 S1                 0.0000
     20 ****        -2.5433   2.5765  -0.1364 O.3            1 S1                 0.0000
     21 ****         0.3595   2.6161  -1.8038 H              1 S1                 0.0000
     22 ****        -0.7121   3.9710  -1.4588 H              1 S1                 0.0000
     23 ****        -1.2688   2.6466  -2.4793 H              1 S1                 0.0000
     24 ****        -0.5783   2.4532   0.4896 H              1 S1                 0.0000
     25 ****        -1.6700   0.3329  -1.4351 H              1 S1                 0.0000
     26 ****        -0.1106   0.3196  -0.6427 H              1 S1                 0.0000
     27 ****         0.6694  -3.4822   1.9538 H              1 S1                 0.0000
     28 ****         0.6496  -3.5580   0.2165 H              1 S1                 0.0000
     29 ****         2.6495  -1.9310   1.8736 H              1 S1                 0.0000
     30 ****         2.9613  -3.4902   1.1752 H              1 S1                 0.0000
     31 ****         2.6590   0.1294   0.4600 H              1 S1                 0.0000
     32 ****         3.4826   1.1375  -1.6809 H              1 S1                 0.0000
     33 ****         4.1595  -0.3922  -3.5551 H              1 S1                 0.0000
     34 ****         3.9872  -2.8683  -3.2004 H              1 S1                 0.0000
     35 ****        -3.7902   0.1067   0.1170 H              1 S1                 0.0000
     36 ****        -3.4963   0.0121   1.8392 H              1 S1                 0.0000
     37 ****        -4.2085   2.2922   0.9678 H              1 S1                 0.0000
     38 ****        -3.1771   2.1853   3.1727 H              1 S1                 0.0000
     39 ****        -2.6052   3.6220   2.3333 H              1 S1                 0.0000
     40 ****        -1.5616   2.2088   2.4916 H              1 S1                 0.0000
     41 ****        -1.2203   0.2478   1.4064 LP             1 S1                 0.0000
     42 ****         0.5524  -0.7925   1.1501 LP             1 S1                 0.0000
     43 ****         3.2115  -3.7297  -1.1618 LP             1 S1                 0.0000
     44 ****        -3.0815   2.3369  -0.9444 LP             1 S1                 0.0000
     45 ****        -2.5476   3.5692  -0.0154 LP             1 S1                 0.0000
@<TRIPOS>BOND
    1    1    2 1     
    2    1   21 1     
    3    1   22 1     
    4    1   23 1     
    5    2   20 1     
    6    2    3 1     
    7    2   24 1     
    8    3    4 1     
    9    3   25 1     
   10    3   26 1     
   11    4    5 1     
   12    4   17 1     
   13    5    6 2     
   14    5    7 2     
   15    5    8 1     
   16    8    9 1     
   17    9   10 1     
   18    9   27 1     
   19    9   28 1     
   20   10   11 1     
   21   10   29 1     
   22   10   30 1     
   23   11   16 ar    
   24   11   12 ar    
   25   12   13 ar    
   26   12   31 1     
   27   13   14 ar    
   28   13   32 1     
   29   14   15 ar    
   30   14   33 1     
   31   15   16 ar    
   32   15   34 1     
   33   17   18 1     
   34   17   35 1     
   35   17   36 1     
   36   18   19 1     
   37   18   20 1     
   38   18   37 1     
   39   19   38 1     
   40   19   39 1     
   41   19   40 1     
   42    4   41 1     
   43    8   42 1     
   44   16   43 1     
   45   20   44 1     
   46   20   45 1     
@<TRIPOS>SUBSTRUCTURE
      1 S1             1
@<TRIPOS>SET
LONE_PAIRS      STATIC     ATOMS    <user>   **** ""
7 41 6 7 42 43 44 45
ATOM$BLUE        STATIC     ATOMS    COLORGROUP SYSTEM
7 41 6 7 42 43 44 45
