AV-unprocessed.smi:3055|AV-procd|sdf|11641|dock3
  -GOLD-   2272017 33D 1   1.00000     0.00000
 Structure written by MMmdl.
 48 50  0  0  0  0  0  0  0  0  3 V2000
  146.2998  138.2147  150.9489 O   0  0  0  0  0  0  0  0  0  0  0  0
  146.2156  137.5110  151.9552 C   0  0  0  0  0  0  0  0  0  0  0  0
  146.6968  137.9109  153.1430 N   0  0  0  0  0  0  0  0  0  0  0  0
  147.3655  139.1841  153.3812 C   0  0  0  0  0  0  0  0  0  0  0  0
  148.7478  138.9761  154.0197 C   0  0  0  0  0  0  0  0  0  0  0  0
  149.2070  140.1572  154.7577 N   0  0  0  0  0  0  0  0  0  0  0  0
  150.3457  140.2713  155.5136 C   0  0  0  0  0  0  0  0  0  0  0  0
  150.3619  141.5511  156.0054 C   0  0  0  0  0  0  0  0  0  0  0  0
  149.2361  142.1652  155.5255 N   0  3  0  0  0  0  0  0  0  0  0  0
  148.5363  141.3169  154.7650 C   0  0  0  0  0  0  0  0  0  0  0  0
  145.6120  136.2952  151.9643 N   0  0  0  0  0  0  0  0  0  0  0  0
  145.0611  135.5845  150.7971 C   0  0  0  0  0  0  0  0  0  0  0  0
  145.8782  134.3036  150.5599 C   0  0  0  0  0  0  0  0  0  0  0  0
  145.9005  133.4239  151.8246 C   0  0  0  0  0  0  0  0  0  0  0  0
  146.3460  134.2108  153.0855 C   0  0  1  0  0  0  0  0  0  0  0  0
  147.8077  134.5157  153.0727 N   0  3  0  0  0  0  0  0  0  0  0  0
  148.3645  134.9931  154.3568 C   0  0  0  0  0  0  0  0  0  0  0  0
  149.8707  134.8069  154.2234 C   0  0  0  0  0  0  0  0  0  0  0  0
  149.9953  133.5114  153.4286 C   0  0  0  0  0  0  0  0  0  0  0  0
  148.6885  133.4060  152.6291 C   0  0  0  0  0  0  0  0  0  0  0  0
  145.4778  135.4920  153.1903 C   0  0  0  0  0  0  0  0  0  0  0  0
  146.5849  137.2929  153.9333 H   0  0  0  0  0  0  0  0  0  0  0  0
  147.4614  139.7386  152.4461 H   0  0  0  0  0  0  0  0  0  0  0  0
  146.7434  139.7870  154.0442 H   0  0  0  0  0  0  0  0  0  0  0  0
  148.7130  138.1461  154.7263 H   0  0  0  0  0  0  0  0  0  0  0  0
  149.4918  138.7184  153.2642 H   0  0  0  0  0  0  0  0  0  0  0  0
  151.0407  139.4541  155.6434 H   0  0  0  0  0  0  0  0  0  0  0  0
  151.0726  142.0577  156.6422 H   0  0  0  0  0  0  0  0  0  0  0  0
  147.6117  141.5293  154.2581 H   0  0  0  0  0  0  0  0  0  0  0  0
  144.0199  135.3275  150.9985 H   0  0  0  0  0  0  0  0  0  0  0  0
  145.0359  136.1767  149.8825 H   0  0  0  0  0  0  0  0  0  0  0  0
  145.4569  133.7419  149.7258 H   0  0  0  0  0  0  0  0  0  0  0  0
  146.8974  134.5654  150.2728 H   0  0  0  0  0  0  0  0  0  0  0  0
  144.8905  133.0486  151.9949 H   0  0  0  0  0  0  0  0  0  0  0  0
  146.5084  132.5358  151.6555 H   0  0  0  0  0  0  0  0  0  0  0  0
  146.1525  133.5881  153.9603 H   0  0  0  0  0  0  0  0  0  0  0  0
  148.1053  136.0295  154.5663 H   0  0  0  0  0  0  0  0  0  0  0  0
  147.9870  134.3774  155.1748 H   0  0  0  0  0  0  0  0  0  0  0  0
  150.2956  135.6335  153.6525 H   0  0  0  0  0  0  0  0  0  0  0  0
  150.3803  134.7664  155.1868 H   0  0  0  0  0  0  0  0  0  0  0  0
  150.8776  133.5073  152.7877 H   0  0  0  0  0  0  0  0  0  0  0  0
  150.0792  132.6641  154.1109 H   0  0  0  0  0  0  0  0  0  0  0  0
  148.2279  132.4356  152.8205 H   0  0  0  0  0  0  0  0  0  0  0  0
  148.8676  133.4858  151.5563 H   0  0  0  0  0  0  0  0  0  0  0  0
  145.7158  136.0529  154.0945 H   0  0  0  0  0  0  0  0  0  0  0  0
  144.4300  135.2122  153.3100 H   0  0  0  0  0  0  0  0  0  0  0  0
  147.9508  135.2654  152.4115 H   0  0  0  0  0  0  0  0  0  0  0  0
  148.9719  143.1244  155.7133 H   0  0  0  0  0  0  0  0  0  0  0  0
  1  2  2  0  0  0  0
  2  3  1  0  0  0  0
  2 11  1  0  0  0  0
  3  4  1  0  0  0  0
  3 22  1  0  0  0  0
  4  5  1  0  0  0  0
  4 23  1  0  0  0  0
  4 24  1  0  0  0  0
  5  6  1  0  0  0  0
  5 25  1  0  0  0  0
  5 26  1  0  0  0  0
  6 10  1  0  0  0  0
  6  7  1  0  0  0  0
  7  8  2  0  0  0  0
  7 27  1  0  0  0  0
  8  9  1  0  0  0  0
  8 28  1  0  0  0  0
  9 10  2  0  0  0  0
  9 48  1  0  0  0  0
 10 29  1  0  0  0  0
 11 21  1  0  0  0  0
 11 12  1  0  0  0  0
 12 13  1  0  0  0  0
 12 30  1  0  0  0  0
 12 31  1  0  0  0  0
 13 14  1  0  0  0  0
 13 32  1  0  0  0  0
 13 33  1  0  0  0  0
 14 15  1  0  0  0  0
 14 34  1  0  0  0  0
 14 35  1  0  0  0  0
 15 16  1  0  0  0  0
 15 21  1  0  0  0  0
 15 36  1  0  0  0  0
 16 20  1  0  0  0  0
 16 17  1  0  0  0  0
 16 47  1  0  0  0  0
 17 18  1  0  0  0  0
 17 37  1  0  0  0  0
 17 38  1  0  0  0  0
 18 19  1  0  0  0  0
 18 39  1  0  0  0  0
 18 40  1  0  0  0  0
 19 20  1  0  0  0  0
 19 41  1  0  0  0  0
 19 42  1  0  0  0  0
 20 43  1  0  0  0  0
 20 44  1  0  0  0  0
 21 45  1  0  0  0  0
 21 46  1  0  0  0  0
M  CHG  1   9   1
M  CHG  1  16   1
M  END
> <s_m_source_file>
AV-unprocessed.smi

> <i_m_source_file_index>
3055

> <i_lp_mmshare_version>
43012

> <i_f3d_flags>
0

> <s_epik_input>
W2NIXTFuW2NIXVtjSF1uMVtDSDJdW0NIMl1bTkhdQyg9TylOMltDSDJdW0NIMl1bQ0gyXVtDQEhdKFtDSDJdMilOM1tDSDJdW0NIMl1bQ0gyXVtDSDJdMw==

> <s_epik_cmdline>
J2VwaWtfcHl0aG9uJywgJy1waCcsICc3LjAnLCAnLXRuJywgJzgnLCAnLW1hJywgJzIwMCcsICctbWV0YWxfYmluZGluZycsICctaW1hZScsICc8aW5maWxlLm1hZT4nLCAnLW9tYWUnLCAnPG91dGZpbGUubWFlPic=

> <r_lp_tautomer_probability>
1

> <r_epik_Ionization_Penalty>
0.259176

> <r_epik_Ionization_Penalty_Charging>
0.00125522

> <r_epik_Ionization_Penalty_Neutral>
0.257921

> <r_epik_State_Penalty>
0.249312

> <r_epik_Charging_Adjusted_Penalty>
0.250567

> <i_epik_Tot_Q>
2

> <i_epik_Tot_abs_Q>
2

> <r_epik_Metal_State_Penalty>
0.53666

> <b_epik_Metal_Only>
0

> <s_lp_Force_Field>
OPLS_2005

> <r_lp_Energy>
71.9504

> <b_lp_Chiralities_Consistent>
1

> <s_lp_Variant>
AV-unprocessed.smi:3055-1

> <Gold.Version>
5.8.1

> <Gold.Id.Protein>
6NUR|6NUR_protein|mol2

> <Gold.PLP.Fitness>
50.6610

> <Gold.PLP.PLP>
-37.8382

> <Gold.PLP.part.hbond>
-3.8714

> <Gold.PLP.part.metal>
0.0000

> <Gold.PLP.part.buried>
-0.4349

> <Gold.PLP.part.nonpolar>
-35.0565

> <Gold.PLP.part.repulsive>
2.1123

> <Gold.PLP.ligand.clash>
1.4752

> <Gold.PLP.ligand.torsion>
0.3664

> <Gold.PLP.Chemscore.Hbond>
5.0000

> <Gold.PLP.Chemscore.CHOScore>
0.0000

> <Gold.PLP.Chemscore.Metal>
0.0000

> <Gold.Chemscore.Hbonds>
donor molecule, donor type, donor heavy atom, donor atom, acceptor molecule, acceptor atom, score
      L1  H     9    48       P1  8028  2.00
      L1  H    16    47       P1  7948  1.49
      P1  H  7954  7966       L1     1  0.67

> <Gold.PLP.Chemscore.Internal.Correction>
0.0308

> <Gold.Rescore>
     Score         DG    S(hbond)    S(metal)    S(lipo)     H(rot)  DE(clash)    DE(int)     intcor
     16.71     -18.41       2.95        0.00      67.23       1.87       1.26       0.44       ----

> <Gold.Chemscore.Fitness>
16.7101

> <Gold.Chemscore.DG>
-18.4097

> <Gold.Chemscore.ZeroCoef>
-5.4800

> <Gold.Chemscore.Hbond>
2.9519

> <Gold.Chemscore.Metal>
0.0000

> <Gold.Chemscore.Lipo>
67.2296

> <Gold.Chemscore.Internal_Hbond>
0.0000

> <Gold.Chemscore.DEClash>
1.2633

> <Gold.Chemscore.DEInternal>
0.4363

> <Gold.Chemscore.Rot>
1.8732

> <Gold.Chemscore.Internal.Correction>
   9.000000E+99

> <Gold.Chemscore.Hbonds>
donor molecule, donor type, donor heavy atom, donor atom, acceptor molecule, acceptor atom, score
      L1  H     9    48       P1  8028  0.98
      L1  H    16    47       P1  7948  0.70
      P1  H  7954  7966       L1     1  0.53

> <Gold.Chemscore.Hbond.Weighted>
-9.8593

> <Gold.Chemscore.Metal.Weighted>
-0.0000

> <Gold.Chemscore.Lipo.Weighted>
-7.8659

> <Gold.Chemscore.Internal_Hbond.Weighted>
0.0000

> <Gold.Chemscore.DEClash.Weighted>
1.2633

> <Gold.Chemscore.DEInternal.Weighted>
0.4363

> <Gold.Chemscore.Rot.Weighted>
4.7954

> <Gold.Chemscore.Internal.Correction.Weighted>
   9.000000E+99

> <Gold.Protein.RotatedTorsions>
[ 6907 6896 6895 6894 ] final  -40.93 input  -60.11 | X-H torsion
[ 7974 7965 7964 7962 ] final -100.77 input  175.53 | X-H torsion
[ 8008 7997 7996 7995 ] final -113.94 input   59.86 | X-H torsion
[ 10167 10162 10161 10158 ] final -139.74 input  -65.29 | X-H torsion
[ 10718 10713 10712 10709 ] final  125.36 input   66.30 | X-H torsion
[ 10763 10752 10751 10750 ] final -164.91 input  -60.55 | X-H torsion
[ 11005 11000 10999 10996 ] final  -44.58 input  -57.11 | X-H torsion

> <Gold.Protein.ActiveResidues>
 VAL166  LYS551  ARG553  GLY616  TRP617  ASP618  TYR619  PRO620  LYS621  CYS622 
 ASP623  PHE694  ASN695  SER759  ASP760  ASP761  ALA762  ILE779  LEU786  VAL792 
 PHE793  MET794  SER795  GLU796  ALA797  LYS798  CYS799  TRP800  GLU811  SER814 

> <Gold.Protein.RotatedAtoms>
  150.9727  134.9097  159.7797 H   0  0  0  0  0  0  0  0  0  0  0  0  # atno 6907 bound_to 6896
  152.5195  134.3519  159.9264 H   0  0  0  0  0  0  0  0  0  0  0  0  # atno 6908 bound_to 6896
  151.3528  133.3878  159.2716 H   0  0  0  0  0  0  0  0  0  0  0  0  # atno 6909 bound_to 6896
  145.2903  140.9351  143.2882 H   0  0  0  0  0  0  0  0  0  0  0  0  # atno 7974 bound_to 7965
  155.0286  140.0393  157.2465 H   0  0  0  0  0  0  0  0  0  0  0  0  # atno 8008 bound_to 7997
  154.7316  140.2731  155.6428 H   0  0  0  0  0  0  0  0  0  0  0  0  # atno 8009 bound_to 7997
  156.2843  140.2683  156.2018 H   0  0  0  0  0  0  0  0  0  0  0  0  # atno 8010 bound_to 7997
  139.8349  143.7398  152.2665 H   0  0  0  0  0  0  0  0  0  0  0  0  # atno 10167 bound_to 10162
  157.5510  131.1094  150.8702 H   0  0  0  0  0  0  0  0  0  0  0  0  # atno 10718 bound_to 10713
  154.6983  135.2983  154.9379 H   0  0  0  0  0  0  0  0  0  0  0  0  # atno 10763 bound_to 10752
  154.0319  135.6669  153.4785 H   0  0  0  0  0  0  0  0  0  0  0  0  # atno 10764 bound_to 10752
  153.0662  135.5087  154.8113 H   0  0  0  0  0  0  0  0  0  0  0  0  # atno 10765 bound_to 10752
  141.0460  133.6761  156.2892 H   0  0  0  0  0  0  0  0  0  0  0  0  # atno 11005 bound_to 11000
  144.9179  139.4448  143.6555 LP  0  0  0  0  0  0  0  0  0  0  0  0  # atno 17320 bound_to 7965
  146.3187  139.8023  142.8963 LP  0  0  0  0  0  0  0  0  0  0  0  0  # atno 17321 bound_to 7965
  139.7617  144.7504  151.0355 LP  0  0  0  0  0  0  0  0  0  0  0  0  # atno 17342 bound_to 10162
  140.7803  143.4744  151.0103 LP  0  0  0  0  0  0  0  0  0  0  0  0  # atno 17343 bound_to 10162
  156.9227  130.5321  149.5279 LP  0  0  0  0  0  0  0  0  0  0  0  0  # atno 17370 bound_to 10713
  156.0576  130.5635  150.9125 LP  0  0  0  0  0  0  0  0  0  0  0  0  # atno 17371 bound_to 10713
  140.6146  134.5423  157.5539 LP  0  0  0  0  0  0  0  0  0  0  0  0  # atno 17394 bound_to 11000
  139.9312  134.7960  156.0926 LP  0  0  0  0  0  0  0  0  0  0  0  0  # atno 17395 bound_to 11000

$$$$
