AV-unprocessed.smi:2302|AV-procd|sdf|9240|dock1
  -GOLD-   2272012453D 1   1.00000     0.00000
 Structure written by MMmdl.
 39 40  0  0  0  0  0  0  0  0  1 V2000
  146.1480  131.7141  148.9934 C   0  0  0  0  0  0  0  0  0  0  0  0
  145.4486  132.5611  150.0360 C   0  0  0  0  0  0  0  0  0  0  0  0
  144.1322  132.2701  150.4443 C   0  0  0  0  0  0  0  0  0  0  0  0
  143.5446  133.0926  151.4220 C   0  0  0  0  0  0  0  0  0  0  0  0
  144.2918  134.1649  151.9467 C   0  0  0  0  0  0  0  0  0  0  0  0
  145.6069  134.3898  151.4811 C   0  0  0  0  0  0  0  0  0  0  0  0
  146.2754  135.4936  152.0743 N   0  0  0  0  0  0  0  0  0  0  0  0
  145.7346  136.5604  152.6888 C   0  0  0  0  0  0  0  0  0  0  0  0
  144.5300  136.7450  152.8674 O   0  0  0  0  0  0  0  0  0  0  0  0
  146.6830  137.4185  153.0914 N   0  0  0  0  0  0  0  0  0  0  0  0
  146.4362  138.6952  153.7537 C   0  0  0  0  0  0  0  0  0  0  0  0
  147.6819  139.5969  153.7240 C   0  0  2  0  0  0  0  0  0  0  0  0
  148.9059  138.9077  154.3599 C   0  0  0  0  0  0  0  0  0  0  0  0
  150.0684  139.7865  154.3889 N   0  0  0  0  0  0  0  0  0  0  0  0
  151.2226  139.1322  154.9864 C   0  0  0  0  0  0  0  0  0  0  0  0
  149.7312  141.0202  155.0862 C   0  0  0  0  0  0  0  0  0  0  0  0
  148.5021  141.7052  154.4657 C   0  0  0  0  0  0  0  0  0  0  0  0
  147.4089  140.7931  154.4523 O   0  0  0  0  0  0  0  0  0  0  0  0
  146.1644  133.5903  150.5376 N   0  0  0  0  0  0  0  0  0  0  0  0
  145.4968  130.9215  148.6241 H   0  0  0  0  0  0  0  0  0  0  0  0
  147.0392  131.2517  149.4184 H   0  0  0  0  0  0  0  0  0  0  0  0
  146.4509  132.3289  148.1454 H   0  0  0  0  0  0  0  0  0  0  0  0
  143.5863  131.4387  150.0231 H   0  0  0  0  0  0  0  0  0  0  0  0
  142.5380  132.9045  151.7652 H   0  0  0  0  0  0  0  0  0  0  0  0
  143.8554  134.8053  152.6995 H   0  0  0  0  0  0  0  0  0  0  0  0
  147.2823  135.4764  152.0104 H   0  0  0  0  0  0  0  0  0  0  0  0
  147.6468  137.1837  152.9054 H   0  0  0  0  0  0  0  0  0  0  0  0
  145.5786  139.2069  153.3138 H   0  0  0  0  0  0  0  0  0  0  0  0
  146.1665  138.4782  154.7877 H   0  0  0  0  0  0  0  0  0  0  0  0
  147.9116  139.8536  152.6880 H   0  0  0  0  0  0  0  0  0  0  0  0
  148.6576  138.5905  155.3742 H   0  0  0  0  0  0  0  0  0  0  0  0
  149.1445  138.0026  153.8001 H   0  0  0  0  0  0  0  0  0  0  0  0
  152.0921  139.7898  154.9656 H   0  0  0  0  0  0  0  0  0  0  0  0
  151.4794  138.2253  154.4381 H   0  0  0  0  0  0  0  0  0  0  0  0
  151.0278  138.8588  156.0244 H   0  0  0  0  0  0  0  0  0  0  0  0
  149.5308  140.8078  156.1376 H   0  0  0  0  0  0  0  0  0  0  0  0
  150.5803  141.7042  155.0618 H   0  0  0  0  0  0  0  0  0  0  0  0
  148.2247  142.5856  155.0452 H   0  0  0  0  0  0  0  0  0  0  0  0
  148.7163  142.0426  153.4504 H   0  0  0  0  0  0  0  0  0  0  0  0
  1  2  1  0  0  0  0
  1 20  1  0  0  0  0
  1 21  1  0  0  0  0
  1 22  1  0  0  0  0
  2 19  1  0  0  0  0
  2  3  2  0  0  0  0
  3  4  1  0  0  0  0
  3 23  1  0  0  0  0
  4  5  2  0  0  0  0
  4 24  1  0  0  0  0
  5  6  1  0  0  0  0
  5 25  1  0  0  0  0
  6  7  1  0  0  0  0
  6 19  2  0  0  0  0
  7  8  1  0  0  0  0
  7 26  1  0  0  0  0
  8  9  2  0  0  0  0
  8 10  1  0  0  0  0
 10 11  1  0  0  0  0
 10 27  1  0  0  0  0
 11 12  1  0  0  0  0
 11 28  1  0  0  0  0
 11 29  1  0  0  0  0
 12 18  1  0  0  0  0
 12 13  1  0  0  0  0
 12 30  1  0  0  0  0
 13 14  1  0  0  0  0
 13 31  1  0  0  0  0
 13 32  1  0  0  0  0
 14 15  1  0  0  0  0
 14 16  1  0  0  0  0
 15 33  1  0  0  0  0
 15 34  1  0  0  0  0
 15 35  1  0  0  0  0
 16 17  1  0  0  0  0
 16 36  1  0  0  0  0
 16 37  1  0  0  0  0
 17 18  1  0  0  0  0
 17 38  1  0  0  0  0
 17 39  1  0  0  0  0
M  END
> <s_m_source_file>
AV-unprocessed.smi

> <i_m_source_file_index>
2302

> <i_lp_mmshare_version>
43012

> <i_f3d_flags>
0

> <s_epik_input>
W0NIM11jMVtjSF1bY0hdW2NIXWMobjEpW05IXUMoPU8pW05IXVtDSDJdW0NAQEhdMltDSDJdTihbQ0gzXSlbQ0gyXVtDSDJdTzI=

> <s_epik_cmdline>
J2VwaWtfcHl0aG9uJywgJy1waCcsICc3LjAnLCAnLXRuJywgJzgnLCAnLW1hJywgJzIwMCcsICctbWV0YWxfYmluZGluZycsICctaW1hZScsICc8aW5maWxlLm1hZT4nLCAnLW9tYWUnLCAnPG91dGZpbGUubWFlPic=

> <r_epik_Ionization_Penalty>
0.729465

> <r_epik_Ionization_Penalty_Charging>
0

> <r_epik_Ionization_Penalty_Neutral>
0.729465

> <r_epik_State_Penalty>
0.754525

> <r_epik_Charging_Adjusted_Penalty>
0.754525

> <i_epik_Tot_Q>
0

> <i_epik_Tot_abs_Q>
0

> <r_epik_Metal_State_Penalty>
0.754521

> <b_epik_Metal_Only>
0

> <s_lp_Force_Field>
OPLS_2005

> <r_lp_Energy>
19.6921

> <b_lp_Chiralities_Consistent>
1

> <s_lp_Variant>
AV-unprocessed.smi:2302-5

> <Gold.Version>
5.8.1

> <Gold.Id.Protein>
6NUR|6NUR_protein|mol2

> <Gold.PLP.Fitness>
40.2939

> <Gold.PLP.PLP>
-34.6950

> <Gold.PLP.part.hbond>
-3.0000

> <Gold.PLP.part.metal>
0.0000

> <Gold.PLP.part.buried>
-3.2670

> <Gold.PLP.part.nonpolar>
-28.7657

> <Gold.PLP.part.repulsive>
0.7636

> <Gold.PLP.ligand.clash>
0.0080

> <Gold.PLP.ligand.torsion>
0.2128

> <Gold.PLP.Chemscore.Hbond>
2.0099

> <Gold.PLP.Chemscore.CHOScore>
0.0000

> <Gold.PLP.Chemscore.Metal>
0.0000

> <Gold.Chemscore.Hbonds>
donor molecule, donor type, donor heavy atom, donor atom, acceptor molecule, acceptor atom, score
      L1  H     7    26       P1  7948  1.00
      L1  H    10    27       P1  7948  0.99

> <Gold.PLP.Chemscore.Internal.Correction>
0.0027

> <Gold.Rescore>
     Score         DG    S(hbond)    S(metal)    S(lipo)     H(rot)  DE(clash)    DE(int)     intcor
     16.84     -18.55       1.96        0.00      82.98       1.25       0.07       1.63       ----

> <Gold.Chemscore.Fitness>
16.8415

> <Gold.Chemscore.DG>
-18.5475

> <Gold.Chemscore.ZeroCoef>
-5.4800

> <Gold.Chemscore.Hbond>
1.9642

> <Gold.Chemscore.Metal>
0.0000

> <Gold.Chemscore.Lipo>
82.9797

> <Gold.Chemscore.Internal_Hbond>
0.0000

> <Gold.Chemscore.DEClash>
0.0732

> <Gold.Chemscore.DEInternal>
1.6329

> <Gold.Chemscore.Rot>
1.2506

> <Gold.Chemscore.Internal.Correction>
   9.000000E+99

> <Gold.Chemscore.Hbonds>
donor molecule, donor type, donor heavy atom, donor atom, acceptor molecule, acceptor atom, score
      L1  H     7    26       P1  7948  0.98
      L1  H    10    27       P1  7948  0.94

> <Gold.Chemscore.Hbond.Weighted>
-6.5604

> <Gold.Chemscore.Metal.Weighted>
-0.0000

> <Gold.Chemscore.Lipo.Weighted>
-9.7086

> <Gold.Chemscore.Internal_Hbond.Weighted>
0.0000

> <Gold.Chemscore.DEClash.Weighted>
0.0732

> <Gold.Chemscore.DEInternal.Weighted>
1.6329

> <Gold.Chemscore.Rot.Weighted>
3.2015

> <Gold.Chemscore.Internal.Correction.Weighted>
   9.000000E+99

> <Gold.Protein.RotatedTorsions>
[ 6907 6896 6895 6894 ] final   70.19 input  -60.11 | X-H torsion
[ 7974 7965 7964 7962 ] final  -18.27 input  175.53 | X-H torsion
[ 8008 7997 7996 7995 ] final   20.64 input   59.86 | X-H torsion
[ 10167 10162 10161 10158 ] final  -20.23 input  -65.29 | X-H torsion
[ 10718 10713 10712 10709 ] final  113.73 input   66.30 | X-H torsion
[ 10763 10752 10751 10750 ] final   71.44 input  -60.55 | X-H torsion
[ 11005 11000 10999 10996 ] final -120.07 input  -57.11 | X-H torsion

> <Gold.Protein.ActiveResidues>
 VAL166  LYS551  ARG553  GLY616  TRP617  ASP618  TYR619  PRO620  LYS621  CYS622 
 ASP623  PHE694  ASN695  SER759  ASP760  ASP761  ALA762  ILE779  LEU786  VAL792 
 PHE793  MET794  SER795  GLU796  ALA797  LYS798  CYS799  TRP800  GLU811  SER814 

> <Gold.Protein.RotatedAtoms>
  152.4734  134.4905  159.9693 H   0  0  0  0  0  0  0  0  0  0  0  0  # atno 6907 bound_to 6896
  151.4926  133.3515  159.2864 H   0  0  0  0  0  0  0  0  0  0  0  0  # atno 6908 bound_to 6896
  150.8757  134.8167  159.7249 H   0  0  0  0  0  0  0  0  0  0  0  0  # atno 6909 bound_to 6896
  146.1900  140.3898  142.8461 H   0  0  0  0  0  0  0  0  0  0  0  0  # atno 7974 bound_to 7965
  154.9387  140.3050  155.5131 H   0  0  0  0  0  0  0  0  0  0  0  0  # atno 8008 bound_to 7997
  156.2998  140.2340  156.4391 H   0  0  0  0  0  0  0  0  0  0  0  0  # atno 8009 bound_to 7997
  154.8167  140.0425  157.1370 H   0  0  0  0  0  0  0  0  0  0  0  0  # atno 8010 bound_to 7997
  140.7274  143.4742  151.0205 H   0  0  0  0  0  0  0  0  0  0  0  0  # atno 10167 bound_to 10162
  157.6322  131.0988  150.7083 H   0  0  0  0  0  0  0  0  0  0  0  0  # atno 10718 bound_to 10713
  153.0399  135.5137  154.7593 H   0  0  0  0  0  0  0  0  0  0  0  0  # atno 10763 bound_to 10752
  154.6539  135.2929  154.9954 H   0  0  0  0  0  0  0  0  0  0  0  0  # atno 10764 bound_to 10752
  154.0828  135.6661  153.4893 H   0  0  0  0  0  0  0  0  0  0  0  0  # atno 10765 bound_to 10752
  141.0170  134.0180  157.3335 H   0  0  0  0  0  0  0  0  0  0  0  0  # atno 11005 bound_to 11000
  144.8469  140.6942  143.6193 LP  0  0  0  0  0  0  0  0  0  0  0  0  # atno 17320 bound_to 7965
  145.3821  139.1634  143.4275 LP  0  0  0  0  0  0  0  0  0  0  0  0  # atno 17321 bound_to 7965
  139.8436  143.7531  152.3180 LP  0  0  0  0  0  0  0  0  0  0  0  0  # atno 17342 bound_to 10162
  139.7688  144.7483  151.0254 LP  0  0  0  0  0  0  0  0  0  0  0  0  # atno 17343 bound_to 10162
  156.7420  130.4742  149.5475 LP  0  0  0  0  0  0  0  0  0  0  0  0  # atno 17370 bound_to 10713
  156.1533  130.6325  151.0624 LP  0  0  0  0  0  0  0  0  0  0  0  0  # atno 17371 bound_to 10713
  139.9123  135.0192  156.7742 LP  0  0  0  0  0  0  0  0  0  0  0  0  # atno 17394 bound_to 11000
  140.6637  133.9621  155.7819 LP  0  0  0  0  0  0  0  0  0  0  0  0  # atno 17395 bound_to 11000

$$$$
