AV-unprocessed.smi:2234|AV-procd|sdf|9043|dock1
  -GOLD-   2272012253D 1   1.00000     0.00000
 Structure written by MMmdl.
 21 22  0  0  0  0  0  0  0  0  2 V2000
  152.0652  137.4580  154.3265 O   0  0  0  0  0  0  0  0  0  0  0  0
  152.0530  138.5284  154.9740 C   0  0  0  0  0  0  0  0  0  0  0  0
  152.8491  139.4782  154.8048 O   0  5  0  0  0  0  0  0  0  0  0  0
  150.9516  138.6979  156.0394 C   0  0  1  0  0  0  0  0  0  0  0  0
  151.4407  139.3938  157.3022 C   0  0  0  0  0  0  0  0  0  0  0  0
  151.0439  140.8093  157.0358 C   0  0  0  0  0  0  0  0  0  0  0  0
  151.5851  141.9843  157.7622 C   0  0  0  0  0  0  0  0  0  0  0  0
  152.3628  141.8206  158.9301 C   0  0  0  0  0  0  0  0  0  0  0  0
  152.8518  142.9647  159.5902 C   0  0  0  0  0  0  0  0  0  0  0  0
  152.5422  144.2310  159.0568 C   0  0  0  0  0  0  0  0  0  0  0  0
  151.7987  144.4043  157.9438 N   0  0  0  0  0  0  0  0  0  0  0  0
  151.3337  143.3028  157.3146 C   0  0  0  0  0  0  0  0  0  0  0  0
  150.2025  140.8819  156.0923 N   0  0  0  0  0  0  0  0  0  0  0  0
  149.9266  139.5835  155.5905 O   0  0  0  0  0  0  0  0  0  0  0  0
  150.5309  137.7165  156.2599 H   0  0  0  0  0  0  0  0  0  0  0  0
  150.9177  139.0273  158.1859 H   0  0  0  0  0  0  0  0  0  0  0  0
  152.5143  139.3034  157.4708 H   0  0  0  0  0  0  0  0  0  0  0  0
  152.5865  140.8413  159.3270 H   0  0  0  0  0  0  0  0  0  0  0  0
  153.4497  142.8731  160.4845 H   0  0  0  0  0  0  0  0  0  0  0  0
  152.9000  145.1290  159.5386 H   0  0  0  0  0  0  0  0  0  0  0  0
  150.7444  143.4917  156.4291 H   0  0  0  0  0  0  0  0  0  0  0  0
  1  2  2  0  0  0  0
  2  3  1  0  0  0  0
  2  4  1  0  0  0  0
  4 14  1  0  0  0  0
  4  5  1  0  0  0  0
  4 15  1  0  0  0  0
  5  6  1  0  0  0  0
  5 16  1  0  0  0  0
  5 17  1  0  0  0  0
  6  7  1  0  0  0  0
  6 13  2  0  0  0  0
  7 12  1  0  0  0  0
  7  8  2  0  0  0  0
  8  9  1  0  0  0  0
  8 18  1  0  0  0  0
  9 10  2  0  0  0  0
  9 19  1  0  0  0  0
 10 11  1  0  0  0  0
 10 20  1  0  0  0  0
 11 12  2  0  0  0  0
 12 21  1  0  0  0  0
 13 14  1  0  0  0  0
M  CHG  1   3  -1
M  END
> <s_m_source_file>
AV-unprocessed.smi

> <i_m_source_file_index>
2234

> <i_lp_mmshare_version>
43012

> <i_f3d_flags>
0

> <s_epik_input>
Tz1DKFtPSF0pW0NAQEhdMVtDSDJdQyg9Tk8xKWMyW2NIXVtjSF1bY0hdbltjSF0y

> <s_epik_cmdline>
J2VwaWtfcHl0aG9uJywgJy1waCcsICc3LjAnLCAnLXRuJywgJzgnLCAnLW1hJywgJzIwMCcsICctbWV0YWxfYmluZGluZycsICctaW1hZScsICc8aW5maWxlLm1hZT4nLCAnLW9tYWUnLCAnPG91dGZpbGUubWFlPic=

> <r_lp_tautomer_probability>
1

> <r_epik_Ionization_Penalty>
0.000239258

> <r_epik_Ionization_Penalty_Charging>
3.09051e-05

> <r_epik_Ionization_Penalty_Neutral>
0.000208353

> <r_epik_State_Penalty>
-0

> <r_epik_Charging_Adjusted_Penalty>
3.09051e-05

> <i_epik_Tot_Q>
-1

> <i_epik_Tot_abs_Q>
1

> <r_epik_Metal_State_Penalty>
-0

> <b_epik_Metal_Only>
0

> <s_epik_Chemistry_Notes>
This compound has an imine and may undergo hydrolysis.

> <s_lp_Force_Field>
OPLS_2005

> <r_lp_Energy>
18.3525

> <b_lp_Chiralities_Consistent>
1

> <s_lp_Variant>
AV-unprocessed.smi:2234-2

> <Gold.Version>
5.8.1

> <Gold.Id.Protein>
6NUR|6NUR_protein|mol2

> <Gold.PLP.Fitness>
41.4991

> <Gold.PLP.PLP>
-27.9441

> <Gold.PLP.part.hbond>
-3.0000

> <Gold.PLP.part.metal>
0.0000

> <Gold.PLP.part.buried>
-4.9700

> <Gold.PLP.part.nonpolar>
-20.4038

> <Gold.PLP.part.repulsive>
0.3763

> <Gold.PLP.ligand.clash>
0.0000

> <Gold.PLP.ligand.torsion>
0.5222

> <Gold.PLP.Chemscore.Hbond>
3.8540

> <Gold.PLP.Chemscore.CHOScore>
1.0000

> <Gold.PLP.Chemscore.Metal>
0.0000

> <Gold.Chemscore.Hbonds>
donor molecule, donor type, donor heavy atom, donor atom, acceptor molecule, acceptor atom, score
      P1  H  7989  7998       L1     3  0.25
      P1  H  7997  8008       L1     3  1.76
      P1  H 10752 10764       L1     1  1.66
      L1  C    12    21       P1  8028  1.00

> <Gold.PLP.Chemscore.Internal.Correction>
0.0374

> <Gold.Rescore>
     Score         DG    S(hbond)    S(metal)    S(lipo)     H(rot)  DE(clash)    DE(int)     intcor
     16.66     -17.15       1.75        0.00      71.67       1.00       0.06       0.44       ----

> <Gold.Chemscore.Fitness>
16.6576

> <Gold.Chemscore.DG>
-17.1515

> <Gold.Chemscore.ZeroCoef>
-5.4800

> <Gold.Chemscore.Hbond>
1.7504

> <Gold.Chemscore.Metal>
0.0000

> <Gold.Chemscore.Lipo>
71.6680

> <Gold.Chemscore.Internal_Hbond>
0.0000

> <Gold.Chemscore.DEClash>
0.0553

> <Gold.Chemscore.DEInternal>
0.4386

> <Gold.Chemscore.Rot>
1.0000

> <Gold.Chemscore.Internal.Correction>
   9.000000E+99

> <Gold.Chemscore.Hbonds>
donor molecule, donor type, donor heavy atom, donor atom, acceptor molecule, acceptor atom, score
      P1  H  7989  7998       L1     3  0.10
      P1  H  7997  8008       L1     3  0.86
      P1  H 10752 10764       L1     1  0.78

> <Gold.Chemscore.Hbond.Weighted>
-5.8463

> <Gold.Chemscore.Metal.Weighted>
-0.0000

> <Gold.Chemscore.Lipo.Weighted>
-8.3852

> <Gold.Chemscore.Internal_Hbond.Weighted>
0.0000

> <Gold.Chemscore.DEClash.Weighted>
0.0553

> <Gold.Chemscore.DEInternal.Weighted>
0.4386

> <Gold.Chemscore.Rot.Weighted>
2.5600

> <Gold.Chemscore.Internal.Correction.Weighted>
   9.000000E+99

> <Gold.Protein.RotatedTorsions>
[ 6907 6896 6895 6894 ] final  164.82 input  -60.11 | X-H torsion
[ 7974 7965 7964 7962 ] final   68.66 input  175.53 | X-H torsion
[ 8008 7997 7996 7995 ] final   -5.27 input   59.86 | X-H torsion
[ 10167 10162 10161 10158 ] final  157.75 input  -65.29 | X-H torsion
[ 10718 10713 10712 10709 ] final  132.65 input   66.30 | X-H torsion
[ 10763 10752 10751 10750 ] final  -91.67 input  -60.55 | X-H torsion
[ 11005 11000 10999 10996 ] final -154.44 input  -57.11 | X-H torsion

> <Gold.Protein.ActiveResidues>
 VAL166  LYS551  ARG553  GLY616  TRP617  ASP618  TYR619  PRO620  LYS621  CYS622 
 ASP623  PHE694  ASN695  SER759  ASP760  ASP761  ALA762  ILE779  LEU786  VAL792 
 PHE793  MET794  SER795  GLU796  ALA797  LYS798  CYS799  TRP800  GLU811  SER814 

> <Gold.Protein.RotatedAtoms>
  151.9040  133.3545  159.3840 H   0  0  0  0  0  0  0  0  0  0  0  0  # atno 6907 bound_to 6896
  150.7073  134.4799  159.5475 H   0  0  0  0  0  0  0  0  0  0  0  0  # atno 6908 bound_to 6896
  152.2393  134.8245  160.0513 H   0  0  0  0  0  0  0  0  0  0  0  0  # atno 6909 bound_to 6896
  145.7999  139.2977  143.1161 H   0  0  0  0  0  0  0  0  0  0  0  0  # atno 7974 bound_to 7965
  154.6057  140.2463  155.7734 H   0  0  0  0  0  0  0  0  0  0  0  0  # atno 8008 bound_to 7997
  156.2339  140.2957  156.0212 H   0  0  0  0  0  0  0  0  0  0  0  0  # atno 8009 bound_to 7997
  155.2136  140.0398  157.2928 H   0  0  0  0  0  0  0  0  0  0  0  0  # atno 8010 bound_to 7997
  139.4824  144.4889  151.8337 H   0  0  0  0  0  0  0  0  0  0  0  0  # atno 10167 bound_to 10162
  157.4850  131.1088  150.9632 H   0  0  0  0  0  0  0  0  0  0  0  0  # atno 10718 bound_to 10713
  154.6784  135.5259  153.8230 H   0  0  0  0  0  0  0  0  0  0  0  0  # atno 10763 bound_to 10752
  153.0548  135.6546  154.0614 H   0  0  0  0  0  0  0  0  0  0  0  0  # atno 10764 bound_to 10752
  154.0505  135.2970  155.3321 H   0  0  0  0  0  0  0  0  0  0  0  0  # atno 10765 bound_to 10752
  140.6973  134.3976  157.5213 H   0  0  0  0  0  0  0  0  0  0  0  0  # atno 11005 bound_to 11000
  145.9889  140.8620  143.0076 LP  0  0  0  0  0  0  0  0  0  0  0  0  # atno 17320 bound_to 7965
  144.6770  140.2187  143.7369 LP  0  0  0  0  0  0  0  0  0  0  0  0  # atno 17321 bound_to 7965
  140.4371  144.2037  150.5890 LP  0  0  0  0  0  0  0  0  0  0  0  0  # atno 17342 bound_to 10162
  140.4721  143.2409  151.9075 LP  0  0  0  0  0  0  0  0  0  0  0  0  # atno 17343 bound_to 10162
  157.0352  130.5727  149.5348 LP  0  0  0  0  0  0  0  0  0  0  0  0  # atno 17370 bound_to 10713
  156.0142  130.5235  150.8083 LP  0  0  0  0  0  0  0  0  0  0  0  0  # atno 17371 bound_to 10713
  139.8906  134.8799  156.2359 LP  0  0  0  0  0  0  0  0  0  0  0  0  # atno 17394 bound_to 11000
  141.0193  133.7050  156.1241 LP  0  0  0  0  0  0  0  0  0  0  0  0  # atno 17395 bound_to 11000

$$$$
