#       Name:                AV-unprocessed.smi:2579
#       Creating user name   scv26
#       Creation time:       Fri Mar 27 14:14:32 2020


#       File generated by GOLD software.
#

@<TRIPOS>MOLECULE
AV-unprocessed.smi:2579
    43    45     1
SMALL
NO_CHARGES


@<TRIPOS>ATOM
      1 ****        -3.5576   2.2036  -1.8566 O.3            1 S1                 0.0000
      2 ****        -2.5009   1.5508  -2.5273 C.3            1 S1                 0.0000
      3 ****        -1.4240   1.1194  -1.5235 C.3            1 S1                 0.0000
      4 ****        -1.7786  -0.1224  -0.8636 N.pl3          1 S1                 0.0000
      5 ****        -1.0152  -1.1425  -0.3110 C.2            1 S1                 0.0000
      6 ****        -1.5289  -2.2237   0.2728 N.2            1 S1                 0.0000
      7 ****        -0.3953  -2.9095   0.6674 C.ar           1 S1                 0.0000
      8 ****        -0.2583  -4.1415   1.3466 C.ar           1 S1                 0.0000
      9 ****         1.0212  -4.6508   1.6508 C.ar           1 S1                 0.0000
     10 ****         2.1802  -3.9372   1.2823 C.ar           1 S1                 0.0000
     11 ****         2.0674  -2.7086   0.6036 C.ar           1 S1                 0.0000
     12 ****         0.7883  -2.2048   0.3002 C.ar           1 S1                 0.0000
     13 ****         0.3361  -1.0568  -0.3434 N.pl3          1 S1                 0.0000
     14 ****         1.1630  -0.0033  -0.9147 C.3            1 S1                 0.0000
     15 ****         1.4386   1.1242   0.0930 C.3            1 S1                 0.0000
     16 ****         2.2648   2.2780  -0.4754 C.3            1 S1                 0.0000
     17 ****         1.8001   3.4912   0.3189 C.3            1 S1                 0.0000
     18 ****         0.6118   2.9772   1.1346 C.3            1 S1                 0.0000
     19 ****         0.2394   1.7650   0.4987 O.3            1 S1                 0.0000
     20 ****        -4.1955   2.4777  -2.4976 H              1 S1                 0.0000
     21 ****        -2.8774   0.7044  -3.1034 H              1 S1                 0.0000
     22 ****        -2.0753   2.2590  -3.2386 H              1 S1                 0.0000
     23 ****        -0.4858   0.9557  -2.0543 H              1 S1                 0.0000
     24 ****        -1.2369   1.8979  -0.7833 H              1 S1                 0.0000
     25 ****        -2.7755  -0.2774  -0.8179 H              1 S1                 0.0000
     26 ****        -1.1395  -4.6956   1.6345 H              1 S1                 0.0000
     27 ****         1.1139  -5.5933   2.1702 H              1 S1                 0.0000
     28 ****         3.1561  -4.3341   1.5208 H              1 S1                 0.0000
     29 ****         2.9534  -2.1601   0.3204 H              1 S1                 0.0000
     30 ****         2.1036  -0.4434  -1.2472 H              1 S1                 0.0000
     31 ****         0.6768   0.3872  -1.8093 H              1 S1                 0.0000
     32 ****         1.9326   0.7210   0.9793 H              1 S1                 0.0000
     33 ****         3.3369   2.0998  -0.3865 H              1 S1                 0.0000
     34 ****         2.0378   2.4274  -1.5319 H              1 S1                 0.0000
     35 ****         2.5839   3.8819   0.9687 H              1 S1                 0.0000
     36 ****         1.4952   4.2912  -0.3569 H              1 S1                 0.0000
     37 ****         0.9136   2.7645   2.1612 H              1 S1                 0.0000
     38 ****        -0.2181   3.6838   1.1622 H              1 S1                 0.0000
     39 ****        -3.2052   3.0022  -1.3686 LP             1 S1                 0.0000
     40 ****        -3.9827   1.5755  -1.2048 LP             1 S1                 0.0000
     41 ****        -2.4891  -2.4751   0.3946 LP             1 S1                 0.0000
     42 ****        -0.2623   1.1820   1.1377 LP             1 S1                 0.0000
     43 ****        -0.3338   1.9571  -0.2979 LP             1 S1                 0.0000
@<TRIPOS>BOND
    1    1    2 1     
    2    1   20 1     
    3    2    3 1     
    4    2   21 1     
    5    2   22 1     
    6    3    4 1     
    7    3   23 1     
    8    3   24 1     
    9    4    5 1     
   10    4   25 1     
   11    5   13 1     
   12    5    6 2     
   13    6    7 1     
   14    7   12 ar    
   15    7    8 ar    
   16    8    9 ar    
   17    8   26 1     
   18    9   10 ar    
   19    9   27 1     
   20   10   11 ar    
   21   10   28 1     
   22   11   12 ar    
   23   11   29 1     
   24   12   13 1     
   25   13   14 1     
   26   14   15 1     
   27   14   30 1     
   28   14   31 1     
   29   15   19 1     
   30   15   16 1     
   31   15   32 1     
   32   16   17 1     
   33   16   33 1     
   34   16   34 1     
   35   17   18 1     
   36   17   35 1     
   37   17   36 1     
   38   18   19 1     
   39   18   37 1     
   40   18   38 1     
   41    1   39 1     
   42    1   40 1     
   43    6   41 1     
   44   19   42 1     
   45   19   43 1     
@<TRIPOS>SUBSTRUCTURE
      1 S1             1
@<TRIPOS>SET
LONE_PAIRS      STATIC     ATOMS    <user>   **** ""
5 39 40 41 42 43
DONOR_HYDROGENS      STATIC     ATOMS    <user>   **** ""
2 20 25
ATOM$BLUE        STATIC     ATOMS    COLORGROUP SYSTEM
5 39 40 41 42 43
ATOM$RED        STATIC     ATOMS    COLORGROUP SYSTEM
2 20 25
