AV-unprocessed.smi:2364|AV-procd|sdf|9418|dock7
  -GOLD-   2272013 53D 1   1.00000     0.00000
 Structure written by MMmdl.
 46 47  0  0  0  0  0  0  0  0  1 V2000
  144.1134  132.8301  149.8959 C   0  0  0  0  0  0  0  0  0  0  0  0
  144.2833  132.3808  151.3585 C   0  0  0  0  0  0  0  0  0  0  0  0
  145.2767  133.2137  152.2183 C   0  0  2  0  0  0  0  0  0  0  0  0
  145.1657  134.7044  151.8289 C   0  0  0  0  0  0  0  0  0  0  0  0
  146.7205  132.7143  151.9402 C   0  0  0  0  0  0  0  0  0  0  0  0
  147.0395  132.7303  150.5620 O   0  0  0  0  0  0  0  0  0  0  0  0
  144.9590  133.1064  153.6505 N   0  0  0  0  0  0  0  0  0  0  0  0
  145.6388  133.6043  154.6978 C   0  0  0  0  0  0  0  0  0  0  0  0
  146.6875  134.2419  154.5985 O   0  0  0  0  0  0  0  0  0  0  0  0
  145.0205  133.3094  155.8547 N   0  0  0  0  0  0  0  0  0  0  0  0
  145.4239  133.6380  157.1753 C   0  0  0  0  0  0  0  0  0  0  0  0
  144.4724  133.8673  158.1240 N   0  0  0  0  0  0  0  0  0  0  0  0
  145.2640  134.1170  159.1589 C   0  0  0  0  0  0  0  0  0  0  0  0
  146.5729  134.0868  158.8752 N   0  0  0  0  0  0  0  0  0  0  0  0
  147.7465  134.2149  159.7450 C   0  0  0  0  0  0  0  0  0  0  0  0
  147.7251  133.2030  160.9147 C   0  0  0  0  0  0  0  0  0  0  0  0
  146.6004  133.5085  161.9216 C   0  0  0  0  0  0  0  0  0  0  0  0
  146.7224  134.9398  162.4697 C   0  0  0  0  0  0  0  0  0  0  0  0
  146.7860  135.9767  161.3356 C   0  0  0  0  0  0  0  0  0  0  0  0
  147.9081  135.6378  160.3363 C   0  0  0  0  0  0  0  0  0  0  0  0
  146.6943  133.7242  157.5732 N   0  0  0  0  0  0  0  0  0  0  0  0
  143.3801  132.2023  149.3897 H   0  0  0  0  0  0  0  0  0  0  0  0
  145.0446  132.7524  149.3357 H   0  0  0  0  0  0  0  0  0  0  0  0
  143.7613  133.8590  149.8249 H   0  0  0  0  0  0  0  0  0  0  0  0
  143.2991  132.3836  151.8272 H   0  0  0  0  0  0  0  0  0  0  0  0
  144.5952  131.3356  151.3647 H   0  0  0  0  0  0  0  0  0  0  0  0
  145.3781  134.8546  150.7700 H   0  0  0  0  0  0  0  0  0  0  0  0
  145.8650  135.3230  152.3921 H   0  0  0  0  0  0  0  0  0  0  0  0
  144.1708  135.1035  152.0243 H   0  0  0  0  0  0  0  0  0  0  0  0
  147.4608  133.3107  152.4732 H   0  0  0  0  0  0  0  0  0  0  0  0
  146.8389  131.6918  152.3003 H   0  0  0  0  0  0  0  0  0  0  0  0
  147.7851  132.1673  150.4206 H   0  0  0  0  0  0  0  0  0  0  0  0
  144.1094  132.6047  153.8634 H   0  0  0  0  0  0  0  0  0  0  0  0
  144.1609  132.7856  155.7835 H   0  0  0  0  0  0  0  0  0  0  0  0
  144.8725  134.3255  160.1431 H   0  0  0  0  0  0  0  0  0  0  0  0
  148.6160  134.0018  159.1220 H   0  0  0  0  0  0  0  0  0  0  0  0
  147.6346  132.1817  160.5455 H   0  0  0  0  0  0  0  0  0  0  0  0
  148.6837  133.2396  161.4341 H   0  0  0  0  0  0  0  0  0  0  0  0
  145.6271  133.3798  161.4473 H   0  0  0  0  0  0  0  0  0  0  0  0
  146.6363  132.7944  162.7445 H   0  0  0  0  0  0  0  0  0  0  0  0
  145.8821  135.1595  163.1287 H   0  0  0  0  0  0  0  0  0  0  0  0
  147.6222  135.0170  163.0812 H   0  0  0  0  0  0  0  0  0  0  0  0
  145.8259  136.0166  160.8199 H   0  0  0  0  0  0  0  0  0  0  0  0
  146.9501  136.9705  161.7529 H   0  0  0  0  0  0  0  0  0  0  0  0
  148.8692  135.7039  160.8479 H   0  0  0  0  0  0  0  0  0  0  0  0
  147.9482  136.3897  159.5476 H   0  0  0  0  0  0  0  0  0  0  0  0
  1  2  1  0  0  0  0
  1 22  1  0  0  0  0
  1 23  1  0  0  0  0
  1 24  1  0  0  0  0
  2  3  1  0  0  0  0
  2 25  1  0  0  0  0
  2 26  1  0  0  0  0
  3  4  1  0  0  0  0
  3  5  1  0  0  0  0
  3  7  1  0  0  0  0
  4 27  1  0  0  0  0
  4 28  1  0  0  0  0
  4 29  1  0  0  0  0
  5  6  1  0  0  0  0
  5 30  1  0  0  0  0
  5 31  1  0  0  0  0
  6 32  1  0  0  0  0
  7  8  1  0  0  0  0
  7 33  1  0  0  0  0
  8  9  2  0  0  0  0
  8 10  1  0  0  0  0
 10 11  1  0  0  0  0
 10 34  1  0  0  0  0
 11 21  2  0  0  0  0
 11 12  1  0  0  0  0
 12 13  2  0  0  0  0
 13 14  1  0  0  0  0
 13 35  1  0  0  0  0
 14 15  1  0  0  0  0
 14 21  1  0  0  0  0
 15 20  1  0  0  0  0
 15 16  1  0  0  0  0
 15 36  1  0  0  0  0
 16 17  1  0  0  0  0
 16 37  1  0  0  0  0
 16 38  1  0  0  0  0
 17 18  1  0  0  0  0
 17 39  1  0  0  0  0
 17 40  1  0  0  0  0
 18 19  1  0  0  0  0
 18 41  1  0  0  0  0
 18 42  1  0  0  0  0
 19 20  1  0  0  0  0
 19 43  1  0  0  0  0
 19 44  1  0  0  0  0
 20 45  1  0  0  0  0
 20 46  1  0  0  0  0
M  END
> <s_m_source_file>
AV-unprocessed.smi

> <i_m_source_file_index>
2364

> <i_lp_mmshare_version>
43012

> <i_f3d_flags>
0

> <s_epik_input>
W0NIM11bQ0gyXVtDQEBdKFtDSDNdKShbQ0gyXVtPSF0pW05IXUMoPU8pW05IXWMxbltjSF1uKG4xKVtDSF0yW0NIMl1bQ0gyXVtDSDJdW0NIMl1bQ0gyXTI=

> <s_epik_cmdline>
J2VwaWtfcHl0aG9uJywgJy1waCcsICc3LjAnLCAnLXRuJywgJzgnLCAnLW1hJywgJzIwMCcsICctbWV0YWxfYmluZGluZycsICctaW1hZScsICc8aW5maWxlLm1hZT4nLCAnLW9tYWUnLCAnPG91dGZpbGUubWFlPic=

> <r_lp_tautomer_probability>
1

> <r_epik_Ionization_Penalty>
9.31261e-05

> <r_epik_Ionization_Penalty_Charging>
0

> <r_epik_Ionization_Penalty_Neutral>
9.31261e-05

> <r_epik_State_Penalty>
-0

> <r_epik_Charging_Adjusted_Penalty>
0

> <i_epik_Tot_Q>
0

> <i_epik_Tot_abs_Q>
0

> <r_epik_Metal_State_Penalty>
-0

> <b_epik_Metal_Only>
0

> <s_lp_Force_Field>
OPLS_2005

> <r_lp_Energy>
24.8913

> <b_lp_Chiralities_Consistent>
1

> <s_lp_Variant>
AV-unprocessed.smi:2364-2

> <Gold.Version>
5.8.1

> <Gold.Id.Protein>
6NUR|6NUR_protein|mol2

> <Gold.PLP.Fitness>
37.8893

> <Gold.PLP.PLP>
-30.2124

> <Gold.PLP.part.hbond>
-3.0000

> <Gold.PLP.part.metal>
0.0000

> <Gold.PLP.part.buried>
-5.2894

> <Gold.PLP.part.nonpolar>
-22.6811

> <Gold.PLP.part.repulsive>
0.0957

> <Gold.PLP.ligand.clash>
0.0000

> <Gold.PLP.ligand.torsion>
0.7002

> <Gold.PLP.Chemscore.Hbond>
2.9913

> <Gold.PLP.Chemscore.CHOScore>
0.0000

> <Gold.PLP.Chemscore.Metal>
0.0000

> <Gold.Chemscore.Hbonds>
donor molecule, donor type, donor heavy atom, donor atom, acceptor molecule, acceptor atom, score
      L1  H     6    32       P1 10747  1.00
      L1  H     7    33       P1 10957  1.00
      L1  H    10    34       P1 10957  0.98

> <Gold.PLP.Chemscore.Internal.Correction>
0.1035

> <Gold.Rescore>
     Score         DG    S(hbond)    S(metal)    S(lipo)     H(rot)  DE(clash)    DE(int)     intcor
     15.26     -16.95       2.77        0.00      70.04       2.34       0.00       1.70       ----

> <Gold.Chemscore.Fitness>
15.2553

> <Gold.Chemscore.DG>
-16.9536

> <Gold.Chemscore.ZeroCoef>
-5.4800

> <Gold.Chemscore.Hbond>
2.7717

> <Gold.Chemscore.Metal>
0.0000

> <Gold.Chemscore.Lipo>
70.0424

> <Gold.Chemscore.Internal_Hbond>
0.0000

> <Gold.Chemscore.DEClash>
0.0000

> <Gold.Chemscore.DEInternal>
1.6983

> <Gold.Chemscore.Rot>
2.3354

> <Gold.Chemscore.Internal.Correction>
   9.000000E+99

> <Gold.Chemscore.Hbonds>
donor molecule, donor type, donor heavy atom, donor atom, acceptor molecule, acceptor atom, score
      L1  H     6    32       P1 10747  1.00
      L1  H     7    33       P1 10957  0.65
      L1  H    10    34       P1 10957  0.90

> <Gold.Chemscore.Hbond.Weighted>
-9.2574

> <Gold.Chemscore.Metal.Weighted>
-0.0000

> <Gold.Chemscore.Lipo.Weighted>
-8.1950

> <Gold.Chemscore.Internal_Hbond.Weighted>
0.0000

> <Gold.Chemscore.DEClash.Weighted>
0.0000

> <Gold.Chemscore.DEInternal.Weighted>
1.6983

> <Gold.Chemscore.Rot.Weighted>
5.9787

> <Gold.Chemscore.Internal.Correction.Weighted>
   9.000000E+99

> <Gold.Protein.RotatedTorsions>
[ 6907 6896 6895 6894 ] final  151.55 input  -60.11 | X-H torsion
[ 7974 7965 7964 7962 ] final   72.24 input  175.53 | X-H torsion
[ 8008 7997 7996 7995 ] final -127.61 input   59.86 | X-H torsion
[ 10167 10162 10161 10158 ] final  -18.52 input  -65.29 | X-H torsion
[ 10718 10713 10712 10709 ] final -171.81 input   66.30 | X-H torsion
[ 10763 10752 10751 10750 ] final  -86.87 input  -60.55 | X-H torsion
[ 11005 11000 10999 10996 ] final  -90.46 input  -57.11 | X-H torsion

> <Gold.Protein.ActiveResidues>
 VAL166  LYS551  ARG553  GLY616  TRP617  ASP618  TYR619  PRO620  LYS621  CYS622 
 ASP623  PHE694  ASN695  SER759  ASP760  ASP761  ALA762  ILE779  LEU786  VAL792 
 PHE793  MET794  SER795  GLU796  ALA797  LYS798  CYS799  TRP800  GLU811  SER814 

> <Gold.Protein.RotatedAtoms>
  152.0991  133.4240  159.4578 H   0  0  0  0  0  0  0  0  0  0  0  0  # atno 6907 bound_to 6896
  150.6864  134.2781  159.4625 H   0  0  0  0  0  0  0  0  0  0  0  0  # atno 6908 bound_to 6896
  152.0640  134.9576  160.0625 H   0  0  0  0  0  0  0  0  0  0  0  0  # atno 6909 bound_to 6896
  145.7558  139.2779  143.1405 H   0  0  0  0  0  0  0  0  0  0  0  0  # atno 7974 bound_to 7965
  155.2491  140.0431  157.2984 H   0  0  0  0  0  0  0  0  0  0  0  0  # atno 8008 bound_to 7997
  154.5780  140.2392  155.8064 H   0  0  0  0  0  0  0  0  0  0  0  0  # atno 8009 bound_to 7997
  156.2172  140.2981  155.9876 H   0  0  0  0  0  0  0  0  0  0  0  0  # atno 8010 bound_to 7997
  140.7259  143.4908  150.9994 H   0  0  0  0  0  0  0  0  0  0  0  0  # atno 10167 bound_to 10162
  156.7463  130.9361  151.3112 H   0  0  0  0  0  0  0  0  0  0  0  0  # atno 10718 bound_to 10713
  154.6273  135.5433  153.7641 H   0  0  0  0  0  0  0  0  0  0  0  0  # atno 10763 bound_to 10752
  153.0267  135.6427  154.1353 H   0  0  0  0  0  0  0  0  0  0  0  0  # atno 10764 bound_to 10752
  154.1284  135.2916  155.3171 H   0  0  0  0  0  0  0  0  0  0  0  0  # atno 10765 bound_to 10752
  141.1565  133.7694  156.9741 H   0  0  0  0  0  0  0  0  0  0  0  0  # atno 11005 bound_to 11000
  146.0312  140.8256  142.9875 LP  0  0  0  0  0  0  0  0  0  0  0  0  # atno 17320 bound_to 7965
  144.6840  140.2772  143.7297 LP  0  0  0  0  0  0  0  0  0  0  0  0  # atno 17321 bound_to 7965
  139.8613  143.7311  152.3173 LP  0  0  0  0  0  0  0  0  0  0  0  0  # atno 17342 bound_to 10162
  139.7528  144.7529  151.0481 LP  0  0  0  0  0  0  0  0  0  0  0  0  # atno 17343 bound_to 10162
  157.6797  130.9128  150.0236 LP  0  0  0  0  0  0  0  0  0  0  0  0  # atno 17370 bound_to 10713
  156.1431  130.3642  149.9552 LP  0  0  0  0  0  0  0  0  0  0  0  0  # atno 17371 bound_to 10713
  140.1109  134.9477  157.2064 LP  0  0  0  0  0  0  0  0  0  0  0  0  # atno 17394 bound_to 11000
  140.3195  134.2933  155.7249 LP  0  0  0  0  0  0  0  0  0  0  0  0  # atno 17395 bound_to 11000

$$$$
