#       Name:                AV-unprocessed.smi:285
#       Creating user name   scv26
#       Creation time:       Thu Mar 26 21:53:05 2020


#       File generated by GOLD software.
#

@<TRIPOS>MOLECULE
AV-unprocessed.smi:285
    40    42     1
SMALL
NO_CHARGES


@<TRIPOS>ATOM
      1 ****        -5.1218   0.2465  -0.5834 N.pl3          1 S1                 0.0000
      2 ****        -3.8275   0.5028  -0.3495 C.ar           1 S1                 0.0000
      3 ****        -3.4805   1.7482   0.0515 N.ar           1 S1                 0.0000
      4 ****        -2.1958   2.0292   0.2931 C.ar           1 S1                 0.0000
      5 ****        -1.1323   1.2270   0.1962 N.ar           1 S1                 0.0000
      6 ****        -1.4831  -0.0291  -0.2104 C.ar           1 S1                 0.0000
      7 ****        -2.8074  -0.4697  -0.5015 C.ar           1 S1                 0.0000
      8 ****        -2.7965  -1.8061  -0.8816 N.2            1 S1                 0.0000
      9 ****        -1.5315  -2.1141  -0.8114 C.2            1 S1                 0.0000
     10 ****        -0.9445  -3.8785  -1.2233 Br             1 S1                 0.0000
     11 ****        -0.6632  -1.1201  -0.4205 N.pl3          1 S1                 0.0000
     12 ****         0.8203  -1.1746  -0.2542 C.3            1 S1                 0.0000
     13 ****         1.2135  -1.1328   1.2133 C.3            1 S1                 0.0000
     14 ****         2.6245  -0.5803   1.1189 C.3            1 S1                 0.0000
     15 ****         3.5597  -1.6402   1.0593 O.3            1 S1                 0.0000
     16 ****         2.6359   0.2229  -0.2024 C.3            1 S1                 0.0000
     17 ****         2.7504   1.7402   0.0194 C.3            1 S1                 0.0000
     18 ****         3.1505   2.3772  -1.1751 O.3            1 S1                 0.0000
     19 ****         1.3758  -0.0380  -0.8214 O.3            1 S1                 0.0000
     20 ****        -5.4063  -0.6752  -0.8826 H              1 S1                 0.0000
     21 ****        -5.8100   0.9750  -0.4608 H              1 S1                 0.0000
     22 ****        -1.9900   3.0411   0.6093 H              1 S1                 0.0000
     23 ****         1.1623  -2.0688  -0.7752 H              1 S1                 0.0000
     24 ****         0.5708  -0.4311   1.7463 H              1 S1                 0.0000
     25 ****         1.1343  -2.1157   1.6797 H              1 S1                 0.0000
     26 ****         2.8615   0.0343   1.9879 H              1 S1                 0.0000
     27 ****         3.3712  -2.1676   0.2980 H              1 S1                 0.0000
     28 ****         3.4411  -0.1276  -0.8513 H              1 S1                 0.0000
     29 ****         1.8109   2.1609   0.3800 H              1 S1                 0.0000
     30 ****         3.5118   1.9574   0.7691 H              1 S1                 0.0000
     31 ****         3.1953   3.3080  -1.0186 H              1 S1                 0.0000
     32 ****        -4.1802   2.4533   0.1663 LP             1 S1                 0.0000
     33 ****        -0.1946   1.5109   0.3967 LP             1 S1                 0.0000
     34 ****        -3.5670  -2.3871  -1.1437 LP             1 S1                 0.0000
     35 ****         3.4859  -2.2010   1.8840 LP             1 S1                 0.0000
     36 ****         4.4856  -1.2687   0.9906 LP             1 S1                 0.0000
     37 ****         2.4850   2.1883  -1.8972 LP             1 S1                 0.0000
     38 ****         4.0493   2.0383  -1.4532 LP             1 S1                 0.0000
     39 ****         0.7648   0.7406  -0.6788 LP             1 S1                 0.0000
     40 ****         1.5077  -0.1830  -1.8020 LP             1 S1                 0.0000
@<TRIPOS>BOND
    1    1    2 1     
    2    1   20 1     
    3    1   21 1     
    4    2    7 ar    
    5    2    3 ar    
    6    3    4 ar    
    7    4    5 ar    
    8    4   22 1     
    9    5    6 ar    
   10    6   11 1     
   11    6    7 ar    
   12    7    8 1     
   13    8    9 2     
   14    9   10 1     
   15    9   11 1     
   16   11   12 1     
   17   12   19 1     
   18   12   13 1     
   19   12   23 1     
   20   13   14 1     
   21   13   24 1     
   22   13   25 1     
   23   14   15 1     
   24   14   16 1     
   25   14   26 1     
   26   15   27 1     
   27   16   17 1     
   28   16   19 1     
   29   16   28 1     
   30   17   18 1     
   31   17   29 1     
   32   17   30 1     
   33   18   31 1     
   34    3   32 1     
   35    5   33 1     
   36    8   34 1     
   37   15   35 1     
   38   15   36 1     
   39   18   37 1     
   40   18   38 1     
   41   19   39 1     
   42   19   40 1     
@<TRIPOS>SUBSTRUCTURE
      1 S1             1
@<TRIPOS>SET
LONE_PAIRS      STATIC     ATOMS    <user>   **** ""
9 32 33 34 35 36 37 38 39 40
DONOR_HYDROGENS      STATIC     ATOMS    <user>   **** ""
4 20 21 27 31
ATOM$BLUE        STATIC     ATOMS    COLORGROUP SYSTEM
9 32 33 34 35 36 37 38 39 40
ATOM$RED        STATIC     ATOMS    COLORGROUP SYSTEM
4 20 21 27 31
