AV-unprocessed.smi:1814|AV-procd|sdf|7349|dock3
  -GOLD-   22720 9 13D 1   1.00000     0.00000
 Structure written by MMmdl.
 31 32  0  0  0  0  0  0  0  0  1 V2000
  150.6034  140.6323  156.2663 O   0  0  0  0  0  0  0  0  0  0  0  0
  150.0492  141.7168  156.0844 C   0  0  0  0  0  0  0  0  0  0  0  0
  149.0110  141.9298  155.2568 N   0  0  0  0  0  0  0  0  0  0  0  0
  148.3349  140.9887  154.4366 C   0  0  0  0  0  0  0  0  0  0  0  0
  148.7077  139.7122  154.2863 N   0  0  0  0  0  0  0  0  0  0  0  0
  147.8597  139.0163  153.4213 C   0  0  0  0  0  0  0  0  0  0  0  0
  146.8385  139.7837  152.9185 C   0  0  0  0  0  0  0  0  0  0  0  0
  146.9038  141.4215  153.5127 S   0  0  0  0  0  0  0  0  0  0  0  0
  150.4157  142.8481  156.7045 N   0  0  0  0  0  0  0  0  0  0  0  0
  151.5029  142.9643  157.6721 C   0  0  2  0  0  0  0  0  0  0  0  0
  151.3720  141.8889  158.7696 C   0  0  0  0  0  0  0  0  0  0  0  0
  152.4727  142.0320  159.8357 C   0  0  0  0  0  0  0  0  0  0  0  0
  152.5212  143.4474  160.4419 C   0  0  2  0  0  0  0  0  0  0  0  0
  151.3859  143.6671  161.2559 O   0  0  0  0  0  0  0  0  0  0  0  0
  152.6035  144.5297  159.3489 C   0  0  0  0  0  0  0  0  0  0  0  0
  151.4976  144.3742  158.2901 C   0  0  0  0  0  0  0  0  0  0  0  0
  148.6577  142.8741  155.2137 H   0  0  0  0  0  0  0  0  0  0  0  0
  148.0568  137.9738  153.2195 H   0  0  0  0  0  0  0  0  0  0  0  0
  146.0555  139.4855  152.2374 H   0  0  0  0  0  0  0  0  0  0  0  0
  149.9043  143.6927  156.4947 H   0  0  0  0  0  0  0  0  0  0  0  0
  152.4542  142.8265  157.1544 H   0  0  0  0  0  0  0  0  0  0  0  0
  150.3930  141.9634  159.2451 H   0  0  0  0  0  0  0  0  0  0  0  0
  151.4231  140.8925  158.3288 H   0  0  0  0  0  0  0  0  0  0  0  0
  152.3332  141.2878  160.6208 H   0  0  0  0  0  0  0  0  0  0  0  0
  153.4371  141.8102  159.3767 H   0  0  0  0  0  0  0  0  0  0  0  0
  153.3952  143.5279  161.0889 H   0  0  0  0  0  0  0  0  0  0  0  0
  150.7124  143.0536  161.0047 H   0  0  0  0  0  0  0  0  0  0  0  0
  152.5579  145.5234  159.7960 H   0  0  0  0  0  0  0  0  0  0  0  0
  153.5743  144.4633  158.8561 H   0  0  0  0  0  0  0  0  0  0  0  0
  151.6320  145.1244  157.5099 H   0  0  0  0  0  0  0  0  0  0  0  0
  150.5271  144.5759  158.7459 H   0  0  0  0  0  0  0  0  0  0  0  0
  1  2  2  0  0  0  0
  2  3  1  0  0  0  0
  2  9  1  0  0  0  0
  3  4  1  0  0  0  0
  3 17  1  0  0  0  0
  4  8  1  0  0  0  0
  4  5  2  0  0  0  0
  5  6  1  0  0  0  0
  6  7  2  0  0  0  0
  6 18  1  0  0  0  0
  7  8  1  0  0  0  0
  7 19  1  0  0  0  0
  9 10  1  0  0  0  0
  9 20  1  0  0  0  0
 10 16  1  0  0  0  0
 10 11  1  0  0  0  0
 10 21  1  0  0  0  0
 11 12  1  0  0  0  0
 11 22  1  0  0  0  0
 11 23  1  0  0  0  0
 12 13  1  0  0  0  0
 12 24  1  0  0  0  0
 12 25  1  0  0  0  0
 13 14  1  0  0  0  0
 13 15  1  0  0  0  0
 13 26  1  0  0  0  0
 14 27  1  0  0  0  0
 15 16  1  0  0  0  0
 15 28  1  0  0  0  0
 15 29  1  0  0  0  0
 16 30  1  0  0  0  0
 16 31  1  0  0  0  0
M  END
> <s_m_source_file>
AV-unprocessed.smi

> <i_m_source_file_index>
1814

> <i_lp_mmshare_version>
43012

> <i_f3d_flags>
0

> <s_epik_input>
czFbY0hdW2NIXW5jMVtOSF1DKD1PKVtOSF1bQ0BASF0yW0NIMl1bQ0gyXVtDQEBIXShbT0hdKVtDSDJdW0NIMl0y

> <s_epik_cmdline>
J2VwaWtfcHl0aG9uJywgJy1waCcsICc3LjAnLCAnLXRuJywgJzgnLCAnLW1hJywgJzIwMCcsICctbWV0YWxfYmluZGluZycsICctaW1hZScsICc8aW5maWxlLm1hZT4nLCAnLW9tYWUnLCAnPG91dGZpbGUubWFlPic=

> <r_lp_tautomer_probability>
0.999

> <r_epik_Ionization_Penalty>
0.000428518

> <r_epik_Ionization_Penalty_Charging>
0

> <r_epik_Ionization_Penalty_Neutral>
0.000428518

> <r_epik_State_Penalty>
0.000177984

> <r_epik_Charging_Adjusted_Penalty>
0.000177984

> <i_epik_Tot_Q>
0

> <i_epik_Tot_abs_Q>
0

> <r_epik_Metal_State_Penalty>
-0

> <b_epik_Metal_Only>
0

> <s_lp_Force_Field>
OPLS_2005

> <r_lp_Energy>
9.0844

> <b_lp_Chiralities_Consistent>
1

> <s_lp_Variant>
AV-unprocessed.smi:1814-2

> <Gold.Version>
5.8.1

> <Gold.Id.Protein>
6NUR|6NUR_protein|mol2

> <Gold.PLP.Fitness>
46.4082

> <Gold.PLP.PLP>
-35.0812

> <Gold.PLP.part.hbond>
-2.7490

> <Gold.PLP.part.metal>
0.0000

> <Gold.PLP.part.buried>
-5.0803

> <Gold.PLP.part.nonpolar>
-27.5058

> <Gold.PLP.part.repulsive>
0.3575

> <Gold.PLP.ligand.clash>
0.0000

> <Gold.PLP.ligand.torsion>
0.0745

> <Gold.PLP.Chemscore.Hbond>
2.0000

> <Gold.PLP.Chemscore.CHOScore>
1.8244

> <Gold.PLP.Chemscore.Metal>
0.0000

> <Gold.Chemscore.Hbonds>
donor molecule, donor type, donor heavy atom, donor atom, acceptor molecule, acceptor atom, score
      L1  H     3    17       P1  8028  0.99
      L1  H     9    20       P1  8028  1.00
      L1  C     6    18       P1  7948  1.00
      L1  C     7    19       P1 10175  0.73

> <Gold.PLP.Chemscore.Internal.Correction>
0.0028

> <Gold.Rescore>
     Score         DG    S(hbond)    S(metal)    S(lipo)     H(rot)  DE(clash)    DE(int)     intcor
     15.96     -18.48       1.95        0.00      88.43       1.50       0.15       2.37       ----

> <Gold.Chemscore.Fitness>
15.9631

> <Gold.Chemscore.DG>
-18.4845

> <Gold.Chemscore.ZeroCoef>
-5.4800

> <Gold.Chemscore.Hbond>
1.9462

> <Gold.Chemscore.Metal>
0.0000

> <Gold.Chemscore.Lipo>
88.4258

> <Gold.Chemscore.Internal_Hbond>
0.0000

> <Gold.Chemscore.DEClash>
0.1502

> <Gold.Chemscore.DEInternal>
2.3712

> <Gold.Chemscore.Rot>
1.5006

> <Gold.Chemscore.Internal.Correction>
   9.000000E+99

> <Gold.Chemscore.Hbonds>
donor molecule, donor type, donor heavy atom, donor atom, acceptor molecule, acceptor atom, score
      L1  H     3    17       P1  8028  0.94
      L1  H     9    20       P1  8028  0.99

> <Gold.Chemscore.Hbond.Weighted>
-6.5002

> <Gold.Chemscore.Metal.Weighted>
-0.0000

> <Gold.Chemscore.Lipo.Weighted>
-10.3458

> <Gold.Chemscore.Internal_Hbond.Weighted>
0.0000

> <Gold.Chemscore.DEClash.Weighted>
0.1502

> <Gold.Chemscore.DEInternal.Weighted>
2.3712

> <Gold.Chemscore.Rot.Weighted>
3.8415

> <Gold.Chemscore.Internal.Correction.Weighted>
   9.000000E+99

> <Gold.Protein.RotatedTorsions>
[ 6907 6896 6895 6894 ] final -127.04 input  -60.11 | X-H torsion
[ 7974 7965 7964 7962 ] final -125.59 input  175.53 | X-H torsion
[ 8008 7997 7996 7995 ] final -131.07 input   59.86 | X-H torsion
[ 10167 10162 10161 10158 ] final -141.29 input  -65.29 | X-H torsion
[ 10718 10713 10712 10709 ] final  178.07 input   66.30 | X-H torsion
[ 10763 10752 10751 10750 ] final   32.91 input  -60.55 | X-H torsion
[ 11005 11000 10999 10996 ] final  -52.95 input  -57.11 | X-H torsion

> <Gold.Protein.ActiveResidues>
 VAL166  LYS551  ARG553  GLY616  TRP617  ASP618  TYR619  PRO620  LYS621  CYS622 
 ASP623  PHE694  ASN695  SER759  ASP760  ASP761  ALA762  ILE779  LEU786  VAL792 
 PHE793  MET794  SER795  GLU796  ALA797  LYS798  CYS799  TRP800  GLU811  SER814 

> <Gold.Protein.RotatedAtoms>
  150.9032  133.7092  159.2873 H   0  0  0  0  0  0  0  0  0  0  0  0  # atno 6907 bound_to 6896
  151.4603  135.1036  159.9732 H   0  0  0  0  0  0  0  0  0  0  0  0  # atno 6908 bound_to 6896
  152.4888  133.8396  159.7201 H   0  0  0  0  0  0  0  0  0  0  0  0  # atno 6909 bound_to 6896
  144.9960  140.7777  143.4525 H   0  0  0  0  0  0  0  0  0  0  0  0  # atno 7974 bound_to 7965
  155.3062  140.0455  157.3032 H   0  0  0  0  0  0  0  0  0  0  0  0  # atno 8008 bound_to 7997
  154.5458  140.2302  155.8532 H   0  0  0  0  0  0  0  0  0  0  0  0  # atno 8009 bound_to 7997
  156.1923  140.3047  155.9364 H   0  0  0  0  0  0  0  0  0  0  0  0  # atno 8010 bound_to 7997
  139.8199  143.7588  152.2666 H   0  0  0  0  0  0  0  0  0  0  0  0  # atno 10167 bound_to 10162
  156.8960  130.9863  151.3042 H   0  0  0  0  0  0  0  0  0  0  0  0  # atno 10718 bound_to 10713
  153.0238  135.6401  154.1429 H   0  0  0  0  0  0  0  0  0  0  0  0  # atno 10763 bound_to 10752
  154.1160  135.2850  155.3221 H   0  0  0  0  0  0  0  0  0  0  0  0  # atno 10764 bound_to 10752
  154.6297  135.5496  153.7729 H   0  0  0  0  0  0  0  0  0  0  0  0  # atno 10765 bound_to 10752
  141.0951  133.6626  156.4100 H   0  0  0  0  0  0  0  0  0  0  0  0  # atno 11005 bound_to 11000
  145.2219  139.2155  143.5089 LP  0  0  0  0  0  0  0  0  0  0  0  0  # atno 17320 bound_to 7965
  146.3442  140.2078  142.8590 LP  0  0  0  0  0  0  0  0  0  0  0  0  # atno 17321 bound_to 7965
  139.7763  144.7460  151.0152 LP  0  0  0  0  0  0  0  0  0  0  0  0  # atno 17342 bound_to 10162
  140.7814  143.4590  151.0304 LP  0  0  0  0  0  0  0  0  0  0  0  0  # atno 17343 bound_to 10162
  157.6055  130.8544  149.8868 LP  0  0  0  0  0  0  0  0  0  0  0  0  # atno 17370 bound_to 10713
  156.0605  130.3700  150.0993 LP  0  0  0  0  0  0  0  0  0  0  0  0  # atno 17371 bound_to 10713
  140.5159  134.6350  157.5301 LP  0  0  0  0  0  0  0  0  0  0  0  0  # atno 17394 bound_to 11000
  139.9786  134.7175  155.9903 LP  0  0  0  0  0  0  0  0  0  0  0  0  # atno 17395 bound_to 11000

$$$$
