AV-unprocessed.smi:767|AV-procd|sdf|3668|dock10
  -GOLD-   22720 1 83D 1   1.00000     0.00000
 Structure written by MMmdl.
 48 50  0  0  0  0  0  0  0  0  2 V2000
  151.1006  143.6920  158.9903 C   0  0  0  0  0  0  0  0  0  0  0  0
  151.0654  142.4801  158.0838 C   0  0  0  0  0  0  0  0  0  0  0  0
  151.7092  141.2699  158.4198 C   0  0  0  0  0  0  0  0  0  0  0  0
  151.6415  140.1826  157.5243 C   0  0  0  0  0  0  0  0  0  0  0  0
  150.9321  140.3265  156.3112 C   0  0  0  0  0  0  0  0  0  0  0  0
  150.8774  139.1909  155.3036 C   0  0  0  0  0  0  0  0  0  0  0  0
  149.4586  138.9042  154.7720 C   0  0  0  0  0  0  0  0  0  0  0  0
  149.3079  137.5340  154.2863 N   0  0  0  0  0  0  0  0  0  0  0  0
  149.0760  136.4593  155.0540 C   0  0  0  0  0  0  0  0  0  0  0  0
  148.9720  136.4951  156.2805 O   0  0  0  0  0  0  0  0  0  0  0  0
  148.9498  135.3430  154.3253 N   0  0  0  0  0  0  0  0  0  0  0  0
  148.6388  134.0329  154.8865 C   0  0  1  0  0  0  0  0  0  0  0  0
  149.2712  132.8823  154.0886 C   0  0  2  0  0  0  0  0  0  0  0  0
  148.3906  131.9078  153.3554 C   0  0  0  0  0  0  0  0  0  0  0  0
  148.2383  130.7622  154.3602 C   0  0  0  0  0  0  0  0  0  0  0  0
  148.5362  131.3481  155.6257 O   0  0  0  0  0  0  0  0  0  0  0  0
  149.6155  132.2596  155.4334 C   0  0  2  0  0  0  0  0  0  0  0  0
  149.4890  133.6365  156.1198 C   0  0  0  0  0  0  0  0  0  0  0  0
  150.8255  134.3645  156.3236 C   0  0  0  0  0  0  0  0  0  0  0  0
  148.7689  133.6511  157.4690 C   0  0  0  0  0  0  0  0  0  0  0  0
  150.2995  141.5575  156.0340 C   0  0  0  0  0  0  0  0  0  0  0  0
  150.3898  142.5759  156.9169 N   0  3  0  0  0  0  0  0  0  0  0  0
  151.9058  143.6094  159.7210 H   0  0  0  0  0  0  0  0  0  0  0  0
  150.1574  143.7886  159.5288 H   0  0  0  0  0  0  0  0  0  0  0  0
  151.2619  144.6021  158.4113 H   0  0  0  0  0  0  0  0  0  0  0  0
  152.2535  141.1755  159.3480 H   0  0  0  0  0  0  0  0  0  0  0  0
  152.1413  139.2550  157.7618 H   0  0  0  0  0  0  0  0  0  0  0  0
  151.5417  139.4194  154.4691 H   0  0  0  0  0  0  0  0  0  0  0  0
  151.2799  138.2919  155.7719 H   0  0  0  0  0  0  0  0  0  0  0  0
  148.7334  139.0586  155.5712 H   0  0  0  0  0  0  0  0  0  0  0  0
  149.1978  139.6170  153.9876 H   0  0  0  0  0  0  0  0  0  0  0  0
  149.3782  137.3967  153.2885 H   0  0  0  0  0  0  0  0  0  0  0  0
  149.0536  135.4030  153.3229 H   0  0  0  0  0  0  0  0  0  0  0  0
  147.5711  133.8690  155.0516 H   0  0  0  0  0  0  0  0  0  0  0  0
  150.1677  133.1870  153.5455 H   0  0  0  0  0  0  0  0  0  0  0  0
  147.4229  132.3543  153.1244 H   0  0  0  0  0  0  0  0  0  0  0  0
  148.8330  131.5636  152.4202 H   0  0  0  0  0  0  0  0  0  0  0  0
  147.2413  130.3212  154.3469 H   0  0  0  0  0  0  0  0  0  0  0  0
  148.9640  129.9738  154.1554 H   0  0  0  0  0  0  0  0  0  0  0  0
  150.5993  131.7893  155.4692 H   0  0  0  0  0  0  0  0  0  0  0  0
  151.4399  133.8646  157.0729 H   0  0  0  0  0  0  0  0  0  0  0  0
  150.6788  135.3927  156.6560 H   0  0  0  0  0  0  0  0  0  0  0  0
  151.4115  134.4009  155.4049 H   0  0  0  0  0  0  0  0  0  0  0  0
  149.3377  133.1185  158.2318 H   0  0  0  0  0  0  0  0  0  0  0  0
  147.7890  133.1770  157.4074 H   0  0  0  0  0  0  0  0  0  0  0  0
  148.6088  134.6691  157.8253 H   0  0  0  0  0  0  0  0  0  0  0  0
  149.7441  141.7634  155.1308 H   0  0  0  0  0  0  0  0  0  0  0  0
  149.9332  143.4593  156.6891 H   0  0  0  0  0  0  0  0  0  0  0  0
  1  2  1  0  0  0  0
  1 23  1  0  0  0  0
  1 24  1  0  0  0  0
  1 25  1  0  0  0  0
  2 22  1  0  0  0  0
  2  3  2  0  0  0  0
  3  4  1  0  0  0  0
  3 26  1  0  0  0  0
  4  5  2  0  0  0  0
  4 27  1  0  0  0  0
  5  6  1  0  0  0  0
  5 21  1  0  0  0  0
  6  7  1  0  0  0  0
  6 28  1  0  0  0  0
  6 29  1  0  0  0  0
  7  8  1  0  0  0  0
  7 30  1  0  0  0  0
  7 31  1  0  0  0  0
  8  9  1  0  0  0  0
  8 32  1  0  0  0  0
  9 10  2  0  0  0  0
  9 11  1  0  0  0  0
 11 12  1  0  0  0  0
 11 33  1  0  0  0  0
 12 18  1  0  0  0  0
 12 13  1  0  0  0  0
 12 34  1  0  0  0  0
 13 17  1  0  0  0  0
 13 14  1  0  0  0  0
 13 35  1  0  0  0  0
 14 15  1  0  0  0  0
 14 36  1  0  0  0  0
 14 37  1  0  0  0  0
 15 16  1  0  0  0  0
 15 38  1  0  0  0  0
 15 39  1  0  0  0  0
 16 17  1  0  0  0  0
 17 18  1  0  0  0  0
 17 40  1  0  0  0  0
 18 19  1  0  0  0  0
 18 20  1  0  0  0  0
 19 41  1  0  0  0  0
 19 42  1  0  0  0  0
 19 43  1  0  0  0  0
 20 44  1  0  0  0  0
 20 45  1  0  0  0  0
 20 46  1  0  0  0  0
 21 22  2  0  0  0  0
 21 47  1  0  0  0  0
 22 48  1  0  0  0  0
M  CHG  1  22   1
M  END
> <s_m_source_file>
AV-unprocessed.smi

> <i_m_source_file_index>
767

> <i_lp_mmshare_version>
43012

> <i_f3d_flags>
0

> <s_epik_input>
W0NIM11jMVtjSF1bY0hdYyhbY0hdbjEpW0NIMl1bQ0gyXVtOSF1DKD1PKVtOSF1bQ0BIXTJDKFtDSDNdKShbQ0gzXSlbQ0BIXShbQ0BASF0yMylPW0NIMl1bQ0gyXTM=

> <s_epik_cmdline>
J2VwaWtfcHl0aG9uJywgJy1waCcsICc3LjAnLCAnLXRuJywgJzgnLCAnLW1hJywgJzIwMCcsICctbWV0YWxfYmluZGluZycsICctaW1hZScsICc8aW5maWxlLm1hZT4nLCAnLW9tYWUnLCAnPG91dGZpbGUubWFlPic=

> <r_epik_Ionization_Penalty>
1.41853

> <r_epik_Ionization_Penalty_Charging>
1.41848

> <r_epik_Ionization_Penalty_Neutral>
5.17407e-05

> <r_epik_State_Penalty>
1.50205

> <r_epik_Charging_Adjusted_Penalty>
2.92053

> <i_epik_Tot_Q>
1

> <i_epik_Tot_abs_Q>
1

> <r_epik_Metal_State_Penalty>
1.5544

> <b_epik_Metal_Only>
0

> <s_lp_Force_Field>
OPLS_2005

> <r_lp_Energy>
39.2779

> <b_lp_Chiralities_Consistent>
1

> <s_lp_Variant>
AV-unprocessed.smi:767-12

> <Gold.Version>
5.8.1

> <Gold.Id.Protein>
6NUR|6NUR_protein|mol2

> <Gold.PLP.Fitness>
47.7184

> <Gold.PLP.PLP>
-37.0928

> <Gold.PLP.part.hbond>
-3.0000

> <Gold.PLP.part.metal>
0.0000

> <Gold.PLP.part.buried>
-3.4148

> <Gold.PLP.part.nonpolar>
-31.0210

> <Gold.PLP.part.repulsive>
0.1104

> <Gold.PLP.ligand.clash>
0.0000

> <Gold.PLP.ligand.torsion>
0.6690

> <Gold.PLP.Chemscore.Hbond>
3.9280

> <Gold.PLP.Chemscore.CHOScore>
0.0000

> <Gold.PLP.Chemscore.Metal>
0.0000

> <Gold.Chemscore.Hbonds>
donor molecule, donor type, donor heavy atom, donor atom, acceptor molecule, acceptor atom, score
      L1  H     8    32       P1  7948  0.91
      L1  H    11    33       P1  7948  1.00
      L1  H    22    48       P1  8028  2.00

> <Gold.PLP.Chemscore.Internal.Correction>
0.1796

> <Gold.Rescore>
     Score         DG    S(hbond)    S(metal)    S(lipo)     H(rot)  DE(clash)    DE(int)     intcor
     21.14     -22.34       2.87        0.00      95.62       1.52       0.06       1.14       ----

> <Gold.Chemscore.Fitness>
21.1444

> <Gold.Chemscore.DG>
-22.3449

> <Gold.Chemscore.ZeroCoef>
-5.4800

> <Gold.Chemscore.Hbond>
2.8675

> <Gold.Chemscore.Metal>
0.0000

> <Gold.Chemscore.Lipo>
95.6161

> <Gold.Chemscore.Internal_Hbond>
0.0000

> <Gold.Chemscore.DEClash>
0.0609

> <Gold.Chemscore.DEInternal>
1.1396

> <Gold.Chemscore.Rot>
1.5233

> <Gold.Chemscore.Internal.Correction>
   9.000000E+99

> <Gold.Chemscore.Hbonds>
donor molecule, donor type, donor heavy atom, donor atom, acceptor molecule, acceptor atom, score
      L1  H     8    32       P1  7948  0.86
      L1  H    11    33       P1  7948  0.49
      L1  H    22    48       P1  8028  0.99

> <Gold.Chemscore.Hbond.Weighted>
-9.5773

> <Gold.Chemscore.Metal.Weighted>
-0.0000

> <Gold.Chemscore.Lipo.Weighted>
-11.1871

> <Gold.Chemscore.Internal_Hbond.Weighted>
0.0000

> <Gold.Chemscore.DEClash.Weighted>
0.0609

> <Gold.Chemscore.DEInternal.Weighted>
1.1396

> <Gold.Chemscore.Rot.Weighted>
3.8995

> <Gold.Chemscore.Internal.Correction.Weighted>
   9.000000E+99

> <Gold.Protein.RotatedTorsions>
[ 6907 6896 6895 6894 ] final   66.42 input  -60.11 | X-H torsion
[ 7974 7965 7964 7962 ] final   42.45 input  175.53 | X-H torsion
[ 8008 7997 7996 7995 ] final   27.05 input   59.86 | X-H torsion
[ 10167 10162 10161 10158 ] final   22.05 input  -65.29 | X-H torsion
[ 10718 10713 10712 10709 ] final   64.90 input   66.30 | X-H torsion
[ 10763 10752 10751 10750 ] final    2.51 input  -60.55 | X-H torsion
[ 11005 11000 10999 10996 ] final -147.30 input  -57.11 | X-H torsion

> <Gold.Protein.ActiveResidues>
 VAL166  LYS551  ARG553  GLY616  TRP617  ASP618  TYR619  PRO620  LYS621  CYS622 
 ASP623  PHE694  ASN695  SER759  ASP760  ASP761  ALA762  ILE779  LEU786  VAL792 
 PHE793  MET794  SER795  GLU796  ALA797  LYS798  CYS799  TRP800  GLU811  SER814 

> <Gold.Protein.RotatedAtoms>
  152.4479  134.5455  159.9851 H   0  0  0  0  0  0  0  0  0  0  0  0  # atno 6907 bound_to 6896
  151.5535  133.3408  159.2965 H   0  0  0  0  0  0  0  0  0  0  0  0  # atno 6908 bound_to 6896
  150.8400  134.7721  159.6988 H   0  0  0  0  0  0  0  0  0  0  0  0  # atno 6909 bound_to 6896
  146.0739  139.5299  142.9580 H   0  0  0  0  0  0  0  0  0  0  0  0  # atno 7974 bound_to 7965
  155.0368  140.3165  155.4738 H   0  0  0  0  0  0  0  0  0  0  0  0  # atno 8008 bound_to 7997
  156.2863  140.2170  156.5434 H   0  0  0  0  0  0  0  0  0  0  0  0  # atno 8009 bound_to 7997
  154.7323  140.0480  157.0725 H   0  0  0  0  0  0  0  0  0  0  0  0  # atno 8010 bound_to 7997
  140.5379  143.9729  150.6502 H   0  0  0  0  0  0  0  0  0  0  0  0  # atno 10167 bound_to 10162
  157.6070  130.9185  149.9906 H   0  0  0  0  0  0  0  0  0  0  0  0  # atno 10718 bound_to 10713
  153.2947  135.6951  153.7259 H   0  0  0  0  0  0  0  0  0  0  0  0  # atno 10763 bound_to 10752
  153.6197  135.3429  155.3007 H   0  0  0  0  0  0  0  0  0  0  0  0  # atno 10764 bound_to 10752
  154.8534  135.4383  154.2040 H   0  0  0  0  0  0  0  0  0  0  0  0  # atno 10765 bound_to 10752
  140.7731  134.3166  157.5069 H   0  0  0  0  0  0  0  0  0  0  0  0  # atno 11005 bound_to 11000
  145.6341  141.0298  143.1847 LP  0  0  0  0  0  0  0  0  0  0  0  0  # atno 17320 bound_to 7965
  144.7249  139.7908  143.7368 LP  0  0  0  0  0  0  0  0  0  0  0  0  # atno 17321 bound_to 7965
  140.3122  143.3191  152.0868 LP  0  0  0  0  0  0  0  0  0  0  0  0  # atno 17342 bound_to 10162
  139.4977  144.6629  151.6423 LP  0  0  0  0  0  0  0  0  0  0  0  0  # atno 17343 bound_to 10162
  156.1160  130.3648  149.9968 LP  0  0  0  0  0  0  0  0  0  0  0  0  # atno 17370 bound_to 10713
  156.8057  130.9307  151.3645 LP  0  0  0  0  0  0  0  0  0  0  0  0  # atno 17371 bound_to 10713
  139.8753  134.9273  156.3421 LP  0  0  0  0  0  0  0  0  0  0  0  0  # atno 17394 bound_to 11000
  140.9555  133.7423  156.0329 LP  0  0  0  0  0  0  0  0  0  0  0  0  # atno 17395 bound_to 11000

$$$$
