AV-unprocessed.smi:777|AV-procd|sdf|3701|dock7
  -GOLD-   22720 1123D 1   1.00000     0.00000
 Structure written by MMmdl.
 37 38  0  0  0  0  0  0  0  0  2 V2000
  153.9004  141.6626  160.7869 C   0  0  0  0  0  0  0  0  0  0  0  0
  152.5614  141.4384  160.0527 C   0  0  2  0  0  0  0  0  0  0  0  0
  152.6233  140.2776  159.0480 C   0  0  0  0  0  0  0  0  0  0  0  0
  153.7128  139.8362  158.6834 O   0  0  0  0  0  0  0  0  0  0  0  0
  151.4267  139.8282  158.6232 N   0  0  0  0  0  0  0  0  0  0  0  0
  151.0425  138.8121  157.6310 C   0  0  0  0  0  0  0  0  0  0  0  0
  151.5876  137.4801  158.2086 C   0  0  0  0  0  0  0  0  0  0  0  0
  151.1184  137.0746  159.2954 O   0  0  0  0  0  0  0  0  0  0  0  0
  152.5071  136.9058  157.5829 O   0  5  0  0  0  0  0  0  0  0  0  0
  149.5091  138.7181  157.3453 C   0  0  0  0  0  0  0  0  0  0  0  0
  149.1645  137.7519  156.1949 C   0  0  0  0  0  0  0  0  0  0  0  0
  149.9019  138.1416  154.9056 C   0  0  0  0  0  0  0  0  0  0  0  0
  151.4176  138.2265  155.1366 C   0  0  0  0  0  0  0  0  0  0  0  0
  151.7545  139.1824  156.2984 C   0  0  0  0  0  0  0  0  0  0  0  0
  152.0668  142.6412  159.3902 N   0  0  0  0  0  0  0  0  0  0  0  0
  152.7322  143.8370  159.2055 C   0  0  0  0  0  0  0  0  0  0  0  0
  151.8707  144.6978  158.5885 C   0  0  0  0  0  0  0  0  0  0  0  0
  150.6772  143.9373  158.4492 C   0  0  0  0  0  0  0  0  0  0  0  0
  150.7931  142.7130  158.9364 N   0  0  0  0  0  0  0  0  0  0  0  0
  154.2075  140.7637  161.3223 H   0  0  0  0  0  0  0  0  0  0  0  0
  153.8113  142.4641  161.5206 H   0  0  0  0  0  0  0  0  0  0  0  0
  154.7071  141.9290  160.1027 H   0  0  0  0  0  0  0  0  0  0  0  0
  151.8256  141.1734  160.8139 H   0  0  0  0  0  0  0  0  0  0  0  0
  150.6331  140.3089  159.0209 H   0  0  0  0  0  0  0  0  0  0  0  0
  148.9552  138.4304  158.2402 H   0  0  0  0  0  0  0  0  0  0  0  0
  149.1317  139.7008  157.0606 H   0  0  0  0  0  0  0  0  0  0  0  0
  149.4186  136.7278  156.4705 H   0  0  0  0  0  0  0  0  0  0  0  0
  148.0884  137.7598  156.0192 H   0  0  0  0  0  0  0  0  0  0  0  0
  149.6840  137.4197  154.1183 H   0  0  0  0  0  0  0  0  0  0  0  0
  149.5330  139.1055  154.5528 H   0  0  0  0  0  0  0  0  0  0  0  0
  151.8139  137.2314  155.3409 H   0  0  0  0  0  0  0  0  0  0  0  0
  151.9095  138.5673  154.2253 H   0  0  0  0  0  0  0  0  0  0  0  0
  151.4610  140.1927  156.0091 H   0  0  0  0  0  0  0  0  0  0  0  0
  152.8367  139.2262  156.4301 H   0  0  0  0  0  0  0  0  0  0  0  0
  153.7532  143.9753  159.5298 H   0  0  0  0  0  0  0  0  0  0  0  0
  152.0613  145.7185  158.2924 H   0  0  0  0  0  0  0  0  0  0  0  0
  149.7343  144.2382  158.0169 H   0  0  0  0  0  0  0  0  0  0  0  0
  1  2  1  0  0  0  0
  1 20  1  0  0  0  0
  1 21  1  0  0  0  0
  1 22  1  0  0  0  0
  2  3  1  0  0  0  0
  2 15  1  0  0  0  0
  2 23  1  0  0  0  0
  3  4  2  0  0  0  0
  3  5  1  0  0  0  0
  5  6  1  0  0  0  0
  5 24  1  0  0  0  0
  6 14  1  0  0  0  0
  6  7  1  0  0  0  0
  6 10  1  0  0  0  0
  7  8  2  0  0  0  0
  7  9  1  0  0  0  0
 10 11  1  0  0  0  0
 10 25  1  0  0  0  0
 10 26  1  0  0  0  0
 11 12  1  0  0  0  0
 11 27  1  0  0  0  0
 11 28  1  0  0  0  0
 12 13  1  0  0  0  0
 12 29  1  0  0  0  0
 12 30  1  0  0  0  0
 13 14  1  0  0  0  0
 13 31  1  0  0  0  0
 13 32  1  0  0  0  0
 14 33  1  0  0  0  0
 14 34  1  0  0  0  0
 15 19  1  0  0  0  0
 15 16  1  0  0  0  0
 16 17  2  0  0  0  0
 16 35  1  0  0  0  0
 17 18  1  0  0  0  0
 17 36  1  0  0  0  0
 18 19  2  0  0  0  0
 18 37  1  0  0  0  0
M  CHG  1   9  -1
M  END
> <s_m_source_file>
AV-unprocessed.smi

> <i_m_source_file_index>
777

> <i_lp_mmshare_version>
43012

> <i_f3d_flags>
0

> <s_epik_input>
bjFbY0hdW2NIXVtjSF1uMVtDQEhdKFtDSDNdKUMoPU8pW05IXUMyKEMoPU8pW09IXSlbQ0gyXVtDSDJdW0NIMl1bQ0gyXVtDSDJdMg==

> <s_epik_cmdline>
J2VwaWtfcHl0aG9uJywgJy1waCcsICc3LjAnLCAnLXRuJywgJzgnLCAnLW1hJywgJzIwMCcsICctbWV0YWxfYmluZGluZycsICctaW1hZScsICc8aW5maWxlLm1hZT4nLCAnLW9tYWUnLCAnPG91dGZpbGUubWFlPic=

> <r_lp_tautomer_probability>
1

> <r_epik_Ionization_Penalty>
0.000371068

> <r_epik_Ionization_Penalty_Charging>
0.000323848

> <r_epik_Ionization_Penalty_Neutral>
4.72198e-05

> <r_epik_State_Penalty>
0.000195685

> <r_epik_Charging_Adjusted_Penalty>
0.000519533

> <i_epik_Tot_Q>
-1

> <i_epik_Tot_abs_Q>
1

> <r_epik_Metal_State_Penalty>
-0

> <b_epik_Metal_Only>
0

> <s_lp_Force_Field>
OPLS_2005

> <r_lp_Energy>
8.44032

> <b_lp_Chiralities_Consistent>
1

> <s_lp_Variant>
AV-unprocessed.smi:777-1

> <Gold.Version>
5.8.1

> <Gold.Id.Protein>
6NUR|6NUR_protein|mol2

> <Gold.PLP.Fitness>
46.8314

> <Gold.PLP.PLP>
-35.5807

> <Gold.PLP.part.hbond>
-2.0000

> <Gold.PLP.part.metal>
0.0000

> <Gold.PLP.part.buried>
-5.3486

> <Gold.PLP.part.nonpolar>
-29.5094

> <Gold.PLP.part.repulsive>
0.1670

> <Gold.PLP.ligand.clash>
0.0000

> <Gold.PLP.ligand.torsion>
0.4982

> <Gold.PLP.Chemscore.Hbond>
3.0000

> <Gold.PLP.Chemscore.CHOScore>
1.0285

> <Gold.PLP.Chemscore.Metal>
0.0000

> <Gold.Chemscore.Hbonds>
donor molecule, donor type, donor heavy atom, donor atom, acceptor molecule, acceptor atom, score
      P1  H  6896  6908       L1     8  1.98
      P1  H  7997  8009       L1     4  0.86
      L1  C    18    37       P1  8028  0.73
      L1  C    18    37       P1  8029  0.43

> <Gold.PLP.Chemscore.Internal.Correction>
0.1614

> <Gold.Rescore>
     Score         DG    S(hbond)    S(metal)    S(lipo)     H(rot)  DE(clash)    DE(int)     intcor
     14.94     -17.58       1.93        0.00      91.58       1.98       0.00       2.64       ----

> <Gold.Chemscore.Fitness>
14.9359

> <Gold.Chemscore.DG>
-17.5796

> <Gold.Chemscore.ZeroCoef>
-5.4800

> <Gold.Chemscore.Hbond>
1.9301

> <Gold.Chemscore.Metal>
0.0000

> <Gold.Chemscore.Lipo>
91.5816

> <Gold.Chemscore.Internal_Hbond>
0.0000

> <Gold.Chemscore.DEClash>
0.0000

> <Gold.Chemscore.DEInternal>
2.6437

> <Gold.Chemscore.Rot>
1.9774

> <Gold.Chemscore.Internal.Correction>
   9.000000E+99

> <Gold.Chemscore.Hbonds>
donor molecule, donor type, donor heavy atom, donor atom, acceptor molecule, acceptor atom, score
      P1  H  6896  6908       L1     8  0.91
      P1  H  7997  8009       L1     4  0.84

> <Gold.Chemscore.Hbond.Weighted>
-6.4466

> <Gold.Chemscore.Metal.Weighted>
-0.0000

> <Gold.Chemscore.Lipo.Weighted>
-10.7150

> <Gold.Chemscore.Internal_Hbond.Weighted>
0.0000

> <Gold.Chemscore.DEClash.Weighted>
0.0000

> <Gold.Chemscore.DEInternal.Weighted>
2.6437

> <Gold.Chemscore.Rot.Weighted>
5.0620

> <Gold.Chemscore.Internal.Correction.Weighted>
   9.000000E+99

> <Gold.Protein.RotatedTorsions>
[ 6907 6896 6895 6894 ] final -135.84 input  -60.11 | X-H torsion
[ 7974 7965 7964 7962 ] final  -47.89 input  175.53 | X-H torsion
[ 8008 7997 7996 7995 ] final  120.91 input   59.86 | X-H torsion
[ 10167 10162 10161 10158 ] final   52.42 input  -65.29 | X-H torsion
[ 10718 10713 10712 10709 ] final   -9.83 input   66.30 | X-H torsion
[ 10763 10752 10751 10750 ] final -155.19 input  -60.55 | X-H torsion
[ 11005 11000 10999 10996 ] final  -32.51 input  -57.11 | X-H torsion

> <Gold.Protein.ActiveResidues>
 VAL166  LYS551  ARG553  GLY616  TRP617  ASP618  TYR619  PRO620  LYS621  CYS622 
 ASP623  PHE694  ASN695  SER759  ASP760  ASP761  ALA762  ILE779  LEU786  VAL792 
 PHE793  MET794  SER795  GLU796  ALA797  LYS798  CYS799  TRP800  GLU811  SER814 

> <Gold.Protein.RotatedAtoms>
  151.0028  133.6039  159.2692 H   0  0  0  0  0  0  0  0  0  0  0  0  # atno 6907 bound_to 6896
  151.3219  135.0820  159.9318 H   0  0  0  0  0  0  0  0  0  0  0  0  # atno 6908 bound_to 6896
  152.5278  133.9674  159.7800 H   0  0  0  0  0  0  0  0  0  0  0  0  # atno 6909 bound_to 6896
  145.9569  140.7518  142.9477 H   0  0  0  0  0  0  0  0  0  0  0  0  # atno 7974 bound_to 7965
  156.2663  140.2820  156.1224 H   0  0  0  0  0  0  0  0  0  0  0  0  # atno 8008 bound_to 7997
  155.1141  140.0391  157.2749 H   0  0  0  0  0  0  0  0  0  0  0  0  # atno 8009 bound_to 7997
  154.6720  140.2590  155.7003 H   0  0  0  0  0  0  0  0  0  0  0  0  # atno 8010 bound_to 7997
  140.2516  144.3473  150.6346 H   0  0  0  0  0  0  0  0  0  0  0  0  # atno 10167 bound_to 10162
  156.6823  130.5040  149.5967 H   0  0  0  0  0  0  0  0  0  0  0  0  # atno 10718 bound_to 10713
  154.7805  135.3173  154.8000 H   0  0  0  0  0  0  0  0  0  0  0  0  # atno 10763 bound_to 10752
  153.8713  135.6844  153.4778 H   0  0  0  0  0  0  0  0  0  0  0  0  # atno 10764 bound_to 10752
  153.1440  135.4727  154.9475 H   0  0  0  0  0  0  0  0  0  0  0  0  # atno 10765 bound_to 10752
  140.9558  133.7194  156.1291 H   0  0  0  0  0  0  0  0  0  0  0  0  # atno 11005 bound_to 11000
  144.6807  140.2526  143.7329 LP  0  0  0  0  0  0  0  0  0  0  0  0  # atno 17320 bound_to 7965
  145.8094  139.1997  143.2002 LP  0  0  0  0  0  0  0  0  0  0  0  0  # atno 17321 bound_to 7965
  140.6036  143.2167  151.7024 LP  0  0  0  0  0  0  0  0  0  0  0  0  # atno 17342 bound_to 10162
  139.5044  144.3753  152.0429 LP  0  0  0  0  0  0  0  0  0  0  0  0  # atno 17343 bound_to 10162
  156.1858  130.6528  151.1005 LP  0  0  0  0  0  0  0  0  0  0  0  0  # atno 17370 bound_to 10713
  157.7039  131.0764  150.6731 LP  0  0  0  0  0  0  0  0  0  0  0  0  # atno 17371 bound_to 10713
  140.7538  134.4015  157.5537 LP  0  0  0  0  0  0  0  0  0  0  0  0  # atno 17394 bound_to 11000
  139.8862  134.8917  156.2600 LP  0  0  0  0  0  0  0  0  0  0  0  0  # atno 17395 bound_to 11000

$$$$
