AV-unprocessed.smi:650|AV-procd|sdf|3183|dock1
  -GOLD-   22720 0113D 1   1.00000     0.00000
 Structure written by MMmdl.
 43 44  0  0  0  0  0  0  0  0  2 V2000
  153.6543  141.9141  160.6492 C   0  0  0  0  0  0  0  0  0  0  0  0
  152.8126  142.4751  159.5547 C   0  0  0  0  0  0  0  0  0  0  0  0
  151.9471  141.9057  158.6638 C   0  0  0  0  0  0  0  0  0  0  0  0
  151.4900  143.0170  157.9069 C   0  0  0  0  0  0  0  0  0  0  0  0
  150.5535  142.8448  156.8560 N   0  0  0  0  0  0  0  0  0  0  0  0
  150.2906  141.7199  156.1698 C   0  0  0  0  0  0  0  0  0  0  0  0
  150.8269  140.6281  156.3618 O   0  0  0  0  0  0  0  0  0  0  0  0
  149.3537  141.9286  155.2338 N   0  0  0  0  0  0  0  0  0  0  0  0
  148.8447  140.9124  154.3188 C   0  0  0  0  0  0  0  0  0  0  0  0
  147.4774  141.2952  153.7022 C   0  0  2  0  0  0  0  0  0  0  0  0
  146.3184  141.1144  154.6993 C   0  0  0  0  0  0  0  0  0  0  0  0
  145.9661  139.6326  154.9232 C   0  0  0  0  0  0  0  0  0  0  0  0
  145.6594  138.9487  153.6406 N   0  3  2  0  0  0  0  0  0  0  0  0
  145.1970  137.5523  153.8463 C   0  0  0  0  0  0  0  0  0  0  0  0
  144.4877  136.9757  152.6095 C   0  0  0  0  0  0  0  0  0  0  0  0
  143.3601  137.7632  152.2906 O   0  0  0  0  0  0  0  0  0  0  0  0
  146.7840  139.0606  152.6741 C   0  0  0  0  0  0  0  0  0  0  0  0
  147.1403  140.5328  152.4045 C   0  0  0  0  0  0  0  0  0  0  0  0
  152.0276  144.1615  158.2996 N   0  0  0  0  0  0  0  0  0  0  0  0
  152.8771  143.8203  159.3587 O   0  0  0  0  0  0  0  0  0  0  0  0
  153.9382  140.8844  160.4315 H   0  0  0  0  0  0  0  0  0  0  0  0
  153.1124  141.9233  161.5948 H   0  0  0  0  0  0  0  0  0  0  0  0
  154.5677  142.4955  160.7765 H   0  0  0  0  0  0  0  0  0  0  0  0
  151.6853  140.8621  158.5719 H   0  0  0  0  0  0  0  0  0  0  0  0
  150.0323  143.6688  156.5963 H   0  0  0  0  0  0  0  0  0  0  0  0
  148.9706  142.8584  155.1430 H   0  0  0  0  0  0  0  0  0  0  0  0
  149.5939  140.7644  153.5419 H   0  0  0  0  0  0  0  0  0  0  0  0
  148.7660  139.9596  154.8453 H   0  0  0  0  0  0  0  0  0  0  0  0
  147.5243  142.3569  153.4560 H   0  0  0  0  0  0  0  0  0  0  0  0
  146.5607  141.5898  155.6505 H   0  0  0  0  0  0  0  0  0  0  0  0
  145.4373  141.6337  154.3199 H   0  0  0  0  0  0  0  0  0  0  0  0
  146.7816  139.1148  155.4297 H   0  0  0  0  0  0  0  0  0  0  0  0
  145.1005  139.5731  155.5842 H   0  0  0  0  0  0  0  0  0  0  0  0
  146.0459  136.9257  154.1238 H   0  0  0  0  0  0  0  0  0  0  0  0
  144.5020  137.5116  154.6865 H   0  0  0  0  0  0  0  0  0  0  0  0
  145.1482  136.9102  151.7457 H   0  0  0  0  0  0  0  0  0  0  0  0
  144.1466  135.9621  152.8211 H   0  0  0  0  0  0  0  0  0  0  0  0
  143.6515  138.6386  152.0827 H   0  0  0  0  0  0  0  0  0  0  0  0
  147.6524  138.5215  153.0551 H   0  0  0  0  0  0  0  0  0  0  0  0
  146.5173  138.5895  151.7289 H   0  0  0  0  0  0  0  0  0  0  0  0
  146.2911  141.0163  151.9196 H   0  0  0  0  0  0  0  0  0  0  0  0
  147.9619  140.5957  151.6908 H   0  0  0  0  0  0  0  0  0  0  0  0
  144.8757  139.4450  153.2398 H   0  0  0  0  0  0  0  0  0  0  0  0
  1  2  1  0  0  0  0
  1 21  1  0  0  0  0
  1 22  1  0  0  0  0
  1 23  1  0  0  0  0
  2 20  1  0  0  0  0
  2  3  2  0  0  0  0
  3  4  1  0  0  0  0
  3 24  1  0  0  0  0
  4  5  1  0  0  0  0
  4 19  2  0  0  0  0
  5  6  1  0  0  0  0
  5 25  1  0  0  0  0
  6  7  2  0  0  0  0
  6  8  1  0  0  0  0
  8  9  1  0  0  0  0
  8 26  1  0  0  0  0
  9 10  1  0  0  0  0
  9 27  1  0  0  0  0
  9 28  1  0  0  0  0
 10 18  1  0  0  0  0
 10 11  1  0  0  0  0
 10 29  1  0  0  0  0
 11 12  1  0  0  0  0
 11 30  1  0  0  0  0
 11 31  1  0  0  0  0
 12 13  1  0  0  0  0
 12 32  1  0  0  0  0
 12 33  1  0  0  0  0
 13 14  1  0  0  0  0
 13 17  1  0  0  0  0
 13 43  1  0  0  0  0
 14 15  1  0  0  0  0
 14 34  1  0  0  0  0
 14 35  1  0  0  0  0
 15 16  1  0  0  0  0
 15 36  1  0  0  0  0
 15 37  1  0  0  0  0
 16 38  1  0  0  0  0
 17 18  1  0  0  0  0
 17 39  1  0  0  0  0
 17 40  1  0  0  0  0
 18 41  1  0  0  0  0
 18 42  1  0  0  0  0
 19 20  1  0  0  0  0
M  CHG  1  13   1
M  END
> <s_m_source_file>
AV-unprocessed.smi

> <i_m_source_file_index>
650

> <i_lp_mmshare_version>
43012

> <i_f3d_flags>
0

> <s_epik_input>
W0NIM11jMVtjSF1jKG5vMSlbTkhdQyg9TylbTkhdW0NIMl1bQ0hdMltDSDJdW0NIMl1OKFtDSDJdW0NIMl0yKVtDSDJdW0NIMl1bT0hd

> <s_epik_cmdline>
J2VwaWtfcHl0aG9uJywgJy1waCcsICc3LjAnLCAnLXRuJywgJzgnLCAnLW1hJywgJzIwMCcsICctbWV0YWxfYmluZGluZycsICctaW1hZScsICc8aW5maWxlLm1hZT4nLCAnLW9tYWUnLCAnPG91dGZpbGUubWFlPic=

> <r_epik_Ionization_Penalty>
0.00179437

> <r_epik_Ionization_Penalty_Charging>
0.00177223

> <r_epik_Ionization_Penalty_Neutral>
2.21418e-05

> <r_epik_State_Penalty>
0.00120075

> <r_epik_Charging_Adjusted_Penalty>
0.00297297

> <i_epik_Tot_Q>
1

> <i_epik_Tot_abs_Q>
1

> <r_epik_Metal_State_Penalty>
-0

> <b_epik_Metal_Only>
0

> <s_lp_Force_Field>
OPLS_2005

> <r_lp_Energy>
17.0512

> <b_lp_Chiralities_Consistent>
1

> <s_lp_Variant>
AV-unprocessed.smi:650-2

> <Gold.Version>
5.8.1

> <Gold.Id.Protein>
6NUR|6NUR_protein|mol2

> <Gold.PLP.Fitness>
51.3494

> <Gold.PLP.PLP>
-37.2583

> <Gold.PLP.part.hbond>
-5.0000

> <Gold.PLP.part.metal>
0.0000

> <Gold.PLP.part.buried>
-5.8582

> <Gold.PLP.part.nonpolar>
-27.3808

> <Gold.PLP.part.repulsive>
0.3063

> <Gold.PLP.ligand.clash>
0.0000

> <Gold.PLP.ligand.torsion>
0.4877

> <Gold.PLP.Chemscore.Hbond>
5.0000

> <Gold.PLP.Chemscore.CHOScore>
0.0000

> <Gold.PLP.Chemscore.Metal>
0.0000

> <Gold.Chemscore.Hbonds>
donor molecule, donor type, donor heavy atom, donor atom, acceptor molecule, acceptor atom, score
      L1  H     5    25       P1  8028  1.00
      L1  H     8    26       P1  8028  1.00
      L1  H    13    43       P1 10175  2.00
      L1  H    16    38       P1 10175  0.99

> <Gold.PLP.Chemscore.Internal.Correction>
0.0665

> <Gold.Rescore>
     Score         DG    S(hbond)    S(metal)    S(lipo)     H(rot)  DE(clash)    DE(int)     intcor
     18.47     -20.64       3.90        0.00      74.00       2.55       0.15       2.02       ----

> <Gold.Chemscore.Fitness>
18.4697

> <Gold.Chemscore.DG>
-20.6396

> <Gold.Chemscore.ZeroCoef>
-5.4800

> <Gold.Chemscore.Hbond>
3.9003

> <Gold.Chemscore.Metal>
0.0000

> <Gold.Chemscore.Lipo>
74.0049

> <Gold.Chemscore.Internal_Hbond>
0.0000

> <Gold.Chemscore.DEClash>
0.1512

> <Gold.Chemscore.DEInternal>
2.0187

> <Gold.Chemscore.Rot>
2.5492

> <Gold.Chemscore.Internal.Correction>
   9.000000E+99

> <Gold.Chemscore.Hbonds>
donor molecule, donor type, donor heavy atom, donor atom, acceptor molecule, acceptor atom, score
      L1  H     5    25       P1  8028  1.00
      L1  H     8    26       P1  8028  0.96
      L1  H    13    43       P1 10175  1.00
      L1  H    16    38       P1 10175  0.94

> <Gold.Chemscore.Hbond.Weighted>
-13.0270

> <Gold.Chemscore.Metal.Weighted>
-0.0000

> <Gold.Chemscore.Lipo.Weighted>
-8.6586

> <Gold.Chemscore.Internal_Hbond.Weighted>
0.0000

> <Gold.Chemscore.DEClash.Weighted>
0.1512

> <Gold.Chemscore.DEInternal.Weighted>
2.0187

> <Gold.Chemscore.Rot.Weighted>
6.5260

> <Gold.Chemscore.Internal.Correction.Weighted>
   9.000000E+99

> <Gold.Protein.RotatedTorsions>
[ 6907 6896 6895 6894 ] final -114.93 input  -60.11 | X-H torsion
[ 7974 7965 7964 7962 ] final -124.72 input  175.53 | X-H torsion
[ 8008 7997 7996 7995 ] final    8.60 input   59.86 | X-H torsion
[ 10167 10162 10161 10158 ] final -119.14 input  -65.29 | X-H torsion
[ 10718 10713 10712 10709 ] final   74.81 input   66.30 | X-H torsion
[ 10763 10752 10751 10750 ] final   17.38 input  -60.55 | X-H torsion
[ 11005 11000 10999 10996 ] final -114.91 input  -57.11 | X-H torsion

> <Gold.Protein.ActiveResidues>
 VAL166  LYS551  ARG553  GLY616  TRP617  ASP618  TYR619  PRO620  LYS621  CYS622 
 ASP623  PHE694  ASN695  SER759  ASP760  ASP761  ALA762  ILE779  LEU786  VAL792 
 PHE793  MET794  SER795  GLU796  ALA797  LYS798  CYS799  TRP800  GLU811  SER814 

> <Gold.Protein.RotatedAtoms>
  150.7939  133.8730  159.3263 H   0  0  0  0  0  0  0  0  0  0  0  0  # atno 6907 bound_to 6896
  151.6561  135.0993  160.0180 H   0  0  0  0  0  0  0  0  0  0  0  0  # atno 6908 bound_to 6896
  152.4018  133.6790  159.6358 H   0  0  0  0  0  0  0  0  0  0  0  0  # atno 6909 bound_to 6896
  145.0051  140.7855  143.4473 H   0  0  0  0  0  0  0  0  0  0  0  0  # atno 7974 bound_to 7965
  154.7689  140.2798  155.6154 H   0  0  0  0  0  0  0  0  0  0  0  0  # atno 8008 bound_to 7997
  156.2930  140.2645  156.2414 H   0  0  0  0  0  0  0  0  0  0  0  0  # atno 8009 bound_to 7997
  154.9924  140.0373  157.2315 H   0  0  0  0  0  0  0  0  0  0  0  0  # atno 8010 bound_to 7997
  140.0498  143.5071  152.2087 H   0  0  0  0  0  0  0  0  0  0  0  0  # atno 10167 bound_to 10162
  157.6608  130.9696  150.1265 H   0  0  0  0  0  0  0  0  0  0  0  0  # atno 10718 bound_to 10713
  153.1344  135.6747  153.9126 H   0  0  0  0  0  0  0  0  0  0  0  0  # atno 10763 bound_to 10752
  153.8602  135.3082  155.3438 H   0  0  0  0  0  0  0  0  0  0  0  0  # atno 10764 bound_to 10752
  154.7735  135.4927  153.9779 H   0  0  0  0  0  0  0  0  0  0  0  0  # atno 10765 bound_to 10752
  141.0522  133.9670  157.2817 H   0  0  0  0  0  0  0  0  0  0  0  0  # atno 11005 bound_to 11000
  145.2100  139.2209  143.5148 LP  0  0  0  0  0  0  0  0  0  0  0  0  # atno 17320 bound_to 7965
  146.3459  140.1936  142.8589 LP  0  0  0  0  0  0  0  0  0  0  0  0  # atno 17321 bound_to 7965
  139.5960  144.7567  151.3285 LP  0  0  0  0  0  0  0  0  0  0  0  0  # atno 17342 bound_to 10162
  140.7222  143.7105  150.7773 LP  0  0  0  0  0  0  0  0  0  0  0  0  # atno 17343 bound_to 10162
  156.2122  130.3667  149.8656 LP  0  0  0  0  0  0  0  0  0  0  0  0  # atno 17370 bound_to 10713
  156.6531  130.8752  151.3535 LP  0  0  0  0  0  0  0  0  0  0  0  0  # atno 17371 bound_to 10713
  139.9359  135.0196  156.8555 LP  0  0  0  0  0  0  0  0  0  0  0  0  # atno 17394 bound_to 11000
  140.6034  134.0150  155.7546 LP  0  0  0  0  0  0  0  0  0  0  0  0  # atno 17395 bound_to 11000

$$$$
