AV-unprocessed.smi:102|AV-procd|sdf|965|dock6
  -GOLD-   2262017513D 1   1.00000     0.00000
 Structure written by MMmdl.
 43 44  0  0  0  0  0  0  0  0  2 V2000
  147.2876  134.8457  162.1321 C   0  0  0  0  0  0  0  0  0  0  0  0
  147.5495  136.1244  161.3463 C   0  0  0  0  0  0  0  0  0  0  0  0
  147.2929  137.2311  161.8206 O   0  0  0  0  0  0  0  0  0  0  0  0
  148.0698  135.8875  160.1325 O   0  0  0  0  0  0  0  0  0  0  0  0
  148.2963  136.9696  159.2446 C   0  0  0  0  0  0  0  0  0  0  0  0
  149.3943  136.5871  158.2403 C   0  0  2  0  0  0  0  0  0  0  0  0
  150.6671  136.6943  158.8630 O   0  0  0  0  0  0  0  0  0  0  0  0
  151.1546  137.9846  158.6807 C   0  0  1  0  0  0  0  0  0  0  0  0
  152.6620  137.9519  158.6969 N   0  0  0  0  0  0  0  0  0  0  0  0
  153.3376  136.7439  158.6848 C   0  0  0  0  0  0  0  0  0  0  0  0
  154.6853  136.6982  158.6712 C   0  0  0  0  0  0  0  0  0  0  0  0
  155.3151  135.5109  158.6597 F   0  0  0  0  0  0  0  0  0  0  0  0
  155.4507  137.9436  158.6622 C   0  0  0  0  0  0  0  0  0  0  0  0
  156.6796  137.8961  158.6611 O   0  0  0  0  0  0  0  0  0  0  0  0
  154.7568  139.1189  158.6517 N   0  5  0  0  0  0  0  0  0  0  0  0
  153.3923  139.1700  158.6565 C   0  0  0  0  0  0  0  0  0  0  0  0
  152.7583  140.2246  158.6191 O   0  0  0  0  0  0  0  0  0  0  0  0
  150.6468  138.4708  157.3235 C   0  0  2  0  0  0  0  0  0  0  0  0
  150.2587  139.8347  157.4046 O   0  0  0  0  0  0  0  0  0  0  0  0
  150.6740  140.7084  156.4727 C   0  0  0  0  0  0  0  0  0  0  0  0
  150.8122  142.1219  157.0222 C   0  0  0  0  0  0  0  0  0  0  0  0
  150.9200  140.4497  155.2944 O   0  0  0  0  0  0  0  0  0  0  0  0
  149.4530  137.5600  157.0512 C   0  0  1  0  0  0  0  0  0  0  0  0
  149.6656  136.8772  155.8220 O   0  0  0  0  0  0  0  0  0  0  0  0
  150.6444  135.9627  155.7139 C   0  0  0  0  0  0  0  0  0  0  0  0
  150.3144  134.8762  154.6992 C   0  0  0  0  0  0  0  0  0  0  0  0
  151.7075  135.9610  156.3349 O   0  0  0  0  0  0  0  0  0  0  0  0
  147.5182  133.9642  161.5334 H   0  0  0  0  0  0  0  0  0  0  0  0
  146.2406  134.7952  162.4309 H   0  0  0  0  0  0  0  0  0  0  0  0
  147.9047  134.8232  163.0304 H   0  0  0  0  0  0  0  0  0  0  0  0
  147.3700  137.1820  158.7086 H   0  0  0  0  0  0  0  0  0  0  0  0
  148.5667  137.8703  159.7975 H   0  0  0  0  0  0  0  0  0  0  0  0
  149.2331  135.5620  157.9042 H   0  0  0  0  0  0  0  0  0  0  0  0
  150.8278  138.5953  159.5246 H   0  0  0  0  0  0  0  0  0  0  0  0
  152.7837  135.8170  158.6792 H   0  0  0  0  0  0  0  0  0  0  0  0
  151.4319  138.3169  156.5806 H   0  0  0  0  0  0  0  0  0  0  0  0
  151.2042  142.0995  158.0391 H   0  0  0  0  0  0  0  0  0  0  0  0
  149.8421  142.6186  157.0344 H   0  0  0  0  0  0  0  0  0  0  0  0
  151.4936  142.7061  156.4036 H   0  0  0  0  0  0  0  0  0  0  0  0
  148.5369  138.1505  156.9939 H   0  0  0  0  0  0  0  0  0  0  0  0
  149.2660  134.5874  154.7757 H   0  0  0  0  0  0  0  0  0  0  0  0
  150.9282  133.9922  154.8728 H   0  0  0  0  0  0  0  0  0  0  0  0
  150.5029  135.2356  153.6877 H   0  0  0  0  0  0  0  0  0  0  0  0
  1  2  1  0  0  0  0
  1 28  1  0  0  0  0
  1 29  1  0  0  0  0
  1 30  1  0  0  0  0
  2  3  2  0  0  0  0
  2  4  1  0  0  0  0
  4  5  1  0  0  0  0
  5  6  1  0  0  0  0
  5 31  1  0  0  0  0
  5 32  1  0  0  0  0
  6 23  1  0  0  0  0
  6  7  1  0  0  0  0
  6 33  1  0  0  0  0
  7  8  1  0  0  0  0
  8  9  1  0  0  0  0
  8 18  1  0  0  0  0
  8 34  1  0  0  0  0
  9 16  1  0  0  0  0
  9 10  1  0  0  0  0
 10 11  2  0  0  0  0
 10 35  1  0  0  0  0
 11 12  1  0  0  0  0
 11 13  1  0  0  0  0
 13 14  2  0  0  0  0
 13 15  1  0  0  0  0
 15 16  1  0  0  0  0
 16 17  2  0  0  0  0
 18 19  1  0  0  0  0
 18 23  1  0  0  0  0
 18 36  1  0  0  0  0
 19 20  1  0  0  0  0
 20 21  1  0  0  0  0
 20 22  2  0  0  0  0
 21 37  1  0  0  0  0
 21 38  1  0  0  0  0
 21 39  1  0  0  0  0
 23 24  1  0  0  0  0
 23 40  1  0  0  0  0
 24 25  1  0  0  0  0
 25 26  1  0  0  0  0
 25 27  2  0  0  0  0
 26 41  1  0  0  0  0
 26 42  1  0  0  0  0
 26 43  1  0  0  0  0
M  CHG  1  15  -1
M  END
> <s_m_source_file>
AV-unprocessed.smi

> <i_m_source_file_index>
102

> <i_lp_mmshare_version>
43012

> <i_f3d_flags>
0

> <s_epik_input>
W0NIM11DKD1PKU9bQ0gyXVtDQEBIXTFPW0NASF0oW0NAQEhdKE9DKD1PKVtDSDNdKVtDQEhdMU9DKD1PKVtDSDNdKW4yW2NIXWMoRiljKD1PKVtuSF1jMj1P

> <s_epik_cmdline>
J2VwaWtfcHl0aG9uJywgJy1waCcsICc3LjAnLCAnLXRuJywgJzgnLCAnLW1hJywgJzIwMCcsICctbWV0YWxfYmluZGluZycsICctaW1hZScsICc8aW5maWxlLm1hZT4nLCAnLW9tYWUnLCAnPG91dGZpbGUubWFlPic=

> <r_epik_Ionization_Penalty>
1.40304

> <r_epik_Ionization_Penalty_Charging>
1.43915e-08

> <r_epik_Ionization_Penalty_Neutral>
1.40304

> <r_epik_State_Penalty>
1.48536

> <r_epik_Charging_Adjusted_Penalty>
1.48536

> <i_epik_Tot_Q>
-1

> <i_epik_Tot_abs_Q>
1

> <r_epik_Metal_State_Penalty>
0.00663881

> <b_epik_Metal_Only>
0

> <s_epik_Chemistry_Notes>
This compound has an ester and may undergo hydrolysis at high or low pH. This compound contains an acetal/aminal-like group ( X-CH(R)-Y where X, Y are N, S, or O) that may be acid/base labile, releasing an aldehyde.

> <s_lp_Force_Field>
OPLS_2005

> <r_lp_Energy>
22.1455

> <b_lp_Chiralities_Consistent>
1

> <s_lp_Variant>
AV-unprocessed.smi:102-21

> <Gold.Version>
5.8.1

> <Gold.Id.Protein>
6NUR|6NUR_protein|mol2

> <Gold.PLP.Fitness>
48.5633

> <Gold.PLP.PLP>
-32.3540

> <Gold.PLP.part.hbond>
-6.1210

> <Gold.PLP.part.metal>
0.0000

> <Gold.PLP.part.buried>
-5.7331

> <Gold.PLP.part.nonpolar>
-19.8943

> <Gold.PLP.part.repulsive>
0.1723

> <Gold.PLP.ligand.clash>
0.0000

> <Gold.PLP.ligand.torsion>
1.9141

> <Gold.PLP.Chemscore.Hbond>
6.6480

> <Gold.PLP.Chemscore.CHOScore>
0.0000

> <Gold.PLP.Chemscore.Metal>
0.0000

> <Gold.Chemscore.Hbonds>
donor molecule, donor type, donor heavy atom, donor atom, acceptor molecule, acceptor atom, score
      P1  H  6896  6908       L1     7  1.00
      P1  H  6931  6943       L1     3  0.86
      P1  H  6934  6947       L1     3  0.80
      P1  H  7989  7998       L1    22  1.00
      P1  H  7997  8008       L1    15  2.00
      P1  H 10752 10763       L1    27  1.00

> <Gold.PLP.Chemscore.Internal.Correction>
0.0935

> <Gold.Rescore>
     Score         DG    S(hbond)    S(metal)    S(lipo)     H(rot)  DE(clash)    DE(int)     intcor
      9.39     -16.74       5.05        0.00      39.42       4.00       0.14       7.21       ----

> <Gold.Chemscore.Fitness>
9.3925

> <Gold.Chemscore.DG>
-16.7373

> <Gold.Chemscore.ZeroCoef>
-5.4800

> <Gold.Chemscore.Hbond>
5.0515

> <Gold.Chemscore.Metal>
0.0000

> <Gold.Chemscore.Lipo>
39.4248

> <Gold.Chemscore.Internal_Hbond>
0.0000

> <Gold.Chemscore.DEClash>
0.1380

> <Gold.Chemscore.DEInternal>
7.2068

> <Gold.Chemscore.Rot>
3.9951

> <Gold.Chemscore.Internal.Correction>
   9.000000E+99

> <Gold.Chemscore.Hbonds>
donor molecule, donor type, donor heavy atom, donor atom, acceptor molecule, acceptor atom, score
      P1  H  6896  6908       L1     7  0.63
      P1  H  6931  6943       L1     3  0.53
      P1  H  6934  6947       L1     3  0.77
      P1  H  7989  7998       L1    22  0.92
      P1  H  7997  8008       L1    15  0.42
      P1  H 10752 10763       L1    27  0.43

> <Gold.Chemscore.Hbond.Weighted>
-16.8720

> <Gold.Chemscore.Metal.Weighted>
-0.0000

> <Gold.Chemscore.Lipo.Weighted>
-4.6127

> <Gold.Chemscore.Internal_Hbond.Weighted>
0.0000

> <Gold.Chemscore.DEClash.Weighted>
0.1380

> <Gold.Chemscore.DEInternal.Weighted>
7.2068

> <Gold.Chemscore.Rot.Weighted>
10.2274

> <Gold.Chemscore.Internal.Correction.Weighted>
   9.000000E+99

> <Gold.Protein.RotatedTorsions>
[ 6907 6896 6895 6894 ] final -156.45 input  -60.11 | X-H torsion
[ 7974 7965 7964 7962 ] final    2.55 input  175.53 | X-H torsion
[ 8008 7997 7996 7995 ] final -133.36 input   59.86 | X-H torsion
[ 10167 10162 10161 10158 ] final  147.34 input  -65.29 | X-H torsion
[ 10718 10713 10712 10709 ] final -178.46 input   66.30 | X-H torsion
[ 10763 10752 10751 10750 ] final   82.52 input  -60.55 | X-H torsion
[ 11005 11000 10999 10996 ] final  142.05 input  -57.11 | X-H torsion

> <Gold.Protein.ActiveResidues>
 VAL166  LYS551  ARG553  GLY616  TRP617  ASP618  TYR619  PRO620  LYS621  CYS622 
 ASP623  PHE694  ASN695  SER759  ASP760  ASP761  ALA762  ILE779  LEU786  VAL792 
 PHE793  MET794  SER795  GLU796  ALA797  LYS798  CYS799  TRP800  GLU811  SER814 

> <Gold.Protein.RotatedAtoms>
  151.2878  133.4179  159.2630 H   0  0  0  0  0  0  0  0  0  0  0  0  # atno 6907 bound_to 6896
  151.0304  134.9535  159.8118 H   0  0  0  0  0  0  0  0  0  0  0  0  # atno 6908 bound_to 6896
  152.5344  134.2839  159.9070 H   0  0  0  0  0  0  0  0  0  0  0  0  # atno 6909 bound_to 6896
  146.2444  140.0819  142.8356 H   0  0  0  0  0  0  0  0  0  0  0  0  # atno 7974 bound_to 7965
  155.3442  140.0474  157.3045 H   0  0  0  0  0  0  0  0  0  0  0  0  # atno 8008 bound_to 7997
  154.5261  140.2241  155.8852 H   0  0  0  0  0  0  0  0  0  0  0  0  # atno 8009 bound_to 7997
  156.1741  140.3089  155.9033 H   0  0  0  0  0  0  0  0  0  0  0  0  # atno 8010 bound_to 7997
  139.4892  144.5762  151.6959 H   0  0  0  0  0  0  0  0  0  0  0  0  # atno 10167 bound_to 10162
  156.8447  130.9698  151.3097 H   0  0  0  0  0  0  0  0  0  0  0  0  # atno 10718 bound_to 10713
  153.1210  135.4725  154.9195 H   0  0  0  0  0  0  0  0  0  0  0  0  # atno 10763 bound_to 10752
  154.7575  135.3122  154.8444 H   0  0  0  0  0  0  0  0  0  0  0  0  # atno 10764 bound_to 10752
  153.9008  135.6875  153.4809 H   0  0  0  0  0  0  0  0  0  0  0  0  # atno 10765 bound_to 10752
  140.0447  134.9287  157.0908 H   0  0  0  0  0  0  0  0  0  0  0  0  # atno 11005 bound_to 11000
  145.0725  140.9165  143.4873 LP  0  0  0  0  0  0  0  0  0  0  0  0  # atno 17320 bound_to 7965
  145.0956  139.2859  143.5712 LP  0  0  0  0  0  0  0  0  0  0  0  0  # atno 17321 bound_to 7965
  140.5359  144.0656  150.6070 LP  0  0  0  0  0  0  0  0  0  0  0  0  # atno 17342 bound_to 10162
  140.3662  143.2880  152.0329 LP  0  0  0  0  0  0  0  0  0  0  0  0  # atno 17343 bound_to 10162
  157.6336  130.8749  149.9319 LP  0  0  0  0  0  0  0  0  0  0  0  0  # atno 17370 bound_to 10713
  156.0861  130.3668  150.0484 LP  0  0  0  0  0  0  0  0  0  0  0  0  # atno 17371 bound_to 10713
  140.4012  134.2080  155.7163 LP  0  0  0  0  0  0  0  0  0  0  0  0  # atno 17394 bound_to 11000
  141.1901  133.8224  157.0932 LP  0  0  0  0  0  0  0  0  0  0  0  0  # atno 17395 bound_to 11000

$$$$
