AV-unprocessed.smi:2554|AV-procd|sdf|10020|dock4
  -GOLD-   2272014 63D 1   1.00000     0.00000
 Structure written by MMmdl.
 21 21  0  0  0  0  0  0  0  0  2 V2000
  146.9354  132.8081  151.4788 C   0  0  0  0  0  0  0  0  0  0  0  0
  145.8372  133.7864  151.1970 C   0  0  0  0  0  0  0  0  0  0  0  0
  145.9099  135.1003  151.6658 N   0  0  0  0  0  0  0  0  0  0  0  0
  144.7909  135.6645  151.2294 C   0  0  0  0  0  0  0  0  0  0  0  0
  144.0204  134.8301  150.5269 N   0  0  0  0  0  0  0  0  0  0  0  0
  144.6662  133.6049  150.4890 C   0  0  0  0  0  0  0  0  0  0  0  0
  144.1130  132.4131  149.7790 C   0  0  0  0  0  0  0  0  0  0  0  0
  143.7218  132.7147  148.3265 C   0  0  0  0  0  0  0  0  0  0  0  0
  142.2725  132.9381  148.1957 N   0  3  0  0  0  0  0  0  0  0  0  0
  143.1296  135.0539  150.1071 H   0  0  0  0  0  0  0  0  0  0  0  0
  146.7280  131.8315  151.0416 H   0  0  0  0  0  0  0  0  0  0  0  0
  147.0692  132.6668  152.5515 H   0  0  0  0  0  0  0  0  0  0  0  0
  147.8845  133.1558  151.0708 H   0  0  0  0  0  0  0  0  0  0  0  0
  144.5307  136.6951  151.4217 H   0  0  0  0  0  0  0  0  0  0  0  0
  143.2424  132.0432  150.3224 H   0  0  0  0  0  0  0  0  0  0  0  0
  144.8464  131.6062  149.8030 H   0  0  0  0  0  0  0  0  0  0  0  0
  144.2471  133.6005  147.9676 H   0  0  0  0  0  0  0  0  0  0  0  0
  144.0073  131.8863  147.6774 H   0  0  0  0  0  0  0  0  0  0  0  0
  142.0296  133.0094  147.2177 H   0  0  0  0  0  0  0  0  0  0  0  0
  142.0183  133.7937  148.6686 H   0  0  0  0  0  0  0  0  0  0  0  0
  141.7734  132.1637  148.6096 H   0  0  0  0  0  0  0  0  0  0  0  0
  1 11  1  0  0  0  0
  1 12  1  0  0  0  0
  1 13  1  0  0  0  0
  1  2  1  0  0  0  0
  2  6  2  0  0  0  0
  2  3  1  0  0  0  0
  3  4  2  0  0  0  0
  4  5  1  0  0  0  0
  4 14  1  0  0  0  0
  5  6  1  0  0  0  0
  5 10  1  0  0  0  0
  6  7  1  0  0  0  0
  7  8  1  0  0  0  0
  7 15  1  0  0  0  0
  7 16  1  0  0  0  0
  8  9  1  0  0  0  0
  8 17  1  0  0  0  0
  8 18  1  0  0  0  0
  9 19  1  0  0  0  0
  9 20  1  0  0  0  0
  9 21  1  0  0  0  0
M  CHG  1   9   1
M  END
> <s_m_source_file>
AV-unprocessed.smi

> <i_m_source_file_index>
2554

> <i_lp_mmshare_version>
43012

> <i_f3d_flags>
0

> <s_epik_input>
W0NIM11jMVtuSF1bY0hdbmMxW0NIMl1bQ0gyXVtOSDJd

> <s_epik_cmdline>
J2VwaWtfcHl0aG9uJywgJy1waCcsICc3LjAnLCAnLXRuJywgJzgnLCAnLW1hJywgJzIwMCcsICctbWV0YWxfYmluZGluZycsICctaW1hZScsICc8aW5maWxlLm1hZT4nLCAnLW9tYWUnLCAnPG91dGZpbGUubWFlPic=

> <r_lp_tautomer_probability>
0.5

> <r_epik_Ionization_Penalty>
0.309087

> <r_epik_Ionization_Penalty_Charging>
0.309086

> <r_epik_Ionization_Penalty_Neutral>
3.24025e-07

> <r_epik_State_Penalty>
0.652852

> <r_epik_Charging_Adjusted_Penalty>
0.961938

> <i_epik_Tot_Q>
1

> <i_epik_Tot_abs_Q>
1

> <r_epik_Metal_State_Penalty>
0.386365

> <b_epik_Metal_Only>
0

> <s_lp_Force_Field>
OPLS_2005

> <r_lp_Energy>
3.85871

> <b_lp_Chiralities_Consistent>
1

> <s_lp_Variant>
AV-unprocessed.smi:2554-2

> <Gold.Version>
5.8.1

> <Gold.Id.Protein>
6NUR|6NUR_protein|mol2

> <Gold.PLP.Fitness>
40.2682

> <Gold.PLP.PLP>
-22.9770

> <Gold.PLP.part.hbond>
-4.0000

> <Gold.PLP.part.metal>
0.0000

> <Gold.PLP.part.buried>
-3.8119

> <Gold.PLP.part.nonpolar>
-15.8201

> <Gold.PLP.part.repulsive>
0.4335

> <Gold.PLP.ligand.clash>
0.0000

> <Gold.PLP.ligand.torsion>
0.3396

> <Gold.PLP.Chemscore.Hbond>
5.0000

> <Gold.PLP.Chemscore.CHOScore>
0.9900

> <Gold.PLP.Chemscore.Metal>
0.0000

> <Gold.Chemscore.Hbonds>
donor molecule, donor type, donor heavy atom, donor atom, acceptor molecule, acceptor atom, score
      L1  H     5    10       P1 10186  0.41
      L1  H     9    19       P1 10195  1.00
      L1  H     9    20       P1 10186  1.43
      L1  H     9    21       P1 10952  0.47
      L1  C     4    14       P1 10171  0.91

> <Gold.PLP.Chemscore.Internal.Correction>
0.0004

> <Gold.Rescore>
     Score         DG    S(hbond)    S(metal)    S(lipo)     H(rot)  DE(clash)    DE(int)     intcor
     19.16     -19.55       3.76        0.00      44.47       1.45       0.16       0.22       ----

> <Gold.Chemscore.Fitness>
19.1634

> <Gold.Chemscore.DG>
-19.5456

> <Gold.Chemscore.ZeroCoef>
-5.4800

> <Gold.Chemscore.Hbond>
3.7617

> <Gold.Chemscore.Metal>
0.0000

> <Gold.Chemscore.Lipo>
44.4684

> <Gold.Chemscore.Internal_Hbond>
0.0000

> <Gold.Chemscore.DEClash>
0.1596

> <Gold.Chemscore.DEInternal>
0.2227

> <Gold.Chemscore.Rot>
1.4458

> <Gold.Chemscore.Internal.Correction>
   9.000000E+99

> <Gold.Chemscore.Hbonds>
donor molecule, donor type, donor heavy atom, donor atom, acceptor molecule, acceptor atom, score
      L1  H     5    10       P1 10186  0.12
      L1  H     9    19       P1 10195  0.96
      L1  H     9    20       P1 10186  0.70
      L1  H     9    21       P1 10952  0.48

> <Gold.Chemscore.Hbond.Weighted>
-12.5640

> <Gold.Chemscore.Metal.Weighted>
-0.0000

> <Gold.Chemscore.Lipo.Weighted>
-5.2028

> <Gold.Chemscore.Internal_Hbond.Weighted>
0.0000

> <Gold.Chemscore.DEClash.Weighted>
0.1596

> <Gold.Chemscore.DEInternal.Weighted>
0.2227

> <Gold.Chemscore.Rot.Weighted>
3.7012

> <Gold.Chemscore.Internal.Correction.Weighted>
   9.000000E+99

> <Gold.Protein.RotatedTorsions>
[ 6907 6896 6895 6894 ] final  160.55 input  -60.11 | X-H torsion
[ 7974 7965 7964 7962 ] final    2.14 input  175.53 | X-H torsion
[ 8008 7997 7996 7995 ] final -174.93 input   59.86 | X-H torsion
[ 10167 10162 10161 10158 ] final  -27.11 input  -65.29 | X-H torsion
[ 10718 10713 10712 10709 ] final   96.16 input   66.30 | X-H torsion
[ 10763 10752 10751 10750 ] final  -78.31 input  -60.55 | X-H torsion
[ 11005 11000 10999 10996 ] final  105.50 input  -57.11 | X-H torsion

> <Gold.Protein.ActiveResidues>
 VAL166  LYS551  ARG553  GLY616  TRP617  ASP618  TYR619  PRO620  LYS621  CYS622 
 ASP623  PHE694  ASN695  SER759  ASP760  ASP761  ALA762  ILE779  LEU786  VAL792 
 PHE793  MET794  SER795  GLU796  ALA797  LYS798  CYS799  TRP800  GLU811  SER814 

> <Gold.Protein.RotatedAtoms>
  151.9690  133.3719  159.4063 H   0  0  0  0  0  0  0  0  0  0  0  0  # atno 6907 bound_to 6896
  150.6952  134.4160  159.5193 H   0  0  0  0  0  0  0  0  0  0  0  0  # atno 6908 bound_to 6896
  152.1861  134.8712  160.0572 H   0  0  0  0  0  0  0  0  0  0  0  0  # atno 6909 bound_to 6896
  146.2443  140.0882  142.8353 H   0  0  0  0  0  0  0  0  0  0  0  0  # atno 7974 bound_to 7965
  155.9763  140.1173  157.0767 H   0  0  0  0  0  0  0  0  0  0  0  0  # atno 8008 bound_to 7997
  154.4170  140.1153  156.5442 H   0  0  0  0  0  0  0  0  0  0  0  0  # atno 8009 bound_to 7997
  155.6530  140.3473  155.4757 H   0  0  0  0  0  0  0  0  0  0  0  0  # atno 8010 bound_to 7997
  140.7279  143.4121  151.1088 H   0  0  0  0  0  0  0  0  0  0  0  0  # atno 10167 bound_to 10162
  157.6930  131.0569  150.4449 H   0  0  0  0  0  0  0  0  0  0  0  0  # atno 10718 bound_to 10713
  154.5242  135.5734  153.6705 H   0  0  0  0  0  0  0  0  0  0  0  0  # atno 10763 bound_to 10752
  152.9924  135.6189  154.2714 H   0  0  0  0  0  0  0  0  0  0  0  0  # atno 10764 bound_to 10752
  154.2637  135.2855  155.2747 H   0  0  0  0  0  0  0  0  0  0  0  0  # atno 10765 bound_to 10752
  139.8803  134.9338  156.5524 H   0  0  0  0  0  0  0  0  0  0  0  0  # atno 11005 bound_to 11000
  145.0674  140.9131  143.4902 LP  0  0  0  0  0  0  0  0  0  0  0  0  # atno 17320 bound_to 7965
  145.1009  139.2823  143.5687 LP  0  0  0  0  0  0  0  0  0  0  0  0  # atno 17321 bound_to 7965
  139.7756  143.8431  152.3128 LP  0  0  0  0  0  0  0  0  0  0  0  0  # atno 17342 bound_to 10162
  139.8364  144.7230  150.9386 LP  0  0  0  0  0  0  0  0  0  0  0  0  # atno 17343 bound_to 10162
  156.4805  130.4073  149.6464 LP  0  0  0  0  0  0  0  0  0  0  0  0  # atno 17370 bound_to 10713
  156.3512  130.7433  151.2392 LP  0  0  0  0  0  0  0  0  0  0  0  0  # atno 17371 bound_to 10713
  140.8230  133.8338  155.8913 LP  0  0  0  0  0  0  0  0  0  0  0  0  # atno 17394 bound_to 11000
  140.9400  134.1913  157.4804 LP  0  0  0  0  0  0  0  0  0  0  0  0  # atno 17395 bound_to 11000

$$$$
