AV-unprocessed.smi:2252|AV-procd|sdf|9103|dock1
  -GOLD-   2272012303D 1   1.00000     0.00000
 Structure written by MMmdl.
 46 48  0  0  0  0  0  0  0  0  3 V2000
  152.3588  140.8247  159.4833 C   0  0  0  0  0  0  0  0  0  0  0  0
  152.0335  142.1454  158.9413 N   0  0  0  0  0  0  0  0  0  0  0  0
  152.6287  143.3348  159.2757 C   0  0  0  0  0  0  0  0  0  0  0  0
  152.0180  144.3049  158.5248 C   0  0  0  0  0  0  0  0  0  0  0  0
  151.0754  143.6682  157.7640 N   0  3  0  0  0  0  0  0  0  0  0  0
  151.0786  142.3547  158.0201 C   0  0  0  0  0  0  0  0  0  0  0  0
  150.1921  141.3418  157.3651 C   0  0  0  0  0  0  0  0  0  0  0  0
  150.1995  141.4553  155.8316 C   0  0  0  0  0  0  0  0  0  0  0  0
  148.8550  141.6182  155.2915 N   0  0  0  0  0  0  0  0  0  0  0  0
  148.2275  140.7283  154.5064 C   0  0  0  0  0  0  0  0  0  0  0  0
  148.7395  139.6668  154.1489 O   0  0  0  0  0  0  0  0  0  0  0  0
  146.7975  141.0814  154.0692 C   0  0  2  0  0  0  0  0  0  0  0  0
  145.9302  141.2793  155.3308 C   0  0  0  0  0  0  0  0  0  0  0  0
  144.7805  142.2633  155.3464 C   0  0  0  0  0  0  0  0  0  0  0  0
  146.0240  142.5510  156.1477 C   0  0  0  0  0  0  0  0  0  0  0  0
  146.2218  140.0409  153.1696 N   0  3  0  0  0  0  0  0  0  0  0  0
  146.8991  139.8894  151.8639 C   0  0  0  0  0  0  0  0  0  0  0  0
  146.5107  138.5035  151.3382 C   0  0  0  0  0  0  0  0  0  0  0  0
  145.9667  137.7399  152.5495 C   0  0  0  0  0  0  0  0  0  0  0  0
  146.1678  138.6773  153.7407 C   0  0  0  0  0  0  0  0  0  0  0  0
  153.2345  140.9006  160.1286 H   0  0  0  0  0  0  0  0  0  0  0  0
  152.5746  140.1380  158.6642 H   0  0  0  0  0  0  0  0  0  0  0  0
  151.5129  140.4558  160.0639 H   0  0  0  0  0  0  0  0  0  0  0  0
  153.4246  143.4019  160.0036 H   0  0  0  0  0  0  0  0  0  0  0  0
  152.1805  145.3718  158.4748 H   0  0  0  0  0  0  0  0  0  0  0  0
  150.5168  140.3532  157.6900 H   0  0  0  0  0  0  0  0  0  0  0  0
  149.1905  141.4993  157.7672 H   0  0  0  0  0  0  0  0  0  0  0  0
  150.8290  142.2876  155.5122 H   0  0  0  0  0  0  0  0  0  0  0  0
  150.6306  140.5547  155.3938 H   0  0  0  0  0  0  0  0  0  0  0  0
  148.3605  142.4611  155.5473 H   0  0  0  0  0  0  0  0  0  0  0  0
  146.8296  142.0217  153.5149 H   0  0  0  0  0  0  0  0  0  0  0  0
  145.7863  140.3679  155.9091 H   0  0  0  0  0  0  0  0  0  0  0  0
  144.6112  142.8650  154.4558 H   0  0  0  0  0  0  0  0  0  0  0  0
  143.8842  141.9773  155.8928 H   0  0  0  0  0  0  0  0  0  0  0  0
  145.9570  142.4594  157.2300 H   0  0  0  0  0  0  0  0  0  0  0  0
  146.6765  143.3437  155.7872 H   0  0  0  0  0  0  0  0  0  0  0  0
  146.6220  140.6832  151.1695 H   0  0  0  0  0  0  0  0  0  0  0  0
  147.9800  139.9302  152.0086 H   0  0  0  0  0  0  0  0  0  0  0  0
  145.7394  138.5846  150.5711 H   0  0  0  0  0  0  0  0  0  0  0  0
  147.3671  137.9985  150.8899 H   0  0  0  0  0  0  0  0  0  0  0  0
  144.9040  137.5376  152.4094 H   0  0  0  0  0  0  0  0  0  0  0  0
  146.4674  136.7823  152.6972 H   0  0  0  0  0  0  0  0  0  0  0  0
  147.1167  138.4489  154.2289 H   0  0  0  0  0  0  0  0  0  0  0  0
  145.3745  138.5707  154.4814 H   0  0  0  0  0  0  0  0  0  0  0  0
  145.2685  140.3081  152.9691 H   0  0  0  0  0  0  0  0  0  0  0  0
  150.4628  144.1243  157.0994 H   0  0  0  0  0  0  0  0  0  0  0  0
  1  2  1  0  0  0  0
  1 21  1  0  0  0  0
  1 22  1  0  0  0  0
  1 23  1  0  0  0  0
  2  6  1  0  0  0  0
  2  3  1  0  0  0  0
  3  4  2  0  0  0  0
  3 24  1  0  0  0  0
  4  5  1  0  0  0  0
  4 25  1  0  0  0  0
  5  6  2  0  0  0  0
  5 46  1  0  0  0  0
  6  7  1  0  0  0  0
  7  8  1  0  0  0  0
  7 26  1  0  0  0  0
  7 27  1  0  0  0  0
  8  9  1  0  0  0  0
  8 28  1  0  0  0  0
  8 29  1  0  0  0  0
  9 10  1  0  0  0  0
  9 30  1  0  0  0  0
 10 11  2  0  0  0  0
 10 12  1  0  0  0  0
 12 13  1  0  0  0  0
 12 16  1  0  0  0  0
 12 31  1  0  0  0  0
 13 15  1  0  0  0  0
 13 14  1  0  0  0  0
 13 32  1  0  0  0  0
 14 15  1  0  0  0  0
 14 33  1  0  0  0  0
 14 34  1  0  0  0  0
 15 35  1  0  0  0  0
 15 36  1  0  0  0  0
 16 20  1  0  0  0  0
 16 17  1  0  0  0  0
 16 45  1  0  0  0  0
 17 18  1  0  0  0  0
 17 37  1  0  0  0  0
 17 38  1  0  0  0  0
 18 19  1  0  0  0  0
 18 39  1  0  0  0  0
 18 40  1  0  0  0  0
 19 20  1  0  0  0  0
 19 41  1  0  0  0  0
 19 42  1  0  0  0  0
 20 43  1  0  0  0  0
 20 44  1  0  0  0  0
M  CHG  1   5   1
M  CHG  1  16   1
M  END
> <s_m_source_file>
AV-unprocessed.smi

> <i_m_source_file_index>
2252

> <i_lp_mmshare_version>
43012

> <i_f3d_flags>
0

> <s_epik_input>
W0NIM11uMVtjSF1bY0hdbmMxW0NIMl1bQ0gyXVtOSF1DKD1PKVtDQEhdKFtDSF0yW0NIMl1bQ0gyXTIpTjNbQ0gyXVtDSDJdW0NIMl1bQ0gyXTM=

> <s_epik_cmdline>
J2VwaWtfcHl0aG9uJywgJy1waCcsICc3LjAnLCAnLXRuJywgJzgnLCAnLW1hJywgJzIwMCcsICctbWV0YWxfYmluZGluZycsICctaW1hZScsICc8aW5maWxlLm1hZT4nLCAnLW9tYWUnLCAnPG91dGZpbGUubWFlPic=

> <r_lp_tautomer_probability>
1

> <r_epik_Ionization_Penalty>
0.116886

> <r_epik_Ionization_Penalty_Charging>
0.00955009

> <r_epik_Ionization_Penalty_Neutral>
0.107336

> <r_epik_State_Penalty>
0.0956868

> <r_epik_Charging_Adjusted_Penalty>
0.105237

> <i_epik_Tot_Q>
2

> <i_epik_Tot_abs_Q>
2

> <r_epik_Metal_State_Penalty>
0.438836

> <b_epik_Metal_Only>
0

> <s_lp_Force_Field>
OPLS_2005

> <r_lp_Energy>
40.5803

> <b_lp_Chiralities_Consistent>
1

> <s_lp_Variant>
AV-unprocessed.smi:2252-1

> <Gold.Version>
5.8.1

> <Gold.Id.Protein>
6NUR|6NUR_protein|mol2

> <Gold.PLP.Fitness>
55.5293

> <Gold.PLP.PLP>
-41.9917

> <Gold.PLP.part.hbond>
-3.0000

> <Gold.PLP.part.metal>
0.0000

> <Gold.PLP.part.buried>
-0.9530

> <Gold.PLP.part.nonpolar>
-38.4297

> <Gold.PLP.part.repulsive>
0.8838

> <Gold.PLP.ligand.clash>
0.0000

> <Gold.PLP.ligand.torsion>
1.0418

> <Gold.PLP.Chemscore.Hbond>
4.8143

> <Gold.PLP.Chemscore.CHOScore>
0.0000

> <Gold.PLP.Chemscore.Metal>
0.0000

> <Gold.Chemscore.Hbonds>
donor molecule, donor type, donor heavy atom, donor atom, acceptor molecule, acceptor atom, score
      L1  H     5    46       P1  8028  1.20
      L1  H     9    30       P1  8028  0.22
      L1  H    16    45       P1 10175  2.00

> <Gold.PLP.Chemscore.Internal.Correction>
1.1784

> <Gold.Rescore>
     Score         DG    S(hbond)    S(metal)    S(lipo)     H(rot)  DE(clash)    DE(int)     intcor
     16.28     -21.16       2.64        0.00     103.45       2.05       2.03       2.84       ----

> <Gold.Chemscore.Fitness>
16.2827

> <Gold.Chemscore.DG>
-21.1583

> <Gold.Chemscore.ZeroCoef>
-5.4800

> <Gold.Chemscore.Hbond>
2.6382

> <Gold.Chemscore.Metal>
0.0000

> <Gold.Chemscore.Lipo>
103.4488

> <Gold.Chemscore.Internal_Hbond>
0.0000

> <Gold.Chemscore.DEClash>
2.0309

> <Gold.Chemscore.DEInternal>
2.8448

> <Gold.Chemscore.Rot>
2.0456

> <Gold.Chemscore.Internal.Correction>
   9.000000E+99

> <Gold.Chemscore.Hbonds>
donor molecule, donor type, donor heavy atom, donor atom, acceptor molecule, acceptor atom, score
      L1  H     5    46       P1  8028  0.57
      L1  H     9    30       P1  8028  0.22
      L1  H    16    45       P1 10175  0.97

> <Gold.Chemscore.Hbond.Weighted>
-8.8116

> <Gold.Chemscore.Metal.Weighted>
-0.0000

> <Gold.Chemscore.Lipo.Weighted>
-12.1035

> <Gold.Chemscore.Internal_Hbond.Weighted>
0.0000

> <Gold.Chemscore.DEClash.Weighted>
2.0309

> <Gold.Chemscore.DEInternal.Weighted>
2.8448

> <Gold.Chemscore.Rot.Weighted>
5.2368

> <Gold.Chemscore.Internal.Correction.Weighted>
   9.000000E+99

> <Gold.Protein.RotatedTorsions>
[ 6907 6896 6895 6894 ] final   33.75 input  -60.11 | X-H torsion
[ 7974 7965 7964 7962 ] final  -66.84 input  175.53 | X-H torsion
[ 8008 7997 7996 7995 ] final -106.33 input   59.86 | X-H torsion
[ 10167 10162 10161 10158 ] final  162.90 input  -65.29 | X-H torsion
[ 10718 10713 10712 10709 ] final  -92.12 input   66.30 | X-H torsion
[ 10763 10752 10751 10750 ] final -109.82 input  -60.55 | X-H torsion
[ 11005 11000 10999 10996 ] final   73.61 input  -57.11 | X-H torsion

> <Gold.Protein.ActiveResidues>
 VAL166  LYS551  ARG553  GLY616  TRP617  ASP618  TYR619  PRO620  LYS621  CYS622 
 ASP623  PHE694  ASN695  SER759  ASP760  ASP761  ALA762  ILE779  LEU786  VAL792 
 PHE793  MET794  SER795  GLU796  ALA797  LYS798  CYS799  TRP800  GLU811  SER814 

> <Gold.Protein.RotatedAtoms>
  152.0929  134.9395  160.0571 H   0  0  0  0  0  0  0  0  0  0  0  0  # atno 6907 bound_to 6896
  152.0639  133.4070  159.4438 H   0  0  0  0  0  0  0  0  0  0  0  0  # atno 6908 bound_to 6896
  150.6837  134.3089  159.4781 H   0  0  0  0  0  0  0  0  0  0  0  0  # atno 6909 bound_to 6896
  145.7367  140.8972  143.0551 H   0  0  0  0  0  0  0  0  0  0  0  0  # atno 7974 bound_to 7965
  154.9130  140.0409  157.1956 H   0  0  0  0  0  0  0  0  0  0  0  0  # atno 8008 bound_to 7997
  154.8329  140.2902  155.5689 H   0  0  0  0  0  0  0  0  0  0  0  0  # atno 8009 bound_to 7997
  156.2988  140.2497  156.3258 H   0  0  0  0  0  0  0  0  0  0  0  0  # atno 8010 bound_to 7997
  139.4866  144.4391  151.8974 H   0  0  0  0  0  0  0  0  0  0  0  0  # atno 10167 bound_to 10162
  155.9999  130.4975  150.5578 H   0  0  0  0  0  0  0  0  0  0  0  0  # atno 10718 bound_to 10713
  154.8214  135.4587  154.0790 H   0  0  0  0  0  0  0  0  0  0  0  0  # atno 10763 bound_to 10752
  153.2141  135.6885  153.8085 H   0  0  0  0  0  0  0  0  0  0  0  0  # atno 10764 bound_to 10752
  153.7526  135.3296  155.3300 H   0  0  0  0  0  0  0  0  0  0  0  0  # atno 10765 bound_to 10752
  139.9431  134.7362  156.1048 H   0  0  0  0  0  0  0  0  0  0  0  0  # atno 11005 bound_to 11000
  144.6880  139.9405  143.7475 LP  0  0  0  0  0  0  0  0  0  0  0  0  # atno 17320 bound_to 7965
  146.0486  139.3490  143.0653 LP  0  0  0  0  0  0  0  0  0  0  0  0  # atno 17321 bound_to 7965
  140.3842  144.2697  150.5905 LP  0  0  0  0  0  0  0  0  0  0  0  0  # atno 17342 bound_to 10162
  140.5205  143.2267  151.8396 LP  0  0  0  0  0  0  0  0  0  0  0  0  # atno 17343 bound_to 10162
  157.3492  131.0730  151.1727 LP  0  0  0  0  0  0  0  0  0  0  0  0  # atno 17370 bound_to 10713
  157.2549  130.6631  149.5948 LP  0  0  0  0  0  0  0  0  0  0  0  0  # atno 17371 bound_to 10713
  141.1073  133.6655  156.2894 LP  0  0  0  0  0  0  0  0  0  0  0  0  # atno 17394 bound_to 11000
  140.5901  134.5659  157.5498 LP  0  0  0  0  0  0  0  0  0  0  0  0  # atno 17395 bound_to 11000

$$$$
