AV-unprocessed.smi:2845|AV-procd|sdf|10949|dock10
  -GOLD-   2272015403D 1   1.00000     0.00000
 Structure written by MMmdl.
 43 45  0  0  0  0  0  0  0  0  2 V2000
  152.2088  144.8344  160.5151 C   0  0  0  0  0  0  0  0  0  0  0  0
  151.9428  143.5743  159.7094 C   0  0  0  0  0  0  0  0  0  0  0  0
  151.1366  143.6708  158.5527 C   0  0  0  0  0  0  0  0  0  0  0  0
  150.9099  142.5005  157.8380 C   0  0  0  0  0  0  0  0  0  0  0  0
  150.1689  142.2671  156.6776 N   0  3  0  0  0  0  0  0  0  0  0  0
  150.2395  140.9470  156.3509 C   0  0  0  0  0  0  0  0  0  0  0  0
  151.0162  140.3337  157.2845 N   0  0  0  0  0  0  0  0  0  0  0  0
  151.4115  138.9220  157.3959 C   0  0  0  0  0  0  0  0  0  0  0  0
  150.6980  138.1857  158.5465 C   0  0  2  0  0  0  0  0  0  0  0  0
  151.3798  136.9825  158.8477 O   0  0  0  0  0  0  0  0  0  0  0  0
  149.2269  137.8808  158.2039 C   0  0  0  0  0  0  0  0  0  0  0  0
  148.6103  136.9716  159.1533 N   0  0  0  0  0  0  0  0  0  0  0  0
  148.0256  135.7850  158.9639 C   0  0  0  0  0  0  0  0  0  0  0  0
  147.5550  135.2322  160.0743 N   0  0  0  0  0  0  0  0  0  0  0  0
  147.9164  136.2015  160.9639 C   0  0  0  0  0  0  0  0  0  0  0  0
  147.5327  136.0533  162.7369 S   0  0  2  0  0  0  0  0  0  0  0  0
  145.7475  135.6115  162.4976 C   0  0  0  0  0  0  0  0  0  0  0  0
  147.5698  137.4769  163.2964 O   0  0  0  0  0  0  0  0  0  0  0  0
  148.5491  137.2656  160.4736 N   0  0  0  0  0  0  0  0  0  0  0  0
  151.4559  141.2642  158.2341 C   0  0  0  0  0  0  0  0  0  0  0  0
  152.2519  141.1521  159.3720 C   0  0  0  0  0  0  0  0  0  0  0  0
  152.4920  142.3302  160.1145 C   0  0  0  0  0  0  0  0  0  0  0  0
  153.3528  142.2363  161.3628 C   0  0  0  0  0  0  0  0  0  0  0  0
  151.7372  145.7061  160.0604 H   0  0  0  0  0  0  0  0  0  0  0  0
  153.2793  145.0306  160.5778 H   0  0  0  0  0  0  0  0  0  0  0  0
  151.8149  144.7319  161.5266 H   0  0  0  0  0  0  0  0  0  0  0  0
  150.7135  144.6140  158.2392 H   0  0  0  0  0  0  0  0  0  0  0  0
  149.7657  140.4728  155.5036 H   0  0  0  0  0  0  0  0  0  0  0  0
  151.1665  138.4465  156.4454 H   0  0  0  0  0  0  0  0  0  0  0  0
  152.4954  138.8588  157.4959 H   0  0  0  0  0  0  0  0  0  0  0  0
  150.7294  138.8127  159.4385 H   0  0  0  0  0  0  0  0  0  0  0  0
  152.1009  136.8870  158.2436 H   0  0  0  0  0  0  0  0  0  0  0  0
  148.6457  138.8037  158.1965 H   0  0  0  0  0  0  0  0  0  0  0  0
  149.1463  137.4542  157.2027 H   0  0  0  0  0  0  0  0  0  0  0  0
  147.9389  135.3187  157.9934 H   0  0  0  0  0  0  0  0  0  0  0  0
  145.6065  135.0389  161.5807 H   0  0  0  0  0  0  0  0  0  0  0  0
  145.1403  136.5147  162.4398 H   0  0  0  0  0  0  0  0  0  0  0  0
  145.3957  135.0103  163.3356 H   0  0  0  0  0  0  0  0  0  0  0  0
  152.6651  140.2046  159.6847 H   0  0  0  0  0  0  0  0  0  0  0  0
  153.6788  141.2121  161.5471 H   0  0  0  0  0  0  0  0  0  0  0  0
  152.7957  142.5702  162.2384 H   0  0  0  0  0  0  0  0  0  0  0  0
  154.2437  142.8564  161.2608 H   0  0  0  0  0  0  0  0  0  0  0  0
  149.6516  142.9560  156.1465 H   0  0  0  0  0  0  0  0  0  0  0  0
  1  2  1  0  0  0  0
  1 24  1  0  0  0  0
  1 25  1  0  0  0  0
  1 26  1  0  0  0  0
  2 22  1  0  0  0  0
  2  3  2  0  0  0  0
  3  4  1  0  0  0  0
  3 27  1  0  0  0  0
  4 20  2  0  0  0  0
  4  5  1  0  0  0  0
  5  6  2  0  0  0  0
  5 43  1  0  0  0  0
  6  7  1  0  0  0  0
  6 28  1  0  0  0  0
  7  8  1  0  0  0  0
  7 20  1  0  0  0  0
  8  9  1  0  0  0  0
  8 29  1  0  0  0  0
  8 30  1  0  0  0  0
  9 10  1  0  0  0  0
  9 11  1  0  0  0  0
  9 31  1  0  0  0  0
 10 32  1  0  0  0  0
 11 12  1  0  0  0  0
 11 33  1  0  0  0  0
 11 34  1  0  0  0  0
 12 19  1  0  0  0  0
 12 13  1  0  0  0  0
 13 14  2  0  0  0  0
 13 35  1  0  0  0  0
 14 15  1  0  0  0  0
 15 16  1  0  0  0  0
 15 19  2  0  0  0  0
 16 17  1  0  0  0  0
 16 18  2  0  0  0  0
 17 36  1  0  0  0  0
 17 37  1  0  0  0  0
 17 38  1  0  0  0  0
 20 21  1  0  0  0  0
 21 22  2  0  0  0  0
 21 39  1  0  0  0  0
 22 23  1  0  0  0  0
 23 40  1  0  0  0  0
 23 41  1  0  0  0  0
 23 42  1  0  0  0  0
M  CHG  1   5   1
M  END
> <s_m_source_file>
AV-unprocessed.smi

> <i_m_source_file_index>
2845

> <i_lp_mmshare_version>
43012

> <i_f3d_flags>
0

> <s_epik_input>
W0NIM11jKFtjSF0xKWMoW0NIM10pW2NIXWMoYzEyKW4oW2NIXW4yKVtDSDJdW0NASF0oW09IXSlbQ0gyXW4zW2NIXW5jKG4zKVtTQF0oPU8pW0NIM10=

> <s_epik_cmdline>
J2VwaWtfcHl0aG9uJywgJy1waCcsICc3LjAnLCAnLXRuJywgJzgnLCAnLW1hJywgJzIwMCcsICctbWV0YWxfYmluZGluZycsICctaW1hZScsICc8aW5maWxlLm1hZT4nLCAnLW9tYWUnLCAnPG91dGZpbGUubWFlPic=

> <r_lp_tautomer_probability>
1

> <r_epik_Ionization_Penalty>
1.12076

> <r_epik_Ionization_Penalty_Charging>
1.12075

> <r_epik_Ionization_Penalty_Neutral>
1.54566e-06

> <r_epik_State_Penalty>
1.17957

> <r_epik_Charging_Adjusted_Penalty>
2.30033

> <i_epik_Tot_Q>
1

> <i_epik_Tot_abs_Q>
1

> <r_epik_Metal_State_Penalty>
1.26402

> <b_epik_Metal_Only>
0

> <s_lp_Force_Field>
OPLS_2005

> <r_lp_Energy>
14.9183

> <b_lp_Chiralities_Consistent>
1

> <s_lp_Variant>
AV-unprocessed.smi:2845-7

> <Gold.Version>
5.8.1

> <Gold.Id.Protein>
6NUR|6NUR_protein|mol2

> <Gold.PLP.Fitness>
58.7215

> <Gold.PLP.PLP>
-48.8809

> <Gold.PLP.part.hbond>
-4.9215

> <Gold.PLP.part.metal>
0.0000

> <Gold.PLP.part.buried>
-8.2389

> <Gold.PLP.part.nonpolar>
-36.9896

> <Gold.PLP.part.repulsive>
0.0713

> <Gold.PLP.ligand.clash>
0.0000

> <Gold.PLP.ligand.torsion>
0.8658

> <Gold.PLP.Chemscore.Hbond>
3.5179

> <Gold.PLP.Chemscore.CHOScore>
0.0000

> <Gold.PLP.Chemscore.Metal>
0.0000

> <Gold.Chemscore.Hbonds>
donor molecule, donor type, donor heavy atom, donor atom, acceptor molecule, acceptor atom, score
      L1  H     5    43       P1  8028  2.00
      P1  H  6896  6908       L1    10  0.77
      P1  H  6931  6943       L1    19  0.67
      P1  H  6934  6947       L1    19  0.22

> <Gold.PLP.Chemscore.Internal.Correction>
1.0183

> <Gold.Rescore>
     Score         DG    S(hbond)    S(metal)    S(lipo)     H(rot)  DE(clash)    DE(int)     intcor
     16.06     -16.91       2.21        0.00      95.21       2.77       0.00       0.84       ----

> <Gold.Chemscore.Fitness>
16.0637

> <Gold.Chemscore.DG>
-16.9060

> <Gold.Chemscore.ZeroCoef>
-5.4800

> <Gold.Chemscore.Hbond>
2.2073

> <Gold.Chemscore.Metal>
0.0000

> <Gold.Chemscore.Lipo>
95.2125

> <Gold.Chemscore.Internal_Hbond>
0.0000

> <Gold.Chemscore.DEClash>
0.0000

> <Gold.Chemscore.DEInternal>
0.8423

> <Gold.Chemscore.Rot>
2.7681

> <Gold.Chemscore.Internal.Correction>
   9.000000E+99

> <Gold.Chemscore.Hbonds>
donor molecule, donor type, donor heavy atom, donor atom, acceptor molecule, acceptor atom, score
      L1  H     5    43       P1  8028  0.97
      P1  H  6896  6908       L1    10  0.28
      P1  H  6931  6943       L1    19  0.41
      P1  H  6934  6947       L1    19  0.10

> <Gold.Chemscore.Hbond.Weighted>
-7.3724

> <Gold.Chemscore.Metal.Weighted>
-0.0000

> <Gold.Chemscore.Lipo.Weighted>
-11.1399

> <Gold.Chemscore.Internal_Hbond.Weighted>
0.0000

> <Gold.Chemscore.DEClash.Weighted>
0.0000

> <Gold.Chemscore.DEInternal.Weighted>
0.8423

> <Gold.Chemscore.Rot.Weighted>
7.0863

> <Gold.Chemscore.Internal.Correction.Weighted>
   9.000000E+99

> <Gold.Protein.RotatedTorsions>
[ 6907 6896 6895 6894 ] final -131.08 input  -60.11 | X-H torsion
[ 7974 7965 7964 7962 ] final  -18.85 input  175.53 | X-H torsion
[ 8008 7997 7996 7995 ] final   84.52 input   59.86 | X-H torsion
[ 10167 10162 10161 10158 ] final  107.64 input  -65.29 | X-H torsion
[ 10718 10713 10712 10709 ] final   14.22 input   66.30 | X-H torsion
[ 10763 10752 10751 10750 ] final   85.38 input  -60.55 | X-H torsion
[ 11005 11000 10999 10996 ] final -157.64 input  -57.11 | X-H torsion

> <Gold.Protein.ActiveResidues>
 VAL166  LYS551  ARG553  GLY616  TRP617  ASP618  TYR619  PRO620  LYS621  CYS622 
 ASP623  PHE694  ASN695  SER759  ASP760  ASP761  ALA762  ILE779  LEU786  VAL792 
 PHE793  MET794  SER795  GLU796  ALA797  LYS798  CYS799  TRP800  GLU811  SER814 

> <Gold.Protein.RotatedAtoms>
  150.9470  133.6592  159.2779 H   0  0  0  0  0  0  0  0  0  0  0  0  # atno 6907 bound_to 6896
  151.3962  135.0962  159.9551 H   0  0  0  0  0  0  0  0  0  0  0  0  # atno 6908 bound_to 6896
  152.5094  133.8973  159.7478 H   0  0  0  0  0  0  0  0  0  0  0  0  # atno 6909 bound_to 6896
  146.1871  140.3979  142.8472 H   0  0  0  0  0  0  0  0  0  0  0  0  # atno 7974 bound_to 7965
  155.9382  140.3410  155.6305 H   0  0  0  0  0  0  0  0  0  0  0  0  # atno 8008 bound_to 7997
  155.7073  140.0767  157.2404 H   0  0  0  0  0  0  0  0  0  0  0  0  # atno 8009 bound_to 7997
  154.4097  140.1629  156.2244 H   0  0  0  0  0  0  0  0  0  0  0  0  # atno 8010 bound_to 7997
  139.6910  144.7107  151.1348 H   0  0  0  0  0  0  0  0  0  0  0  0  # atno 10167 bound_to 10162
  157.0360  130.6212  149.5743 H   0  0  0  0  0  0  0  0  0  0  0  0  # atno 10718 bound_to 10713
  153.1469  135.4619  154.9580 H   0  0  0  0  0  0  0  0  0  0  0  0  # atno 10763 bound_to 10752
  154.7794  135.3183  154.8026 H   0  0  0  0  0  0  0  0  0  0  0  0  # atno 10764 bound_to 10752
  153.8538  135.6919  153.4844 H   0  0  0  0  0  0  0  0  0  0  0  0  # atno 10765 bound_to 10752
  140.6624  134.4335  157.5234 H   0  0  0  0  0  0  0  0  0  0  0  0  # atno 11005 bound_to 11000
  144.8418  140.6868  143.6225 LP  0  0  0  0  0  0  0  0  0  0  0  0  # atno 17320 bound_to 7965
  145.3905  139.1617  143.4232 LP  0  0  0  0  0  0  0  0  0  0  0  0  # atno 17321 bound_to 7965
  140.7682  143.5559  150.9153 LP  0  0  0  0  0  0  0  0  0  0  0  0  # atno 17342 bound_to 10162
  139.9236  143.6576  152.3091 LP  0  0  0  0  0  0  0  0  0  0  0  0  # atno 17343 bound_to 10162
  156.0054  130.5139  150.7810 LP  0  0  0  0  0  0  0  0  0  0  0  0  # atno 17370 bound_to 10713
  157.5141  131.0927  151.0161 LP  0  0  0  0  0  0  0  0  0  0  0  0  # atno 17371 bound_to 10713
  139.9008  134.8559  156.1902 LP  0  0  0  0  0  0  0  0  0  0  0  0  # atno 17394 bound_to 11000
  141.0455  133.6915  156.1676 LP  0  0  0  0  0  0  0  0  0  0  0  0  # atno 17395 bound_to 11000

$$$$
