AV-unprocessed.smi:101|AV-procd|sdf|943|dock6
  -GOLD-   2262017463D 1   1.00000     0.00000
 Structure written by MMmdl.
 43 45  0  0  0  0  0  0  0  0  2 V2000
  151.8432  143.8038  158.3999 C   0  0  0  0  0  0  0  0  0  0  0  0
  151.9483  142.2892  158.4263 C   0  0  0  0  0  0  0  0  0  0  0  0
  151.2883  141.5049  157.5455 C   0  0  0  0  0  0  0  0  0  0  0  0
  151.3836  140.1250  157.5765 N   0  0  0  0  0  0  0  0  0  0  0  0
  150.6240  139.2809  156.5746 C   0  0  2  0  0  0  0  0  0  0  0  0
  150.1103  138.1601  157.2311 O   0  0  0  0  0  0  0  0  0  0  0  0
  150.3028  137.0034  156.4255 C   0  0  2  0  0  0  0  0  0  0  0  0
  150.2805  135.7277  157.2794 C   0  0  0  0  0  0  0  0  0  0  0  0
  149.2628  135.8407  158.2603 O   0  0  0  0  0  0  0  0  0  0  0  0
  148.8460  134.7476  158.9277 C   0  0  0  0  0  0  0  0  0  0  0  0
  149.1614  133.5971  158.6164 O   0  0  0  0  0  0  0  0  0  0  0  0
  147.9609  135.0747  160.0828 C   0  0  0  0  0  0  0  0  0  0  0  0
  147.4964  134.0314  160.9175 C   0  0  0  0  0  0  0  0  0  0  0  0
  146.6603  134.3101  162.0160 C   0  0  0  0  0  0  0  0  0  0  0  0
  146.2786  135.6356  162.2935 C   0  0  0  0  0  0  0  0  0  0  0  0
  146.7339  136.6825  161.4710 C   0  0  0  0  0  0  0  0  0  0  0  0
  147.5702  136.4058  160.3718 C   0  0  0  0  0  0  0  0  0  0  0  0
  151.6163  137.2848  155.6854 C   0  0  2  0  0  0  0  0  0  0  0  0
  152.7321  136.9512  156.4954 O   0  0  0  0  0  0  0  0  0  0  0  0
  151.5095  138.7820  155.4122 C   0  0  2  0  0  0  0  0  0  0  0  0
  152.7683  139.4186  155.2711 O   0  0  0  0  0  0  0  0  0  0  0  0
  152.1748  139.4978  158.5741 C   0  0  0  0  0  0  0  0  0  0  0  0
  152.2038  138.2671  158.6039 O   0  0  0  0  0  0  0  0  0  0  0  0
  152.8529  140.2809  159.4605 N   0  5  0  0  0  0  0  0  0  0  0  0
  152.7881  141.6435  159.4427 C   0  0  0  0  0  0  0  0  0  0  0  0
  153.4078  142.3380  160.2479 O   0  0  0  0  0  0  0  0  0  0  0  0
  151.2005  144.1421  157.5867 H   0  0  0  0  0  0  0  0  0  0  0  0
  152.8273  144.2528  158.2617 H   0  0  0  0  0  0  0  0  0  0  0  0
  151.4245  144.1714  159.3371 H   0  0  0  0  0  0  0  0  0  0  0  0
  150.6638  141.9731  156.7994 H   0  0  0  0  0  0  0  0  0  0  0  0
  149.7808  139.8837  156.2354 H   0  0  0  0  0  0  0  0  0  0  0  0
  149.4974  136.9672  155.6892 H   0  0  0  0  0  0  0  0  0  0  0  0
  150.0666  134.8634  156.6491 H   0  0  0  0  0  0  0  0  0  0  0  0
  151.2509  135.5636  157.7504 H   0  0  0  0  0  0  0  0  0  0  0  0
  147.7761  133.0057  160.7242 H   0  0  0  0  0  0  0  0  0  0  0  0
  146.3117  133.5053  162.6464 H   0  0  0  0  0  0  0  0  0  0  0  0
  145.6374  135.8491  163.1362 H   0  0  0  0  0  0  0  0  0  0  0  0
  146.4418  137.7004  161.6830 H   0  0  0  0  0  0  0  0  0  0  0  0
  147.9026  137.2327  159.7615 H   0  0  0  0  0  0  0  0  0  0  0  0
  151.6880  136.7125  154.7600 H   0  0  0  0  0  0  0  0  0  0  0  0
  153.2914  137.7090  156.5659 H   0  0  0  0  0  0  0  0  0  0  0  0
  150.9421  138.9363  154.4936 H   0  0  0  0  0  0  0  0  0  0  0  0
  153.4361  138.8292  155.5883 H   0  0  0  0  0  0  0  0  0  0  0  0
  1  2  1  0  0  0  0
  1 27  1  0  0  0  0
  1 28  1  0  0  0  0
  1 29  1  0  0  0  0
  2 25  1  0  0  0  0
  2  3  2  0  0  0  0
  3  4  1  0  0  0  0
  3 30  1  0  0  0  0
  4  5  1  0  0  0  0
  4 22  1  0  0  0  0
  5 20  1  0  0  0  0
  5  6  1  0  0  0  0
  5 31  1  0  0  0  0
  6  7  1  0  0  0  0
  7  8  1  0  0  0  0
  7 18  1  0  0  0  0
  7 32  1  0  0  0  0
  8  9  1  0  0  0  0
  8 33  1  0  0  0  0
  8 34  1  0  0  0  0
  9 10  1  0  0  0  0
 10 11  2  0  0  0  0
 10 12  1  0  0  0  0
 12 17  1  0  0  0  0
 12 13  2  0  0  0  0
 13 14  1  0  0  0  0
 13 35  1  0  0  0  0
 14 15  2  0  0  0  0
 14 36  1  0  0  0  0
 15 16  1  0  0  0  0
 15 37  1  0  0  0  0
 16 17  2  0  0  0  0
 16 38  1  0  0  0  0
 17 39  1  0  0  0  0
 18 19  1  0  0  0  0
 18 20  1  0  0  0  0
 18 40  1  0  0  0  0
 19 41  1  0  0  0  0
 20 21  1  0  0  0  0
 20 42  1  0  0  0  0
 21 43  1  0  0  0  0
 22 23  2  0  0  0  0
 22 24  1  0  0  0  0
 24 25  1  0  0  0  0
 25 26  2  0  0  0  0
M  CHG  1  24  -1
M  END
> <s_m_source_file>
AV-unprocessed.smi

> <i_m_source_file_index>
101

> <i_lp_mmshare_version>
43012

> <i_f3d_flags>
0

> <s_epik_input>
Tz1jMVtuSF1jKD1PKW4oW2NIXWMxW0NIM10pW0NAQEhdMk9bQ0BIXShbQ0BASF0oW09IXSlbQ0BIXTJbT0hdKVtDSDJdT0MoPU8pYzNbY0hdW2NIXVtjSF1bY0hdW2NIXTM=

> <s_epik_cmdline>
J2VwaWtfcHl0aG9uJywgJy1waCcsICc3LjAnLCAnLXRuJywgJzgnLCAnLW1hJywgJzIwMCcsICctbWV0YWxfYmluZGluZycsICctaW1hZScsICc8aW5maWxlLm1hZT4nLCAnLW9tYWUnLCAnPG91dGZpbGUubWFlPic=

> <r_lp_tautomer_probability>
0.999537

> <r_epik_Ionization_Penalty>
3.21006

> <r_epik_Ionization_Penalty_Charging>
5.75142e-08

> <r_epik_Ionization_Penalty_Neutral>
3.21006

> <r_epik_State_Penalty>
3.20925

> <r_epik_Charging_Adjusted_Penalty>
3.20925

> <i_epik_Tot_Q>
-1

> <i_epik_Tot_abs_Q>
1

> <r_epik_Metal_State_Penalty>
0.119957

> <b_epik_Metal_Only>
1

> <s_epik_Chemistry_Notes>
This compound has an ester and may undergo hydrolysis at high or low pH. This compound contains an acetal/aminal-like group ( X-CH(R)-Y where X, Y are N, S, or O) that may be acid/base labile, releasing an aldehyde.

> <s_lp_Force_Field>
OPLS_2005

> <r_lp_Energy>
51.0672

> <b_lp_Chiralities_Consistent>
1

> <s_lp_Variant>
AV-unprocessed.smi:101-31

> <Gold.Version>
5.8.1

> <Gold.Id.Protein>
6NUR|6NUR_protein|mol2

> <Gold.PLP.Fitness>
45.1311

> <Gold.PLP.PLP>
-40.3506

> <Gold.PLP.part.hbond>
-2.9221

> <Gold.PLP.part.metal>
0.0000

> <Gold.PLP.part.buried>
-5.3173

> <Gold.PLP.part.nonpolar>
-32.8621

> <Gold.PLP.part.repulsive>
0.0000

> <Gold.PLP.ligand.clash>
0.0000

> <Gold.PLP.ligand.torsion>
0.9300

> <Gold.PLP.Chemscore.Hbond>
2.2059

> <Gold.PLP.Chemscore.CHOScore>
0.0000

> <Gold.PLP.Chemscore.Metal>
0.0000

> <Gold.Chemscore.Hbonds>
donor molecule, donor type, donor heavy atom, donor atom, acceptor molecule, acceptor atom, score
      P1  H  6896  6909       L1    11  0.70
      P1  H 10752 10764       L1    19  0.17

> <Gold.PLP.Chemscore.Internal.Correction>
0.0229

> <Gold.Rescore>
     Score         DG    S(hbond)    S(metal)    S(lipo)     H(rot)  DE(clash)    DE(int)     intcor
      9.12     -13.67       1.78        0.00      90.72       3.27       0.21       4.33       ----

> <Gold.Chemscore.Fitness>
9.1243

> <Gold.Chemscore.DG>
-13.6698

> <Gold.Chemscore.ZeroCoef>
-5.4800

> <Gold.Chemscore.Hbond>
1.7769

> <Gold.Chemscore.Metal>
0.0000

> <Gold.Chemscore.Lipo>
90.7244

> <Gold.Chemscore.Internal_Hbond>
0.0000

> <Gold.Chemscore.DEClash>
0.2127

> <Gold.Chemscore.DEInternal>
4.3328

> <Gold.Chemscore.Rot>
3.2656

> <Gold.Chemscore.Internal.Correction>
   9.000000E+99

> <Gold.Chemscore.Hbonds>
donor molecule, donor type, donor heavy atom, donor atom, acceptor molecule, acceptor atom, score
      P1  H  6896  6909       L1    11  0.07

> <Gold.Chemscore.Hbond.Weighted>
-5.9349

> <Gold.Chemscore.Metal.Weighted>
-0.0000

> <Gold.Chemscore.Lipo.Weighted>
-10.6148

> <Gold.Chemscore.Internal_Hbond.Weighted>
0.0000

> <Gold.Chemscore.DEClash.Weighted>
0.2127

> <Gold.Chemscore.DEInternal.Weighted>
4.3328

> <Gold.Chemscore.Rot.Weighted>
8.3598

> <Gold.Chemscore.Internal.Correction.Weighted>
   9.000000E+99

> <Gold.Protein.RotatedTorsions>
[ 6907 6896 6895 6894 ] final   -4.93 input  -60.11 | X-H torsion
[ 7974 7965 7964 7962 ] final -129.32 input  175.53 | X-H torsion
[ 8008 7997 7996 7995 ] final  -19.01 input   59.86 | X-H torsion
[ 10167 10162 10161 10158 ] final  -22.08 input  -65.29 | X-H torsion
[ 10718 10713 10712 10709 ] final   -6.58 input   66.30 | X-H torsion
[ 10763 10752 10751 10750 ] final  -33.50 input  -60.55 | X-H torsion
[ 11005 11000 10999 10996 ] final  -72.28 input  -57.11 | X-H torsion

> <Gold.Protein.ActiveResidues>
 VAL166  LYS551  ARG553  GLY616  TRP617  ASP618  TYR619  PRO620  LYS621  CYS622 
 ASP623  PHE694  ASN695  SER759  ASP760  ASP761  ALA762  ILE779  LEU786  VAL792 
 PHE793  MET794  SER795  GLU796  ALA797  LYS798  CYS799  TRP800  GLU811  SER814 

> <Gold.Protein.RotatedAtoms>
  151.4898  135.1057  159.9800 H   0  0  0  0  0  0  0  0  0  0  0  0  # atno 6907 bound_to 6896
  152.4745  133.8103  159.7010 H   0  0  0  0  0  0  0  0  0  0  0  0  # atno 6908 bound_to 6896
  150.8775  133.7356  159.2968 H   0  0  0  0  0  0  0  0  0  0  0  0  # atno 6909 bound_to 6896
  144.9583  140.7419  143.4745 H   0  0  0  0  0  0  0  0  0  0  0  0  # atno 7974 bound_to 7965
  154.4866  140.2100  155.9641 H   0  0  0  0  0  0  0  0  0  0  0  0  # atno 8008 bound_to 7997
  156.1245  140.3207  155.8226 H   0  0  0  0  0  0  0  0  0  0  0  0  # atno 8009 bound_to 7997
  155.4408  140.0510  157.3001 H   0  0  0  0  0  0  0  0  0  0  0  0  # atno 8010 bound_to 7997
  140.7284  143.4567  151.0437 H   0  0  0  0  0  0  0  0  0  0  0  0  # atno 10167 bound_to 10162
  156.7297  130.5176  149.5848 H   0  0  0  0  0  0  0  0  0  0  0  0  # atno 10718 bound_to 10713
  153.8313  135.6866  153.4814 H   0  0  0  0  0  0  0  0  0  0  0  0  # atno 10763 bound_to 10752
  153.1509  135.4618  154.9634 H   0  0  0  0  0  0  0  0  0  0  0  0  # atno 10764 bound_to 10752
  154.7885  135.3293  154.7776 H   0  0  0  0  0  0  0  0  0  0  0  0  # atno 10765 bound_to 10752
  141.1606  133.6842  156.7034 H   0  0  0  0  0  0  0  0  0  0  0  0  # atno 11005 bound_to 11000
  145.2738  139.1944  143.4827 LP  0  0  0  0  0  0  0  0  0  0  0  0  # atno 17320 bound_to 7965
  146.3344  140.2689  142.8605 LP  0  0  0  0  0  0  0  0  0  0  0  0  # atno 17321 bound_to 7965
  139.8249  143.7770  152.3178 LP  0  0  0  0  0  0  0  0  0  0  0  0  # atno 17342 bound_to 10162
  139.7865  144.7426  151.0014 LP  0  0  0  0  0  0  0  0  0  0  0  0  # atno 17343 bound_to 10162
  156.1537  130.6327  151.0629 LP  0  0  0  0  0  0  0  0  0  0  0  0  # atno 17370 bound_to 10713
  157.6864  131.0823  150.7231 LP  0  0  0  0  0  0  0  0  0  0  0  0  # atno 17371 bound_to 10713
  140.2941  134.8216  157.4042 LP  0  0  0  0  0  0  0  0  0  0  0  0  # atno 17394 bound_to 11000
  140.1320  134.5083  155.8098 LP  0  0  0  0  0  0  0  0  0  0  0  0  # atno 17395 bound_to 11000

$$$$
