AV-unprocessed.smi:1621|AV-procd|sdf|6496|dock2
  -GOLD-   22720 7153D 1   1.00000     0.00000
 Structure written by MMmdl.
 40 41  0  0  0  0  0  0  0  0  3 V2000
  144.7457  139.0563  155.5804 C   0  0  0  0  0  0  0  0  0  0  0  0
  145.4760  139.9562  154.6620 N   0  3  2  0  0  0  0  0  0  0  0  0
  146.4627  139.2296  153.8248 C   0  0  0  0  0  0  0  0  0  0  0  0
  147.1296  140.1723  152.8053 C   0  0  0  0  0  0  0  0  0  0  0  0
  147.7838  141.3942  153.4796 C   0  0  2  0  0  0  0  0  0  0  0  0
  149.0945  141.0205  154.2116 C   0  0  0  0  0  0  0  0  0  0  0  0
  149.4956  142.0312  155.1867 N   0  0  0  0  0  0  0  0  0  0  0  0
  150.3378  141.8347  156.2117 C   0  0  0  0  0  0  0  0  0  0  0  0
  150.8730  140.7524  156.4496 O   0  0  0  0  0  0  0  0  0  0  0  0
  150.5111  142.9645  156.9202 N   0  0  0  0  0  0  0  0  0  0  0  0
  151.2999  143.1867  158.0835 C   0  0  0  0  0  0  0  0  0  0  0  0
  151.3158  144.4972  158.6114 C   0  0  0  0  0  0  0  0  0  0  0  0
  152.0686  144.7738  159.7707 C   0  0  0  0  0  0  0  0  0  0  0  0
  152.7640  143.7852  160.3719 N   0  3  0  0  0  0  0  0  0  0  0  0
  152.7737  142.5162  159.9115 C   0  0  0  0  0  0  0  0  0  0  0  0
  152.0386  142.1790  158.7566 C   0  0  0  0  0  0  0  0  0  0  0  0
  146.7302  142.0882  154.3694 C   0  0  0  0  0  0  0  0  0  0  0  0
  146.0830  141.1119  155.3673 C   0  0  0  0  0  0  0  0  0  0  0  0
  145.4246  138.5974  156.3005 H   0  0  0  0  0  0  0  0  0  0  0  0
  144.2468  138.2615  155.0249 H   0  0  0  0  0  0  0  0  0  0  0  0
  143.9817  139.6053  156.1318 H   0  0  0  0  0  0  0  0  0  0  0  0
  147.2134  138.7622  154.4636 H   0  0  0  0  0  0  0  0  0  0  0  0
  145.9594  138.4215  153.2925 H   0  0  0  0  0  0  0  0  0  0  0  0
  147.8658  139.6248  152.2159 H   0  0  0  0  0  0  0  0  0  0  0  0
  146.3746  140.5168  152.0971 H   0  0  0  0  0  0  0  0  0  0  0  0
  148.0566  142.0939  152.6880 H   0  0  0  0  0  0  0  0  0  0  0  0
  149.0203  140.0381  154.6790 H   0  0  0  0  0  0  0  0  0  0  0  0
  149.9034  140.9403  153.4847 H   0  0  0  0  0  0  0  0  0  0  0  0
  149.1049  142.9545  155.0643 H   0  0  0  0  0  0  0  0  0  0  0  0
  150.0415  143.7822  156.5596 H   0  0  0  0  0  0  0  0  0  0  0  0
  150.7582  145.2893  158.1323 H   0  0  0  0  0  0  0  0  0  0  0  0
  152.1330  145.7484  160.2323 H   0  0  0  0  0  0  0  0  0  0  0  0
  153.3615  141.8103  160.4800 H   0  0  0  0  0  0  0  0  0  0  0  0
  152.0531  141.1535  158.4233 H   0  0  0  0  0  0  0  0  0  0  0  0
  147.1596  142.9384  154.8984 H   0  0  0  0  0  0  0  0  0  0  0  0
  145.9492  142.5058  153.7323 H   0  0  0  0  0  0  0  0  0  0  0  0
  145.3130  141.6348  155.9359 H   0  0  0  0  0  0  0  0  0  0  0  0
  146.8189  140.7569  156.0897 H   0  0  0  0  0  0  0  0  0  0  0  0
  144.7877  140.3374  154.0283 H   0  0  0  0  0  0  0  0  0  0  0  0
  153.3012  144.0052  161.2112 H   0  0  0  0  0  0  0  0  0  0  0  0
  1  2  1  0  0  0  0
  1 19  1  0  0  0  0
  1 20  1  0  0  0  0
  1 21  1  0  0  0  0
  2 18  1  0  0  0  0
  2  3  1  0  0  0  0
  2 39  1  0  0  0  0
  3  4  1  0  0  0  0
  3 22  1  0  0  0  0
  3 23  1  0  0  0  0
  4  5  1  0  0  0  0
  4 24  1  0  0  0  0
  4 25  1  0  0  0  0
  5  6  1  0  0  0  0
  5 17  1  0  0  0  0
  5 26  1  0  0  0  0
  6  7  1  0  0  0  0
  6 27  1  0  0  0  0
  6 28  1  0  0  0  0
  7  8  1  0  0  0  0
  7 29  1  0  0  0  0
  8  9  2  0  0  0  0
  8 10  1  0  0  0  0
 10 11  1  0  0  0  0
 10 30  1  0  0  0  0
 11 16  1  0  0  0  0
 11 12  2  0  0  0  0
 12 13  1  0  0  0  0
 12 31  1  0  0  0  0
 13 14  2  0  0  0  0
 13 32  1  0  0  0  0
 14 15  1  0  0  0  0
 14 40  1  0  0  0  0
 15 16  2  0  0  0  0
 15 33  1  0  0  0  0
 16 34  1  0  0  0  0
 17 18  1  0  0  0  0
 17 35  1  0  0  0  0
 17 36  1  0  0  0  0
 18 37  1  0  0  0  0
 18 38  1  0  0  0  0
M  CHG  1   2   1
M  CHG  1  14   1
M  END
> <s_m_source_file>
AV-unprocessed.smi

> <i_m_source_file_index>
1621

> <i_lp_mmshare_version>
43012

> <i_f3d_flags>
0

> <s_epik_input>
W0NIM11OMVtDSDJdW0NIMl1bQ0hdKFtDSDJdW0NIMl0xKVtDSDJdW05IXUMoPU8pW05IXWMyW2NIXVtjSF1uW2NIXVtjSF0y

> <s_epik_cmdline>
J2VwaWtfcHl0aG9uJywgJy1waCcsICc3LjAnLCAnLXRuJywgJzgnLCAnLW1hJywgJzIwMCcsICctbWV0YWxfYmluZGluZycsICctaW1hZScsICc8aW5maWxlLm1hZT4nLCAnLW9tYWUnLCAnPG91dGZpbGUubWFlPic=

> <r_epik_Ionization_Penalty>
1.07214

> <r_epik_Ionization_Penalty_Charging>
1.07212

> <r_epik_Ionization_Penalty_Neutral>
1.90829e-05

> <r_epik_State_Penalty>
1.12559

> <r_epik_Charging_Adjusted_Penalty>
2.1977

> <i_epik_Tot_Q>
2

> <i_epik_Tot_abs_Q>
2

> <r_epik_Metal_State_Penalty>
1.21693

> <b_epik_Metal_Only>
0

> <s_lp_Force_Field>
OPLS_2005

> <r_lp_Energy>
29.8708

> <b_lp_Chiralities_Consistent>
1

> <s_lp_Variant>
AV-unprocessed.smi:1621-4

> <Gold.Version>
5.8.1

> <Gold.Id.Protein>
6NUR|6NUR_protein|mol2

> <Gold.PLP.Fitness>
48.3736

> <Gold.PLP.PLP>
-37.0353

> <Gold.PLP.part.hbond>
-3.0000

> <Gold.PLP.part.metal>
0.0000

> <Gold.PLP.part.buried>
-2.9610

> <Gold.PLP.part.nonpolar>
-31.2068

> <Gold.PLP.part.repulsive>
0.2745

> <Gold.PLP.ligand.clash>
0.0000

> <Gold.PLP.ligand.torsion>
0.3342

> <Gold.PLP.Chemscore.Hbond>
4.0000

> <Gold.PLP.Chemscore.CHOScore>
0.0000

> <Gold.PLP.Chemscore.Metal>
0.0000

> <Gold.Chemscore.Hbonds>
donor molecule, donor type, donor heavy atom, donor atom, acceptor molecule, acceptor atom, score
      L1  H     2    39       P1 10175  2.00
      L1  H     7    29       P1  8028  1.00
      L1  H    10    30       P1  8028  1.00

> <Gold.PLP.Chemscore.Internal.Correction>
0.0067

> <Gold.Rescore>
     Score         DG    S(hbond)    S(metal)    S(lipo)     H(rot)  DE(clash)    DE(int)     intcor
     21.68     -23.31       2.96        0.00      95.48       1.26       0.27       1.35       ----

> <Gold.Chemscore.Fitness>
21.6831

> <Gold.Chemscore.DG>
-23.3094

> <Gold.Chemscore.ZeroCoef>
-5.4800

> <Gold.Chemscore.Hbond>
2.9625

> <Gold.Chemscore.Metal>
0.0000

> <Gold.Chemscore.Lipo>
95.4832

> <Gold.Chemscore.Internal_Hbond>
0.0000

> <Gold.Chemscore.DEClash>
0.2736

> <Gold.Chemscore.DEInternal>
1.3526

> <Gold.Chemscore.Rot>
1.2644

> <Gold.Chemscore.Internal.Correction>
   9.000000E+99

> <Gold.Chemscore.Hbonds>
donor molecule, donor type, donor heavy atom, donor atom, acceptor molecule, acceptor atom, score
      L1  H     2    39       P1 10175  0.99
      L1  H     7    29       P1  8028  0.95
      L1  H    10    30       P1  8028  1.00

> <Gold.Chemscore.Hbond.Weighted>
-9.8947

> <Gold.Chemscore.Metal.Weighted>
-0.0000

> <Gold.Chemscore.Lipo.Weighted>
-11.1715

> <Gold.Chemscore.Internal_Hbond.Weighted>
0.0000

> <Gold.Chemscore.DEClash.Weighted>
0.2736

> <Gold.Chemscore.DEInternal.Weighted>
1.3526

> <Gold.Chemscore.Rot.Weighted>
3.2368

> <Gold.Chemscore.Internal.Correction.Weighted>
   9.000000E+99

> <Gold.Protein.RotatedTorsions>
[ 6907 6896 6895 6894 ] final  124.95 input  -60.11 | X-H torsion
[ 7974 7965 7964 7962 ] final -134.83 input  175.53 | X-H torsion
[ 8008 7997 7996 7995 ] final -140.61 input   59.86 | X-H torsion
[ 10167 10162 10161 10158 ] final  -80.12 input  -65.29 | X-H torsion
[ 10718 10713 10712 10709 ] final  134.86 input   66.30 | X-H torsion
[ 10763 10752 10751 10750 ] final   36.95 input  -60.55 | X-H torsion
[ 11005 11000 10999 10996 ] final -167.09 input  -57.11 | X-H torsion

> <Gold.Protein.ActiveResidues>
 VAL166  LYS551  ARG553  GLY616  TRP617  ASP618  TYR619  PRO620  LYS621  CYS622 
 ASP623  PHE694  ASN695  SER759  ASP760  ASP761  ALA762  ILE779  LEU786  VAL792 
 PHE793  MET794  SER795  GLU796  ALA797  LYS798  CYS799  TRP800  GLU811  SER814 

> <Gold.Protein.RotatedAtoms>
  152.4034  133.6852  159.6335 H   0  0  0  0  0  0  0  0  0  0  0  0  # atno 6907 bound_to 6896
  150.7922  133.8751  159.3278 H   0  0  0  0  0  0  0  0  0  0  0  0  # atno 6908 bound_to 6896
  151.6512  135.1003  160.0212 H   0  0  0  0  0  0  0  0  0  0  0  0  # atno 6909 bound_to 6896
  144.9067  140.6842  143.5050 H   0  0  0  0  0  0  0  0  0  0  0  0  # atno 7974 bound_to 7965
  155.4642  140.0548  157.2987 H   0  0  0  0  0  0  0  0  0  0  0  0  # atno 8008 bound_to 7997
  154.4725  140.2046  155.9914 H   0  0  0  0  0  0  0  0  0  0  0  0  # atno 8009 bound_to 7997
  156.1079  140.3209  155.8036 H   0  0  0  0  0  0  0  0  0  0  0  0  # atno 8010 bound_to 7997
  140.4532  143.2476  151.8458 H   0  0  0  0  0  0  0  0  0  0  0  0  # atno 10167 bound_to 10162
  157.4629  131.1075  150.9898 H   0  0  0  0  0  0  0  0  0  0  0  0  # atno 10718 bound_to 10713
  153.0056  135.6291  154.2067 H   0  0  0  0  0  0  0  0  0  0  0  0  # atno 10763 bound_to 10752
  154.1810  135.2813  155.3054 H   0  0  0  0  0  0  0  0  0  0  0  0  # atno 10764 bound_to 10752
  154.5834  135.5640  153.7268 H   0  0  0  0  0  0  0  0  0  0  0  0  # atno 10765 bound_to 10752
  140.5571  134.5370  157.5135 H   0  0  0  0  0  0  0  0  0  0  0  0  # atno 11005 bound_to 11000
  145.3523  139.1703  143.4428 LP  0  0  0  0  0  0  0  0  0  0  0  0  # atno 17320 bound_to 7965
  146.3137  140.3576  142.8662 LP  0  0  0  0  0  0  0  0  0  0  0  0  # atno 17321 bound_to 7965
  139.4798  144.5096  151.8951 LP  0  0  0  0  0  0  0  0  0  0  0  0  # atno 17342 bound_to 10162
  140.4182  144.2278  150.5887 LP  0  0  0  0  0  0  0  0  0  0  0  0  # atno 17343 bound_to 10162
  157.0689  130.5856  149.5399 LP  0  0  0  0  0  0  0  0  0  0  0  0  # atno 17370 bound_to 10713
  156.0037  130.5120  150.7754 LP  0  0  0  0  0  0  0  0  0  0  0  0  # atno 17371 bound_to 10713
  139.9426  134.7759  156.0640 LP  0  0  0  0  0  0  0  0  0  0  0  0  # atno 17394 bound_to 11000
  141.1137  133.6635  156.3041 LP  0  0  0  0  0  0  0  0  0  0  0  0  # atno 17395 bound_to 11000

$$$$
