AV-unprocessed.smi:1764|AV-procd|sdf|7133|dock6
  -GOLD-   22720 8373D 1   1.00000     0.00000
 Structure written by MMmdl.
 31 32  0  0  0  0  0  0  0  0  1 V2000
  150.7363  140.7368  156.6813 O   0  0  0  0  0  0  0  0  0  0  0  0
  150.3062  141.8773  156.5065 C   0  0  0  0  0  0  0  0  0  0  0  0
  149.5044  142.2180  155.4873 N   0  0  0  0  0  0  0  0  0  0  0  0
  149.0306  141.3130  154.4447 C   0  0  0  0  0  0  0  0  0  0  0  0
  147.5199  141.4667  154.2000 C   0  0  1  0  0  0  0  0  0  0  0  0
  146.6315  141.1687  155.4084 C   0  0  0  0  0  0  0  0  0  0  0  0
  145.3863  141.9541  155.0681 C   0  0  0  0  0  0  0  0  0  0  0  0
  145.9742  143.2087  154.4282 C   0  0  0  0  0  0  0  0  0  0  0  0
  147.2137  142.8123  153.8452 O   0  0  0  0  0  0  0  0  0  0  0  0
  150.5736  142.9377  157.2892 N   0  0  0  0  0  0  0  0  0  0  0  0
  151.3645  142.9820  158.4683 C   0  0  0  0  0  0  0  0  0  0  0  0
  151.4702  144.2562  159.0705 C   0  0  0  0  0  0  0  0  0  0  0  0
  152.2299  144.4060  160.2468 C   0  0  0  0  0  0  0  0  0  0  0  0
  152.8646  143.2760  160.7923 C   0  0  0  0  0  0  0  0  0  0  0  0
  152.7088  142.0440  160.1307 C   0  0  0  0  0  0  0  0  0  0  0  0
  151.9817  141.8984  159.0028 N   0  0  0  0  0  0  0  0  0  0  0  0
  149.2015  143.1787  155.4220 H   0  0  0  0  0  0  0  0  0  0  0  0
  149.5852  141.4548  153.5155 H   0  0  0  0  0  0  0  0  0  0  0  0
  149.2422  140.2945  154.7704 H   0  0  0  0  0  0  0  0  0  0  0  0
  147.2123  140.8340  153.3656 H   0  0  0  0  0  0  0  0  0  0  0  0
  146.4415  140.1040  155.5480 H   0  0  0  0  0  0  0  0  0  0  0  0
  147.0799  141.5601  156.3228 H   0  0  0  0  0  0  0  0  0  0  0  0
  144.7860  141.4057  154.3409 H   0  0  0  0  0  0  0  0  0  0  0  0
  144.7619  142.1699  155.9354 H   0  0  0  0  0  0  0  0  0  0  0  0
  145.3064  143.6454  153.6854 H   0  0  0  0  0  0  0  0  0  0  0  0
  146.1761  143.9650  155.1876 H   0  0  0  0  0  0  0  0  0  0  0  0
  150.1596  143.8151  157.0116 H   0  0  0  0  0  0  0  0  0  0  0  0
  150.9755  145.1142  158.6386 H   0  0  0  0  0  0  0  0  0  0  0  0
  152.3230  145.3716  160.7215 H   0  0  0  0  0  0  0  0  0  0  0  0
  153.4550  143.3512  161.6934 H   0  0  0  0  0  0  0  0  0  0  0  0
  153.1789  141.1520  160.5173 H   0  0  0  0  0  0  0  0  0  0  0  0
  1  2  2  0  0  0  0
  2  3  1  0  0  0  0
  2 10  1  0  0  0  0
  3  4  1  0  0  0  0
  3 17  1  0  0  0  0
  4  5  1  0  0  0  0
  4 18  1  0  0  0  0
  4 19  1  0  0  0  0
  5  9  1  0  0  0  0
  5  6  1  0  0  0  0
  5 20  1  0  0  0  0
  6  7  1  0  0  0  0
  6 21  1  0  0  0  0
  6 22  1  0  0  0  0
  7  8  1  0  0  0  0
  7 23  1  0  0  0  0
  7 24  1  0  0  0  0
  8  9  1  0  0  0  0
  8 25  1  0  0  0  0
  8 26  1  0  0  0  0
 10 11  1  0  0  0  0
 10 27  1  0  0  0  0
 11 16  1  0  0  0  0
 11 12  2  0  0  0  0
 12 13  1  0  0  0  0
 12 28  1  0  0  0  0
 13 14  2  0  0  0  0
 13 29  1  0  0  0  0
 14 15  1  0  0  0  0
 14 30  1  0  0  0  0
 15 16  2  0  0  0  0
 15 31  1  0  0  0  0
M  END
> <s_m_source_file>
AV-unprocessed.smi

> <i_m_source_file_index>
1764

> <i_lp_mmshare_version>
43012

> <i_f3d_flags>
0

> <s_epik_input>
bjFbY0hdW2NIXVtjSF1bY0hdYzFbTkhdQyg9TylbTkhdW0NIMl1bQ0BASF0yW0NIMl1bQ0gyXVtDSDJdTzI=

> <s_epik_cmdline>
J2VwaWtfcHl0aG9uJywgJy1waCcsICc3LjAnLCAnLXRuJywgJzgnLCAnLW1hJywgJzIwMCcsICctbWV0YWxfYmluZGluZycsICctaW1hZScsICc8aW5maWxlLm1hZT4nLCAnLW9tYWUnLCAnPG91dGZpbGUubWFlPic=

> <r_lp_tautomer_probability>
1

> <r_epik_Ionization_Penalty>
4.47751e-05

> <r_epik_Ionization_Penalty_Charging>
0

> <r_epik_Ionization_Penalty_Neutral>
4.47751e-05

> <r_epik_State_Penalty>
-0

> <r_epik_Charging_Adjusted_Penalty>
0

> <i_epik_Tot_Q>
0

> <i_epik_Tot_abs_Q>
0

> <r_epik_Metal_State_Penalty>
-0

> <b_epik_Metal_Only>
0

> <s_lp_Force_Field>
OPLS_2005

> <r_lp_Energy>
18.9713

> <b_lp_Chiralities_Consistent>
1

> <s_lp_Variant>
AV-unprocessed.smi:1764-2

> <Gold.Version>
5.8.1

> <Gold.Id.Protein>
6NUR|6NUR_protein|mol2

> <Gold.PLP.Fitness>
40.0529

> <Gold.PLP.PLP>
-34.0047

> <Gold.PLP.part.hbond>
-3.1836

> <Gold.PLP.part.metal>
0.0000

> <Gold.PLP.part.buried>
-3.5657

> <Gold.PLP.part.nonpolar>
-28.7674

> <Gold.PLP.part.repulsive>
0.9970

> <Gold.PLP.ligand.clash>
0.0000

> <Gold.PLP.ligand.torsion>
0.0778

> <Gold.PLP.Chemscore.Hbond>
2.0676

> <Gold.PLP.Chemscore.CHOScore>
0.0000

> <Gold.PLP.Chemscore.Metal>
0.0000

> <Gold.Chemscore.Hbonds>
donor molecule, donor type, donor heavy atom, donor atom, acceptor molecule, acceptor atom, score
      L1  H     3    17       P1  8028  1.00
      L1  H    10    27       P1  8028  0.87
      P1  H  8022  8030       L1     9  0.07

> <Gold.PLP.Chemscore.Internal.Correction>
0.0011

> <Gold.Rescore>
     Score         DG    S(hbond)    S(metal)    S(lipo)     H(rot)  DE(clash)    DE(int)     intcor
     15.84     -17.14       1.95        0.00      71.88       1.27       0.01       1.30       ----

> <Gold.Chemscore.Fitness>
15.8353

> <Gold.Chemscore.DG>
-17.1430

> <Gold.Chemscore.ZeroCoef>
-5.4800

> <Gold.Chemscore.Hbond>
1.9456

> <Gold.Chemscore.Metal>
0.0000

> <Gold.Chemscore.Lipo>
71.8826

> <Gold.Chemscore.Internal_Hbond>
0.0000

> <Gold.Chemscore.DEClash>
0.0060

> <Gold.Chemscore.DEInternal>
1.3017

> <Gold.Chemscore.Rot>
1.2678

> <Gold.Chemscore.Internal.Correction>
   9.000000E+99

> <Gold.Chemscore.Hbonds>
donor molecule, donor type, donor heavy atom, donor atom, acceptor molecule, acceptor atom, score
      L1  H     3    17       P1  8028  0.98
      L1  H    10    27       P1  8028  0.79
      P1  H  8022  8030       L1     9  0.06

> <Gold.Chemscore.Hbond.Weighted>
-6.4982

> <Gold.Chemscore.Metal.Weighted>
-0.0000

> <Gold.Chemscore.Lipo.Weighted>
-8.4103

> <Gold.Chemscore.Internal_Hbond.Weighted>
0.0000

> <Gold.Chemscore.DEClash.Weighted>
0.0060

> <Gold.Chemscore.DEInternal.Weighted>
1.3017

> <Gold.Chemscore.Rot.Weighted>
3.2455

> <Gold.Chemscore.Internal.Correction.Weighted>
   9.000000E+99

> <Gold.Protein.RotatedTorsions>
[ 6907 6896 6895 6894 ] final -123.56 input  -60.11 | X-H torsion
[ 7974 7965 7964 7962 ] final  142.98 input  175.53 | X-H torsion
[ 8008 7997 7996 7995 ] final  172.19 input   59.86 | X-H torsion
[ 10167 10162 10161 10158 ] final  -92.02 input  -65.29 | X-H torsion
[ 10718 10713 10712 10709 ] final -116.16 input   66.30 | X-H torsion
[ 10763 10752 10751 10750 ] final -159.40 input  -60.55 | X-H torsion
[ 11005 11000 10999 10996 ] final  -62.91 input  -57.11 | X-H torsion

> <Gold.Protein.ActiveResidues>
 VAL166  LYS551  ARG553  GLY616  TRP617  ASP618  TYR619  PRO620  LYS621  CYS622 
 ASP623  PHE694  ASN695  SER759  ASP760  ASP761  ALA762  ILE779  LEU786  VAL792 
 PHE793  MET794  SER795  GLU796  ALA797  LYS798  CYS799  TRP800  GLU811  SER814 

> <Gold.Protein.RotatedAtoms>
  150.8683  133.7542  159.2969 H   0  0  0  0  0  0  0  0  0  0  0  0  # atno 6907 bound_to 6896
  151.5162  135.1064  159.9876 H   0  0  0  0  0  0  0  0  0  0  0  0  # atno 6908 bound_to 6896
  152.4677  133.7914  159.6960 H   0  0  0  0  0  0  0  0  0  0  0  0  # atno 6909 bound_to 6896
  144.8960  139.5490  143.5776 H   0  0  0  0  0  0  0  0  0  0  0  0  # atno 7974 bound_to 7965
  156.1198  140.1492  156.9220 H   0  0  0  0  0  0  0  0  0  0  0  0  # atno 8008 bound_to 7997
  154.4827  140.0874  156.7458 H   0  0  0  0  0  0  0  0  0  0  0  0  # atno 8009 bound_to 7997
  155.4448  140.3432  155.4296 H   0  0  0  0  0  0  0  0  0  0  0  0  # atno 8010 bound_to 7997
  140.3390  143.2953  151.9857 H   0  0  0  0  0  0  0  0  0  0  0  0  # atno 10167 bound_to 10162
  156.0944  130.6120  150.9000 H   0  0  0  0  0  0  0  0  0  0  0  0  # atno 10718 bound_to 10713
  154.7478  135.3084  154.8613 H   0  0  0  0  0  0  0  0  0  0  0  0  # atno 10763 bound_to 10752
  153.9409  135.6775  153.4748 H   0  0  0  0  0  0  0  0  0  0  0  0  # atno 10764 bound_to 10752
  153.1074  135.4882  154.8903 H   0  0  0  0  0  0  0  0  0  0  0  0  # atno 10765 bound_to 10752
  141.1375  133.6645  156.5599 H   0  0  0  0  0  0  0  0  0  0  0  0  # atno 11005 bound_to 11000
  146.3081  139.7651  142.9040 LP  0  0  0  0  0  0  0  0  0  0  0  0  # atno 17320 bound_to 7965
  145.3699  141.0341  143.3237 LP  0  0  0  0  0  0  0  0  0  0  0  0  # atno 17321 bound_to 7965
  139.4843  144.6173  151.7323 LP  0  0  0  0  0  0  0  0  0  0  0  0  # atno 17342 bound_to 10162
  140.5327  144.0705  150.6059 LP  0  0  0  0  0  0  0  0  0  0  0  0  # atno 17343 bound_to 10162
  157.6102  131.0937  150.8808 LP  0  0  0  0  0  0  0  0  0  0  0  0  # atno 17370 bound_to 10713
  156.8950  130.5226  149.5285 LP  0  0  0  0  0  0  0  0  0  0  0  0  # atno 17371 bound_to 10713
  140.3996  134.7368  157.4772 LP  0  0  0  0  0  0  0  0  0  0  0  0  # atno 17394 bound_to 11000
  140.0506  134.6137  155.8867 LP  0  0  0  0  0  0  0  0  0  0  0  0  # atno 17395 bound_to 11000

$$$$
