#       Name:                AV-unprocessed.smi:3316
#       Creating user name   scv26
#       Creation time:       Fri Mar 27 19:09:13 2020


#       File generated by GOLD software.
#

@<TRIPOS>MOLECULE
AV-unprocessed.smi:3316
    42    44     1
SMALL
NO_CHARGES


@<TRIPOS>ATOM
      1 ****        -2.8286  -1.6831   2.6678 C.3            1 S1                 0.0000
      2 ****        -2.2448  -0.9088   1.4756 C.3            1 S1                 0.0000
      3 ****        -0.7059  -0.9821   1.4561 C.3            1 S1                 0.0000
      4 ****        -0.1436  -0.3402   0.2503 N.4            1 S1                 1.0000
      5 ****         1.3273  -0.4152   0.1618 C.3            1 S1                 0.0000
      6 ****         1.8467   0.2893  -1.1051 C.3            1 S1                 0.0000
      7 ****         1.4856  -0.4279  -2.4434 C.3            1 S1                 0.0000
      8 ****         2.8589  -0.5815  -3.1371 C.3            1 S1                 0.0000
      9 ****         3.6645  -1.5841  -2.3396 C.2            1 S1                 0.0000
     10 ****         3.9845  -1.0041  -1.1819 C.2            1 S1                 0.0000
     11 ****         3.3923   0.3916  -1.1964 C.3            1 S1                 0.0000
     12 ****         3.5332   0.7191  -2.6878 C.3            1 S1                 0.0000
     13 ****        -2.7537   0.5274   1.4461 C.ar           1 S1                 0.0000
     14 ****        -3.5353   0.9880   0.3653 C.ar           1 S1                 0.0000
     15 ****        -3.9827   2.3245   0.3766 C.ar           1 S1                 0.0000
     16 ****        -3.6983   3.1927   1.3702 N.ar           1 S1                 0.0000
     17 ****        -2.9509   2.7480   2.4027 C.ar           1 S1                 0.0000
     18 ****        -2.4543   1.4319   2.4881 C.ar           1 S1                 0.0000
     19 ****        -3.9187  -1.6772   2.6419 H              1 S1                 0.0000
     20 ****        -2.5156  -1.2544   3.6204 H              1 S1                 0.0000
     21 ****        -2.5071  -2.7248   2.6544 H              1 S1                 0.0000
     22 ****        -2.6048  -1.4043   0.5726 H              1 S1                 0.0000
     23 ****        -0.2883  -0.5071   2.3449 H              1 S1                 0.0000
     24 ****        -0.3884  -2.0256   1.4762 H              1 S1                 0.0000
     25 ****        -0.5361  -0.7875  -0.5658 H              1 S1                 0.0000
     26 ****         1.7556   0.0606   1.0448 H              1 S1                 0.0000
     27 ****         1.6348  -1.4616   0.1791 H              1 S1                 0.0000
     28 ****         1.4404   1.3025  -1.1263 H              1 S1                 0.0000
     29 ****         1.0031  -1.3948  -2.2925 H              1 S1                 0.0000
     30 ****         0.8122   0.1891  -3.0398 H              1 S1                 0.0000
     31 ****         2.8426  -0.7576  -4.2129 H              1 S1                 0.0000
     32 ****         3.8930  -2.5891  -2.6623 H              1 S1                 0.0000
     33 ****         4.5293  -1.4351  -0.3548 H              1 S1                 0.0000
     34 ****         3.8705   1.0999  -0.5194 H              1 S1                 0.0000
     35 ****         4.5735   0.7938  -3.0117 H              1 S1                 0.0000
     36 ****         3.0035   1.6223  -2.9978 H              1 S1                 0.0000
     37 ****        -3.7929   0.3361  -0.4566 H              1 S1                 0.0000
     38 ****        -4.5837   2.7058  -0.4358 H              1 S1                 0.0000
     39 ****        -2.7407   3.4630   3.1843 H              1 S1                 0.0000
     40 ****        -1.8608   1.1301   3.3385 H              1 S1                 0.0000
     41 ****        -0.4171   0.6323   0.2485 H              1 S1                 0.0000
     42 ****        -4.0307   4.1354   1.3424 LP             1 S1                 0.0000
@<TRIPOS>BOND
    1    1    2 1     
    2    1   19 1     
    3    1   20 1     
    4    1   21 1     
    5    2    3 1     
    6    2   13 1     
    7    2   22 1     
    8    3    4 1     
    9    3   23 1     
   10    3   24 1     
   11    4    5 1     
   12    4   25 1     
   13    4   41 1     
   14    5    6 1     
   15    5   26 1     
   16    5   27 1     
   17    6   11 1     
   18    6    7 1     
   19    6   28 1     
   20    7    8 1     
   21    7   29 1     
   22    7   30 1     
   23    8   12 1     
   24    8    9 1     
   25    8   31 1     
   26    9   10 2     
   27    9   32 1     
   28   10   11 1     
   29   10   33 1     
   30   11   12 1     
   31   11   34 1     
   32   12   35 1     
   33   12   36 1     
   34   13   18 ar    
   35   13   14 ar    
   36   14   15 ar    
   37   14   37 1     
   38   15   16 ar    
   39   15   38 1     
   40   16   17 ar    
   41   17   18 ar    
   42   17   39 1     
   43   18   40 1     
   44   16   42 1     
@<TRIPOS>SUBSTRUCTURE
      1 S1             1
@<TRIPOS>SET
LONE_PAIRS      STATIC     ATOMS    <user>   **** ""
1 42
DONOR_HYDROGENS      STATIC     ATOMS    <user>   **** ""
2 25 41
ATOM$BLUE        STATIC     ATOMS    COLORGROUP SYSTEM
1 42
ATOM$RED        STATIC     ATOMS    COLORGROUP SYSTEM
2 25 41
