#       Name:                AV-unprocessed.smi:335
#       Creating user name   scv26
#       Creation time:       Thu Mar 26 22:28:49 2020


#       File generated by GOLD software.
#

@<TRIPOS>MOLECULE
AV-unprocessed.smi:335
    49    51     1
SMALL
NO_CHARGES


@<TRIPOS>ATOM
      1 ****        -2.8519   3.1023   2.5344 C.3            1 S1                 0.0000
      2 ****        -2.4795   1.7624   2.2647 O.3            1 S1                 0.0000
      3 ****        -2.8756   0.8714   3.2949 C.3            1 S1                 0.0000
      4 ****        -2.4058  -0.5521   2.9522 C.3            1 S1                 0.0000
      5 ****        -0.9422  -0.6566   2.9406 N.am           1 S1                 0.0000
      6 ****        -0.3835  -0.6092   1.6743 N.2            1 S1                 0.0000
      7 ****         0.9009  -0.6644   1.5270 C.2            1 S1                 0.0000
      8 ****         1.5406  -0.6132   0.1833 C.2            1 S1                 0.0000
      9 ****         2.7652  -0.6218   0.0462 O.2            1 S1                 0.0000
     10 ****         0.6876  -0.5565  -0.8558 N.am           1 S1                 0.0000
     11 ****         1.0585  -0.4892  -2.2650 C.3            1 S1                 0.0000
     12 ****         1.2008   0.9420  -2.7540 C.3            1 S1                 0.0000
     13 ****         2.0529   1.2844  -3.9533 C.3            1 S1                 0.0000
     14 ****         2.4877   1.7103  -2.5694 C.3            1 S1                 0.0000
     15 ****         0.0774  -1.2508  -3.1370 C.3            1 S1                 0.0000
     16 ****         0.1766  -2.7492  -3.2959 C.3            1 S1                 0.0000
     17 ****         0.4965  -1.8414  -4.4625 C.3            1 S1                 0.0000
     18 ****         1.7774  -0.7813   2.6803 C.2            1 S1                 0.0000
     19 ****         1.2175  -0.8354   3.9087 C.2            1 S1                 0.0000
     20 ****        -0.2319  -0.7743   4.1029 C.2            1 S1                 0.0000
     21 ****        -0.7650  -0.8196   5.2113 O.2            1 S1                 0.0000
     22 ****        -2.5296   3.7447   1.7150 H              1 S1                 0.0000
     23 ****        -2.3823   3.4649   3.4497 H              1 S1                 0.0000
     24 ****        -3.9339   3.1990   2.6331 H              1 S1                 0.0000
     25 ****        -2.4672   1.1914   4.2547 H              1 S1                 0.0000
     26 ****        -3.9625   0.8836   3.3875 H              1 S1                 0.0000
     27 ****        -2.8214  -1.2595   3.6716 H              1 S1                 0.0000
     28 ****        -2.8171  -0.8487   1.9855 H              1 S1                 0.0000
     29 ****        -0.3009  -0.5525  -0.6484 H              1 S1                 0.0000
     30 ****         2.0284  -0.9754  -2.3883 H              1 S1                 0.0000
     31 ****         0.2873   1.5249  -2.6496 H              1 S1                 0.0000
     32 ****         2.6166   0.4833  -4.4271 H              1 S1                 0.0000
     33 ****         1.6853   2.0567  -4.6256 H              1 S1                 0.0000
     34 ****         2.4077   2.7654  -2.3168 H              1 S1                 0.0000
     35 ****         3.3337   1.1877  -2.1276 H              1 S1                 0.0000
     36 ****        -0.9336  -0.8484  -3.1027 H              1 S1                 0.0000
     37 ****         1.0089  -3.2564  -2.8116 H              1 S1                 0.0000
     38 ****        -0.7535  -3.3125  -3.3354 H              1 S1                 0.0000
     39 ****        -0.2204  -1.7985  -5.2798 H              1 S1                 0.0000
     40 ****         1.5413  -1.7552  -4.7541 H              1 S1                 0.0000
     41 ****         2.8507  -0.8278   2.5668 H              1 S1                 0.0000
     42 ****         1.8569  -0.9248   4.7747 H              1 S1                 0.0000
     43 ****        -1.4851   1.7191   2.1678 LP             1 S1                 0.0000
     44 ****        -2.9105   1.4756   1.4092 LP             1 S1                 0.0000
     45 ****        -0.9744  -0.5321   0.8713 LP             1 S1                 0.0000
     46 ****         3.3581  -0.6641   0.8504 LP             1 S1                 0.0000
     47 ****         3.1661  -0.5865  -0.8692 LP             1 S1                 0.0000
     48 ****        -1.7606  -0.7698   5.2897 LP             1 S1                 0.0000
     49 ****        -0.2024  -0.9062   6.0335 LP             1 S1                 0.0000
@<TRIPOS>BOND
    1    1    2 1     
    2    1   22 1     
    3    1   23 1     
    4    1   24 1     
    5    2    3 1     
    6    3    4 1     
    7    3   25 1     
    8    3   26 1     
    9    4    5 1     
   10    4   27 1     
   11    4   28 1     
   12    5   20 am    
   13    5    6 1     
   14    6    7 2     
   15    7    8 1     
   16    7   18 1     
   17    8    9 2     
   18    8   10 am    
   19   10   11 1     
   20   10   29 1     
   21   11   12 1     
   22   11   15 1     
   23   11   30 1     
   24   12   14 1     
   25   12   13 1     
   26   12   31 1     
   27   13   14 1     
   28   13   32 1     
   29   13   33 1     
   30   14   34 1     
   31   14   35 1     
   32   15   17 1     
   33   15   16 1     
   34   15   36 1     
   35   16   17 1     
   36   16   37 1     
   37   16   38 1     
   38   17   39 1     
   39   17   40 1     
   40   18   19 2     
   41   18   41 1     
   42   19   20 1     
   43   19   42 1     
   44   20   21 2     
   45    2   43 1     
   46    2   44 1     
   47    6   45 1     
   48    9   46 1     
   49    9   47 1     
   50   21   48 1     
   51   21   49 1     
@<TRIPOS>SUBSTRUCTURE
      1 S1             1
@<TRIPOS>SET
LONE_PAIRS      STATIC     ATOMS    <user>   **** ""
7 43 44 45 46 47 48 49
DONOR_HYDROGENS      STATIC     ATOMS    <user>   **** ""
1 29
ATOM$BLUE        STATIC     ATOMS    COLORGROUP SYSTEM
7 43 44 45 46 47 48 49
ATOM$RED        STATIC     ATOMS    COLORGROUP SYSTEM
1 29
