AV-unprocessed.smi:378|AV-procd|sdf|2457|dock3
  -GOLD-   2262022393D 1   1.00000     0.00000
 Structure written by MMmdl.
 34 35  0  0  0  0  0  0  0  0  1 V2000
  154.2791  134.1853  159.0278 N   0  0  0  0  0  0  0  0  0  0  0  0
  155.0840  134.9960  158.8451 C   0  0  0  0  0  0  0  0  0  0  0  0
  156.1068  136.0280  158.6135 C   0  0  0  0  0  0  0  0  0  0  0  0
  156.4656  136.8178  159.8818 C   0  0  0  0  0  0  0  0  0  0  0  0
  155.3538  137.6416  160.3423 N   0  0  0  0  0  0  0  0  0  0  0  0
  154.8778  138.7179  159.6992 C   0  0  0  0  0  0  0  0  0  0  0  0
  155.3569  139.1372  158.6445 O   0  0  0  0  0  0  0  0  0  0  0  0
  153.6837  139.4222  160.3613 C   0  0  0  0  0  0  0  0  0  0  0  0
  153.0935  140.4885  159.5224 N   0  0  0  0  0  0  0  0  0  0  0  0
  152.4972  140.1346  158.2850 C   0  0  0  0  0  0  0  0  0  0  0  0
  152.4908  138.9661  157.8937 O   0  0  0  0  0  0  0  0  0  0  0  0
  151.8929  141.2369  157.5402 C   0  0  0  0  0  0  0  0  0  0  0  0
  151.2540  140.9166  156.3069 C   0  0  0  0  0  0  0  0  0  0  0  0
  150.7192  140.6759  155.3089 N   0  0  0  0  0  0  0  0  0  0  0  0
  151.9361  142.5003  158.0111 C   0  0  0  0  0  0  0  0  0  0  0  0
  152.5548  142.8286  159.1977 N   0  0  0  0  0  0  0  0  0  0  0  0
  152.4517  144.1474  159.7557 C   0  0  0  0  0  0  0  0  0  0  0  0
  151.0836  144.6919  160.1042 C   0  0  0  0  0  0  0  0  0  0  0  0
  151.8501  145.2778  158.9434 C   0  0  0  0  0  0  0  0  0  0  0  0
  153.1065  141.8167  160.0135 C   0  0  0  0  0  0  0  0  0  0  0  0
  153.5753  142.0764  161.1250 O   0  0  0  0  0  0  0  0  0  0  0  0
  156.9933  135.5258  158.2264 H   0  0  0  0  0  0  0  0  0  0  0  0
  155.7489  136.6917  157.8260 H   0  0  0  0  0  0  0  0  0  0  0  0
  156.7412  136.1296  160.6814 H   0  0  0  0  0  0  0  0  0  0  0  0
  157.3384  137.4468  159.6991 H   0  0  0  0  0  0  0  0  0  0  0  0
  154.9059  137.3660  161.2047 H   0  0  0  0  0  0  0  0  0  0  0  0
  152.9286  138.6762  160.6160 H   0  0  0  0  0  0  0  0  0  0  0  0
  154.0087  139.8089  161.3283 H   0  0  0  0  0  0  0  0  0  0  0  0
  151.4723  143.2885  157.4353 H   0  0  0  0  0  0  0  0  0  0  0  0
  153.2577  144.4283  160.4314 H   0  0  0  0  0  0  0  0  0  0  0  0
  150.2134  144.0821  159.8688 H   0  0  0  0  0  0  0  0  0  0  0  0
  150.9989  145.2947  161.0061 H   0  0  0  0  0  0  0  0  0  0  0  0
  152.2796  146.2693  159.0715 H   0  0  0  0  0  0  0  0  0  0  0  0
  151.4821  145.0557  157.9434 H   0  0  0  0  0  0  0  0  0  0  0  0
  1  2  3  0  0  0  0
  2  3  1  0  0  0  0
  3  4  1  0  0  0  0
  3 22  1  0  0  0  0
  3 23  1  0  0  0  0
  4  5  1  0  0  0  0
  4 24  1  0  0  0  0
  4 25  1  0  0  0  0
  5  6  1  0  0  0  0
  5 26  1  0  0  0  0
  6  7  2  0  0  0  0
  6  8  1  0  0  0  0
  8  9  1  0  0  0  0
  8 27  1  0  0  0  0
  8 28  1  0  0  0  0
  9 20  1  0  0  0  0
  9 10  1  0  0  0  0
 10 11  2  0  0  0  0
 10 12  1  0  0  0  0
 12 13  1  0  0  0  0
 12 15  2  0  0  0  0
 13 14  3  0  0  0  0
 15 16  1  0  0  0  0
 15 29  1  0  0  0  0
 16 17  1  0  0  0  0
 16 20  1  0  0  0  0
 17 19  1  0  0  0  0
 17 18  1  0  0  0  0
 17 30  1  0  0  0  0
 18 19  1  0  0  0  0
 18 31  1  0  0  0  0
 18 32  1  0  0  0  0
 19 33  1  0  0  0  0
 19 34  1  0  0  0  0
 20 21  2  0  0  0  0
M  END
> <s_m_source_file>
AV-unprocessed.smi

> <i_m_source_file_index>
378

> <i_lp_mmshare_version>
43012

> <i_f3d_flags>
0

> <s_epik_input>
TiNDW0NIMl1bQ0gyXVtOSF1DKD1PKVtDSDJdbjFjKD1PKWMoQyNOKVtjSF1uKGMxPU8pW0NIXTJbQ0gyXVtDSDJdMg==

> <s_epik_cmdline>
J2VwaWtfcHl0aG9uJywgJy1waCcsICc3LjAnLCAnLXRuJywgJzgnLCAnLW1hJywgJzIwMCcsICctbWV0YWxfYmluZGluZycsICctaW1hZScsICc8aW5maWxlLm1hZT4nLCAnLW9tYWUnLCAnPG91dGZpbGUubWFlPic=

> <r_lp_tautomer_probability>
1

> <r_epik_Ionization_Penalty>
1.80062e-07

> <r_epik_Ionization_Penalty_Charging>
6.75485e-11

> <r_epik_Ionization_Penalty_Neutral>
1.79994e-07

> <r_epik_State_Penalty>
-0

> <r_epik_Charging_Adjusted_Penalty>
6.75485e-11

> <i_epik_Tot_Q>
0

> <i_epik_Tot_abs_Q>
0

> <r_epik_Metal_State_Penalty>
-0

> <b_epik_Metal_Only>
0

> <s_lp_Force_Field>
OPLS_2005

> <r_lp_Energy>
28.3727

> <b_lp_Chiralities_Consistent>
1

> <s_lp_Variant>
AV-unprocessed.smi:378-1

> <Gold.Version>
5.8.1

> <Gold.Id.Protein>
6NUR|6NUR_protein|mol2

> <Gold.PLP.Fitness>
45.6376

> <Gold.PLP.PLP>
-37.1231

> <Gold.PLP.part.hbond>
-3.0000

> <Gold.PLP.part.metal>
0.0000

> <Gold.PLP.part.buried>
-6.3568

> <Gold.PLP.part.nonpolar>
-26.7998

> <Gold.PLP.part.repulsive>
0.0674

> <Gold.PLP.ligand.clash>
0.0000

> <Gold.PLP.ligand.torsion>
0.2168

> <Gold.PLP.Chemscore.Hbond>
2.8960

> <Gold.PLP.Chemscore.CHOScore>
0.0000

> <Gold.PLP.Chemscore.Metal>
0.0000

> <Gold.Chemscore.Hbonds>
donor molecule, donor type, donor heavy atom, donor atom, acceptor molecule, acceptor atom, score
      P1  H  6896  6908       L1     1  1.00
      P1  H  7989  7998       L1    14  0.89
      P1  H  7997  8009       L1     7  1.00

> <Gold.PLP.Chemscore.Internal.Correction>
0.2600

> <Gold.Rescore>
     Score         DG    S(hbond)    S(metal)    S(lipo)     H(rot)  DE(clash)    DE(int)     intcor
     15.16     -16.33       2.93        0.00      63.68       2.50       0.28       0.90       ----

> <Gold.Chemscore.Fitness>
15.1554

> <Gold.Chemscore.DG>
-16.3346

> <Gold.Chemscore.ZeroCoef>
-5.4800

> <Gold.Chemscore.Hbond>
2.9348

> <Gold.Chemscore.Metal>
0.0000

> <Gold.Chemscore.Lipo>
63.6806

> <Gold.Chemscore.Internal_Hbond>
0.0000

> <Gold.Chemscore.DEClash>
0.2766

> <Gold.Chemscore.DEInternal>
0.9026

> <Gold.Chemscore.Rot>
2.4994

> <Gold.Chemscore.Internal.Correction>
   9.000000E+99

> <Gold.Chemscore.Hbonds>
donor molecule, donor type, donor heavy atom, donor atom, acceptor molecule, acceptor atom, score
      P1  H  6896  6908       L1     1  0.99
      P1  H  7989  7998       L1    14  0.81
      P1  H  7997  8009       L1     7  0.95

> <Gold.Chemscore.Hbond.Weighted>
-9.8024

> <Gold.Chemscore.Metal.Weighted>
-0.0000

> <Gold.Chemscore.Lipo.Weighted>
-7.4506

> <Gold.Chemscore.Internal_Hbond.Weighted>
0.0000

> <Gold.Chemscore.DEClash.Weighted>
0.2766

> <Gold.Chemscore.DEInternal.Weighted>
0.9026

> <Gold.Chemscore.Rot.Weighted>
6.3984

> <Gold.Chemscore.Internal.Correction.Weighted>
   9.000000E+99

> <Gold.Protein.RotatedTorsions>
[ 6907 6896 6895 6894 ] final  -11.07 input  -60.11 | X-H torsion
[ 7974 7965 7964 7962 ] final   46.35 input  175.53 | X-H torsion
[ 8008 7997 7996 7995 ] final  108.80 input   59.86 | X-H torsion
[ 10167 10162 10161 10158 ] final -150.04 input  -65.29 | X-H torsion
[ 10718 10713 10712 10709 ] final  169.39 input   66.30 | X-H torsion
[ 10763 10752 10751 10750 ] final -160.17 input  -60.55 | X-H torsion
[ 11005 11000 10999 10996 ] final  135.15 input  -57.11 | X-H torsion

> <Gold.Protein.ActiveResidues>
 VAL166  LYS551  ARG553  GLY616  TRP617  ASP618  TYR619  PRO620  LYS621  CYS622 
 ASP623  PHE694  ASN695  SER759  ASP760  ASP761  ALA762  ILE779  LEU786  VAL792 
 PHE793  MET794  SER795  GLU796  ALA797  LYS798  CYS799  TRP800  GLU811  SER814 

> <Gold.Protein.RotatedAtoms>
  151.3919  135.0957  159.9528 H   0  0  0  0  0  0  0  0  0  0  0  0  # atno 6907 bound_to 6896
  152.5077  133.8971  159.7433 H   0  0  0  0  0  0  0  0  0  0  0  0  # atno 6908 bound_to 6896
  150.9426  133.6583  159.2816 H   0  0  0  0  0  0  0  0  0  0  0  0  # atno 6909 bound_to 6896
  146.0397  139.4865  142.9786 H   0  0  0  0  0  0  0  0  0  0  0  0  # atno 7974 bound_to 7965
  156.1931  140.3069  155.9372 H   0  0  0  0  0  0  0  0  0  0  0  0  # atno 8008 bound_to 7997
  155.3128  140.0452  157.3053 H   0  0  0  0  0  0  0  0  0  0  0  0  # atno 8009 bound_to 7997
  154.5476  140.2281  155.8546 H   0  0  0  0  0  0  0  0  0  0  0  0  # atno 8010 bound_to 7997
  139.7389  143.8693  152.2556 H   0  0  0  0  0  0  0  0  0  0  0  0  # atno 10167 bound_to 10162
  157.0234  131.0238  151.2767 H   0  0  0  0  0  0  0  0  0  0  0  0  # atno 10718 bound_to 10713
  154.7413  135.3069  154.8723 H   0  0  0  0  0  0  0  0  0  0  0  0  # atno 10763 bound_to 10752
  153.9537  135.6761  153.4748 H   0  0  0  0  0  0  0  0  0  0  0  0  # atno 10764 bound_to 10752
  153.1012  135.4911  154.8794 H   0  0  0  0  0  0  0  0  0  0  0  0  # atno 10765 bound_to 10752
  139.9961  134.9497  156.9967 H   0  0  0  0  0  0  0  0  0  0  0  0  # atno 11005 bound_to 11000
  145.6904  141.0166  143.1558 LP  0  0  0  0  0  0  0  0  0  0  0  0  # atno 17320 bound_to 7965
  144.7069  139.8526  143.7427 LP  0  0  0  0  0  0  0  0  0  0  0  0  # atno 17321 bound_to 7965
  139.8638  144.7104  150.9068 LP  0  0  0  0  0  0  0  0  0  0  0  0  # atno 17342 bound_to 10162
  140.7783  143.3795  151.1502 LP  0  0  0  0  0  0  0  0  0  0  0  0  # atno 17343 bound_to 10162
  157.5232  130.8011  149.7833 LP  0  0  0  0  0  0  0  0  0  0  0  0  # atno 17370 bound_to 10713
  156.0094  130.3840  150.2316 LP  0  0  0  0  0  0  0  0  0  0  0  0  # atno 17371 bound_to 10713
  140.4816  134.1284  155.7218 LP  0  0  0  0  0  0  0  0  0  0  0  0  # atno 17394 bound_to 11000
  141.1605  133.8802  157.1860 LP  0  0  0  0  0  0  0  0  0  0  0  0  # atno 17395 bound_to 11000

$$$$
