#       Name:                AV-unprocessed.smi:634
#       Creating user name   scv26
#       Creation time:       Fri Mar 27 00:05:58 2020


#       File generated by GOLD software.
#

@<TRIPOS>MOLECULE
AV-unprocessed.smi:634
    38    39     1
SMALL
NO_CHARGES


@<TRIPOS>ATOM
      1 ****        -5.8957  -2.2753   0.2041 C.3            1 S1                 0.0000
      2 ****        -4.6131  -1.5412   0.0112 C.2            1 S1                 0.0000
      3 ****        -3.3039  -1.8925   0.1860 C.2            1 S1                 0.0000
      4 ****        -2.6041  -0.7123  -0.1815 C.2            1 S1                 0.0000
      5 ****        -1.1871  -0.6625  -0.1394 N.am           1 S1                 0.0000
      6 ****        -0.3933   0.3712  -0.4677 C.2            1 S1                 0.0000
      7 ****        -0.7903   1.4713  -0.8518 O.2            1 S1                 0.0000
      8 ****         0.9032   0.0496  -0.3217 N.am           1 S1                 0.0000
      9 ****         2.0836   0.8878  -0.5767 C.3            1 S1                 0.0000
     10 ****         2.1323   1.3150  -2.0595 C.3            1 S1                 0.0000
     11 ****         3.3306   0.0363  -0.2359 C.3            1 S1                 0.0000
     12 ****         3.4984  -0.0490   1.2857 C.3            1 S1                 0.0000
     13 ****         2.9012   1.5525   1.9357 S.o2           1 S1                 0.0000
     14 ****         1.8610   1.2993   2.9441 O.2            1 S1                 0.0000
     15 ****         4.0496   2.4219   2.2330 O.2            1 S1                 0.0000
     16 ****         2.1191   2.1096   0.3729 C.3            1 S1                 0.0000
     17 ****        -3.4129   0.2703  -0.5474 N.2            1 S1                 0.0000
     18 ****        -4.7043  -0.2557  -0.4251 O.3            1 S1                 0.0000
     19 ****        -5.7228  -3.3490   0.2792 H              1 S1                 0.0000
     20 ****        -6.5724  -2.1007  -0.6324 H              1 S1                 0.0000
     21 ****        -6.3938  -1.9479   1.1166 H              1 S1                 0.0000
     22 ****        -2.9139  -2.8417   0.5224 H              1 S1                 0.0000
     23 ****        -0.7288  -1.5078   0.1667 H              1 S1                 0.0000
     24 ****         1.1015  -0.8852   0.0038 H              1 S1                 0.0000
     25 ****         3.0555   1.8488  -2.2872 H              1 S1                 0.0000
     26 ****         1.3100   1.9809  -2.3210 H              1 S1                 0.0000
     27 ****         2.0831   0.4506  -2.7225 H              1 S1                 0.0000
     28 ****         3.2900  -0.9555  -0.6882 H              1 S1                 0.0000
     29 ****         4.2174   0.5235  -0.6437 H              1 S1                 0.0000
     30 ****         2.8727  -0.8377   1.7036 H              1 S1                 0.0000
     31 ****         4.5297  -0.2213   1.5935 H              1 S1                 0.0000
     32 ****         2.7534   2.8951  -0.0390 H              1 S1                 0.0000
     33 ****         1.1456   2.5524   0.5816 H              1 S1                 0.0000
     34 ****        -1.7710   1.6465  -0.9386 LP             1 S1                 0.0000
     35 ****        -0.1322   2.1897  -1.0770 LP             1 S1                 0.0000
     36 ****        -3.1566   1.1894  -0.8464 LP             1 S1                 0.0000
     37 ****        -5.2274   0.2864   0.2326 LP             1 S1                 0.0000
     38 ****        -5.1620  -0.2339  -1.3139 LP             1 S1                 0.0000
@<TRIPOS>BOND
    1    1    2 1     
    2    1   19 1     
    3    1   20 1     
    4    1   21 1     
    5    2   18 1     
    6    2    3 2     
    7    3    4 1     
    8    3   22 1     
    9    4    5 1     
   10    4   17 2     
   11    5    6 am    
   12    5   23 1     
   13    6    7 2     
   14    6    8 am    
   15    8    9 1     
   16    8   24 1     
   17    9   16 1     
   18    9   10 1     
   19    9   11 1     
   20   10   25 1     
   21   10   26 1     
   22   10   27 1     
   23   11   12 1     
   24   11   28 1     
   25   11   29 1     
   26   12   13 1     
   27   12   30 1     
   28   12   31 1     
   29   13   14 2     
   30   13   15 2     
   31   13   16 1     
   32   16   32 1     
   33   16   33 1     
   34   17   18 1     
   35    7   34 1     
   36    7   35 1     
   37   17   36 1     
   38   18   37 1     
   39   18   38 1     
@<TRIPOS>SUBSTRUCTURE
      1 S1             1
@<TRIPOS>SET
LONE_PAIRS      STATIC     ATOMS    <user>   **** ""
7 34 35 14 15 36 37 38
DONOR_HYDROGENS      STATIC     ATOMS    <user>   **** ""
2 23 24
ATOM$BLUE        STATIC     ATOMS    COLORGROUP SYSTEM
7 34 35 14 15 36 37 38
ATOM$RED        STATIC     ATOMS    COLORGROUP SYSTEM
2 23 24
