AV-unprocessed.smi:2337|AV-procd|sdf|9333|dock2
  -GOLD-   2272012553D 1   1.00000     0.00000
 Structure written by MMmdl.
 45 46  0  0  0  0  0  0  0  0  1 V2000
  146.1536  142.8839  157.0160 C   0  0  0  0  0  0  0  0  0  0  0  0
  147.2026  142.3377  156.2272 O   0  0  0  0  0  0  0  0  0  0  0  0
  146.7997  141.4844  155.1553 C   0  0  0  0  0  0  0  0  0  0  0  0
  145.9399  140.3127  155.6493 C   0  0  0  0  0  0  0  0  0  0  0  0
  145.3757  139.5779  154.5250 N   0  0  0  0  0  0  0  0  0  0  0  0
  145.6433  138.2962  154.2446 C   0  0  0  0  0  0  0  0  0  0  0  0
  146.4078  137.6015  154.9149 O   0  0  0  0  0  0  0  0  0  0  0  0
  144.9700  137.8856  153.1562 N   0  0  0  0  0  0  0  0  0  0  0  0
  145.0095  136.6110  152.5324 C   0  0  0  0  0  0  0  0  0  0  0  0
  144.0829  136.4200  151.4880 C   0  0  0  0  0  0  0  0  0  0  0  0
  144.0685  135.1830  150.8222 C   0  0  0  0  0  0  0  0  0  0  0  0
  144.9920  134.1990  151.2421 C   0  0  0  0  0  0  0  0  0  0  0  0
  145.0901  132.8052  150.5960 C   0  0  0  0  0  0  0  0  0  0  0  0
  144.0726  132.6915  149.4417 C   0  0  0  0  0  0  0  0  0  0  0  0
  144.8044  131.7203  151.6548 C   0  0  0  0  0  0  0  0  0  0  0  0
  146.4915  132.5242  150.0080 C   0  0  0  0  0  0  0  0  0  0  0  0
  145.8609  134.4429  152.2535 N   0  0  0  0  0  0  0  0  0  0  0  0
  145.8679  135.6211  152.8840 N   0  0  0  0  0  0  0  0  0  0  0  0
  146.2253  142.3690  154.0325 C   0  0  0  0  0  0  0  0  0  0  0  0
  147.0583  141.5696  153.0288 C   0  0  0  0  0  0  0  0  0  0  0  0
  147.9718  141.1932  154.1965 C   0  0  0  0  0  0  0  0  0  0  0  0
  146.5849  143.4313  157.8539 H   0  0  0  0  0  0  0  0  0  0  0  0
  145.5056  142.1092  157.4263 H   0  0  0  0  0  0  0  0  0  0  0  0
  145.5441  143.5871  156.4492 H   0  0  0  0  0  0  0  0  0  0  0  0
  146.5444  139.6329  156.2519 H   0  0  0  0  0  0  0  0  0  0  0  0
  145.1356  140.6554  156.3004 H   0  0  0  0  0  0  0  0  0  0  0  0
  144.7344  140.0804  153.9285 H   0  0  0  0  0  0  0  0  0  0  0  0
  144.3638  138.5646  152.7203 H   0  0  0  0  0  0  0  0  0  0  0  0
  143.3961  137.2025  151.1996 H   0  0  0  0  0  0  0  0  0  0  0  0
  143.3655  135.0215  150.0201 H   0  0  0  0  0  0  0  0  0  0  0  0
  144.1327  131.7182  148.9532 H   0  0  0  0  0  0  0  0  0  0  0  0
  144.2510  133.4528  148.6813 H   0  0  0  0  0  0  0  0  0  0  0  0
  143.0465  132.8110  149.7914 H   0  0  0  0  0  0  0  0  0  0  0  0
  143.7989  131.8117  152.0672 H   0  0  0  0  0  0  0  0  0  0  0  0
  145.5073  131.7853  152.4863 H   0  0  0  0  0  0  0  0  0  0  0  0
  144.8873  130.7189  151.2313 H   0  0  0  0  0  0  0  0  0  0  0  0
  146.5384  131.5333  149.5545 H   0  0  0  0  0  0  0  0  0  0  0  0
  147.2656  132.5586  150.7757 H   0  0  0  0  0  0  0  0  0  0  0  0
  146.7541  133.2428  149.2306 H   0  0  0  0  0  0  0  0  0  0  0  0
  145.1474  142.2885  153.8875 H   0  0  0  0  0  0  0  0  0  0  0  0
  146.5413  143.4116  154.1005 H   0  0  0  0  0  0  0  0  0  0  0  0
  146.5212  140.7139  152.6166 H   0  0  0  0  0  0  0  0  0  0  0  0
  147.5333  142.1661  152.2496 H   0  0  0  0  0  0  0  0  0  0  0  0
  148.8067  141.8873  154.3085 H   0  0  0  0  0  0  0  0  0  0  0  0
  148.3108  140.1569  154.1894 H   0  0  0  0  0  0  0  0  0  0  0  0
  1  2  1  0  0  0  0
  1 22  1  0  0  0  0
  1 23  1  0  0  0  0
  1 24  1  0  0  0  0
  2  3  1  0  0  0  0
  3 21  1  0  0  0  0
  3  4  1  0  0  0  0
  3 19  1  0  0  0  0
  4  5  1  0  0  0  0
  4 25  1  0  0  0  0
  4 26  1  0  0  0  0
  5  6  1  0  0  0  0
  5 27  1  0  0  0  0
  6  7  2  0  0  0  0
  6  8  1  0  0  0  0
  8  9  1  0  0  0  0
  8 28  1  0  0  0  0
  9 18  1  0  0  0  0
  9 10  2  0  0  0  0
 10 11  1  0  0  0  0
 10 29  1  0  0  0  0
 11 12  2  0  0  0  0
 11 30  1  0  0  0  0
 12 13  1  0  0  0  0
 12 17  1  0  0  0  0
 13 14  1  0  0  0  0
 13 15  1  0  0  0  0
 13 16  1  0  0  0  0
 14 31  1  0  0  0  0
 14 32  1  0  0  0  0
 14 33  1  0  0  0  0
 15 34  1  0  0  0  0
 15 35  1  0  0  0  0
 15 36  1  0  0  0  0
 16 37  1  0  0  0  0
 16 38  1  0  0  0  0
 16 39  1  0  0  0  0
 17 18  2  0  0  0  0
 19 20  1  0  0  0  0
 19 40  1  0  0  0  0
 19 41  1  0  0  0  0
 20 21  1  0  0  0  0
 20 42  1  0  0  0  0
 20 43  1  0  0  0  0
 21 44  1  0  0  0  0
 21 45  1  0  0  0  0
M  END
> <s_m_source_file>
AV-unprocessed.smi

> <i_m_source_file_index>
2337

> <i_lp_mmshare_version>
43012

> <i_f3d_flags>
0

> <s_epik_input>
W0NIMl0xW0NIMl1bQ0gyXUMxKE9bQ0gzXSlbQ0gyXVtOSF1DKD1PKVtOSF1jMltjSF1bY0hdYyhubjIpQyhbQ0gzXSkoW0NIM10pW0NIM10=

> <s_epik_cmdline>
J2VwaWtfcHl0aG9uJywgJy1waCcsICc3LjAnLCAnLXRuJywgJzgnLCAnLW1hJywgJzIwMCcsICctbWV0YWxfYmluZGluZycsICctaW1hZScsICc8aW5maWxlLm1hZT4nLCAnLW9tYWUnLCAnPG91dGZpbGUubWFlPic=

> <r_lp_tautomer_probability>
1

> <r_epik_Ionization_Penalty>
0.00977348

> <r_epik_Ionization_Penalty_Charging>
0

> <r_epik_Ionization_Penalty_Neutral>
0.00977348

> <r_epik_State_Penalty>
-0

> <r_epik_Charging_Adjusted_Penalty>
0

> <i_epik_Tot_Q>
0

> <i_epik_Tot_abs_Q>
0

> <r_epik_Metal_State_Penalty>
-0

> <b_epik_Metal_Only>
0

> <s_lp_Force_Field>
OPLS_2005

> <r_lp_Energy>
23.2497

> <b_lp_Chiralities_Consistent>
1

> <s_lp_Variant>
AV-unprocessed.smi:2337-1

> <Gold.Version>
5.8.1

> <Gold.Id.Protein>
6NUR|6NUR_protein|mol2

> <Gold.PLP.Fitness>
34.5558

> <Gold.PLP.PLP>
-28.6239

> <Gold.PLP.part.hbond>
-2.0000

> <Gold.PLP.part.metal>
0.0000

> <Gold.PLP.part.buried>
-2.1628

> <Gold.PLP.part.nonpolar>
-25.5120

> <Gold.PLP.part.repulsive>
0.9970

> <Gold.PLP.ligand.clash>
0.0000

> <Gold.PLP.ligand.torsion>
0.1840

> <Gold.PLP.Chemscore.Hbond>
2.0000

> <Gold.PLP.Chemscore.CHOScore>
0.0000

> <Gold.PLP.Chemscore.Metal>
0.0000

> <Gold.Chemscore.Hbonds>
donor molecule, donor type, donor heavy atom, donor atom, acceptor molecule, acceptor atom, score
      L1  H     5    27       P1 10175  1.00
      L1  H     8    28       P1 10175  1.00

> <Gold.PLP.Chemscore.Internal.Correction>
0.3001

> <Gold.Rescore>
     Score         DG    S(hbond)    S(metal)    S(lipo)     H(rot)  DE(clash)    DE(int)     intcor
     13.51     -16.21       1.79        0.00      74.85       1.56       0.22       2.48       ----

> <Gold.Chemscore.Fitness>
13.5101

> <Gold.Chemscore.DG>
-16.2111

> <Gold.Chemscore.ZeroCoef>
-5.4800

> <Gold.Chemscore.Hbond>
1.7866

> <Gold.Chemscore.Metal>
0.0000

> <Gold.Chemscore.Lipo>
74.8487

> <Gold.Chemscore.Internal_Hbond>
0.0000

> <Gold.Chemscore.DEClash>
0.2207

> <Gold.Chemscore.DEInternal>
2.4803

> <Gold.Chemscore.Rot>
1.5599

> <Gold.Chemscore.Internal.Correction>
   9.000000E+99

> <Gold.Chemscore.Hbonds>
donor molecule, donor type, donor heavy atom, donor atom, acceptor molecule, acceptor atom, score
      L1  H     5    27       P1 10175  1.00
      L1  H     8    28       P1 10175  0.92

> <Gold.Chemscore.Hbond.Weighted>
-5.9672

> <Gold.Chemscore.Metal.Weighted>
-0.0000

> <Gold.Chemscore.Lipo.Weighted>
-8.7573

> <Gold.Chemscore.Internal_Hbond.Weighted>
0.0000

> <Gold.Chemscore.DEClash.Weighted>
0.2207

> <Gold.Chemscore.DEInternal.Weighted>
2.4803

> <Gold.Chemscore.Rot.Weighted>
3.9933

> <Gold.Chemscore.Internal.Correction.Weighted>
   9.000000E+99

> <Gold.Protein.RotatedTorsions>
[ 6907 6896 6895 6894 ] final -169.25 input  -60.11 | X-H torsion
[ 7974 7965 7964 7962 ] final -150.45 input  175.53 | X-H torsion
[ 8008 7997 7996 7995 ] final   54.94 input   59.86 | X-H torsion
[ 10167 10162 10161 10158 ] final  176.24 input  -65.29 | X-H torsion
[ 10718 10713 10712 10709 ] final  -31.84 input   66.30 | X-H torsion
[ 10763 10752 10751 10750 ] final  -77.96 input  -60.55 | X-H torsion
[ 11005 11000 10999 10996 ] final  151.84 input  -57.11 | X-H torsion

> <Gold.Protein.ActiveResidues>
 VAL166  LYS551  ARG553  GLY616  TRP617  ASP618  TYR619  PRO620  LYS621  CYS622 
 ASP623  PHE694  ASN695  SER759  ASP760  ASP761  ALA762  ILE779  LEU786  VAL792 
 PHE793  MET794  SER795  GLU796  ALA797  LYS798  CYS799  TRP800  GLU811  SER814 

> <Gold.Protein.RotatedAtoms>
  151.4886  133.3530  159.2849 H   0  0  0  0  0  0  0  0  0  0  0  0  # atno 6907 bound_to 6896
  150.8849  134.8248  159.7263 H   0  0  0  0  0  0  0  0  0  0  0  0  # atno 6908 bound_to 6896
  152.4787  134.4789  159.9711 H   0  0  0  0  0  0  0  0  0  0  0  0  # atno 6909 bound_to 6896
  144.7907  140.4930  143.5775 H   0  0  0  0  0  0  0  0  0  0  0  0  # atno 7974 bound_to 7965
  155.4929  140.3472  155.4358 H   0  0  0  0  0  0  0  0  0  0  0  0  # atno 8008 bound_to 7997
  156.0965  140.1424  156.9552 H   0  0  0  0  0  0  0  0  0  0  0  0  # atno 8009 bound_to 7997
  154.4667  140.0915  156.7015 H   0  0  0  0  0  0  0  0  0  0  0  0  # atno 8010 bound_to 7997
  139.5207  144.2938  152.0440 H   0  0  0  0  0  0  0  0  0  0  0  0  # atno 10167 bound_to 10162
  156.3823  130.4358  149.7459 H   0  0  0  0  0  0  0  0  0  0  0  0  # atno 10718 bound_to 10713
  154.5197  135.5746  153.6671 H   0  0  0  0  0  0  0  0  0  0  0  0  # atno 10763 bound_to 10752
  152.9914  135.6178  154.2771 H   0  0  0  0  0  0  0  0  0  0  0  0  # atno 10764 bound_to 10752
  154.2691  135.2854  155.2725 H   0  0  0  0  0  0  0  0  0  0  0  0  # atno 10765 bound_to 10752
  140.1255  134.8836  157.2131 H   0  0  0  0  0  0  0  0  0  0  0  0  # atno 11005 bound_to 11000
  145.5802  139.1488  143.3239 LP  0  0  0  0  0  0  0  0  0  0  0  0  # atno 17320 bound_to 7965
  146.2157  140.5932  142.9039 LP  0  0  0  0  0  0  0  0  0  0  0  0  # atno 17321 bound_to 7965
  140.2388  144.4291  150.6269 LP  0  0  0  0  0  0  0  0  0  0  0  0  # atno 17342 bound_to 10162
  140.6305  143.2187  151.6506 LP  0  0  0  0  0  0  0  0  0  0  0  0  # atno 17343 bound_to 10162
  156.4545  130.7922  151.2943 LP  0  0  0  0  0  0  0  0  0  0  0  0  # atno 17370 bound_to 10713
  157.7493  131.0085  150.3231 LP  0  0  0  0  0  0  0  0  0  0  0  0  # atno 17371 bound_to 10713
  140.2910  134.3240  155.7315 LP  0  0  0  0  0  0  0  0  0  0  0  0  # atno 17394 bound_to 11000
  141.2160  133.7534  156.9503 LP  0  0  0  0  0  0  0  0  0  0  0  0  # atno 17395 bound_to 11000

$$$$
