AV-unprocessed.smi:2137|AV-procd|sdf|8706|dock5
  -GOLD-   2272011463D 1   1.00000     0.00000
 Structure written by MMmdl.
 50 51  0  0  0  0  0  0  0  0  2 V2000
  151.8168  145.3071  158.9541 C   0  0  0  0  0  0  0  0  0  0  0  0
  151.7252  143.8078  159.2699 C   0  0  2  0  0  0  0  0  0  0  0  0
  153.1017  143.2250  159.6311 C   0  0  0  0  0  0  0  0  0  0  0  0
  152.9850  141.7222  159.9144 C   0  0  0  0  0  0  0  0  0  0  0  0
  152.3299  140.9884  158.7333 C   0  0  0  0  0  0  0  0  0  0  0  0
  151.0011  141.5702  158.4114 N   0  3  2  0  0  0  0  0  0  0  0  0
  150.2882  140.7950  157.3648 C   0  0  0  0  0  0  0  0  0  0  0  0
  151.0771  140.7266  156.0431 C   0  0  0  0  0  0  0  0  0  0  0  0
  151.7306  139.3556  155.7933 C   0  0  0  0  0  0  0  0  0  0  0  0
  150.7823  138.2558  155.9290 N   0  0  0  0  0  0  0  0  0  0  0  0
  150.8546  137.0854  155.2764 C   0  0  0  0  0  0  0  0  0  0  0  0
  151.7561  136.8046  154.4875 O   0  0  0  0  0  0  0  0  0  0  0  0
  149.7407  136.0723  155.5580 C   0  0  0  0  0  0  0  0  0  0  0  0
  150.2266  134.6899  155.4681 N   0  0  0  0  0  0  0  0  0  0  0  0
  149.6313  133.8179  154.5742 C   0  0  0  0  0  0  0  0  0  0  0  0
  150.0067  132.5287  154.4275 C   0  0  0  0  0  0  0  0  0  0  0  0
  151.0882  131.9702  155.2292 C   0  0  0  0  0  0  0  0  0  0  0  0
  151.4764  130.8057  155.1266 O   0  0  0  0  0  0  0  0  0  0  0  0
  151.6731  132.8771  156.1425 N   0  0  0  0  0  0  0  0  0  0  0  0
  152.7561  132.3672  156.9578 C   0  0  0  0  0  0  0  0  0  0  0  0
  151.2845  134.2299  156.2835 C   0  0  0  0  0  0  0  0  0  0  0  0
  151.8342  134.9947  157.0799 O   0  0  0  0  0  0  0  0  0  0  0  0
  151.1027  143.0214  158.0986 C   0  0  0  0  0  0  0  0  0  0  0  0
  152.4610  145.4930  158.0941 H   0  0  0  0  0  0  0  0  0  0  0  0
  152.2228  145.8621  159.8002 H   0  0  0  0  0  0  0  0  0  0  0  0
  150.8340  145.7226  158.7295 H   0  0  0  0  0  0  0  0  0  0  0  0
  151.0720  143.6944  160.1366 H   0  0  0  0  0  0  0  0  0  0  0  0
  153.8038  143.3907  158.8126 H   0  0  0  0  0  0  0  0  0  0  0  0
  153.5130  143.7357  160.5027 H   0  0  0  0  0  0  0  0  0  0  0  0
  153.9722  141.3032  160.1125 H   0  0  0  0  0  0  0  0  0  0  0  0
  152.3947  141.5638  160.8180 H   0  0  0  0  0  0  0  0  0  0  0  0
  152.9737  141.0378  157.8535 H   0  0  0  0  0  0  0  0  0  0  0  0
  152.2201  139.9334  158.9879 H   0  0  0  0  0  0  0  0  0  0  0  0
  150.0577  139.7969  157.7402 H   0  0  0  0  0  0  0  0  0  0  0  0
  149.3301  141.2732  157.1557 H   0  0  0  0  0  0  0  0  0  0  0  0
  150.4037  140.9461  155.2138 H   0  0  0  0  0  0  0  0  0  0  0  0
  151.8485  141.4956  156.0159 H   0  0  0  0  0  0  0  0  0  0  0  0
  152.1488  139.3209  154.7869 H   0  0  0  0  0  0  0  0  0  0  0  0
  152.5687  139.2088  156.4769 H   0  0  0  0  0  0  0  0  0  0  0  0
  149.9973  138.4014  156.5481 H   0  0  0  0  0  0  0  0  0  0  0  0
  149.3413  136.2547  156.5572 H   0  0  0  0  0  0  0  0  0  0  0  0
  148.9052  136.2467  154.8779 H   0  0  0  0  0  0  0  0  0  0  0  0
  148.8221  134.1850  153.9595 H   0  0  0  0  0  0  0  0  0  0  0  0
  149.4999  131.9021  153.7081 H   0  0  0  0  0  0  0  0  0  0  0  0
  153.0074  133.0625  157.7584 H   0  0  0  0  0  0  0  0  0  0  0  0
  153.6098  132.2179  156.2949 H   0  0  0  0  0  0  0  0  0  0  0  0
  152.4262  131.4265  157.4025 H   0  0  0  0  0  0  0  0  0  0  0  0
  150.1145  143.4282  157.8866 H   0  0  0  0  0  0  0  0  0  0  0  0
  151.6979  143.1570  157.1937 H   0  0  0  0  0  0  0  0  0  0  0  0
  150.4488  141.4882  159.2530 H   0  0  0  0  0  0  0  0  0  0  0  0
  1  2  1  0  0  0  0
  1 24  1  0  0  0  0
  1 25  1  0  0  0  0
  1 26  1  0  0  0  0
  2 23  1  0  0  0  0
  2  3  1  0  0  0  0
  2 27  1  0  0  0  0
  3  4  1  0  0  0  0
  3 28  1  0  0  0  0
  3 29  1  0  0  0  0
  4  5  1  0  0  0  0
  4 30  1  0  0  0  0
  4 31  1  0  0  0  0
  5  6  1  0  0  0  0
  5 32  1  0  0  0  0
  5 33  1  0  0  0  0
  6  7  1  0  0  0  0
  6 23  1  0  0  0  0
  6 50  1  0  0  0  0
  7  8  1  0  0  0  0
  7 34  1  0  0  0  0
  7 35  1  0  0  0  0
  8  9  1  0  0  0  0
  8 36  1  0  0  0  0
  8 37  1  0  0  0  0
  9 10  1  0  0  0  0
  9 38  1  0  0  0  0
  9 39  1  0  0  0  0
 10 11  1  0  0  0  0
 10 40  1  0  0  0  0
 11 12  2  0  0  0  0
 11 13  1  0  0  0  0
 13 14  1  0  0  0  0
 13 41  1  0  0  0  0
 13 42  1  0  0  0  0
 14 21  1  0  0  0  0
 14 15  1  0  0  0  0
 15 16  2  0  0  0  0
 15 43  1  0  0  0  0
 16 17  1  0  0  0  0
 16 44  1  0  0  0  0
 17 18  2  0  0  0  0
 17 19  1  0  0  0  0
 19 20  1  0  0  0  0
 19 21  1  0  0  0  0
 20 45  1  0  0  0  0
 20 46  1  0  0  0  0
 20 47  1  0  0  0  0
 21 22  2  0  0  0  0
 23 48  1  0  0  0  0
 23 49  1  0  0  0  0
M  CHG  1   6   1
M  END
> <s_m_source_file>
AV-unprocessed.smi

> <i_m_source_file_index>
2137

> <i_lp_mmshare_version>
43012

> <i_f3d_flags>
0

> <s_epik_input>
W0NIM11bQ0BASF0xW0NIMl1bQ0gyXVtDSDJdTihbQ0gyXTEpW0NIMl1bQ0gyXVtDSDJdW05IXUMoPU8pW0NIMl1uMltjSF1bY0hdYyg9TyluKFtDSDNdKWMyPU8=

> <s_epik_cmdline>
J2VwaWtfcHl0aG9uJywgJy1waCcsICc3LjAnLCAnLXRuJywgJzgnLCAnLW1hJywgJzIwMCcsICctbWV0YWxfYmluZGluZycsICctaW1hZScsICc8aW5maWxlLm1hZT4nLCAnLW9tYWUnLCAnPG91dGZpbGUubWFlPic=

> <r_lp_tautomer_probability>
1

> <r_epik_Ionization_Penalty>
0.000384839

> <r_epik_Ionization_Penalty_Charging>
0.000384812

> <r_epik_Ionization_Penalty_Neutral>
2.6907e-08

> <r_epik_State_Penalty>
0.000235226

> <r_epik_Charging_Adjusted_Penalty>
0.000620038

> <i_epik_Tot_Q>
1

> <i_epik_Tot_abs_Q>
1

> <r_epik_Metal_State_Penalty>
-0

> <b_epik_Metal_Only>
0

> <s_lp_Force_Field>
OPLS_2005

> <r_lp_Energy>
29.3938

> <b_lp_Chiralities_Consistent>
1

> <s_lp_Variant>
AV-unprocessed.smi:2137-1

> <Gold.Version>
5.8.1

> <Gold.Id.Protein>
6NUR|6NUR_protein|mol2

> <Gold.PLP.Fitness>
51.8654

> <Gold.PLP.PLP>
-47.6685

> <Gold.PLP.part.hbond>
-1.9473

> <Gold.PLP.part.metal>
0.0000

> <Gold.PLP.part.buried>
-5.2537

> <Gold.PLP.part.nonpolar>
-39.7505

> <Gold.PLP.part.repulsive>
0.5234

> <Gold.PLP.ligand.clash>
0.0000

> <Gold.PLP.ligand.torsion>
0.9179

> <Gold.PLP.Chemscore.Hbond>
0.9920

> <Gold.PLP.Chemscore.CHOScore>
0.9998

> <Gold.PLP.Chemscore.Metal>
0.0000

> <Gold.Chemscore.Hbonds>
donor molecule, donor type, donor heavy atom, donor atom, acceptor molecule, acceptor atom, score
      P1  H 10752 10764       L1    12  0.94
      L1  C    15    43       P1  7948  0.09

> <Gold.PLP.Chemscore.Internal.Correction>
0.0574

> <Gold.Rescore>
     Score         DG    S(hbond)    S(metal)    S(lipo)     H(rot)  DE(clash)    DE(int)     intcor
     12.71     -14.85       0.93        0.00     103.43       2.27       0.15       1.99       ----

> <Gold.Chemscore.Fitness>
12.7113

> <Gold.Chemscore.DG>
-14.8540

> <Gold.Chemscore.ZeroCoef>
-5.4800

> <Gold.Chemscore.Hbond>
0.9271

> <Gold.Chemscore.Metal>
0.0000

> <Gold.Chemscore.Lipo>
103.4260

> <Gold.Chemscore.Internal_Hbond>
0.0000

> <Gold.Chemscore.DEClash>
0.1523

> <Gold.Chemscore.DEInternal>
1.9904

> <Gold.Chemscore.Rot>
2.2748

> <Gold.Chemscore.Internal.Correction>
   9.000000E+99

> <Gold.Chemscore.Hbonds>
donor molecule, donor type, donor heavy atom, donor atom, acceptor molecule, acceptor atom, score
      P1  H 10752 10764       L1    12  0.91

> <Gold.Chemscore.Hbond.Weighted>
-3.0966

> <Gold.Chemscore.Metal.Weighted>
-0.0000

> <Gold.Chemscore.Lipo.Weighted>
-12.1008

> <Gold.Chemscore.Internal_Hbond.Weighted>
0.0000

> <Gold.Chemscore.DEClash.Weighted>
0.1523

> <Gold.Chemscore.DEInternal.Weighted>
1.9904

> <Gold.Chemscore.Rot.Weighted>
5.8234

> <Gold.Chemscore.Internal.Correction.Weighted>
   9.000000E+99

> <Gold.Protein.RotatedTorsions>
[ 6907 6896 6895 6894 ] final  -45.85 input  -60.11 | X-H torsion
[ 7974 7965 7964 7962 ] final  164.46 input  175.53 | X-H torsion
[ 8008 7997 7996 7995 ] final -110.49 input   59.86 | X-H torsion
[ 10167 10162 10161 10158 ] final -107.36 input  -65.29 | X-H torsion
[ 10718 10713 10712 10709 ] final    3.97 input   66.30 | X-H torsion
[ 10763 10752 10751 10750 ] final  -92.55 input  -60.55 | X-H torsion
[ 11005 11000 10999 10996 ] final -149.91 input  -57.11 | X-H torsion

> <Gold.Protein.ActiveResidues>
 VAL166  LYS551  ARG553  GLY616  TRP617  ASP618  TYR619  PRO620  LYS621  CYS622 
 ASP623  PHE694  ASN695  SER759  ASP760  ASP761  ALA762  ILE779  LEU786  VAL792 
 PHE793  MET794  SER795  GLU796  ALA797  LYS798  CYS799  TRP800  GLU811  SER814 

> <Gold.Protein.RotatedAtoms>
  150.9175  134.8593  159.7466 H   0  0  0  0  0  0  0  0  0  0  0  0  # atno 6907 bound_to 6896
  152.4976  134.4267  159.9508 H   0  0  0  0  0  0  0  0  0  0  0  0  # atno 6908 bound_to 6896
  151.4303  133.3632  159.2803 H   0  0  0  0  0  0  0  0  0  0  0  0  # atno 6909 bound_to 6896
  144.7544  139.8329  143.6355 H   0  0  0  0  0  0  0  0  0  0  0  0  # atno 7974 bound_to 7965
  154.9752  140.0397  157.2253 H   0  0  0  0  0  0  0  0  0  0  0  0  # atno 8008 bound_to 7997
  154.7764  140.2811  155.6075 H   0  0  0  0  0  0  0  0  0  0  0  0  # atno 8009 bound_to 7997
  156.2929  140.2600  156.2579 H   0  0  0  0  0  0  0  0  0  0  0  0  # atno 8010 bound_to 7997
  140.1778  143.3991  152.1305 H   0  0  0  0  0  0  0  0  0  0  0  0  # atno 10167 bound_to 10162
  156.8857  130.5669  149.5651 H   0  0  0  0  0  0  0  0  0  0  0  0  # atno 10718 bound_to 10713
  154.6872  135.5227  153.8343 H   0  0  0  0  0  0  0  0  0  0  0  0  # atno 10763 bound_to 10752
  153.0606  135.6567  154.0481 H   0  0  0  0  0  0  0  0  0  0  0  0  # atno 10764 bound_to 10752
  154.0360  135.2981  155.3341 H   0  0  0  0  0  0  0  0  0  0  0  0  # atno 10765 bound_to 10752
  140.7457  134.3463  157.5137 H   0  0  0  0  0  0  0  0  0  0  0  0  # atno 11005 bound_to 11000
  146.1536  139.4627  143.0033 LP  0  0  0  0  0  0  0  0  0  0  0  0  # atno 17320 bound_to 7965
  145.6830  141.0185  143.1596 LP  0  0  0  0  0  0  0  0  0  0  0  0  # atno 17321 bound_to 7965
  139.5309  144.7158  151.5059 LP  0  0  0  0  0  0  0  0  0  0  0  0  # atno 17342 bound_to 10162
  140.6539  143.8639  150.6815 LP  0  0  0  0  0  0  0  0  0  0  0  0  # atno 17343 bound_to 10162
  156.0654  130.5698  150.9278 LP  0  0  0  0  0  0  0  0  0  0  0  0  # atno 17370 bound_to 10713
  157.6114  131.0936  150.8789 LP  0  0  0  0  0  0  0  0  0  0  0  0  # atno 17371 bound_to 10713
  139.8797  134.9110  156.3026 LP  0  0  0  0  0  0  0  0  0  0  0  0  # atno 17394 bound_to 11000
  140.9796  133.7275  156.0653 LP  0  0  0  0  0  0  0  0  0  0  0  0  # atno 17395 bound_to 11000

$$$$
