AV-unprocessed.smi:204|AV-procd|sdf|1598|dock3
  -GOLD-   2262019503D 1   1.00000     0.00000
 Structure written by MMmdl.
 53 56  0  0  0  0  0  0  0  0  1 V2000
  147.1661  135.0641  161.8515 C   0  0  0  0  0  0  0  0  0  0  0  0
  147.5421  135.9988  160.7066 C   0  0  0  0  0  0  0  0  0  0  0  0
  147.8938  137.1544  160.9413 O   0  0  0  0  0  0  0  0  0  0  0  0
  147.4627  135.4848  159.4715 N   0  0  0  0  0  0  0  0  0  0  0  0
  147.7762  136.2167  158.2503 C   0  0  0  0  0  0  0  0  0  0  0  0
  146.5431  136.9597  157.7037 C   0  0  2  0  0  0  0  0  0  0  0  0
  145.5634  137.3845  158.8197 C   0  0  0  0  0  0  0  0  0  0  0  0
  144.3281  138.0795  158.2256 C   0  0  0  0  0  0  0  0  0  0  0  0
  143.6579  137.1957  157.1624 C   0  0  0  0  0  0  0  0  0  0  0  0
  144.6258  136.7965  156.1460 N   0  0  0  0  0  0  0  0  0  0  0  0
  144.0578  136.2010  155.0768 C   0  0  0  0  0  0  0  0  0  0  0  0
  142.8176  135.6812  155.2444 N   0  0  0  0  0  0  0  0  0  0  0  0
  142.2045  135.0769  154.2218 C   0  0  0  0  0  0  0  0  0  0  0  0
  142.6477  134.8863  152.9770 N   0  0  0  0  0  0  0  0  0  0  0  0
  143.8989  135.4025  152.8089 C   0  0  0  0  0  0  0  0  0  0  0  0
  144.6707  136.0741  153.7986 C   0  0  0  0  0  0  0  0  0  0  0  0
  145.8931  136.4633  153.2647 N   0  0  0  0  0  0  0  0  0  0  0  0
  145.8445  136.0501  152.0280 C   0  0  0  0  0  0  0  0  0  0  0  0
  144.6882  135.3923  151.6717 N   0  0  0  0  0  0  0  0  0  0  0  0
  144.3800  134.8290  150.3657 C   0  0  0  0  0  0  0  0  0  0  0  0
  144.6620  133.3165  150.2442 C   0  0  0  0  0  0  0  0  0  0  0  0
  144.0171  132.7368  148.9725 C   0  0  0  0  0  0  0  0  0  0  0  0
  142.7904  132.0961  149.2604 O   0  0  0  0  0  0  0  0  0  0  0  0
  146.1188  132.8834  150.4661 C   0  0  0  0  0  0  0  0  0  0  0  0
  145.7317  131.8793  151.4274 O   0  0  0  0  0  0  0  0  0  0  0  0
  144.4278  132.4914  151.5172 C   0  0  0  0  0  0  0  0  0  0  0  0
  145.8032  136.1006  156.6589 C   0  0  0  0  0  0  0  0  0  0  0  0
  146.1276  134.7455  161.7575 H   0  0  0  0  0  0  0  0  0  0  0  0
  147.2846  135.5618  162.8145 H   0  0  0  0  0  0  0  0  0  0  0  0
  147.8022  134.1786  161.8449 H   0  0  0  0  0  0  0  0  0  0  0  0
  147.1647  134.5252  159.3696 H   0  0  0  0  0  0  0  0  0  0  0  0
  148.5741  136.9290  158.4657 H   0  0  0  0  0  0  0  0  0  0  0  0
  148.1608  135.5259  157.4978 H   0  0  0  0  0  0  0  0  0  0  0  0
  146.8929  137.8625  157.1998 H   0  0  0  0  0  0  0  0  0  0  0  0
  145.2497  136.5081  159.3886 H   0  0  0  0  0  0  0  0  0  0  0  0
  146.0504  138.0565  159.5267 H   0  0  0  0  0  0  0  0  0  0  0  0
  143.6163  138.3193  159.0156 H   0  0  0  0  0  0  0  0  0  0  0  0
  144.6249  139.0278  157.7758 H   0  0  0  0  0  0  0  0  0  0  0  0
  143.2347  136.3067  157.6323 H   0  0  0  0  0  0  0  0  0  0  0  0
  142.8325  137.7368  156.6972 H   0  0  0  0  0  0  0  0  0  0  0  0
  141.2183  134.6898  154.4311 H   0  0  0  0  0  0  0  0  0  0  0  0
  146.6608  136.2072  151.3378 H   0  0  0  0  0  0  0  0  0  0  0  0
  143.3322  135.0421  150.1503 H   0  0  0  0  0  0  0  0  0  0  0  0
  144.9475  135.3815  149.6159 H   0  0  0  0  0  0  0  0  0  0  0  0
  143.8528  133.5049  148.2168 H   0  0  0  0  0  0  0  0  0  0  0  0
  144.6764  132.0001  148.5116 H   0  0  0  0  0  0  0  0  0  0  0  0
  142.0885  132.7126  149.1150 H   0  0  0  0  0  0  0  0  0  0  0  0
  146.5977  132.4605  149.5821 H   0  0  0  0  0  0  0  0  0  0  0  0
  146.7499  133.6469  150.9225 H   0  0  0  0  0  0  0  0  0  0  0  0
  144.3250  133.0925  152.4221 H   0  0  0  0  0  0  0  0  0  0  0  0
  143.6166  131.7667  151.4374 H   0  0  0  0  0  0  0  0  0  0  0  0
  146.4733  135.8627  155.8313 H   0  0  0  0  0  0  0  0  0  0  0  0
  145.5030  135.1535  157.1086 H   0  0  0  0  0  0  0  0  0  0  0  0
  1  2  1  0  0  0  0
  1 28  1  0  0  0  0
  1 29  1  0  0  0  0
  1 30  1  0  0  0  0
  2  3  2  0  0  0  0
  2  4  1  0  0  0  0
  4  5  1  0  0  0  0
  4 31  1  0  0  0  0
  5  6  1  0  0  0  0
  5 32  1  0  0  0  0
  5 33  1  0  0  0  0
  6 27  1  0  0  0  0
  6  7  1  0  0  0  0
  6 34  1  0  0  0  0
  7  8  1  0  0  0  0
  7 35  1  0  0  0  0
  7 36  1  0  0  0  0
  8  9  1  0  0  0  0
  8 37  1  0  0  0  0
  8 38  1  0  0  0  0
  9 10  1  0  0  0  0
  9 39  1  0  0  0  0
  9 40  1  0  0  0  0
 10 11  1  0  0  0  0
 10 27  1  0  0  0  0
 11 16  1  0  0  0  0
 11 12  2  0  0  0  0
 12 13  1  0  0  0  0
 13 14  2  0  0  0  0
 13 41  1  0  0  0  0
 14 15  1  0  0  0  0
 15 19  1  0  0  0  0
 15 16  2  0  0  0  0
 16 17  1  0  0  0  0
 17 18  2  0  0  0  0
 18 19  1  0  0  0  0
 18 42  1  0  0  0  0
 19 20  1  0  0  0  0
 20 21  1  0  0  0  0
 20 43  1  0  0  0  0
 20 44  1  0  0  0  0
 21 26  1  0  0  0  0
 21 22  1  0  0  0  0
 21 24  1  0  0  0  0
 22 23  1  0  0  0  0
 22 45  1  0  0  0  0
 22 46  1  0  0  0  0
 23 47  1  0  0  0  0
 24 25  1  0  0  0  0
 24 48  1  0  0  0  0
 24 49  1  0  0  0  0
 25 26  1  0  0  0  0
 26 50  1  0  0  0  0
 26 51  1  0  0  0  0
 27 52  1  0  0  0  0
 27 53  1  0  0  0  0
M  END
> <s_m_source_file>
AV-unprocessed.smi

> <i_m_source_file_index>
204

> <i_lp_mmshare_version>
43012

> <i_f3d_flags>
0

> <s_epik_input>
W0NIM11DKD1PKVtOSF1bQ0gyXVtDQEBIXTFbQ0gyXVtDSDJdW0NIMl1OKFtDSDJdMSljKG5bY0hdbjIpYyhjMjMpbltjSF1uM1tDSDJdQzQoW0NIMl1bT0hdKVtDSDJdT1tDSDJdNA==

> <s_epik_cmdline>
J2VwaWtfcHl0aG9uJywgJy1waCcsICc3LjAnLCAnLXRuJywgJzgnLCAnLW1hJywgJzIwMCcsICctbWV0YWxfYmluZGluZycsICctaW1hZScsICc8aW5maWxlLm1hZT4nLCAnLW9tYWUnLCAnPG91dGZpbGUubWFlPic=

> <r_lp_tautomer_probability>
1

> <r_epik_Ionization_Penalty>
0.00166599

> <r_epik_Ionization_Penalty_Charging>
0

> <r_epik_Ionization_Penalty_Neutral>
0.00166599

> <r_epik_State_Penalty>
0.000989951

> <r_epik_Charging_Adjusted_Penalty>
0.000989951

> <i_epik_Tot_Q>
0

> <i_epik_Tot_abs_Q>
0

> <r_epik_Metal_State_Penalty>
-0

> <b_epik_Metal_Only>
0

> <s_lp_Force_Field>
OPLS_2005

> <r_lp_Energy>
36.8691

> <b_lp_Chiralities_Consistent>
1

> <s_lp_Variant>
AV-unprocessed.smi:204-1

> <Gold.Version>
5.8.1

> <Gold.Id.Protein>
6NUR|6NUR_protein|mol2

> <Gold.PLP.Fitness>
47.2838

> <Gold.PLP.PLP>
-34.6368

> <Gold.PLP.part.hbond>
-5.3250

> <Gold.PLP.part.metal>
0.0000

> <Gold.PLP.part.buried>
-5.1043

> <Gold.PLP.part.nonpolar>
-24.0541

> <Gold.PLP.part.repulsive>
0.5243

> <Gold.PLP.ligand.clash>
0.0000

> <Gold.PLP.ligand.torsion>
2.2171

> <Gold.PLP.Chemscore.Hbond>
3.6445

> <Gold.PLP.Chemscore.CHOScore>
1.8536

> <Gold.PLP.Chemscore.Metal>
0.0000

> <Gold.Chemscore.Hbonds>
donor molecule, donor type, donor heavy atom, donor atom, acceptor molecule, acceptor atom, score
      L1  H    23    47       P1 10186  0.94
      P1  H  6931  6943       L1     3  0.93
      P1  H  6934  6947       L1     3  0.80
      P1  H 10785 10796       L1    23  0.93
      L1  C    13    41       P1 11000  0.92
      L1  C    18    42       P1  7948  0.96

> <Gold.PLP.Chemscore.Internal.Correction>
0.5866

> <Gold.Rescore>
     Score         DG    S(hbond)    S(metal)    S(lipo)     H(rot)  DE(clash)    DE(int)     intcor
     11.79     -14.04       3.20        0.00      54.46       3.33       0.07       2.17       ----

> <Gold.Chemscore.Fitness>
11.7939

> <Gold.Chemscore.DG>
-14.0356

> <Gold.Chemscore.ZeroCoef>
-5.4800

> <Gold.Chemscore.Hbond>
3.2031

> <Gold.Chemscore.Metal>
0.0000

> <Gold.Chemscore.Lipo>
54.4629

> <Gold.Chemscore.Internal_Hbond>
0.0000

> <Gold.Chemscore.DEClash>
0.0736

> <Gold.Chemscore.DEInternal>
2.1680

> <Gold.Chemscore.Rot>
3.3261

> <Gold.Chemscore.Internal.Correction>
   9.000000E+99

> <Gold.Chemscore.Hbonds>
donor molecule, donor type, donor heavy atom, donor atom, acceptor molecule, acceptor atom, score
      L1  H    23    47       P1 10186  0.88
      P1  H  6931  6943       L1     3  0.90
      P1  H  6934  6947       L1     3  0.77
      P1  H 10785 10796       L1    23  0.31

> <Gold.Chemscore.Hbond.Weighted>
-10.6982

> <Gold.Chemscore.Metal.Weighted>
-0.0000

> <Gold.Chemscore.Lipo.Weighted>
-6.3722

> <Gold.Chemscore.Internal_Hbond.Weighted>
0.0000

> <Gold.Chemscore.DEClash.Weighted>
0.0736

> <Gold.Chemscore.DEInternal.Weighted>
2.1680

> <Gold.Chemscore.Rot.Weighted>
8.5149

> <Gold.Chemscore.Internal.Correction.Weighted>
   9.000000E+99

> <Gold.Protein.RotatedTorsions>
[ 6907 6896 6895 6894 ] final -100.97 input  -60.11 | X-H torsion
[ 7974 7965 7964 7962 ] final   49.14 input  175.53 | X-H torsion
[ 8008 7997 7996 7995 ] final   89.69 input   59.86 | X-H torsion
[ 10167 10162 10161 10158 ] final -100.31 input  -65.29 | X-H torsion
[ 10718 10713 10712 10709 ] final  154.82 input   66.30 | X-H torsion
[ 10763 10752 10751 10750 ] final  -35.91 input  -60.55 | X-H torsion
[ 11005 11000 10999 10996 ] final -116.33 input  -57.11 | X-H torsion

> <Gold.Protein.ActiveResidues>
 VAL166  LYS551  ARG553  GLY616  TRP617  ASP618  TYR619  PRO620  LYS621  CYS622 
 ASP623  PHE694  ASN695  SER759  ASP760  ASP761  ALA762  ILE779  LEU786  VAL792 
 PHE793  MET794  SER795  GLU796  ALA797  LYS798  CYS799  TRP800  GLU811  SER814 

> <Gold.Protein.RotatedAtoms>
  150.7136  134.0806  159.3896 H   0  0  0  0  0  0  0  0  0  0  0  0  # atno 6907 bound_to 6896
  151.8790  135.0458  160.0496 H   0  0  0  0  0  0  0  0  0  0  0  0  # atno 6908 bound_to 6896
  152.2583  133.5239  159.5403 H   0  0  0  0  0  0  0  0  0  0  0  0  # atno 6909 bound_to 6896
  146.0137  139.4572  142.9940 H   0  0  0  0  0  0  0  0  0  0  0  0  # atno 7974 bound_to 7965
  156.0029  140.3358  155.6864 H   0  0  0  0  0  0  0  0  0  0  0  0  # atno 8008 bound_to 7997
  155.6264  140.0680  157.2680 H   0  0  0  0  0  0  0  0  0  0  0  0  # atno 8009 bound_to 7997
  154.4255  140.1767  156.1414 H   0  0  0  0  0  0  0  0  0  0  0  0  # atno 8010 bound_to 7997
  140.2533  143.3457  152.0695 H   0  0  0  0  0  0  0  0  0  0  0  0  # atno 10167 bound_to 10162
  157.2266  131.0730  151.1879 H   0  0  0  0  0  0  0  0  0  0  0  0  # atno 10718 bound_to 10713
  153.8709  135.6831  153.4774 H   0  0  0  0  0  0  0  0  0  0  0  0  # atno 10763 bound_to 10752
  153.1288  135.4707  154.9313 H   0  0  0  0  0  0  0  0  0  0  0  0  # atno 10764 bound_to 10752
  154.7714  135.3240  154.8132 H   0  0  0  0  0  0  0  0  0  0  0  0  # atno 10765 bound_to 10752
  141.0429  133.9808  157.2965 H   0  0  0  0  0  0  0  0  0  0  0  0  # atno 11005 bound_to 11000
  145.7301  141.0045  143.1356 LP  0  0  0  0  0  0  0  0  0  0  0  0  # atno 17320 bound_to 7965
  144.6963  139.8974  143.7456 LP  0  0  0  0  0  0  0  0  0  0  0  0  # atno 17321 bound_to 7965
  139.5039  144.6765  151.6114 LP  0  0  0  0  0  0  0  0  0  0  0  0  # atno 17342 bound_to 10162
  140.6024  143.9586  150.6395 LP  0  0  0  0  0  0  0  0  0  0  0  0  # atno 17343 bound_to 10162
  157.3521  130.7088  149.6447 LP  0  0  0  0  0  0  0  0  0  0  0  0  # atno 17370 bound_to 10713
  155.9678  130.4249  150.4631 LP  0  0  0  0  0  0  0  0  0  0  0  0  # atno 17371 bound_to 10713
  139.9289  135.0200  156.8332 LP  0  0  0  0  0  0  0  0  0  0  0  0  # atno 17394 bound_to 11000
  140.6201  134.0002  155.7614 LP  0  0  0  0  0  0  0  0  0  0  0  0  # atno 17395 bound_to 11000

$$$$
