AV-unprocessed.smi:2510|AV-procd|sdf|9871|dock8
  -GOLD-   2272013503D 1   1.00000     0.00000
 Structure written by MMmdl.
 48 49  0  0  0  0  0  0  0  0  1 V2000
  150.9977  140.7240  156.8423 C   0  0  0  0  0  0  0  0  0  0  0  0
  149.9890  139.6136  156.5156 C   0  0  0  0  0  0  0  0  0  0  0  0
  149.7561  139.3417  155.0128 C   0  0  0  0  0  0  0  0  0  0  0  0
  151.1313  138.9816  154.3695 C   0  0  0  0  0  0  0  0  0  0  0  0
  151.8881  137.7973  154.9959 C   0  0  0  0  0  0  0  0  0  0  0  0
  148.5819  138.3593  154.7317 C   0  0  2  0  0  0  0  0  0  0  0  0
  148.9757  136.9872  154.4309 N   0  0  0  0  0  0  0  0  0  0  0  0
  149.3255  136.0803  155.3548 C   0  0  0  0  0  0  0  0  0  0  0  0
  149.2823  136.2951  156.5660 O   0  0  0  0  0  0  0  0  0  0  0  0
  149.8221  134.7323  154.8324 C   0  0  0  0  0  0  0  0  0  0  0  0
  148.6768  133.9737  154.2164 C   0  0  0  0  0  0  0  0  0  0  0  0
  148.7002  132.6784  153.6180 C   0  0  0  0  0  0  0  0  0  0  0  0
  147.4065  132.4564  153.2390 C   0  0  0  0  0  0  0  0  0  0  0  0
  146.7602  131.2910  152.5707 C   0  0  0  0  0  0  0  0  0  0  0  0
  146.7028  133.5826  153.5981 N   0  0  0  0  0  0  0  0  0  0  0  0
  147.4672  134.5164  154.1936 N   0  0  0  0  0  0  0  0  0  0  0  0
  148.2404  139.1789  153.4829 C   0  0  1  0  0  0  0  0  0  0  0  0
  146.8012  139.2359  152.9869 C   0  0  0  0  0  0  0  0  0  0  0  0
  148.8685  140.3651  154.2420 C   0  0  1  0  0  0  0  0  0  0  0  0
  147.9409  141.0174  155.1050 O   0  0  0  0  0  0  0  0  0  0  0  0
  147.1193  141.9589  154.4355 C   0  0  0  0  0  0  0  0  0  0  0  0
  145.7143  133.7255  153.4460 H   0  0  0  0  0  0  0  0  0  0  0  0
  150.9648  140.9673  157.9042 H   0  0  0  0  0  0  0  0  0  0  0  0
  150.7830  141.6382  156.2885 H   0  0  0  0  0  0  0  0  0  0  0  0
  152.0187  140.4166  156.6207 H   0  0  0  0  0  0  0  0  0  0  0  0
  150.2917  138.6980  157.0246 H   0  0  0  0  0  0  0  0  0  0  0  0
  149.0436  139.8851  156.9864 H   0  0  0  0  0  0  0  0  0  0  0  0
  151.0118  138.7900  153.3025 H   0  0  0  0  0  0  0  0  0  0  0  0
  151.8184  139.8253  154.4148 H   0  0  0  0  0  0  0  0  0  0  0  0
  152.7442  137.5265  154.3778 H   0  0  0  0  0  0  0  0  0  0  0  0
  151.2695  136.9091  155.1045 H   0  0  0  0  0  0  0  0  0  0  0  0
  152.2791  138.0523  155.9807 H   0  0  0  0  0  0  0  0  0  0  0  0
  147.7852  138.4253  155.4773 H   0  0  0  0  0  0  0  0  0  0  0  0
  149.0353  136.7277  153.4570 H   0  0  0  0  0  0  0  0  0  0  0  0
  150.6184  134.9008  154.1058 H   0  0  0  0  0  0  0  0  0  0  0  0
  150.2634  134.1583  155.6481 H   0  0  0  0  0  0  0  0  0  0  0  0
  149.5399  132.0105  153.4960 H   0  0  0  0  0  0  0  0  0  0  0  0
  147.4074  130.4144  152.6056 H   0  0  0  0  0  0  0  0  0  0  0  0
  146.5488  131.5137  151.5247 H   0  0  0  0  0  0  0  0  0  0  0  0
  145.8201  131.0338  153.0595 H   0  0  0  0  0  0  0  0  0  0  0  0
  148.9039  138.9012  152.6611 H   0  0  0  0  0  0  0  0  0  0  0  0
  146.1096  139.4941  153.7892 H   0  0  0  0  0  0  0  0  0  0  0  0
  146.4880  138.2725  152.5844 H   0  0  0  0  0  0  0  0  0  0  0  0
  146.6847  139.9762  152.1957 H   0  0  0  0  0  0  0  0  0  0  0  0
  149.4189  141.0631  153.6120 H   0  0  0  0  0  0  0  0  0  0  0  0
  146.4081  142.3895  155.1401 H   0  0  0  0  0  0  0  0  0  0  0  0
  146.5536  141.4973  153.6263 H   0  0  0  0  0  0  0  0  0  0  0  0
  147.7167  142.7726  154.0226 H   0  0  0  0  0  0  0  0  0  0  0  0
  1  2  1  0  0  0  0
  1 23  1  0  0  0  0
  1 24  1  0  0  0  0
  1 25  1  0  0  0  0
  2  3  1  0  0  0  0
  2 26  1  0  0  0  0
  2 27  1  0  0  0  0
  3 19  1  0  0  0  0
  3  4  1  0  0  0  0
  3  6  1  0  0  0  0
  4  5  1  0  0  0  0
  4 28  1  0  0  0  0
  4 29  1  0  0  0  0
  5 30  1  0  0  0  0
  5 31  1  0  0  0  0
  5 32  1  0  0  0  0
  6  7  1  0  0  0  0
  6 17  1  0  0  0  0
  6 33  1  0  0  0  0
  7  8  1  0  0  0  0
  7 34  1  0  0  0  0
  8  9  2  0  0  0  0
  8 10  1  0  0  0  0
 10 11  1  0  0  0  0
 10 35  1  0  0  0  0
 10 36  1  0  0  0  0
 11 16  2  0  0  0  0
 11 12  1  0  0  0  0
 12 13  2  0  0  0  0
 12 37  1  0  0  0  0
 13 14  1  0  0  0  0
 13 15  1  0  0  0  0
 14 38  1  0  0  0  0
 14 39  1  0  0  0  0
 14 40  1  0  0  0  0
 15 22  1  0  0  0  0
 15 16  1  0  0  0  0
 17 18  1  0  0  0  0
 17 19  1  0  0  0  0
 17 41  1  0  0  0  0
 18 42  1  0  0  0  0
 18 43  1  0  0  0  0
 18 44  1  0  0  0  0
 19 20  1  0  0  0  0
 19 45  1  0  0  0  0
 20 21  1  0  0  0  0
 21 46  1  0  0  0  0
 21 47  1  0  0  0  0
 21 48  1  0  0  0  0
M  END
> <s_m_source_file>
AV-unprocessed.smi

> <i_m_source_file_index>
2510

> <i_lp_mmshare_version>
43012

> <i_f3d_flags>
0

> <s_epik_input>
W0NIM11PW0NAQEhdMVtDQEhdKFtDSDNdKVtDQEBIXShDMShbQ0gyXVtDSDNdKVtDSDJdW0NIM10pW05IXUMoPU8pW0NIMl1jMltjSF1jKFtDSDNdKVtuSF1uMg==

> <s_epik_cmdline>
J2VwaWtfcHl0aG9uJywgJy1waCcsICc3LjAnLCAnLXRuJywgJzgnLCAnLW1hJywgJzIwMCcsICctbWV0YWxfYmluZGluZycsICctaW1hZScsICc8aW5maWxlLm1hZT4nLCAnLW9tYWUnLCAnPG91dGZpbGUubWFlPic=

> <r_lp_tautomer_probability>
0.5

> <r_epik_Ionization_Penalty>
9.73156e-05

> <r_epik_Ionization_Penalty_Charging>
0

> <r_epik_Ionization_Penalty_Neutral>
9.73156e-05

> <r_epik_State_Penalty>
0.41068

> <r_epik_Charging_Adjusted_Penalty>
0.41068

> <i_epik_Tot_Q>
0

> <i_epik_Tot_abs_Q>
0

> <r_epik_Metal_State_Penalty>
0.410699

> <b_epik_Metal_Only>
0

> <s_lp_Force_Field>
OPLS_2005

> <r_lp_Energy>
28.8176

> <b_lp_Chiralities_Consistent>
1

> <s_lp_Variant>
AV-unprocessed.smi:2510-2

> <Gold.Version>
5.8.1

> <Gold.Id.Protein>
6NUR|6NUR_protein|mol2

> <Gold.PLP.Fitness>
33.9040

> <Gold.PLP.PLP>
-31.2099

> <Gold.PLP.part.hbond>
-1.0000

> <Gold.PLP.part.metal>
0.0000

> <Gold.PLP.part.buried>
0.4982

> <Gold.PLP.part.nonpolar>
-30.7239

> <Gold.PLP.part.repulsive>
0.2081

> <Gold.PLP.ligand.clash>
0.0000

> <Gold.PLP.ligand.torsion>
0.4908

> <Gold.PLP.Chemscore.Hbond>
1.0000

> <Gold.PLP.Chemscore.CHOScore>
0.0000

> <Gold.PLP.Chemscore.Metal>
0.0000

> <Gold.Chemscore.Hbonds>
donor molecule, donor type, donor heavy atom, donor atom, acceptor molecule, acceptor atom, score
      L1  H     7    34       P1  7948  1.00

> <Gold.PLP.Chemscore.Internal.Correction>
0.6757

> <Gold.Rescore>
     Score         DG    S(hbond)    S(metal)    S(lipo)     H(rot)  DE(clash)    DE(int)     intcor
     12.20     -14.12       0.98        0.00      85.43       1.81       0.11       1.82       ----

> <Gold.Chemscore.Fitness>
12.2013

> <Gold.Chemscore.DG>
-14.1236

> <Gold.Chemscore.ZeroCoef>
-5.4800

> <Gold.Chemscore.Hbond>
0.9827

> <Gold.Chemscore.Metal>
0.0000

> <Gold.Chemscore.Lipo>
85.4305

> <Gold.Chemscore.Internal_Hbond>
0.0000

> <Gold.Chemscore.DEClash>
0.1055

> <Gold.Chemscore.DEInternal>
1.8167

> <Gold.Chemscore.Rot>
1.8102

> <Gold.Chemscore.Internal.Correction>
   9.000000E+99

> <Gold.Chemscore.Hbonds>
donor molecule, donor type, donor heavy atom, donor atom, acceptor molecule, acceptor atom, score
      L1  H     7    34       P1  7948  1.00

> <Gold.Chemscore.Hbond.Weighted>
-3.2823

> <Gold.Chemscore.Metal.Weighted>
-0.0000

> <Gold.Chemscore.Lipo.Weighted>
-9.9954

> <Gold.Chemscore.Internal_Hbond.Weighted>
0.0000

> <Gold.Chemscore.DEClash.Weighted>
0.1055

> <Gold.Chemscore.DEInternal.Weighted>
1.8167

> <Gold.Chemscore.Rot.Weighted>
4.6341

> <Gold.Chemscore.Internal.Correction.Weighted>
   9.000000E+99

> <Gold.Protein.RotatedTorsions>
[ 6907 6896 6895 6894 ] final  112.88 input  -60.11 | X-H torsion
[ 7974 7965 7964 7962 ] final   62.98 input  175.53 | X-H torsion
[ 8008 7997 7996 7995 ] final   70.78 input   59.86 | X-H torsion
[ 10167 10162 10161 10158 ] final  135.36 input  -65.29 | X-H torsion
[ 10718 10713 10712 10709 ] final -128.43 input   66.30 | X-H torsion
[ 10763 10752 10751 10750 ] final -175.98 input  -60.55 | X-H torsion
[ 11005 11000 10999 10996 ] final   97.03 input  -57.11 | X-H torsion

> <Gold.Protein.ActiveResidues>
 VAL166  LYS551  ARG553  GLY616  TRP617  ASP618  TYR619  PRO620  LYS621  CYS622 
 ASP623  PHE694  ASN695  SER759  ASP760  ASP761  ALA762  ILE779  LEU786  VAL792 
 PHE793  MET794  SER795  GLU796  ALA797  LYS798  CYS799  TRP800  GLU811  SER814 

> <Gold.Protein.RotatedAtoms>
  152.4892  133.8454  159.7173 H   0  0  0  0  0  0  0  0  0  0  0  0  # atno 6907 bound_to 6896
  150.9006  133.7114  159.2886 H   0  0  0  0  0  0  0  0  0  0  0  0  # atno 6908 bound_to 6896
  151.4557  135.1038  159.9762 H   0  0  0  0  0  0  0  0  0  0  0  0  # atno 6909 bound_to 6896
  145.8671  139.3353  143.0784 H   0  0  0  0  0  0  0  0  0  0  0  0  # atno 7974 bound_to 7965
  155.7440  140.3490  155.5118 H   0  0  0  0  0  0  0  0  0  0  0  0  # atno 8008 bound_to 7997
  155.9068  140.1043  157.1331 H   0  0  0  0  0  0  0  0  0  0  0  0  # atno 8009 bound_to 7997
  154.4050  140.1275  156.4493 H   0  0  0  0  0  0  0  0  0  0  0  0  # atno 8010 bound_to 7997
  139.5220  144.6521  151.5272 H   0  0  0  0  0  0  0  0  0  0  0  0  # atno 10167 bound_to 10162
  156.1950  130.6820  151.0470 H   0  0  0  0  0  0  0  0  0  0  0  0  # atno 10718 bound_to 10713
  154.5779  135.2833  155.0762 H   0  0  0  0  0  0  0  0  0  0  0  0  # atno 10763 bound_to 10752
  154.2109  135.6408  153.5119 H   0  0  0  0  0  0  0  0  0  0  0  0  # atno 10764 bound_to 10752
  153.0078  135.5491  154.6424 H   0  0  0  0  0  0  0  0  0  0  0  0  # atno 10765 bound_to 10752
  139.8778  134.8980  156.4246 H   0  0  0  0  0  0  0  0  0  0  0  0  # atno 11005 bound_to 11000
  145.9180  140.9134  143.0419 LP  0  0  0  0  0  0  0  0  0  0  0  0  # atno 17320 bound_to 7965
  144.6726  140.1250  143.7447 LP  0  0  0  0  0  0  0  0  0  0  0  0  # atno 17321 bound_to 7965
  140.6330  143.9039  150.6622 LP  0  0  0  0  0  0  0  0  0  0  0  0  # atno 17342 bound_to 10162
  140.2349  143.3707  152.1535 LP  0  0  0  0  0  0  0  0  0  0  0  0  # atno 17343 bound_to 10162
  157.6952  131.0796  150.6990 LP  0  0  0  0  0  0  0  0  0  0  0  0  # atno 17370 bound_to 10713
  156.7047  130.4634  149.5563 LP  0  0  0  0  0  0  0  0  0  0  0  0  # atno 17371 bound_to 10713
  140.9110  133.7712  155.9791 LP  0  0  0  0  0  0  0  0  0  0  0  0  # atno 17394 bound_to 11000
  140.8547  134.2912  157.5260 LP  0  0  0  0  0  0  0  0  0  0  0  0  # atno 17395 bound_to 11000

$$$$
