#       Name:                AV-unprocessed.smi:246
#       Creating user name   scv26
#       Creation time:       Thu Mar 26 20:52:26 2020


#       File generated by GOLD software.
#

@<TRIPOS>MOLECULE
AV-unprocessed.smi:246
    69    72     1
SMALL
NO_CHARGES


@<TRIPOS>ATOM
      1 ****        -7.2960   3.1239   0.2456 C.3            1 S1                 0.0000
      2 ****        -6.8923   3.4457   1.6909 C.3            1 S1                 0.0000
      3 ****        -5.4845   3.3877   1.8726 O.3            1 S1                 0.0000
      4 ****        -4.7819   4.5187   1.3779 C.3            1 S1                 0.0000
      5 ****        -3.2950   4.3553   1.7052 C.3            1 S1                 0.0000
      6 ****        -2.7304   3.3896   0.8307 O.3            1 S1                 0.0000
      7 ****        -1.3618   3.1143   1.0923 C.3            1 S1                 0.0000
      8 ****        -1.1531   2.2659   2.3451 C.3            1 S1                 0.0000
      9 ****         0.1928   1.5995   2.0722 C.3            1 S1                 0.0000
     10 ****         0.2730   1.4214   0.6245 N.3            1 S1                 0.0000
     11 ****         0.3100   0.1502   0.1637 C.ar           1 S1                 0.0000
     12 ****        -0.5207  -0.7926   0.6834 N.ar           1 S1                 0.0000
     13 ****        -0.4939  -2.0416   0.2083 C.ar           1 S1                 0.0000
     14 ****         0.2699  -2.5498  -0.7616 N.ar           1 S1                 0.0000
     15 ****         1.1008  -1.6032  -1.2858 C.ar           1 S1                 0.0000
     16 ****         1.1792  -0.2393  -0.8887 C.ar           1 S1                 0.0000
     17 ****         2.1319   0.4257  -1.6497 N.2            1 S1                 0.0000
     18 ****         2.5980  -0.4963  -2.4478 C.2            1 S1                 0.0000
     19 ****         2.0474  -1.7483  -2.2850 N.pl3          1 S1                 0.0000
     20 ****         2.3775  -2.9468  -3.0362 C.3            1 S1                 0.0000
     21 ****         3.8358  -3.4237  -2.8444 C.3            1 S1                 0.0000
     22 ****         4.0380  -4.4235  -3.8229 O.3            1 S1                 0.0000
     23 ****         4.1524  -4.0599  -1.4704 C.3            1 S1                 0.0000
     24 ****         3.9582  -3.1564  -0.2470 C.3            1 S1                 0.0000
     25 ****         4.9671  -3.6682   0.7704 C.3            1 S1                 0.0000
     26 ****         5.8386  -4.6339  -0.0299 C.3            1 S1                 0.0000
     27 ****         5.5452  -4.3277  -1.3836 O.3            1 S1                 0.0000
     28 ****        -0.7648   2.2320  -0.0082 C.3            1 S1                 0.0000
     29 ****        -0.7822   4.0368   1.1623 H              1 S1                 0.0000
     30 ****        -8.3810   3.0791   0.1510 H              1 S1                 0.0000
     31 ****        -6.8954   2.1591  -0.0660 H              1 S1                 0.0000
     32 ****        -6.9395   3.8789  -0.4545 H              1 S1                 0.0000
     33 ****        -7.2872   4.4132   2.0040 H              1 S1                 0.0000
     34 ****        -7.3373   2.7023   2.3528 H              1 S1                 0.0000
     35 ****        -4.9210   4.6449   0.3041 H              1 S1                 0.0000
     36 ****        -5.1614   5.4172   1.8665 H              1 S1                 0.0000
     37 ****        -2.7818   5.3073   1.5622 H              1 S1                 0.0000
     38 ****        -3.1730   4.0719   2.7511 H              1 S1                 0.0000
     39 ****        -1.1570   2.8468   3.2676 H              1 S1                 0.0000
     40 ****        -1.9327   1.5061   2.4161 H              1 S1                 0.0000
     41 ****         1.0052   2.2619   2.3725 H              1 S1                 0.0000
     42 ****         0.3087   0.6733   2.6368 H              1 S1                 0.0000
     43 ****        -1.1828  -2.7323   0.6718 H              1 S1                 0.0000
     44 ****         3.3674  -0.2886  -3.1774 H              1 S1                 0.0000
     45 ****         1.6803  -3.7419  -2.7692 H              1 S1                 0.0000
     46 ****         2.1965  -2.7203  -4.0881 H              1 S1                 0.0000
     47 ****         4.5264  -2.6048  -3.0481 H              1 S1                 0.0000
     48 ****         3.4691  -5.1529  -3.6294 H              1 S1                 0.0000
     49 ****         3.5935  -4.9882  -1.3342 H              1 S1                 0.0000
     50 ****         4.1955  -2.1215  -0.4959 H              1 S1                 0.0000
     51 ****         2.9391  -3.1879   0.1369 H              1 S1                 0.0000
     52 ****         5.5559  -2.8428   1.1723 H              1 S1                 0.0000
     53 ****         4.4845  -4.1759   1.6062 H              1 S1                 0.0000
     54 ****         6.9014  -4.5194   0.1838 H              1 S1                 0.0000
     55 ****         5.5570  -5.6678   0.1755 H              1 S1                 0.0000
     56 ****        -1.5409   1.5939  -0.4358 H              1 S1                 0.0000
     57 ****        -0.3504   2.8322  -0.8185 H              1 S1                 0.0000
     58 ****        -5.1414   2.5755   1.4009 LP             1 S1                 0.0000
     59 ****        -5.2985   3.3078   2.8519 LP             1 S1                 0.0000
     60 ****        -2.8109   3.7274  -0.1070 LP             1 S1                 0.0000
     61 ****        -3.2472   2.5386   0.9241 LP             1 S1                 0.0000
     62 ****         1.1807   1.7450   0.3573 LP             1 S1                 0.0000
     63 ****        -1.1515  -0.5515   1.4209 LP             1 S1                 0.0000
     64 ****         0.2372  -3.5021  -1.0649 LP             1 S1                 0.0000
     65 ****         2.3990   1.3880  -1.5982 LP             1 S1                 0.0000
     66 ****         4.9912  -4.7253  -3.8045 LP             1 S1                 0.0000
     67 ****         3.8215  -4.0579  -4.7281 LP             1 S1                 0.0000
     68 ****         6.0658  -3.5241  -1.6721 LP             1 S1                 0.0000
     69 ****         5.7803  -5.1045  -1.9677 LP             1 S1                 0.0000
@<TRIPOS>BOND
    1    1    2 1     
    2    1   30 1     
    3    1   31 1     
    4    1   32 1     
    5    2    3 1     
    6    2   33 1     
    7    2   34 1     
    8    3    4 1     
    9    4    5 1     
   10    4   35 1     
   11    4   36 1     
   12    5    6 1     
   13    5   37 1     
   14    5   38 1     
   15    6    7 1     
   16    7   29 1     
   17    7   28 1     
   18    7    8 1     
   19    8    9 1     
   20    8   39 1     
   21    8   40 1     
   22    9   10 1     
   23    9   41 1     
   24    9   42 1     
   25   10   11 1     
   26   10   28 1     
   27   11   16 ar    
   28   11   12 ar    
   29   12   13 ar    
   30   13   14 ar    
   31   13   43 1     
   32   14   15 ar    
   33   15   19 1     
   34   15   16 ar    
   35   16   17 1     
   36   17   18 2     
   37   18   19 1     
   38   18   44 1     
   39   19   20 1     
   40   20   21 1     
   41   20   45 1     
   42   20   46 1     
   43   21   22 1     
   44   21   23 1     
   45   21   47 1     
   46   22   48 1     
   47   23   27 1     
   48   23   24 1     
   49   23   49 1     
   50   24   25 1     
   51   24   50 1     
   52   24   51 1     
   53   25   26 1     
   54   25   52 1     
   55   25   53 1     
   56   26   27 1     
   57   26   54 1     
   58   26   55 1     
   59   28   56 1     
   60   28   57 1     
   61    3   58 1     
   62    3   59 1     
   63    6   60 1     
   64    6   61 1     
   65   10   62 1     
   66   12   63 1     
   67   14   64 1     
   68   17   65 1     
   69   22   66 1     
   70   22   67 1     
   71   27   68 1     
   72   27   69 1     
@<TRIPOS>SUBSTRUCTURE
      1 S1             1
@<TRIPOS>SET
LONE_PAIRS      STATIC     ATOMS    <user>   **** ""
12 58 59 60 61 62 63 64 65 66 67 68 69
DONOR_HYDROGENS      STATIC     ATOMS    <user>   **** ""
1 48
ATOM$BLUE        STATIC     ATOMS    COLORGROUP SYSTEM
12 58 59 60 61 62 63 64 65 66 67 68 69
ATOM$RED        STATIC     ATOMS    COLORGROUP SYSTEM
1 48
