AV-unprocessed.smi:1591|AV-procd|sdf|6399|dock1
  -GOLD-   22720 7 33D 1   1.00000     0.00000
 Structure written by MMmdl.
 51 54  0  0  0  0  0  0  0  0  2 V2000
  146.2426  138.9297  157.4745 C   0  0  0  0  0  0  0  0  0  0  0  0
  146.8522  137.6457  156.8909 C   0  0  0  0  0  0  0  0  0  0  0  0
  148.2871  137.3488  157.3939 C   0  0  2  0  0  0  0  0  0  0  0  0
  148.2501  137.1567  158.8456 N   0  0  0  0  0  0  0  0  0  0  0  0
  148.5371  136.0243  159.5066 C   0  0  0  0  0  0  0  0  0  0  0  0
  148.7930  134.9556  158.9526 O   0  0  0  0  0  0  0  0  0  0  0  0
  148.5497  136.1274  161.0340 C   0  0  0  0  0  0  0  0  0  0  0  0
  147.3278  135.5412  161.6052 N   0  0  0  0  0  0  0  0  0  0  0  0
  147.2987  134.1434  161.7582 C   0  0  0  0  0  0  0  0  0  0  0  0
  146.2167  133.5022  162.2380 C   0  0  0  0  0  0  0  0  0  0  0  0
  145.0508  134.2965  162.6038 C   0  0  0  0  0  0  0  0  0  0  0  0
  144.0529  133.7280  163.0426 O   0  0  0  0  0  0  0  0  0  0  0  0
  145.1273  135.6494  162.4378 N   0  5  0  0  0  0  0  0  0  0  0  0
  146.2343  136.2880  161.9458 C   0  0  0  0  0  0  0  0  0  0  0  0
  146.2779  137.5097  161.7999 O   0  0  0  0  0  0  0  0  0  0  0  0
  149.3700  138.4153  157.0100 C   0  0  0  0  0  0  0  0  0  0  0  0
  150.8121  137.9378  157.3512 C   0  0  0  0  0  0  0  0  0  0  0  0
  151.8517  139.0035  156.9396 C   0  0  1  0  0  0  0  0  0  0  0  0
  151.7679  139.2522  155.4198 C   0  0  0  0  0  0  0  0  0  0  0  0
  150.3559  139.7627  155.0686 C   0  0  2  0  0  0  0  0  0  0  0  0
  150.0734  141.0801  155.8158 C   0  0  0  0  0  0  0  0  0  0  0  0
  150.1616  140.8239  157.3325 C   0  0  2  0  0  0  0  0  0  0  0  0
  151.5742  140.3201  157.6943 C   0  0  0  0  0  0  0  0  0  0  0  0
  149.1171  139.7644  157.7445 C   0  0  0  0  0  0  0  0  0  0  0  0
  149.3134  138.7029  155.4776 C   0  0  0  0  0  0  0  0  0  0  0  0
  145.2103  139.0499  157.1454 H   0  0  0  0  0  0  0  0  0  0  0  0
  146.7912  139.8175  157.1591 H   0  0  0  0  0  0  0  0  0  0  0  0
  146.2423  138.9038  158.5646 H   0  0  0  0  0  0  0  0  0  0  0  0
  146.1845  136.8277  157.1554 H   0  0  0  0  0  0  0  0  0  0  0  0
  146.8367  137.7151  155.8033 H   0  0  0  0  0  0  0  0  0  0  0  0
  148.5843  136.4121  156.9189 H   0  0  0  0  0  0  0  0  0  0  0  0
  148.0468  137.9760  159.3992 H   0  0  0  0  0  0  0  0  0  0  0  0
  149.4312  135.6249  161.4361 H   0  0  0  0  0  0  0  0  0  0  0  0
  148.6636  137.1739  161.3207 H   0  0  0  0  0  0  0  0  0  0  0  0
  148.1999  133.6300  161.4561 H   0  0  0  0  0  0  0  0  0  0  0  0
  146.2104  132.4277  162.3458 H   0  0  0  0  0  0  0  0  0  0  0  0
  150.9088  137.7388  158.4185 H   0  0  0  0  0  0  0  0  0  0  0  0
  151.0395  136.9996  156.8438 H   0  0  0  0  0  0  0  0  0  0  0  0
  152.8510  138.6471  157.1917 H   0  0  0  0  0  0  0  0  0  0  0  0
  152.5204  139.9795  155.1128 H   0  0  0  0  0  0  0  0  0  0  0  0
  151.9846  138.3335  154.8730 H   0  0  0  0  0  0  0  0  0  0  0  0
  150.2919  139.9362  153.9938 H   0  0  0  0  0  0  0  0  0  0  0  0
  150.7900  141.8464  155.5176 H   0  0  0  0  0  0  0  0  0  0  0  0
  149.0858  141.4607  155.5527 H   0  0  0  0  0  0  0  0  0  0  0  0
  149.9625  141.7535  157.8667 H   0  0  0  0  0  0  0  0  0  0  0  0
  151.6570  140.1647  158.7707 H   0  0  0  0  0  0  0  0  0  0  0  0
  152.3214  141.0704  157.4326 H   0  0  0  0  0  0  0  0  0  0  0  0
  148.1118  140.1293  157.5296 H   0  0  0  0  0  0  0  0  0  0  0  0
  149.1747  139.6388  158.8249 H   0  0  0  0  0  0  0  0  0  0  0  0
  149.5040  137.7983  154.9001 H   0  0  0  0  0  0  0  0  0  0  0  0
  148.3146  139.0370  155.1930 H   0  0  0  0  0  0  0  0  0  0  0  0
  1  2  1  0  0  0  0
  1 26  1  0  0  0  0
  1 27  1  0  0  0  0
  1 28  1  0  0  0  0
  2  3  1  0  0  0  0
  2 29  1  0  0  0  0
  2 30  1  0  0  0  0
  3  4  1  0  0  0  0
  3 16  1  0  0  0  0
  3 31  1  0  0  0  0
  4  5  1  0  0  0  0
  4 32  1  0  0  0  0
  5  6  2  0  0  0  0
  5  7  1  0  0  0  0
  7  8  1  0  0  0  0
  7 33  1  0  0  0  0
  7 34  1  0  0  0  0
  8 14  1  0  0  0  0
  8  9  1  0  0  0  0
  9 10  2  0  0  0  0
  9 35  1  0  0  0  0
 10 11  1  0  0  0  0
 10 36  1  0  0  0  0
 11 12  2  0  0  0  0
 11 13  1  0  0  0  0
 13 14  1  0  0  0  0
 14 15  2  0  0  0  0
 16 24  1  0  0  0  0
 16 25  1  0  0  0  0
 16 17  1  0  0  0  0
 17 18  1  0  0  0  0
 17 37  1  0  0  0  0
 17 38  1  0  0  0  0
 18 23  1  0  0  0  0
 18 19  1  0  0  0  0
 18 39  1  0  0  0  0
 19 20  1  0  0  0  0
 19 40  1  0  0  0  0
 19 41  1  0  0  0  0
 20 21  1  0  0  0  0
 20 25  1  0  0  0  0
 20 42  1  0  0  0  0
 21 22  1  0  0  0  0
 21 43  1  0  0  0  0
 21 44  1  0  0  0  0
 22 23  1  0  0  0  0
 22 24  1  0  0  0  0
 22 45  1  0  0  0  0
 23 46  1  0  0  0  0
 23 47  1  0  0  0  0
 24 48  1  0  0  0  0
 24 49  1  0  0  0  0
 25 50  1  0  0  0  0
 25 51  1  0  0  0  0
M  CHG  1  13  -1
M  END
> <s_m_source_file>
AV-unprocessed.smi

> <i_m_source_file_index>
1591

> <i_lp_mmshare_version>
43012

> <i_f3d_flags>
0

> <s_epik_input>
W0NIMl0xW0NASF0oW0NIMl0yKVtDSDJdW0NASF0oW0NIMl0zKVtDSDJdW0NAQEhdMVtDSDJdQzIzW0NASF0oW0NIMl1bQ0gzXSlbTkhdQyg9TylbQ0gyXW40W2NIXVtjSF1jKD1PKVtuSF1jND1P

> <s_epik_cmdline>
J2VwaWtfcHl0aG9uJywgJy1waCcsICc3LjAnLCAnLXRuJywgJzgnLCAnLW1hJywgJzIwMCcsICctbWV0YWxfYmluZGluZycsICctaW1hZScsICc8aW5maWxlLm1hZT4nLCAnLW9tYWUnLCAnPG91dGZpbGUubWFlPic=

> <r_lp_tautomer_probability>
0.999537

> <r_epik_Ionization_Penalty>
3.13902

> <r_epik_Ionization_Penalty_Charging>
2.97334e-08

> <r_epik_Ionization_Penalty_Neutral>
3.13902

> <r_epik_State_Penalty>
3.13814

> <r_epik_Charging_Adjusted_Penalty>
3.13814

> <i_epik_Tot_Q>
-1

> <i_epik_Tot_abs_Q>
1

> <r_epik_Metal_State_Penalty>
0.465244

> <b_epik_Metal_Only>
1

> <s_lp_Force_Field>
OPLS_2005

> <r_lp_Energy>
48.864

> <b_lp_Chiralities_Consistent>
1

> <s_lp_Variant>
AV-unprocessed.smi:1591-3

> <Gold.Version>
5.8.1

> <Gold.Id.Protein>
6NUR|6NUR_protein|mol2

> <Gold.PLP.Fitness>
39.8086

> <Gold.PLP.PLP>
-35.3463

> <Gold.PLP.part.hbond>
-2.0000

> <Gold.PLP.part.metal>
0.0000

> <Gold.PLP.part.buried>
-4.1817

> <Gold.PLP.part.nonpolar>
-29.9479

> <Gold.PLP.part.repulsive>
0.2796

> <Gold.PLP.ligand.clash>
0.0000

> <Gold.PLP.ligand.torsion>
0.6385

> <Gold.PLP.Chemscore.Hbond>
1.8480

> <Gold.PLP.Chemscore.CHOScore>
0.0000

> <Gold.PLP.Chemscore.Metal>
0.0000

> <Gold.Chemscore.Hbonds>
donor molecule, donor type, donor heavy atom, donor atom, acceptor molecule, acceptor atom, score
      P1  H  6896  6907       L1     6  1.00
      P1  H  6934  6947       L1    15  0.91

> <Gold.PLP.Chemscore.Internal.Correction>
0.1953

> <Gold.Rescore>
     Score         DG    S(hbond)    S(metal)    S(lipo)     H(rot)  DE(clash)    DE(int)     intcor
     14.33     -15.38       1.97        0.00      71.76       1.99       0.02       1.03       ----

> <Gold.Chemscore.Fitness>
14.3280

> <Gold.Chemscore.DG>
-15.3844

> <Gold.Chemscore.ZeroCoef>
-5.4800

> <Gold.Chemscore.Hbond>
1.9737

> <Gold.Chemscore.Metal>
0.0000

> <Gold.Chemscore.Lipo>
71.7604

> <Gold.Chemscore.Internal_Hbond>
0.0000

> <Gold.Chemscore.DEClash>
0.0234

> <Gold.Chemscore.DEInternal>
1.0329

> <Gold.Chemscore.Rot>
1.9858

> <Gold.Chemscore.Internal.Correction>
   9.000000E+99

> <Gold.Chemscore.Hbonds>
donor molecule, donor type, donor heavy atom, donor atom, acceptor molecule, acceptor atom, score
      P1  H  6896  6907       L1     6  0.59
      P1  H  6934  6947       L1    15  0.87

> <Gold.Chemscore.Hbond.Weighted>
-6.5920

> <Gold.Chemscore.Metal.Weighted>
-0.0000

> <Gold.Chemscore.Lipo.Weighted>
-8.3960

> <Gold.Chemscore.Internal_Hbond.Weighted>
0.0000

> <Gold.Chemscore.DEClash.Weighted>
0.0234

> <Gold.Chemscore.DEInternal.Weighted>
1.0329

> <Gold.Chemscore.Rot.Weighted>
5.0836

> <Gold.Chemscore.Internal.Correction.Weighted>
   9.000000E+99

> <Gold.Protein.RotatedTorsions>
[ 6907 6896 6895 6894 ] final  -79.14 input  -60.11 | X-H torsion
[ 7974 7965 7964 7962 ] final   98.95 input  175.53 | X-H torsion
[ 8008 7997 7996 7995 ] final -147.43 input   59.86 | X-H torsion
[ 10167 10162 10161 10158 ] final   76.19 input  -65.29 | X-H torsion
[ 10718 10713 10712 10709 ] final  105.36 input   66.30 | X-H torsion
[ 10763 10752 10751 10750 ] final  162.62 input  -60.55 | X-H torsion
[ 11005 11000 10999 10996 ] final -115.91 input  -57.11 | X-H torsion

> <Gold.Protein.ActiveResidues>
 VAL166  LYS551  ARG553  GLY616  TRP617  ASP618  TYR619  PRO620  LYS621  CYS622 
 ASP623  PHE694  ASN695  SER759  ASP760  ASP761  ALA762  ILE779  LEU786  VAL792 
 PHE793  MET794  SER795  GLU796  ALA797  LYS798  CYS799  TRP800  GLU811  SER814 

> <Gold.Protein.RotatedAtoms>
  150.6956  134.4165  159.5185 H   0  0  0  0  0  0  0  0  0  0  0  0  # atno 6907 bound_to 6896
  152.1915  134.8665  160.0526 H   0  0  0  0  0  0  0  0  0  0  0  0  # atno 6908 bound_to 6896
  151.9618  133.3663  159.4075 H   0  0  0  0  0  0  0  0  0  0  0  0  # atno 6909 bound_to 6896
  145.4054  139.2341  143.3277 H   0  0  0  0  0  0  0  0  0  0  0  0  # atno 7974 bound_to 7965
  155.5755  140.0638  157.2796 H   0  0  0  0  0  0  0  0  0  0  0  0  # atno 8008 bound_to 7997
  154.4348  140.1861  156.0969 H   0  0  0  0  0  0  0  0  0  0  0  0  # atno 8009 bound_to 7997
  156.0344  140.3303  155.7179 H   0  0  0  0  0  0  0  0  0  0  0  0  # atno 8010 bound_to 7997
  139.9948  144.5730  150.7787 H   0  0  0  0  0  0  0  0  0  0  0  0  # atno 10167 bound_to 10162
  157.6708  131.0826  150.5845 H   0  0  0  0  0  0  0  0  0  0  0  0  # atno 10718 bound_to 10713
  154.2812  135.2763  155.2696 H   0  0  0  0  0  0  0  0  0  0  0  0  # atno 10763 bound_to 10752
  154.5216  135.5754  153.6689 H   0  0  0  0  0  0  0  0  0  0  0  0  # atno 10764 bound_to 10752
  152.9929  135.6206  154.2971 H   0  0  0  0  0  0  0  0  0  0  0  0  # atno 10765 bound_to 10752
  141.0456  133.9767  157.2922 H   0  0  0  0  0  0  0  0  0  0  0  0  # atno 11005 bound_to 11000
  146.2731  140.4757  142.8806 LP  0  0  0  0  0  0  0  0  0  0  0  0  # atno 17320 bound_to 7965
  144.8345  140.6760  143.6269 LP  0  0  0  0  0  0  0  0  0  0  0  0  # atno 17321 bound_to 7965
  140.7441  143.2856  151.3474 LP  0  0  0  0  0  0  0  0  0  0  0  0  # atno 17342 bound_to 10162
  139.6314  144.0714  152.2479 LP  0  0  0  0  0  0  0  0  0  0  0  0  # atno 17343 bound_to 10162
  156.6145  130.4389  149.5846 LP  0  0  0  0  0  0  0  0  0  0  0  0  # atno 17370 bound_to 10713
  156.2404  130.6847  151.1550 LP  0  0  0  0  0  0  0  0  0  0  0  0  # atno 17371 bound_to 10713
  139.9309  135.0200  156.8398 LP  0  0  0  0  0  0  0  0  0  0  0  0  # atno 17394 bound_to 11000
  140.6152  134.0045  155.7594 LP  0  0  0  0  0  0  0  0  0  0  0  0  # atno 17395 bound_to 11000

$$$$
