AV-unprocessed.smi:33|AV-procd|sdf|206|dock7
  -GOLD-   2262015493D 1   1.00000     0.00000
 Structure written by MMmdl.
 67 72  0  0  0  0  0  0  0  0  1 V2000
  151.8245  140.3370  158.0926 O   0  0  0  0  0  0  0  0  0  0  0  0
  151.1873  141.3885  158.0010 C   0  0  0  0  0  0  0  0  0  0  0  0
  150.2197  141.5970  157.0866 O   0  0  0  0  0  0  0  0  0  0  0  0
  150.1563  140.7925  155.9197 C   0  0  0  0  0  0  0  0  0  0  0  0
  148.7060  140.7174  155.4289 C   0  0  1  0  0  0  0  0  0  0  0  0
  148.0968  142.0053  155.5005 O   0  0  0  0  0  0  0  0  0  0  0  0
  147.1482  142.1489  154.4813 C   0  0  2  0  0  0  0  0  0  0  0  0
  145.8036  142.4309  155.0820 N   0  0  0  0  0  0  0  0  0  0  0  0
  145.1842  141.7310  156.0939 C   0  0  0  0  0  0  0  0  0  0  0  0
  144.0117  142.1795  156.4521 N   0  0  0  0  0  0  0  0  0  0  0  0
  143.8052  143.2733  155.6226 C   0  0  0  0  0  0  0  0  0  0  0  0
  142.7523  144.2162  155.4775 C   0  0  0  0  0  0  0  0  0  0  0  0
  141.6347  144.1922  156.2405 N   0  0  0  0  0  0  0  0  0  0  0  0
  141.7803  144.5868  157.6494 C   0  0  0  0  0  0  0  0  0  0  0  0
  140.9747  144.1709  158.4844 O   0  0  0  0  0  0  0  0  0  0  0  0
  142.9266  145.4557  158.0827 C   0  0  0  0  0  0  0  0  0  0  0  0
  143.6178  145.1692  159.2802 C   0  0  0  0  0  0  0  0  0  0  0  0
  144.6842  145.9890  159.6978 C   0  0  0  0  0  0  0  0  0  0  0  0
  145.0530  147.1110  158.9313 C   0  0  0  0  0  0  0  0  0  0  0  0
  144.3491  147.4189  157.7515 C   0  0  0  0  0  0  0  0  0  0  0  0
  143.2838  146.5989  157.3324 C   0  0  0  0  0  0  0  0  0  0  0  0
  140.3825  143.7779  155.5909 C   0  0  0  0  0  0  0  0  0  0  0  0
  140.4265  143.0576  154.5916 O   0  0  0  0  0  0  0  0  0  0  0  0
  139.0538  144.1768  156.1683 C   0  0  0  0  0  0  0  0  0  0  0  0
  137.8972  143.4267  155.8624 C   0  0  0  0  0  0  0  0  0  0  0  0
  136.6467  143.8020  156.3906 C   0  0  0  0  0  0  0  0  0  0  0  0
  136.5412  144.9407  157.2116 C   0  0  0  0  0  0  0  0  0  0  0  0
  137.6854  145.7095  157.4976 C   0  0  0  0  0  0  0  0  0  0  0  0
  138.9366  145.3342  156.9710 C   0  0  0  0  0  0  0  0  0  0  0  0
  142.8856  145.1820  154.5324 N   0  0  0  0  0  0  0  0  0  0  0  0
  143.9872  145.2226  153.7777 C   0  0  0  0  0  0  0  0  0  0  0  0
  145.0483  144.4133  153.8055 N   0  0  0  0  0  0  0  0  0  0  0  0
  144.9176  143.4387  154.7522 C   0  0  0  0  0  0  0  0  0  0  0  0
  147.1749  140.8666  153.6250 C   0  0  2  0  0  0  0  0  0  0  0  0
  146.1603  139.9345  153.9617 O   0  0  0  0  0  0  0  0  0  0  0  0
  148.5578  140.3393  153.9572 C   0  0  2  0  0  0  0  0  0  0  0  0
  148.6971  139.0357  153.7101 F   0  0  0  0  0  0  0  0  0  0  0  0
  151.4049  142.5630  158.8944 C   0  0  0  0  0  0  0  0  0  0  0  0
  150.6829  143.7564  158.6586 C   0  0  0  0  0  0  0  0  0  0  0  0
  150.8668  144.8819  159.4854 C   0  0  0  0  0  0  0  0  0  0  0  0
  151.7750  144.8276  160.5586 C   0  0  0  0  0  0  0  0  0  0  0  0
  152.4996  143.6466  160.8039 C   0  0  0  0  0  0  0  0  0  0  0  0
  152.3168  142.5198  159.9781 C   0  0  0  0  0  0  0  0  0  0  0  0
  150.7884  141.2357  155.1495 H   0  0  0  0  0  0  0  0  0  0  0  0
  150.5376  139.7901  156.1202 H   0  0  0  0  0  0  0  0  0  0  0  0
  148.1325  140.0294  156.0515 H   0  0  0  0  0  0  0  0  0  0  0  0
  147.3865  143.0444  153.9059 H   0  0  0  0  0  0  0  0  0  0  0  0
  145.6358  140.8709  156.5666 H   0  0  0  0  0  0  0  0  0  0  0  0
  143.3431  144.3105  159.8758 H   0  0  0  0  0  0  0  0  0  0  0  0
  145.2188  145.7572  160.6071 H   0  0  0  0  0  0  0  0  0  0  0  0
  145.8709  147.7391  159.2520 H   0  0  0  0  0  0  0  0  0  0  0  0
  144.6252  148.2848  157.1680 H   0  0  0  0  0  0  0  0  0  0  0  0
  142.7473  146.8475  156.4279 H   0  0  0  0  0  0  0  0  0  0  0  0
  137.9663  142.5508  155.2334 H   0  0  0  0  0  0  0  0  0  0  0  0
  135.7680  143.2164  156.1646 H   0  0  0  0  0  0  0  0  0  0  0  0
  135.5820  145.2283  157.6161 H   0  0  0  0  0  0  0  0  0  0  0  0
  137.6040  146.5880  158.1202 H   0  0  0  0  0  0  0  0  0  0  0  0
  139.8069  145.9346  157.1938 H   0  0  0  0  0  0  0  0  0  0  0  0
  144.0250  146.0180  153.0481 H   0  0  0  0  0  0  0  0  0  0  0  0
  147.0760  141.1238  152.5701 H   0  0  0  0  0  0  0  0  0  0  0  0
  145.4803  139.9813  153.3070 H   0  0  0  0  0  0  0  0  0  0  0  0
  149.3057  140.8615  153.3585 H   0  0  0  0  0  0  0  0  0  0  0  0
  149.9805  143.8224  157.8401 H   0  0  0  0  0  0  0  0  0  0  0  0
  150.3095  145.7875  159.2958 H   0  0  0  0  0  0  0  0  0  0  0  0
  151.9156  145.6903  161.1930 H   0  0  0  0  0  0  0  0  0  0  0  0
  153.1966  143.6033  161.6278 H   0  0  0  0  0  0  0  0  0  0  0  0
  152.8881  141.6291  160.1954 H   0  0  0  0  0  0  0  0  0  0  0  0
  1  2  2  0  0  0  0
  2  3  1  0  0  0  0
  2 38  1  0  0  0  0
  3  4  1  0  0  0  0
  4  5  1  0  0  0  0
  4 44  1  0  0  0  0
  4 45  1  0  0  0  0
  5 36  1  0  0  0  0
  5  6  1  0  0  0  0
  5 46  1  0  0  0  0
  6  7  1  0  0  0  0
  7  8  1  0  0  0  0
  7 34  1  0  0  0  0
  7 47  1  0  0  0  0
  8 33  1  0  0  0  0
  8  9  1  0  0  0  0
  9 10  2  0  0  0  0
  9 48  1  0  0  0  0
 10 11  1  0  0  0  0
 11 33  2  0  0  0  0
 11 12  1  0  0  0  0
 12 13  1  0  0  0  0
 12 30  2  0  0  0  0
 13 14  1  0  0  0  0
 13 22  1  0  0  0  0
 14 15  2  0  0  0  0
 14 16  1  0  0  0  0
 16 21  1  0  0  0  0
 16 17  2  0  0  0  0
 17 18  1  0  0  0  0
 17 49  1  0  0  0  0
 18 19  2  0  0  0  0
 18 50  1  0  0  0  0
 19 20  1  0  0  0  0
 19 51  1  0  0  0  0
 20 21  2  0  0  0  0
 20 52  1  0  0  0  0
 21 53  1  0  0  0  0
 22 23  2  0  0  0  0
 22 24  1  0  0  0  0
 24 29  1  0  0  0  0
 24 25  2  0  0  0  0
 25 26  1  0  0  0  0
 25 54  1  0  0  0  0
 26 27  2  0  0  0  0
 26 55  1  0  0  0  0
 27 28  1  0  0  0  0
 27 56  1  0  0  0  0
 28 29  2  0  0  0  0
 28 57  1  0  0  0  0
 29 58  1  0  0  0  0
 30 31  1  0  0  0  0
 31 32  2  0  0  0  0
 31 59  1  0  0  0  0
 32 33  1  0  0  0  0
 34 35  1  0  0  0  0
 34 36  1  0  0  0  0
 34 60  1  0  0  0  0
 35 61  1  0  0  0  0
 36 37  1  0  0  0  0
 36 62  1  0  0  0  0
 38 43  1  0  0  0  0
 38 39  2  0  0  0  0
 39 40  1  0  0  0  0
 39 63  1  0  0  0  0
 40 41  2  0  0  0  0
 40 64  1  0  0  0  0
 41 42  1  0  0  0  0
 41 65  1  0  0  0  0
 42 43  2  0  0  0  0
 42 66  1  0  0  0  0
 43 67  1  0  0  0  0
M  END
> <s_m_source_file>
AV-unprocessed.smi

> <i_m_source_file_index>
33

> <i_lp_mmshare_version>
43012

> <i_f3d_flags>
0

> <s_epik_input>
W2NIXTFbY0hdW2NIXVtjSF1bY0hdYzFDKD1PKU9bQ0gyXVtDQEBIXTJPW0NASF0oW0NAQEhdKFtPSF0pW0NAQEhdMkYpbihbY0hdbjMpYyhjMzQpbltjSF1uYzROKEMoPU8pYzVbY0hdW2NIXVtjSF1bY0hdW2NIXTUpQyg9TyljNltjSF1bY0hdW2NIXVtjSF1bY0hdNg==

> <s_epik_cmdline>
J2VwaWtfcHl0aG9uJywgJy1waCcsICc3LjAnLCAnLXRuJywgJzgnLCAnLW1hJywgJzIwMCcsICctbWV0YWxfYmluZGluZycsICctaW1hZScsICc8aW5maWxlLm1hZT4nLCAnLW9tYWUnLCAnPG91dGZpbGUubWFlPic=

> <r_lp_tautomer_probability>
1

> <r_epik_Ionization_Penalty>
0.00067664

> <r_epik_Ionization_Penalty_Charging>
0

> <r_epik_Ionization_Penalty_Neutral>
0.00067664

> <r_epik_State_Penalty>
0.000428095

> <r_epik_Charging_Adjusted_Penalty>
0.000428095

> <i_epik_Tot_Q>
0

> <i_epik_Tot_abs_Q>
0

> <r_epik_Metal_State_Penalty>
-0

> <b_epik_Metal_Only>
0

> <s_epik_Chemistry_Notes>
This compound has an ester and may undergo hydrolysis at high or low pH. This compound contains an acetal/aminal-like group ( X-CH(R)-Y where X, Y are N, S, or O) that may be acid/base labile, releasing an aldehyde.

> <s_lp_Force_Field>
OPLS_2005

> <r_lp_Energy>
78.7548

> <b_lp_Chiralities_Consistent>
1

> <s_lp_Variant>
AV-unprocessed.smi:33-8

> <Gold.Version>
5.8.1

> <Gold.Id.Protein>
6NUR|6NUR_protein|mol2

> <Gold.PLP.Fitness>
71.0708

> <Gold.PLP.PLP>
-69.0772

> <Gold.PLP.part.hbond>
-3.8708

> <Gold.PLP.part.metal>
0.0000

> <Gold.PLP.part.buried>
-5.4623

> <Gold.PLP.part.nonpolar>
-66.8265

> <Gold.PLP.part.repulsive>
5.4222

> <Gold.PLP.ligand.clash>
1.5184

> <Gold.PLP.ligand.torsion>
3.5597

> <Gold.PLP.Chemscore.Hbond>
2.0000

> <Gold.PLP.Chemscore.CHOScore>
0.0000

> <Gold.PLP.Chemscore.Metal>
0.0000

> <Gold.Chemscore.Hbonds>
donor molecule, donor type, donor heavy atom, donor atom, acceptor molecule, acceptor atom, score
      L1  H    35    61       P1 10175  0.98
      P1  H 10162 10167       L1    23  0.10

> <Gold.PLP.Chemscore.Internal.Correction>
4.6314

> <Gold.Rescore>
     Score         DG    S(hbond)    S(metal)    S(lipo)     H(rot)  DE(clash)    DE(int)     intcor
     12.18     -24.09       1.95        0.00     158.55       2.52       4.15       7.76       ----

> <Gold.Chemscore.Fitness>
12.1756

> <Gold.Chemscore.DG>
-24.0903

> <Gold.Chemscore.ZeroCoef>
-5.4800

> <Gold.Chemscore.Hbond>
1.9530

> <Gold.Chemscore.Metal>
0.0000

> <Gold.Chemscore.Lipo>
158.5508

> <Gold.Chemscore.Internal_Hbond>
0.0000

> <Gold.Chemscore.DEClash>
4.1519

> <Gold.Chemscore.DEInternal>
7.7628

> <Gold.Chemscore.Rot>
2.5247

> <Gold.Chemscore.Internal.Correction>
   9.000000E+99

> <Gold.Chemscore.Hbonds>
donor molecule, donor type, donor heavy atom, donor atom, acceptor molecule, acceptor atom, score
      L1  H    35    61       P1 10175  0.90
      P1  H 10162 10167       L1    23  0.13

> <Gold.Chemscore.Hbond.Weighted>
-6.5231

> <Gold.Chemscore.Metal.Weighted>
-0.0000

> <Gold.Chemscore.Lipo.Weighted>
-18.5504

> <Gold.Chemscore.Internal_Hbond.Weighted>
0.0000

> <Gold.Chemscore.DEClash.Weighted>
4.1519

> <Gold.Chemscore.DEInternal.Weighted>
7.7628

> <Gold.Chemscore.Rot.Weighted>
6.4633

> <Gold.Chemscore.Internal.Correction.Weighted>
   9.000000E+99

> <Gold.Protein.RotatedTorsions>
[ 6907 6896 6895 6894 ] final -106.27 input  -60.11 | X-H torsion
[ 7974 7965 7964 7962 ] final   43.81 input  175.53 | X-H torsion
[ 8008 7997 7996 7995 ] final -106.44 input   59.86 | X-H torsion
[ 10167 10162 10161 10158 ] final -131.55 input  -65.29 | X-H torsion
[ 10718 10713 10712 10709 ] final  -58.64 input   66.30 | X-H torsion
[ 10763 10752 10751 10750 ] final  -88.64 input  -60.55 | X-H torsion
[ 11005 11000 10999 10996 ] final -132.28 input  -57.11 | X-H torsion

> <Gold.Protein.ActiveResidues>
 VAL166  LYS551  ARG553  GLY616  TRP617  ASP618  TYR619  PRO620  LYS621  CYS622 
 ASP623  PHE694  ASN695  SER759  ASP760  ASP761  ALA762  ILE779  LEU786  VAL792 
 PHE793  MET794  SER795  GLU796  ALA797  LYS798  CYS799  TRP800  GLU811  SER814 

> <Gold.Protein.RotatedAtoms>
  150.7380  134.0001  159.3635 H   0  0  0  0  0  0  0  0  0  0  0  0  # atno 6907 bound_to 6896
  151.7955  135.0721  160.0402 H   0  0  0  0  0  0  0  0  0  0  0  0  # atno 6908 bound_to 6896
  152.3178  133.5784  159.5760 H   0  0  0  0  0  0  0  0  0  0  0  0  # atno 6909 bound_to 6896
  146.0623  139.5144  142.9650 H   0  0  0  0  0  0  0  0  0  0  0  0  # atno 7974 bound_to 7965
  154.9145  140.0409  157.1964 H   0  0  0  0  0  0  0  0  0  0  0  0  # atno 8008 bound_to 7997
  154.8315  140.2900  155.5698 H   0  0  0  0  0  0  0  0  0  0  0  0  # atno 8009 bound_to 7997
  156.2987  140.2500  156.3241 H   0  0  0  0  0  0  0  0  0  0  0  0  # atno 8010 bound_to 7997
  139.9177  143.6419  152.2561 H   0  0  0  0  0  0  0  0  0  0  0  0  # atno 10167 bound_to 10162
  156.1120  130.4174  150.0606 H   0  0  0  0  0  0  0  0  0  0  0  0  # atno 10718 bound_to 10713
  154.6467  135.5370  153.7853 H   0  0  0  0  0  0  0  0  0  0  0  0  # atno 10763 bound_to 10752
  153.0363  135.6472  154.1078 H   0  0  0  0  0  0  0  0  0  0  0  0  # atno 10764 bound_to 10752
  154.0998  135.2934  155.3234 H   0  0  0  0  0  0  0  0  0  0  0  0  # atno 10765 bound_to 10752
  140.9184  134.1477  157.4334 H   0  0  0  0  0  0  0  0  0  0  0  0  # atno 11005 bound_to 11000
  145.6539  141.0257  143.1745 LP  0  0  0  0  0  0  0  0  0  0  0  0  # atno 17320 bound_to 7965
  144.7182  139.8122  143.7391 LP  0  0  0  0  0  0  0  0  0  0  0  0  # atno 17321 bound_to 7965
  139.6888  144.7649  151.1476 LP  0  0  0  0  0  0  0  0  0  0  0  0  # atno 17342 bound_to 10162
  140.7670  143.5619  150.9090 LP  0  0  0  0  0  0  0  0  0  0  0  0  # atno 17343 bound_to 10162
  156.8567  130.9477  151.3621 LP  0  0  0  0  0  0  0  0  0  0  0  0  # atno 17370 bound_to 10713
  157.6301  130.8723  149.9259 LP  0  0  0  0  0  0  0  0  0  0  0  0  # atno 17371 bound_to 10713
  139.8770  134.9962  156.5783 LP  0  0  0  0  0  0  0  0  0  0  0  0  # atno 17394 bound_to 11000
  140.8020  133.8498  155.8735 LP  0  0  0  0  0  0  0  0  0  0  0  0  # atno 17395 bound_to 11000

$$$$
