AV-unprocessed.smi:2712|AV-procd|sdf|10477|dock9
  -GOLD-   2272014523D 1   1.00000     0.00000
 Structure written by MMmdl.
 52 53  0  0  0  0  0  0  0  0  1 V2000
  154.8821  139.8826  159.7331 C   0  0  0  0  0  0  0  0  0  0  0  0
  154.1645  141.0116  160.4116 C   0  0  0  0  0  0  0  0  0  0  0  0
  153.9702  141.0710  161.8478 C   0  0  0  0  0  0  0  0  0  0  0  0
  153.3112  142.1209  162.3832 C   0  0  0  0  0  0  0  0  0  0  0  0
  152.7876  143.2037  161.5533 C   0  0  0  0  0  0  0  0  0  0  0  0
  152.1794  144.1715  162.0102 O   0  0  0  0  0  0  0  0  0  0  0  0
  153.0366  143.0432  160.2195 N   0  0  0  0  0  0  0  0  0  0  0  0
  152.5950  144.0446  159.2379 C   0  0  0  0  0  0  0  0  0  0  0  0
  151.4668  143.5433  158.3248 C   0  0  0  0  0  0  0  0  0  0  0  0
  150.3628  144.0897  158.3293 O   0  0  0  0  0  0  0  0  0  0  0  0
  151.7697  142.5031  157.5323 N   0  0  0  0  0  0  0  0  0  0  0  0
  150.8571  141.8614  156.5881 C   0  0  1  0  0  0  0  0  0  0  0  0
  151.5738  140.6439  155.9747 C   0  0  0  0  0  0  0  0  0  0  0  0
  150.6772  139.6122  155.2714 C   0  0  0  0  0  0  0  0  0  0  0  0
  149.4985  140.1917  154.4711 C   0  0  0  0  0  0  0  0  0  0  0  0
  148.1975  140.3616  155.3059 C   0  0  2  0  0  0  0  0  0  0  0  0
  146.8987  140.4312  154.4187 C   0  0  0  0  0  0  0  0  0  0  0  0
  146.9139  139.3749  153.2923 C   0  0  0  0  0  0  0  0  0  0  0  0
  146.7370  141.8266  153.7718 C   0  0  0  0  0  0  0  0  0  0  0  0
  145.6340  140.2116  155.2830 C   0  0  0  0  0  0  0  0  0  0  0  0
  148.3156  141.5396  156.3120 C   0  0  0  0  0  0  0  0  0  0  0  0
  149.5191  141.5138  157.2736 C   0  0  0  0  0  0  0  0  0  0  0  0
  153.7074  141.9645  159.6671 N   0  0  0  0  0  0  0  0  0  0  0  0
  155.1148  139.0833  160.4371 H   0  0  0  0  0  0  0  0  0  0  0  0
  155.8199  140.2272  159.2965 H   0  0  0  0  0  0  0  0  0  0  0  0
  154.2733  139.4564  158.9351 H   0  0  0  0  0  0  0  0  0  0  0  0
  154.3517  140.2790  162.4753 H   0  0  0  0  0  0  0  0  0  0  0  0
  153.1673  142.1639  163.4528 H   0  0  0  0  0  0  0  0  0  0  0  0
  152.2423  144.9434  159.7469 H   0  0  0  0  0  0  0  0  0  0  0  0
  153.4438  144.3662  158.6310 H   0  0  0  0  0  0  0  0  0  0  0  0
  152.7018  142.1196  157.5933 H   0  0  0  0  0  0  0  0  0  0  0  0
  150.6594  142.5706  155.7822 H   0  0  0  0  0  0  0  0  0  0  0  0
  152.3158  141.0105  155.2640 H   0  0  0  0  0  0  0  0  0  0  0  0
  152.1415  140.1186  156.7444 H   0  0  0  0  0  0  0  0  0  0  0  0
  151.3088  139.0308  154.5988 H   0  0  0  0  0  0  0  0  0  0  0  0
  150.3057  138.8912  156.0002 H   0  0  0  0  0  0  0  0  0  0  0  0
  149.7841  141.1280  153.9907 H   0  0  0  0  0  0  0  0  0  0  0  0
  149.3264  139.4948  153.6549 H   0  0  0  0  0  0  0  0  0  0  0  0
  148.0899  139.4610  155.9122 H   0  0  0  0  0  0  0  0  0  0  0  0
  146.0141  139.4426  152.6796 H   0  0  0  0  0  0  0  0  0  0  0  0
  146.9532  138.3592  153.6852 H   0  0  0  0  0  0  0  0  0  0  0  0
  147.7644  139.5037  152.6236 H   0  0  0  0  0  0  0  0  0  0  0  0
  147.4858  142.0146  153.0025 H   0  0  0  0  0  0  0  0  0  0  0  0
  146.8101  142.6217  154.5145 H   0  0  0  0  0  0  0  0  0  0  0  0
  145.7686  141.9293  153.2808 H   0  0  0  0  0  0  0  0  0  0  0  0
  144.7254  140.3923  154.7075 H   0  0  0  0  0  0  0  0  0  0  0  0
  145.6126  140.8880  156.1382 H   0  0  0  0  0  0  0  0  0  0  0  0
  145.5496  139.1943  155.6613 H   0  0  0  0  0  0  0  0  0  0  0  0
  148.3084  142.4917  155.7818 H   0  0  0  0  0  0  0  0  0  0  0  0
  147.4349  141.5527  156.9517 H   0  0  0  0  0  0  0  0  0  0  0  0
  149.5825  140.5589  157.7968 H   0  0  0  0  0  0  0  0  0  0  0  0
  149.3138  142.2544  158.0480 H   0  0  0  0  0  0  0  0  0  0  0  0
  1  2  1  0  0  0  0
  1 24  1  0  0  0  0
  1 25  1  0  0  0  0
  1 26  1  0  0  0  0
  2 23  2  0  0  0  0
  2  3  1  0  0  0  0
  3  4  2  0  0  0  0
  3 27  1  0  0  0  0
  4  5  1  0  0  0  0
  4 28  1  0  0  0  0
  5  6  2  0  0  0  0
  5  7  1  0  0  0  0
  7  8  1  0  0  0  0
  7 23  1  0  0  0  0
  8  9  1  0  0  0  0
  8 29  1  0  0  0  0
  8 30  1  0  0  0  0
  9 10  2  0  0  0  0
  9 11  1  0  0  0  0
 11 12  1  0  0  0  0
 11 31  1  0  0  0  0
 12 22  1  0  0  0  0
 12 13  1  0  0  0  0
 12 32  1  0  0  0  0
 13 14  1  0  0  0  0
 13 33  1  0  0  0  0
 13 34  1  0  0  0  0
 14 15  1  0  0  0  0
 14 35  1  0  0  0  0
 14 36  1  0  0  0  0
 15 16  1  0  0  0  0
 15 37  1  0  0  0  0
 15 38  1  0  0  0  0
 16 17  1  0  0  0  0
 16 21  1  0  0  0  0
 16 39  1  0  0  0  0
 17 18  1  0  0  0  0
 17 19  1  0  0  0  0
 17 20  1  0  0  0  0
 18 40  1  0  0  0  0
 18 41  1  0  0  0  0
 18 42  1  0  0  0  0
 19 43  1  0  0  0  0
 19 44  1  0  0  0  0
 19 45  1  0  0  0  0
 20 46  1  0  0  0  0
 20 47  1  0  0  0  0
 20 48  1  0  0  0  0
 21 22  1  0  0  0  0
 21 49  1  0  0  0  0
 21 50  1  0  0  0  0
 22 51  1  0  0  0  0
 22 52  1  0  0  0  0
M  END
> <s_m_source_file>
AV-unprocessed.smi

> <i_m_source_file_index>
2712

> <i_lp_mmshare_version>
43012

> <i_f3d_flags>
0

> <s_epik_input>
W0NIM11jMVtjSF1bY0hdYyg9TyluKG4xKVtDSDJdQyg9TylbTkhdW0NAQEhdMltDSDJdW0NIMl1bQ0gyXVtDQEBIXShDKFtDSDNdKShbQ0gzXSlbQ0gzXSlbQ0gyXVtDSDJdMg==

> <s_epik_cmdline>
J2VwaWtfcHl0aG9uJywgJy1waCcsICc3LjAnLCAnLXRuJywgJzgnLCAnLW1hJywgJzIwMCcsICctbWV0YWxfYmluZGluZycsICctaW1hZScsICc8aW5maWxlLm1hZT4nLCAnLW9tYWUnLCAnPG91dGZpbGUubWFlPic=

> <r_lp_tautomer_probability>
1

> <r_epik_Ionization_Penalty>
8.71758e-07

> <r_epik_Ionization_Penalty_Charging>
8.50442e-07

> <r_epik_Ionization_Penalty_Neutral>
2.13165e-08

> <r_epik_State_Penalty>
-0

> <r_epik_Charging_Adjusted_Penalty>
8.50442e-07

> <i_epik_Tot_Q>
0

> <i_epik_Tot_abs_Q>
0

> <r_epik_Metal_State_Penalty>
-0

> <b_epik_Metal_Only>
0

> <s_lp_Force_Field>
OPLS_2005

> <r_lp_Energy>
38.5576

> <b_lp_Chiralities_Consistent>
1

> <s_lp_Variant>
AV-unprocessed.smi:2712-4

> <Gold.Version>
5.8.1

> <Gold.Id.Protein>
6NUR|6NUR_protein|mol2

> <Gold.PLP.Fitness>
44.9234

> <Gold.PLP.PLP>
-45.6570

> <Gold.PLP.part.hbond>
0.0000

> <Gold.PLP.part.metal>
0.0000

> <Gold.PLP.part.buried>
-5.1323

> <Gold.PLP.part.nonpolar>
-41.9429

> <Gold.PLP.part.repulsive>
1.1666

> <Gold.PLP.ligand.clash>
0.0000

> <Gold.PLP.ligand.torsion>
0.4023

> <Gold.PLP.Chemscore.Hbond>
0.0000

> <Gold.PLP.Chemscore.CHOScore>
0.0000

> <Gold.PLP.Chemscore.Metal>
0.0000

> <Gold.PLP.Chemscore.Internal.Correction>
0.0710

> <Gold.Rescore>
     Score         DG    S(hbond)    S(metal)    S(lipo)     H(rot)  DE(clash)    DE(int)     intcor
     11.40     -14.35       0.00        0.00     108.95       1.52       0.18       2.77       ----

> <Gold.Chemscore.Fitness>
11.4009

> <Gold.Chemscore.DG>
-14.3461

> <Gold.Chemscore.ZeroCoef>
-5.4800

> <Gold.Chemscore.Hbond>
0.0000

> <Gold.Chemscore.Metal>
0.0000

> <Gold.Chemscore.Lipo>
108.9530

> <Gold.Chemscore.Internal_Hbond>
0.0000

> <Gold.Chemscore.DEClash>
0.1756

> <Gold.Chemscore.DEInternal>
2.7695

> <Gold.Chemscore.Rot>
1.5162

> <Gold.Chemscore.Internal.Correction>
   9.000000E+99

> <Gold.Chemscore.Hbond.Weighted>
-0.0000

> <Gold.Chemscore.Metal.Weighted>
-0.0000

> <Gold.Chemscore.Lipo.Weighted>
-12.7475

> <Gold.Chemscore.Internal_Hbond.Weighted>
0.0000

> <Gold.Chemscore.DEClash.Weighted>
0.1756

> <Gold.Chemscore.DEInternal.Weighted>
2.7695

> <Gold.Chemscore.Rot.Weighted>
3.8814

> <Gold.Chemscore.Internal.Correction.Weighted>
   9.000000E+99

> <Gold.Protein.RotatedTorsions>
[ 6907 6896 6895 6894 ] final -154.14 input  -60.11 | X-H torsion
[ 7974 7965 7964 7962 ] final -139.07 input  175.53 | X-H torsion
[ 8008 7997 7996 7995 ] final -143.14 input   59.86 | X-H torsion
[ 10167 10162 10161 10158 ] final -151.06 input  -65.29 | X-H torsion
[ 10718 10713 10712 10709 ] final -156.65 input   66.30 | X-H torsion
[ 10763 10752 10751 10750 ] final  111.58 input  -60.55 | X-H torsion
[ 11005 11000 10999 10996 ] final   34.75 input  -57.11 | X-H torsion

> <Gold.Protein.ActiveResidues>
 VAL166  LYS551  ARG553  GLY616  TRP617  ASP618  TYR619  PRO620  LYS621  CYS622 
 ASP623  PHE694  ASN695  SER759  ASP760  ASP761  ALA762  ILE779  LEU786  VAL792 
 PHE793  MET794  SER795  GLU796  ALA797  LYS798  CYS799  TRP800  GLU811  SER814 

> <Gold.Protein.RotatedAtoms>
  151.2530  133.4340  159.2612 H   0  0  0  0  0  0  0  0  0  0  0  0  # atno 6907 bound_to 6896
  151.0600  134.9730  159.8265 H   0  0  0  0  0  0  0  0  0  0  0  0  # atno 6908 bound_to 6896
  152.5396  134.2481  159.8941 H   0  0  0  0  0  0  0  0  0  0  0  0  # atno 6909 bound_to 6896
  144.8707  140.6362  143.5269 H   0  0  0  0  0  0  0  0  0  0  0  0  # atno 7974 bound_to 7965
  155.5057  140.0579  157.2932 H   0  0  0  0  0  0  0  0  0  0  0  0  # atno 8008 bound_to 7997
  154.4570  140.1978  156.0300 H   0  0  0  0  0  0  0  0  0  0  0  0  # atno 8009 bound_to 7997
  156.0818  140.3246  155.7708 H   0  0  0  0  0  0  0  0  0  0  0  0  # atno 8010 bound_to 7997
  139.7300  143.8823  152.2532 H   0  0  0  0  0  0  0  0  0  0  0  0  # atno 10167 bound_to 10162
  156.5294  130.8514  151.2711 H   0  0  0  0  0  0  0  0  0  0  0  0  # atno 10718 bound_to 10713
  153.4653  135.3713  155.2361 H   0  0  0  0  0  0  0  0  0  0  0  0  # atno 10763 bound_to 10752
  154.8757  135.3918  154.3876 H   0  0  0  0  0  0  0  0  0  0  0  0  # atno 10764 bound_to 10752
  153.4456  135.7085  153.6206 H   0  0  0  0  0  0  0  0  0  0  0  0  # atno 10765 bound_to 10752
  140.2496  134.3318  155.7895 H   0  0  0  0  0  0  0  0  0  0  0  0  # atno 11005 bound_to 11000
  145.4136  139.1576  143.4112 LP  0  0  0  0  0  0  0  0  0  0  0  0  # atno 17320 bound_to 7965
  146.2928  140.4242  142.8733 LP  0  0  0  0  0  0  0  0  0  0  0  0  # atno 17321 bound_to 7965
  139.8743  144.7051  150.8951 LP  0  0  0  0  0  0  0  0  0  0  0  0  # atno 17342 bound_to 10162
  140.7769  143.3712  151.1645 LP  0  0  0  0  0  0  0  0  0  0  0  0  # atno 17343 bound_to 10162
  157.7424  130.9890  150.2515 LP  0  0  0  0  0  0  0  0  0  0  0  0  # atno 17370 bound_to 10713
  156.3074  130.3767  149.7693 LP  0  0  0  0  0  0  0  0  0  0  0  0  # atno 17371 bound_to 10713
  141.2202  133.7346  156.9016 LP  0  0  0  0  0  0  0  0  0  0  0  0  # atno 17394 bound_to 11000
  140.1571  134.9191  157.2667 LP  0  0  0  0  0  0  0  0  0  0  0  0  # atno 17395 bound_to 11000

$$$$
