AV-unprocessed.smi:379|AV-procd|sdf|2458|dock4
  -GOLD-   2262022403D 1   1.00000     0.00000
 Structure written by MMmdl.
 39 40  0  0  0  0  0  0  0  0  1 V2000
  148.2306  134.4620  158.1313 C   0  0  0  0  0  0  0  0  0  0  0  0
  149.1641  135.6783  158.0410 C   0  0  0  0  0  0  0  0  0  0  0  0
  149.9768  135.7483  156.7328 C   0  0  2  0  0  0  0  0  0  0  0  0
  150.7310  134.4389  156.4644 C   0  0  0  0  0  0  0  0  0  0  0  0
  150.9355  136.8510  156.7813 N   0  0  0  0  0  0  0  0  0  0  0  0
  151.7433  137.2413  155.7832 C   0  0  0  0  0  0  0  0  0  0  0  0
  151.7847  136.6840  154.6854 O   0  0  0  0  0  0  0  0  0  0  0  0
  152.6374  138.4525  156.0879 C   0  0  0  0  0  0  0  0  0  0  0  0
  151.8769  139.6994  156.3231 N   0  0  0  0  0  0  0  0  0  0  0  0
  150.8961  140.0795  155.3714 C   0  0  0  0  0  0  0  0  0  0  0  0
  150.6843  139.3930  154.3699 O   0  0  0  0  0  0  0  0  0  0  0  0
  150.1767  141.3157  155.6687 C   0  0  0  0  0  0  0  0  0  0  0  0
  149.1555  141.7105  154.7560 C   0  0  0  0  0  0  0  0  0  0  0  0
  148.3347  142.0141  153.9985 N   0  0  0  0  0  0  0  0  0  0  0  0
  150.4690  142.0430  156.7664 C   0  0  0  0  0  0  0  0  0  0  0  0
  151.4615  141.6828  157.6517 N   0  0  0  0  0  0  0  0  0  0  0  0
  151.6482  142.3815  158.8922 C   0  0  0  0  0  0  0  0  0  0  0  0
  152.0366  143.8436  158.8617 C   0  0  0  0  0  0  0  0  0  0  0  0
  153.0356  142.8122  159.3262 C   0  0  0  0  0  0  0  0  0  0  0  0
  152.1680  140.4731  157.4732 C   0  0  0  0  0  0  0  0  0  0  0  0
  153.0080  140.0989  158.2951 O   0  0  0  0  0  0  0  0  0  0  0  0
  147.7227  134.4349  159.0956 H   0  0  0  0  0  0  0  0  0  0  0  0
  148.7874  133.5310  158.0231 H   0  0  0  0  0  0  0  0  0  0  0  0
  147.4627  134.4850  157.3577 H   0  0  0  0  0  0  0  0  0  0  0  0
  148.5787  136.5906  158.1619 H   0  0  0  0  0  0  0  0  0  0  0  0
  149.8523  135.6477  158.8863 H   0  0  0  0  0  0  0  0  0  0  0  0
  149.2778  135.8929  155.9073 H   0  0  0  0  0  0  0  0  0  0  0  0
  150.0425  133.5959  156.3990 H   0  0  0  0  0  0  0  0  0  0  0  0
  151.4483  134.2220  157.2568 H   0  0  0  0  0  0  0  0  0  0  0  0
  151.2789  134.4880  155.5228 H   0  0  0  0  0  0  0  0  0  0  0  0
  150.9778  137.3711  157.6456 H   0  0  0  0  0  0  0  0  0  0  0  0
  153.2619  138.2222  156.9530 H   0  0  0  0  0  0  0  0  0  0  0  0
  153.3510  138.5617  155.2703 H   0  0  0  0  0  0  0  0  0  0  0  0
  149.9097  142.9475  156.9575 H   0  0  0  0  0  0  0  0  0  0  0  0
  150.9718  142.0897  159.6937 H   0  0  0  0  0  0  0  0  0  0  0  0
  152.2154  144.3080  157.8938 H   0  0  0  0  0  0  0  0  0  0  0  0
  151.5966  144.4933  159.6154 H   0  0  0  0  0  0  0  0  0  0  0  0
  153.2620  142.7729  160.3897 H   0  0  0  0  0  0  0  0  0  0  0  0
  153.8725  142.5983  158.6640 H   0  0  0  0  0  0  0  0  0  0  0  0
  1  2  1  0  0  0  0
  1 22  1  0  0  0  0
  1 23  1  0  0  0  0
  1 24  1  0  0  0  0
  2  3  1  0  0  0  0
  2 25  1  0  0  0  0
  2 26  1  0  0  0  0
  3  4  1  0  0  0  0
  3  5  1  0  0  0  0
  3 27  1  0  0  0  0
  4 28  1  0  0  0  0
  4 29  1  0  0  0  0
  4 30  1  0  0  0  0
  5  6  1  0  0  0  0
  5 31  1  0  0  0  0
  6  7  2  0  0  0  0
  6  8  1  0  0  0  0
  8  9  1  0  0  0  0
  8 32  1  0  0  0  0
  8 33  1  0  0  0  0
  9 20  1  0  0  0  0
  9 10  1  0  0  0  0
 10 11  2  0  0  0  0
 10 12  1  0  0  0  0
 12 13  1  0  0  0  0
 12 15  2  0  0  0  0
 13 14  3  0  0  0  0
 15 16  1  0  0  0  0
 15 34  1  0  0  0  0
 16 17  1  0  0  0  0
 16 20  1  0  0  0  0
 17 19  1  0  0  0  0
 17 18  1  0  0  0  0
 17 35  1  0  0  0  0
 18 19  1  0  0  0  0
 18 36  1  0  0  0  0
 18 37  1  0  0  0  0
 19 38  1  0  0  0  0
 19 39  1  0  0  0  0
 20 21  2  0  0  0  0
M  END
> <s_m_source_file>
AV-unprocessed.smi

> <i_m_source_file_index>
379

> <i_lp_mmshare_version>
43012

> <i_f3d_flags>
0

> <s_epik_input>
W0NIM11bQ0gyXVtDQEhdKFtDSDNdKVtOSF1DKD1PKVtDSDJdbjFjKD1PKWMoQyNOKVtjSF1uKGMxPU8pW0NIXTJbQ0gyXVtDSDJdMg==

> <s_epik_cmdline>
J2VwaWtfcHl0aG9uJywgJy1waCcsICc3LjAnLCAnLXRuJywgJzgnLCAnLW1hJywgJzIwMCcsICctbWV0YWxfYmluZGluZycsICctaW1hZScsICc8aW5maWxlLm1hZT4nLCAnLW9tYWUnLCAnPG91dGZpbGUubWFlPic=

> <r_lp_tautomer_probability>
1

> <r_epik_Ionization_Penalty>
1.93863e-08

> <r_epik_Ionization_Penalty_Charging>
8.45512e-11

> <r_epik_Ionization_Penalty_Neutral>
1.93017e-08

> <r_epik_State_Penalty>
-0

> <r_epik_Charging_Adjusted_Penalty>
8.45512e-11

> <i_epik_Tot_Q>
0

> <i_epik_Tot_abs_Q>
0

> <r_epik_Metal_State_Penalty>
-0

> <b_epik_Metal_Only>
0

> <s_lp_Force_Field>
OPLS_2005

> <r_lp_Energy>
29.5524

> <b_lp_Chiralities_Consistent>
1

> <s_lp_Variant>
AV-unprocessed.smi:379-1

> <Gold.Version>
5.8.1

> <Gold.Id.Protein>
6NUR|6NUR_protein|mol2

> <Gold.PLP.Fitness>
45.5953

> <Gold.PLP.PLP>
-36.0406

> <Gold.PLP.part.hbond>
-4.0000

> <Gold.PLP.part.metal>
0.0000

> <Gold.PLP.part.buried>
-1.4503

> <Gold.PLP.part.nonpolar>
-30.9134

> <Gold.PLP.part.repulsive>
0.5630

> <Gold.PLP.ligand.clash>
0.0000

> <Gold.PLP.ligand.torsion>
0.2608

> <Gold.PLP.Chemscore.Hbond>
2.2810

> <Gold.PLP.Chemscore.CHOScore>
1.0000

> <Gold.PLP.Chemscore.Metal>
0.0000

> <Gold.Chemscore.Hbonds>
donor molecule, donor type, donor heavy atom, donor atom, acceptor molecule, acceptor atom, score
      P1  H  7989  7998       L1    11  0.15
      P1  H  7997  8009       L1    21  0.98
      P1  H  8011  8017       L1    14  0.14
      P1  H 10752 10765       L1     7  1.00
      L1  C    15    34       P1  8028  1.00

> <Gold.PLP.Chemscore.Internal.Correction>
0.2331

> <Gold.Rescore>
     Score         DG    S(hbond)    S(metal)    S(lipo)     H(rot)  DE(clash)    DE(int)     intcor
      7.89     -12.49       1.17        0.00      69.67       1.98       0.94       3.66       ----

> <Gold.Chemscore.Fitness>
7.8937

> <Gold.Chemscore.DG>
-12.4935

> <Gold.Chemscore.ZeroCoef>
-5.4800

> <Gold.Chemscore.Hbond>
1.1750

> <Gold.Chemscore.Metal>
0.0000

> <Gold.Chemscore.Lipo>
69.6698

> <Gold.Chemscore.Internal_Hbond>
0.0000

> <Gold.Chemscore.DEClash>
0.9426

> <Gold.Chemscore.DEInternal>
3.6572

> <Gold.Chemscore.Rot>
1.9774

> <Gold.Chemscore.Internal.Correction>
   9.000000E+99

> <Gold.Chemscore.Hbonds>
donor molecule, donor type, donor heavy atom, donor atom, acceptor molecule, acceptor atom, score
      P1  H  7997  8009       L1    21  0.22
      P1  H  8011  8017       L1    14  0.02
      P1  H 10752 10765       L1     7  0.90

> <Gold.Chemscore.Hbond.Weighted>
-3.9244

> <Gold.Chemscore.Metal.Weighted>
-0.0000

> <Gold.Chemscore.Lipo.Weighted>
-8.1514

> <Gold.Chemscore.Internal_Hbond.Weighted>
0.0000

> <Gold.Chemscore.DEClash.Weighted>
0.9426

> <Gold.Chemscore.DEInternal.Weighted>
3.6572

> <Gold.Chemscore.Rot.Weighted>
5.0623

> <Gold.Chemscore.Internal.Correction.Weighted>
   9.000000E+99

> <Gold.Protein.RotatedTorsions>
[ 6907 6896 6895 6894 ] final  -78.40 input  -60.11 | X-H torsion
[ 7974 7965 7964 7962 ] final -158.94 input  175.53 | X-H torsion
[ 8008 7997 7996 7995 ] final  148.76 input   59.86 | X-H torsion
[ 10167 10162 10161 10158 ] final -149.33 input  -65.29 | X-H torsion
[ 10718 10713 10712 10709 ] final  -44.82 input   66.30 | X-H torsion
[ 10763 10752 10751 10750 ] final  173.45 input  -60.55 | X-H torsion
[ 11005 11000 10999 10996 ] final -123.66 input  -57.11 | X-H torsion

> <Gold.Protein.ActiveResidues>
 VAL166  LYS551  ARG553  GLY616  TRP617  ASP618  TYR619  PRO620  LYS621  CYS622 
 ASP623  PHE694  ASN695  SER759  ASP760  ASP761  ALA762  ILE779  LEU786  VAL792 
 PHE793  MET794  SER795  GLU796  ALA797  LYS798  CYS799  TRP800  GLU811  SER814 

> <Gold.Protein.RotatedAtoms>
  150.6974  134.4278  159.5234 H   0  0  0  0  0  0  0  0  0  0  0  0  # atno 6907 bound_to 6896
  152.2010  134.8585  160.0517 H   0  0  0  0  0  0  0  0  0  0  0  0  # atno 6908 bound_to 6896
  151.9505  133.3630  159.4035 H   0  0  0  0  0  0  0  0  0  0  0  0  # atno 6909 bound_to 6896
  144.7485  140.3756  143.6066 H   0  0  0  0  0  0  0  0  0  0  0  0  # atno 7974 bound_to 7965
  156.2780  140.2120  156.5749 H   0  0  0  0  0  0  0  0  0  0  0  0  # atno 8008 bound_to 7997
  154.7105  140.0512  157.0569 H   0  0  0  0  0  0  0  0  0  0  0  0  # atno 8009 bound_to 7997
  155.0611  140.3166  155.4663 H   0  0  0  0  0  0  0  0  0  0  0  0  # atno 8010 bound_to 7997
  139.7452  143.8601  152.2573 H   0  0  0  0  0  0  0  0  0  0  0  0  # atno 10167 bound_to 10162
  156.2347  130.4175  149.8833 H   0  0  0  0  0  0  0  0  0  0  0  0  # atno 10718 bound_to 10713
  154.4402  135.2762  155.1853 H   0  0  0  0  0  0  0  0  0  0  0  0  # atno 10763 bound_to 10752
  154.3723  135.6106  153.5750 H   0  0  0  0  0  0  0  0  0  0  0  0  # atno 10764 bound_to 10752
  152.9840  135.5860  154.4728 H   0  0  0  0  0  0  0  0  0  0  0  0  # atno 10765 bound_to 10752
  140.9901  134.0550  157.3664 H   0  0  0  0  0  0  0  0  0  0  0  0  # atno 11005 bound_to 11000
  145.7031  139.1666  143.2581 LP  0  0  0  0  0  0  0  0  0  0  0  0  # atno 17320 bound_to 7965
  146.1401  140.7069  142.9371 LP  0  0  0  0  0  0  0  0  0  0  0  0  # atno 17321 bound_to 7965
  139.8564  144.7139  150.9152 LP  0  0  0  0  0  0  0  0  0  0  0  0  # atno 17342 bound_to 10162
  140.7791  143.3855  151.1401 LP  0  0  0  0  0  0  0  0  0  0  0  0  # atno 17343 bound_to 10162
  156.6435  130.8714  151.3518 LP  0  0  0  0  0  0  0  0  0  0  0  0  # atno 17370 bound_to 10713
  157.7149  130.9484  150.1218 LP  0  0  0  0  0  0  0  0  0  0  0  0  # atno 17371 bound_to 10713
  139.8988  135.0156  156.7168 LP  0  0  0  0  0  0  0  0  0  0  0  0  # atno 17394 bound_to 11000
  140.7053  133.9271  155.8049 LP  0  0  0  0  0  0  0  0  0  0  0  0  # atno 17395 bound_to 11000

$$$$
