#       Name:                AV-unprocessed.smi:1982
#       Creating user name   scv26
#       Creation time:       Fri Mar 27 10:21:35 2020


#       File generated by GOLD software.
#

@<TRIPOS>MOLECULE
AV-unprocessed.smi:1982
    41    42     1
SMALL
NO_CHARGES


@<TRIPOS>ATOM
      1 ****        -3.1133  -0.6367  -1.6816 C.3            1 S1                 0.0000
      2 ****        -2.4711  -0.0563  -0.4106 C.3            1 S1                 0.0000
      3 ****        -2.9411  -0.7970   0.8573 C.3            1 S1                 0.0000
      4 ****        -2.3796  -0.1435   2.1295 C.3            1 S1                 0.0000
      5 ****        -0.8487  -0.0325   2.0780 C.3            1 S1                 0.0000
      6 ****        -0.3828   0.7090   0.8100 C.3            1 S1                 0.0000
      7 ****         1.0737   0.8119   0.8078 N.am           1 S1                 0.0000
      8 ****         1.7901   1.7255   0.1343 C.2            1 S1                 0.0000
      9 ****         1.2873   2.6325  -0.5281 O.2            1 S1                 0.0000
     10 ****         3.3099   1.5810   0.2043 C.3            1 S1                 0.0000
     11 ****         3.7510   0.4302  -0.5614 N.pl3          1 S1                 0.0000
     12 ****         3.9463   0.2719  -1.8721 C.2            1 S1                 0.0000
     13 ****         4.3352  -0.9602  -2.1626 N.2            1 S1                 0.0000
     14 ****         4.3731  -1.5789  -0.9240 N.2            1 S1                 0.0000
     15 ****         4.0272  -0.7589   0.0301 N.2            1 S1                 0.0000
     16 ****        -0.9230   0.0327  -0.4810 C.3            1 S1                 0.0000
     17 ****        -0.2372  -1.3187  -0.7944 C.3            1 S1                 0.0000
     18 ****        -2.8911  -1.6970  -1.8013 H              1 S1                 0.0000
     19 ****        -2.7632  -0.1157  -2.5729 H              1 S1                 0.0000
     20 ****        -4.1984  -0.5353  -1.6481 H              1 S1                 0.0000
     21 ****        -2.8386   0.9681  -0.3309 H              1 S1                 0.0000
     22 ****        -4.0306  -0.7981   0.9046 H              1 S1                 0.0000
     23 ****        -2.6383  -1.8435   0.8163 H              1 S1                 0.0000
     24 ****        -2.8118   0.8511   2.2482 H              1 S1                 0.0000
     25 ****        -2.6816  -0.7168   3.0063 H              1 S1                 0.0000
     26 ****        -0.4944   0.4904   2.9671 H              1 S1                 0.0000
     27 ****        -0.4089  -1.0298   2.1157 H              1 S1                 0.0000
     28 ****        -0.7893   1.7213   0.8608 H              1 S1                 0.0000
     29 ****         1.5774   0.1052   1.3243 H              1 S1                 0.0000
     30 ****         3.7921   2.4739  -0.1955 H              1 S1                 0.0000
     31 ****         3.6306   1.4757   1.2418 H              1 S1                 0.0000
     32 ****         3.7983   1.0500  -2.6065 H              1 S1                 0.0000
     33 ****        -0.6826   0.6942  -1.3147 H              1 S1                 0.0000
     34 ****        -0.4312  -2.0657  -0.0254 H              1 S1                 0.0000
     35 ****         0.8442  -1.2112  -0.8805 H              1 S1                 0.0000
     36 ****        -0.5779  -1.7284  -1.7445 H              1 S1                 0.0000
     37 ****         0.2925   2.7176  -0.5854 LP             1 S1                 0.0000
     38 ****         1.8734   3.2845  -1.0091 LP             1 S1                 0.0000
     39 ****         4.5494  -1.3493  -3.0585 LP             1 S1                 0.0000
     40 ****         4.6328  -2.5337  -0.7793 LP             1 S1                 0.0000
     41 ****         3.9757  -0.9665   1.0069 LP             1 S1                 0.0000
@<TRIPOS>BOND
    1    1    2 1     
    2    1   18 1     
    3    1   19 1     
    4    1   20 1     
    5    2   16 1     
    6    2    3 1     
    7    2   21 1     
    8    3    4 1     
    9    3   22 1     
   10    3   23 1     
   11    4    5 1     
   12    4   24 1     
   13    4   25 1     
   14    5    6 1     
   15    5   26 1     
   16    5   27 1     
   17    6    7 1     
   18    6   16 1     
   19    6   28 1     
   20    7    8 am    
   21    7   29 1     
   22    8    9 2     
   23    8   10 1     
   24   10   11 1     
   25   10   30 1     
   26   10   31 1     
   27   11   15 1     
   28   11   12 1     
   29   12   13 2     
   30   12   32 1     
   31   13   14 1     
   32   14   15 2     
   33   16   17 1     
   34   16   33 1     
   35   17   34 1     
   36   17   35 1     
   37   17   36 1     
   38    9   37 1     
   39    9   38 1     
   40   13   39 1     
   41   14   40 1     
   42   15   41 1     
@<TRIPOS>SUBSTRUCTURE
      1 S1             1
@<TRIPOS>SET
LONE_PAIRS      STATIC     ATOMS    <user>   **** ""
5 37 38 39 40 41
DONOR_HYDROGENS      STATIC     ATOMS    <user>   **** ""
1 29
ATOM$BLUE        STATIC     ATOMS    COLORGROUP SYSTEM
5 37 38 39 40 41
ATOM$RED        STATIC     ATOMS    COLORGROUP SYSTEM
1 29
