AV-unprocessed.smi:3276|AV-procd|sdf|12534|dock5
  -GOLD-   2272018453D 1   1.00000     0.00000
 Structure written by MMmdl.
 39 40  0  0  0  0  0  0  0  0  1 V2000
  150.6205  142.6632  158.3671 C   0  0  0  0  0  0  0  0  0  0  0  0
  150.9001  141.5645  157.3642 C   0  0  0  0  0  0  0  0  0  0  0  0
  150.4455  141.6480  156.0310 C   0  0  0  0  0  0  0  0  0  0  0  0
  150.6949  140.6680  155.1359 N   0  0  0  0  0  0  0  0  0  0  0  0
  151.3997  139.6013  155.5792 C   0  0  0  0  0  0  0  0  0  0  0  0
  151.6687  138.5081  154.5604 C   0  0  0  0  0  0  0  0  0  0  0  0
  151.8569  139.5101  156.9187 C   0  0  0  0  0  0  0  0  0  0  0  0
  152.5867  138.3896  157.3425 N   0  0  0  0  0  0  0  0  0  0  0  0
  152.0680  137.5341  158.4003 C   0  0  0  0  0  0  0  0  0  0  0  0
  150.5380  137.5850  158.4564 C   0  0  0  0  0  0  0  0  0  0  0  0
  150.1004  136.8299  159.5735 O   0  0  0  0  0  0  0  0  0  0  0  0
  148.6909  136.6866  159.6311 C   0  0  0  0  0  0  0  0  0  0  0  0
  148.2791  136.2020  161.0284 C   0  0  2  0  0  0  0  0  0  0  0  0
  147.2462  135.0719  161.0467 C   0  0  0  0  0  0  0  0  0  0  0  0
  146.5573  135.3102  162.3712 C   0  0  0  0  0  0  0  0  0  0  0  0
  146.5211  136.8343  162.4251 C   0  0  0  0  0  0  0  0  0  0  0  0
  147.7233  137.2673  161.7961 O   0  0  0  0  0  0  0  0  0  0  0  0
  151.6039  140.5003  157.8096 N   0  0  0  0  0  0  0  0  0  0  0  0
  150.1391  143.5177  157.8904 H   0  0  0  0  0  0  0  0  0  0  0  0
  151.5490  143.0068  158.8243 H   0  0  0  0  0  0  0  0  0  0  0  0
  149.9623  142.2965  159.1553 H   0  0  0  0  0  0  0  0  0  0  0  0
  149.8816  142.4995  155.6794 H   0  0  0  0  0  0  0  0  0  0  0  0
  151.2631  137.5572  154.9071 H   0  0  0  0  0  0  0  0  0  0  0  0
  152.7417  138.3901  154.4071 H   0  0  0  0  0  0  0  0  0  0  0  0
  151.2123  138.7384  153.5967 H   0  0  0  0  0  0  0  0  0  0  0  0
  153.2929  138.0091  156.7291 H   0  0  0  0  0  0  0  0  0  0  0  0
  152.3911  136.5100  158.2099 H   0  0  0  0  0  0  0  0  0  0  0  0
  152.4867  137.8327  159.3622 H   0  0  0  0  0  0  0  0  0  0  0  0
  150.1903  138.6173  158.5241 H   0  0  0  0  0  0  0  0  0  0  0  0
  150.1228  137.1576  157.5427 H   0  0  0  0  0  0  0  0  0  0  0  0
  148.2119  137.6440  159.4213 H   0  0  0  0  0  0  0  0  0  0  0  0
  148.3536  135.9781  158.8731 H   0  0  0  0  0  0  0  0  0  0  0  0
  149.1688  135.8673  161.5640 H   0  0  0  0  0  0  0  0  0  0  0  0
  146.5247  135.1805  160.2360 H   0  0  0  0  0  0  0  0  0  0  0  0
  147.6975  134.0824  160.9690 H   0  0  0  0  0  0  0  0  0  0  0  0
  145.5673  134.8572  162.4288 H   0  0  0  0  0  0  0  0  0  0  0  0
  147.1640  134.9168  163.1877 H   0  0  0  0  0  0  0  0  0  0  0  0
  145.6740  137.2136  161.8522 H   0  0  0  0  0  0  0  0  0  0  0  0
  146.4411  137.2170  163.4426 H   0  0  0  0  0  0  0  0  0  0  0  0
  1  2  1  0  0  0  0
  1 19  1  0  0  0  0
  1 20  1  0  0  0  0
  1 21  1  0  0  0  0
  2 18  1  0  0  0  0
  2  3  2  0  0  0  0
  3  4  1  0  0  0  0
  3 22  1  0  0  0  0
  4  5  2  0  0  0  0
  5  6  1  0  0  0  0
  5  7  1  0  0  0  0
  6 23  1  0  0  0  0
  6 24  1  0  0  0  0
  6 25  1  0  0  0  0
  7  8  1  0  0  0  0
  7 18  2  0  0  0  0
  8  9  1  0  0  0  0
  8 26  1  0  0  0  0
  9 10  1  0  0  0  0
  9 27  1  0  0  0  0
  9 28  1  0  0  0  0
 10 11  1  0  0  0  0
 10 29  1  0  0  0  0
 10 30  1  0  0  0  0
 11 12  1  0  0  0  0
 12 13  1  0  0  0  0
 12 31  1  0  0  0  0
 12 32  1  0  0  0  0
 13 17  1  0  0  0  0
 13 14  1  0  0  0  0
 13 33  1  0  0  0  0
 14 15  1  0  0  0  0
 14 34  1  0  0  0  0
 14 35  1  0  0  0  0
 15 16  1  0  0  0  0
 15 36  1  0  0  0  0
 15 37  1  0  0  0  0
 16 17  1  0  0  0  0
 16 38  1  0  0  0  0
 16 39  1  0  0  0  0
M  END
> <s_m_source_file>
AV-unprocessed.smi

> <i_m_source_file_index>
3276

> <i_lp_mmshare_version>
43012

> <i_f3d_flags>
0

> <s_epik_input>
W0NIM11jMVtjSF1uYyhbQ0gzXSljKG4xKVtOSF1bQ0gyXVtDSDJdT1tDSDJdW0NAQEhdMltDSDJdW0NIMl1bQ0gyXU8y

> <s_epik_cmdline>
J2VwaWtfcHl0aG9uJywgJy1waCcsICc3LjAnLCAnLXRuJywgJzgnLCAnLW1hJywgJzIwMCcsICctbWV0YWxfYmluZGluZycsICctaW1hZScsICc8aW5maWxlLm1hZT4nLCAnLW9tYWUnLCAnPG91dGZpbGUubWFlPic=

> <r_lp_tautomer_probability>
1

> <r_epik_Ionization_Penalty>
0.000506

> <r_epik_Ionization_Penalty_Charging>
0

> <r_epik_Ionization_Penalty_Neutral>
0.000506

> <r_epik_State_Penalty>
-0

> <r_epik_Charging_Adjusted_Penalty>
0

> <i_epik_Tot_Q>
0

> <i_epik_Tot_abs_Q>
0

> <r_epik_Metal_State_Penalty>
-0

> <b_epik_Metal_Only>
0

> <s_lp_Force_Field>
OPLS_2005

> <r_lp_Energy>
26.3084

> <b_lp_Chiralities_Consistent>
1

> <s_lp_Variant>
AV-unprocessed.smi:3276-1

> <Gold.Version>
5.8.1

> <Gold.Id.Protein>
6NUR|6NUR_protein|mol2

> <Gold.PLP.Fitness>
46.3398

> <Gold.PLP.PLP>
-35.0604

> <Gold.PLP.part.hbond>
-4.0000

> <Gold.PLP.part.metal>
0.0000

> <Gold.PLP.part.buried>
-5.3001

> <Gold.PLP.part.nonpolar>
-25.6108

> <Gold.PLP.part.repulsive>
0.1711

> <Gold.PLP.ligand.clash>
0.0000

> <Gold.PLP.ligand.torsion>
1.4707

> <Gold.PLP.Chemscore.Hbond>
3.7120

> <Gold.PLP.Chemscore.CHOScore>
0.9912

> <Gold.PLP.Chemscore.Metal>
0.0000

> <Gold.Chemscore.Hbonds>
donor molecule, donor type, donor heavy atom, donor atom, acceptor molecule, acceptor atom, score
      P1  H  6896  6907       L1    11  0.93
      P1  H  6931  6943       L1    17  0.99
      P1  H  6934  6947       L1    17  0.66
      P1  H  7989  7998       L1     4  0.78
      L1  C     3    22       P1  8028  1.00

> <Gold.PLP.Chemscore.Internal.Correction>
0.1112

> <Gold.Rescore>
     Score         DG    S(hbond)    S(metal)    S(lipo)     H(rot)  DE(clash)    DE(int)     intcor
     17.64     -19.17       2.70        0.00      76.84       1.68       0.02       1.51       ----

> <Gold.Chemscore.Fitness>
17.6378

> <Gold.Chemscore.DG>
-19.1692

> <Gold.Chemscore.ZeroCoef>
-5.4800

> <Gold.Chemscore.Hbond>
2.6961

> <Gold.Chemscore.Metal>
0.0000

> <Gold.Chemscore.Lipo>
76.8381

> <Gold.Chemscore.Internal_Hbond>
0.0000

> <Gold.Chemscore.DEClash>
0.0194

> <Gold.Chemscore.DEInternal>
1.5120

> <Gold.Chemscore.Rot>
1.6820

> <Gold.Chemscore.Internal.Correction>
   9.000000E+99

> <Gold.Chemscore.Hbonds>
donor molecule, donor type, donor heavy atom, donor atom, acceptor molecule, acceptor atom, score
      P1  H  6896  6907       L1    11  0.49
      P1  H  6931  6943       L1    17  0.28
      P1  H  6934  6947       L1    17  0.24
      P1  H  7989  7998       L1     4  0.13

> <Gold.Chemscore.Hbond.Weighted>
-9.0050

> <Gold.Chemscore.Metal.Weighted>
-0.0000

> <Gold.Chemscore.Lipo.Weighted>
-8.9901

> <Gold.Chemscore.Internal_Hbond.Weighted>
0.0000

> <Gold.Chemscore.DEClash.Weighted>
0.0194

> <Gold.Chemscore.DEInternal.Weighted>
1.5120

> <Gold.Chemscore.Rot.Weighted>
4.3058

> <Gold.Chemscore.Internal.Correction.Weighted>
   9.000000E+99

> <Gold.Protein.RotatedTorsions>
[ 6907 6896 6895 6894 ] final  -43.76 input  -60.11 | X-H torsion
[ 7974 7965 7964 7962 ] final  165.97 input  175.53 | X-H torsion
[ 8008 7997 7996 7995 ] final  126.44 input   59.86 | X-H torsion
[ 10167 10162 10161 10158 ] final  177.82 input  -65.29 | X-H torsion
[ 10718 10713 10712 10709 ] final   57.73 input   66.30 | X-H torsion
[ 10763 10752 10751 10750 ] final   35.91 input  -60.55 | X-H torsion
[ 11005 11000 10999 10996 ] final  -20.17 input  -57.11 | X-H torsion

> <Gold.Protein.ActiveResidues>
 VAL166  LYS551  ARG553  GLY616  TRP617  ASP618  TYR619  PRO620  LYS621  CYS622 
 ASP623  PHE694  ASN695  SER759  ASP760  ASP761  ALA762  ILE779  LEU786  VAL792 
 PHE793  MET794  SER795  GLU796  ALA797  LYS798  CYS799  TRP800  GLU811  SER814 

> <Gold.Protein.RotatedAtoms>
  150.9404  134.8813  159.7608 H   0  0  0  0  0  0  0  0  0  0  0  0  # atno 6907 bound_to 6896
  152.5077  134.3950  159.9407 H   0  0  0  0  0  0  0  0  0  0  0  0  # atno 6908 bound_to 6896
  151.3971  133.3729  159.2763 H   0  0  0  0  0  0  0  0  0  0  0  0  # atno 6909 bound_to 6896
  144.7481  139.8547  143.6375 H   0  0  0  0  0  0  0  0  0  0  0  0  # atno 7974 bound_to 7965
  156.2864  140.2692  156.2112 H   0  0  0  0  0  0  0  0  0  0  0  0  # atno 8008 bound_to 7997
  155.0262  140.0386  157.2474 H   0  0  0  0  0  0  0  0  0  0  0  0  # atno 8009 bound_to 7997
  154.7393  140.2722  155.6392 H   0  0  0  0  0  0  0  0  0  0  0  0  # atno 8010 bound_to 7997
  139.5269  144.2753  152.0593 H   0  0  0  0  0  0  0  0  0  0  0  0  # atno 10167 bound_to 10162
  157.5539  130.8785  149.9005 H   0  0  0  0  0  0  0  0  0  0  0  0  # atno 10718 bound_to 10713
  153.0099  135.6320  154.1902 H   0  0  0  0  0  0  0  0  0  0  0  0  # atno 10763 bound_to 10752
  154.1644  135.2822  155.3101 H   0  0  0  0  0  0  0  0  0  0  0  0  # atno 10764 bound_to 10752
  154.5957  135.5603  153.7383 H   0  0  0  0  0  0  0  0  0  0  0  0  # atno 10765 bound_to 10752
  140.8439  133.7906  155.9890 H   0  0  0  0  0  0  0  0  0  0  0  0  # atno 11005 bound_to 11000
  146.1391  139.4444  143.0120 LP  0  0  0  0  0  0  0  0  0  0  0  0  # atno 17320 bound_to 7965
  145.7046  141.0125  143.1486 LP  0  0  0  0  0  0  0  0  0  0  0  0  # atno 17321 bound_to 7965
  140.2210  144.4466  150.6342 LP  0  0  0  0  0  0  0  0  0  0  0  0  # atno 17342 bound_to 10162
  140.6418  143.2205  151.6273 LP  0  0  0  0  0  0  0  0  0  0  0  0  # atno 17343 bound_to 10162
  156.0601  130.3701  150.1002 LP  0  0  0  0  0  0  0  0  0  0  0  0  # atno 17370 bound_to 10713
  156.9173  130.9671  151.3554 LP  0  0  0  0  0  0  0  0  0  0  0  0  # atno 17371 bound_to 10713
  140.8865  134.2547  157.5117 LP  0  0  0  0  0  0  0  0  0  0  0  0  # atno 17394 bound_to 11000
  139.8703  134.9641  156.4483 LP  0  0  0  0  0  0  0  0  0  0  0  0  # atno 17395 bound_to 11000

$$$$
