AV-unprocessed.smi:699|AV-procd|sdf|3403|dock8
  -GOLD-   22720 0383D 1   1.00000     0.00000
 Structure written by MMmdl.
 35 36  0  0  0  0  0  0  0  0  2 V2000
  149.2633  135.7225  156.9502 N   0  0  0  0  0  0  0  0  0  0  0  0
  149.1280  134.4510  157.3345 C   0  0  0  0  0  0  0  0  0  0  0  0
  149.3429  134.0921  158.4908 O   0  0  0  0  0  0  0  0  0  0  0  0
  148.6906  133.4392  156.2640 C   0  0  2  0  0  0  0  0  0  0  0  0
  148.8440  131.9819  156.7311 C   0  0  0  0  0  0  0  0  0  0  0  0
  149.1013  131.1892  155.4536 C   0  0  0  0  0  0  0  0  0  0  0  0
  149.9719  132.1158  154.6090 C   0  0  0  0  0  0  0  0  0  0  0  0
  149.5204  133.5451  154.9550 C   0  0  1  0  0  0  0  0  0  0  0  0
  148.7405  134.1189  153.8592 N   0  0  0  0  0  0  0  0  0  0  0  0
  147.5725  133.6406  153.4070 C   0  0  0  0  0  0  0  0  0  0  0  0
  147.0302  132.6331  153.8601 O   0  0  0  0  0  0  0  0  0  0  0  0
  147.0981  134.3887  152.3957 N   0  0  0  0  0  0  0  0  0  0  0  0
  145.8852  134.2308  151.6710 C   0  0  0  0  0  0  0  0  0  0  0  0
  145.3886  135.3545  150.9734 C   0  0  0  0  0  0  0  0  0  0  0  0
  144.1798  135.2497  150.2552 C   0  0  0  0  0  0  0  0  0  0  0  0
  143.5019  134.0820  150.2466 N   0  3  0  0  0  0  0  0  0  0  0  0
  143.9288  132.9855  150.9089 C   0  0  0  0  0  0  0  0  0  0  0  0
  145.1303  133.0302  151.6450 C   0  0  0  0  0  0  0  0  0  0  0  0
  149.5522  136.4193  157.6213 H   0  0  0  0  0  0  0  0  0  0  0  0
  149.0805  135.9837  155.9924 H   0  0  0  0  0  0  0  0  0  0  0  0
  147.6350  133.5984  156.0340 H   0  0  0  0  0  0  0  0  0  0  0  0
  149.6952  131.8672  157.4044 H   0  0  0  0  0  0  0  0  0  0  0  0
  147.9592  131.6235  157.2582 H   0  0  0  0  0  0  0  0  0  0  0  0
  149.5753  130.2261  155.6449 H   0  0  0  0  0  0  0  0  0  0  0  0
  148.1572  131.0019  154.9405 H   0  0  0  0  0  0  0  0  0  0  0  0
  151.0147  131.9889  154.9034 H   0  0  0  0  0  0  0  0  0  0  0  0
  149.9103  131.8850  153.5446 H   0  0  0  0  0  0  0  0  0  0  0  0
  150.4156  134.1565  155.0898 H   0  0  0  0  0  0  0  0  0  0  0  0
  149.1174  134.9480  153.4237 H   0  0  0  0  0  0  0  0  0  0  0  0
  147.7002  135.1337  152.0767 H   0  0  0  0  0  0  0  0  0  0  0  0
  145.9295  136.2899  150.9822 H   0  0  0  0  0  0  0  0  0  0  0  0
  143.7372  136.0597  149.6940 H   0  0  0  0  0  0  0  0  0  0  0  0
  143.2973  132.1118  150.8371 H   0  0  0  0  0  0  0  0  0  0  0  0
  145.4406  132.1482  152.1841 H   0  0  0  0  0  0  0  0  0  0  0  0
  142.6279  134.0270  149.7226 H   0  0  0  0  0  0  0  0  0  0  0  0
  1  2  1  0  0  0  0
  1 19  1  0  0  0  0
  1 20  1  0  0  0  0
  2  3  2  0  0  0  0
  2  4  1  0  0  0  0
  4  8  1  0  0  0  0
  4  5  1  0  0  0  0
  4 21  1  0  0  0  0
  5  6  1  0  0  0  0
  5 22  1  0  0  0  0
  5 23  1  0  0  0  0
  6  7  1  0  0  0  0
  6 24  1  0  0  0  0
  6 25  1  0  0  0  0
  7  8  1  0  0  0  0
  7 26  1  0  0  0  0
  7 27  1  0  0  0  0
  8  9  1  0  0  0  0
  8 28  1  0  0  0  0
  9 10  1  0  0  0  0
  9 29  1  0  0  0  0
 10 11  2  0  0  0  0
 10 12  1  0  0  0  0
 12 13  1  0  0  0  0
 12 30  1  0  0  0  0
 13 18  1  0  0  0  0
 13 14  2  0  0  0  0
 14 15  1  0  0  0  0
 14 31  1  0  0  0  0
 15 16  2  0  0  0  0
 15 32  1  0  0  0  0
 16 17  1  0  0  0  0
 16 35  1  0  0  0  0
 17 18  2  0  0  0  0
 17 33  1  0  0  0  0
 18 34  1  0  0  0  0
M  CHG  1  16   1
M  END
> <s_m_source_file>
AV-unprocessed.smi

> <i_m_source_file_index>
699

> <i_lp_mmshare_version>
43012

> <i_f3d_flags>
0

> <s_epik_input>
W05IMl1DKD1PKVtDQEBIXTFbQ0gyXVtDSDJdW0NIMl1bQ0BIXTFbTkhdQyg9TylbTkhdYzJbY0hdW2NIXW5bY0hdW2NIXTI=

> <s_epik_cmdline>
J2VwaWtfcHl0aG9uJywgJy1waCcsICc3LjAnLCAnLXRuJywgJzgnLCAnLW1hJywgJzIwMCcsICctbWV0YWxfYmluZGluZycsICctaW1hZScsICc8aW5maWxlLm1hZT4nLCAnLW9tYWUnLCAnPG91dGZpbGUubWFlPic=

> <r_epik_Ionization_Penalty>
1.0332

> <r_epik_Ionization_Penalty_Charging>
1.03318

> <r_epik_Ionization_Penalty_Neutral>
1.91967e-05

> <r_epik_State_Penalty>
1.08452

> <r_epik_Charging_Adjusted_Penalty>
2.11769

> <i_epik_Tot_Q>
1

> <i_epik_Tot_abs_Q>
1

> <r_epik_Metal_State_Penalty>
1.18144

> <b_epik_Metal_Only>
0

> <s_lp_Force_Field>
OPLS_2005

> <r_lp_Energy>
26.3794

> <b_lp_Chiralities_Consistent>
1

> <s_lp_Variant>
AV-unprocessed.smi:699-5

> <Gold.Version>
5.8.1

> <Gold.Id.Protein>
6NUR|6NUR_protein|mol2

> <Gold.PLP.Fitness>
38.1125

> <Gold.PLP.PLP>
-24.1225

> <Gold.PLP.part.hbond>
-4.0000

> <Gold.PLP.part.metal>
0.0000

> <Gold.PLP.part.buried>
-4.0432

> <Gold.PLP.part.nonpolar>
-17.8029

> <Gold.PLP.part.repulsive>
0.1564

> <Gold.PLP.ligand.clash>
0.0000

> <Gold.PLP.ligand.torsion>
0.3262

> <Gold.PLP.Chemscore.Hbond>
4.8800

> <Gold.PLP.Chemscore.CHOScore>
0.0000

> <Gold.PLP.Chemscore.Metal>
0.0000

> <Gold.Chemscore.Hbonds>
donor molecule, donor type, donor heavy atom, donor atom, acceptor molecule, acceptor atom, score
      L1  H     9    29       P1  7948  0.82
      L1  H    12    30       P1  7948  1.00
      L1  H    16    35       P1 10186  2.00
      P1  H  6896  6909       L1     3  1.00

> <Gold.PLP.Chemscore.Internal.Correction>
0.0024

> <Gold.Rescore>
     Score         DG    S(hbond)    S(metal)    S(lipo)     H(rot)  DE(clash)    DE(int)     intcor
     15.91     -18.78       3.43        0.00      48.66       1.50       0.01       2.86       ----

> <Gold.Chemscore.Fitness>
15.9090

> <Gold.Chemscore.DG>
-18.7775

> <Gold.Chemscore.ZeroCoef>
-5.4800

> <Gold.Chemscore.Hbond>
3.4294

> <Gold.Chemscore.Metal>
0.0000

> <Gold.Chemscore.Lipo>
48.6560

> <Gold.Chemscore.Internal_Hbond>
0.0000

> <Gold.Chemscore.DEClash>
0.0089

> <Gold.Chemscore.DEInternal>
2.8596

> <Gold.Chemscore.Rot>
1.5038

> <Gold.Chemscore.Internal.Correction>
   9.000000E+99

> <Gold.Chemscore.Hbonds>
donor molecule, donor type, donor heavy atom, donor atom, acceptor molecule, acceptor atom, score
      L1  H     9    29       P1  7948  0.15
      L1  H    12    30       P1  7948  0.92
      L1  H    16    35       P1 10186  0.94
      P1  H  6896  6909       L1     3  0.97

> <Gold.Chemscore.Hbond.Weighted>
-11.4544

> <Gold.Chemscore.Metal.Weighted>
-0.0000

> <Gold.Chemscore.Lipo.Weighted>
-5.6927

> <Gold.Chemscore.Internal_Hbond.Weighted>
0.0000

> <Gold.Chemscore.DEClash.Weighted>
0.0089

> <Gold.Chemscore.DEInternal.Weighted>
2.8596

> <Gold.Chemscore.Rot.Weighted>
3.8496

> <Gold.Chemscore.Internal.Correction.Weighted>
   9.000000E+99

> <Gold.Protein.RotatedTorsions>
[ 6907 6896 6895 6894 ] final   26.70 input  -60.11 | X-H torsion
[ 7974 7965 7964 7962 ] final  122.60 input  175.53 | X-H torsion
[ 8008 7997 7996 7995 ] final   28.77 input   59.86 | X-H torsion
[ 10167 10162 10161 10158 ] final  -51.08 input  -65.29 | X-H torsion
[ 10718 10713 10712 10709 ] final  -31.20 input   66.30 | X-H torsion
[ 10763 10752 10751 10750 ] final  -13.41 input  -60.55 | X-H torsion
[ 11005 11000 10999 10996 ] final   -9.53 input  -57.11 | X-H torsion

> <Gold.Protein.ActiveResidues>
 VAL166  LYS551  ARG553  GLY616  TRP617  ASP618  TYR619  PRO620  LYS621  CYS622 
 ASP623  PHE694  ASN695  SER759  ASP760  ASP761  ALA762  ILE779  LEU786  VAL792 
 PHE793  MET794  SER795  GLU796  ALA797  LYS798  CYS799  TRP800  GLU811  SER814 

> <Gold.Protein.RotatedAtoms>
  151.9913  134.9978  160.0561 H   0  0  0  0  0  0  0  0  0  0  0  0  # atno 6907 bound_to 6896
  152.1606  133.4574  159.4867 H   0  0  0  0  0  0  0  0  0  0  0  0  # atno 6908 bound_to 6896
  150.6887  134.1994  159.4359 H   0  0  0  0  0  0  0  0  0  0  0  0  # atno 6909 bound_to 6896
  145.1056  139.3488  143.4789 H   0  0  0  0  0  0  0  0  0  0  0  0  # atno 7974 bound_to 7965
  155.0639  140.3193  155.4652 H   0  0  0  0  0  0  0  0  0  0  0  0  # atno 8008 bound_to 7997
  156.2806  140.2124  156.5711 H   0  0  0  0  0  0  0  0  0  0  0  0  # atno 8009 bound_to 7997
  154.7110  140.0498  157.0537 H   0  0  0  0  0  0  0  0  0  0  0  0  # atno 8010 bound_to 7997
  140.6606  143.2633  151.4453 H   0  0  0  0  0  0  0  0  0  0  0  0  # atno 10167 bound_to 10162
  156.3902  130.4371  149.7400 H   0  0  0  0  0  0  0  0  0  0  0  0  # atno 10718 bound_to 10713
  153.5128  135.7016  153.5772 H   0  0  0  0  0  0  0  0  0  0  0  0  # atno 10763 bound_to 10752
  153.3854  135.3909  155.1886 H   0  0  0  0  0  0  0  0  0  0  0  0  # atno 10764 bound_to 10752
  154.8701  135.3845  154.4610 H   0  0  0  0  0  0  0  0  0  0  0  0  # atno 10765 bound_to 10752
  140.7351  133.8716  155.8923 H   0  0  0  0  0  0  0  0  0  0  0  0  # atno 11005 bound_to 11000
  146.3528  140.0953  142.8610 LP  0  0  0  0  0  0  0  0  0  0  0  0  # atno 17320 bound_to 7965
  145.0905  140.9281  143.4772 LP  0  0  0  0  0  0  0  0  0  0  0  0  # atno 17321 bound_to 7965
  139.5839  144.1649  152.2003 LP  0  0  0  0  0  0  0  0  0  0  0  0  # atno 17342 bound_to 10162
  140.0982  144.5562  150.7007 LP  0  0  0  0  0  0  0  0  0  0  0  0  # atno 17343 bound_to 10162
  156.4457  130.7882  151.2904 LP  0  0  0  0  0  0  0  0  0  0  0  0  # atno 17370 bound_to 10713
  157.7498  131.0111  150.3332 LP  0  0  0  0  0  0  0  0  0  0  0  0  # atno 17371 bound_to 10713
  140.9886  134.1309  157.4429 LP  0  0  0  0  0  0  0  0  0  0  0  0  # atno 17394 bound_to 11000
  139.8818  135.0033  156.6181 LP  0  0  0  0  0  0  0  0  0  0  0  0  # atno 17395 bound_to 11000

$$$$
