#       Name:                AV-unprocessed.smi:13
#       Creating user name   scv26
#       Creation time:       Thu Mar 26 15:19:27 2020


#       File generated by GOLD software.
#

@<TRIPOS>MOLECULE
AV-unprocessed.smi:13
    64    68     1
SMALL
NO_CHARGES


@<TRIPOS>ATOM
      1 ****        -3.4301   1.5624  -2.4356 C.3            1 S1                 0.0000
      2 ****        -3.2662   0.8240  -1.1074 C.3            1 S1                 0.0000
      3 ****        -4.6690   0.3690  -0.6812 C.3            1 S1                 0.0000
      4 ****        -2.1964  -0.2785  -1.0841 C.3            1 S1                 0.0000
      5 ****        -1.8222   0.2122   0.2304 N.3            1 S1                 0.0000
      6 ****        -0.4284   0.1099   0.5091 C.ar           1 S1                 0.0000
      7 ****         0.2947   1.2060   0.8628 N.ar           1 S1                 0.0000
      8 ****         1.5992   1.1151   1.1355 C.ar           1 S1                 0.0000
      9 ****         2.3800   0.0345   1.1195 N.ar           1 S1                 0.0000
     10 ****         1.6694  -1.0757   0.7739 C.ar           1 S1                 0.0000
     11 ****         0.2806  -1.1242   0.4625 C.ar           1 S1                 0.0000
     12 ****        -0.0910  -2.4310   0.1699 N.2            1 S1                 0.0000
     13 ****         1.0144  -3.1133   0.2933 C.2            1 S1                 0.0000
     14 ****         2.1228  -2.3769   0.6448 N.pl3          1 S1                 0.0000
     15 ****         3.4739  -2.8798   0.8404 C.3            1 S1                 0.0000
     16 ****         4.2752  -3.0062  -0.4760 C.3            1 S1                 0.0000
     17 ****         3.6481  -3.9690  -1.3061 O.3            1 S1                 0.0000
     18 ****         4.4018  -1.7016  -1.2574 C.3            1 S1                 0.0000
     19 ****         5.7563  -1.8428  -1.9369 C.3            1 S1                 0.0000
     20 ****         6.5422  -2.4590  -0.9313 O.3            1 S1                 0.0000
     21 ****         5.7424  -3.4294  -0.2627 C.3            1 S1                 0.0000
     22 ****        -2.3813   1.5299  -0.0518 C.3            1 S1                 0.0000
     23 ****        -2.9855   2.1951   1.1897 C.3            1 S1                 0.0000
     24 ****        -3.8686   3.4037   0.8756 C.3            1 S1                 0.0000
     25 ****        -3.7753   4.2628   2.1279 C.3            1 S1                 0.0000
     26 ****        -2.6140   3.6517   2.9144 C.3            1 S1                 0.0000
     27 ****        -1.9747   2.7791   1.9959 O.3            1 S1                 0.0000
     28 ****        -3.8662   0.9196  -3.2008 H              1 S1                 0.0000
     29 ****        -2.4711   1.9131  -2.8181 H              1 S1                 0.0000
     30 ****        -4.0736   2.4365  -2.3302 H              1 S1                 0.0000
     31 ****        -4.6557  -0.1294   0.2885 H              1 S1                 0.0000
     32 ****        -5.0888  -0.3396  -1.3958 H              1 S1                 0.0000
     33 ****        -5.3643   1.2047  -0.6077 H              1 S1                 0.0000
     34 ****        -2.5887  -1.2959  -1.0800 H              1 S1                 0.0000
     35 ****        -1.4112  -0.1401  -1.8301 H              1 S1                 0.0000
     36 ****         2.0853   2.0410   1.4056 H              1 S1                 0.0000
     37 ****         1.0540  -4.1795   0.1234 H              1 S1                 0.0000
     38 ****         3.9903  -2.2121   1.5314 H              1 S1                 0.0000
     39 ****         3.4115  -3.8471   1.3407 H              1 S1                 0.0000
     40 ****         4.1487  -4.0477  -2.1039 H              1 S1                 0.0000
     41 ****         3.5833  -1.5230  -1.9560 H              1 S1                 0.0000
     42 ****         4.4448  -0.8543  -0.5726 H              1 S1                 0.0000
     43 ****         5.6932  -2.4948  -2.8094 H              1 S1                 0.0000
     44 ****         6.1763  -0.8859  -2.2474 H              1 S1                 0.0000
     45 ****         6.0189  -3.4518   0.7919 H              1 S1                 0.0000
     46 ****         5.9494  -4.4188  -0.6739 H              1 S1                 0.0000
     47 ****        -1.6523   2.1678  -0.5558 H              1 S1                 0.0000
     48 ****        -3.5457   1.4781   1.7928 H              1 S1                 0.0000
     49 ****        -3.4630   3.9541   0.0255 H              1 S1                 0.0000
     50 ****        -4.8947   3.1276   0.6353 H              1 S1                 0.0000
     51 ****        -3.5780   5.3031   1.8674 H              1 S1                 0.0000
     52 ****        -4.6964   4.2305   2.7106 H              1 S1                 0.0000
     53 ****        -1.9210   4.4031   3.2935 H              1 S1                 0.0000
     54 ****        -2.9854   3.0719   3.7605 H              1 S1                 0.0000
     55 ****        -2.1335  -0.2435   1.0643 LP             1 S1                 0.0000
     56 ****        -0.1581   2.0958   0.9197 LP             1 S1                 0.0000
     57 ****         3.3570   0.0382   1.3327 LP             1 S1                 0.0000
     58 ****        -0.9981  -2.7707  -0.0784 LP             1 S1                 0.0000
     59 ****         2.7166  -3.6749  -1.5198 LP             1 S1                 0.0000
     60 ****         3.6196  -4.8517  -0.8371 LP             1 S1                 0.0000
     61 ****         6.8534  -1.7698  -0.2770 LP             1 S1                 0.0000
     62 ****         7.3345  -2.9044  -1.3483 LP             1 S1                 0.0000
     63 ****        -1.3362   3.2938   1.4236 LP             1 S1                 0.0000
     64 ****        -1.4782   2.0661   2.4911 LP             1 S1                 0.0000
@<TRIPOS>BOND
    1    1    2 1     
    2    1   28 1     
    3    1   29 1     
    4    1   30 1     
    5    2   22 1     
    6    2    3 1     
    7    2    4 1     
    8    3   31 1     
    9    3   32 1     
   10    3   33 1     
   11    4    5 1     
   12    4   34 1     
   13    4   35 1     
   14    5    6 1     
   15    5   22 1     
   16    6   11 ar    
   17    6    7 ar    
   18    7    8 ar    
   19    8    9 ar    
   20    8   36 1     
   21    9   10 ar    
   22   10   14 1     
   23   10   11 ar    
   24   11   12 1     
   25   12   13 2     
   26   13   14 1     
   27   13   37 1     
   28   14   15 1     
   29   15   16 1     
   30   15   38 1     
   31   15   39 1     
   32   16   21 1     
   33   16   17 1     
   34   16   18 1     
   35   17   40 1     
   36   18   19 1     
   37   18   41 1     
   38   18   42 1     
   39   19   20 1     
   40   19   43 1     
   41   19   44 1     
   42   20   21 1     
   43   21   45 1     
   44   21   46 1     
   45   22   23 1     
   46   22   47 1     
   47   23   27 1     
   48   23   24 1     
   49   23   48 1     
   50   24   25 1     
   51   24   49 1     
   52   24   50 1     
   53   25   26 1     
   54   25   51 1     
   55   25   52 1     
   56   26   27 1     
   57   26   53 1     
   58   26   54 1     
   59    5   55 1     
   60    7   56 1     
   61    9   57 1     
   62   12   58 1     
   63   17   59 1     
   64   17   60 1     
   65   20   61 1     
   66   20   62 1     
   67   27   63 1     
   68   27   64 1     
@<TRIPOS>SUBSTRUCTURE
      1 S1             1
@<TRIPOS>SET
LONE_PAIRS      STATIC     ATOMS    <user>   **** ""
10 55 56 57 58 59 60 61 62 63 64
DONOR_HYDROGENS      STATIC     ATOMS    <user>   **** ""
1 40
ATOM$BLUE        STATIC     ATOMS    COLORGROUP SYSTEM
10 55 56 57 58 59 60 61 62 63 64
ATOM$RED        STATIC     ATOMS    COLORGROUP SYSTEM
1 40
