AV-unprocessed.smi:1490|AV-procd|sdf|6030|dock3
  -GOLD-   22720 6133D 1   1.00000     0.00000
 Structure written by MMmdl.
 38 39  0  0  0  0  0  0  0  0  2 V2000
  150.7455  136.9739  155.3262 C   0  0  0  0  0  0  0  0  0  0  0  0
  152.1138  137.3170  155.4529 O   0  0  0  0  0  0  0  0  0  0  0  0
  152.3220  138.7187  155.5133 C   0  0  0  0  0  0  0  0  0  0  0  0
  151.8515  139.2482  156.8752 C   0  0  0  0  0  0  0  0  0  0  0  0
  151.3141  140.6133  156.7850 N   0  0  0  0  0  0  0  0  0  0  0  0
  150.4493  141.1651  155.8884 C   0  0  0  0  0  0  0  0  0  0  0  0
  149.7034  140.3416  154.5179 S   0  0  0  0  0  0  0  0  0  0  0  0
  147.9923  140.9429  154.4497 C   0  0  0  0  0  0  0  0  0  0  0  0
  147.0600  140.0004  153.6914 C   0  0  0  0  0  0  0  0  0  0  0  0
  146.0443  139.5699  154.2359 O   0  0  0  0  0  0  0  0  0  0  0  0
  147.4018  139.6944  152.4313 N   0  0  0  0  0  0  0  0  0  0  0  0
  146.6244  138.8280  151.5573 C   0  0  0  0  0  0  0  0  0  0  0  0
  146.1279  137.6288  152.2505 C   0  0  0  0  0  0  0  0  0  0  0  0
  145.7365  136.6865  152.7959 N   0  0  0  0  0  0  0  0  0  0  0  0
  150.2578  142.4652  156.2463 N   0  3  0  0  0  0  0  0  0  0  0  0
  151.0051  142.7482  157.3913 C   0  0  0  0  0  0  0  0  0  0  0  0
  151.1347  143.9214  158.1281 C   0  0  0  0  0  0  0  0  0  0  0  0
  151.9794  143.8722  159.2569 C   0  0  0  0  0  0  0  0  0  0  0  0
  152.1882  145.2892  160.2184 Cl  0  0  0  0  0  0  0  0  0  0  0  0
  152.6546  142.6866  159.6147 C   0  0  0  0  0  0  0  0  0  0  0  0
  152.5168  141.5025  158.8606 C   0  0  0  0  0  0  0  0  0  0  0  0
  151.6824  141.5620  157.7450 C   0  0  0  0  0  0  0  0  0  0  0  0
  150.6432  135.8898  155.2771 H   0  0  0  0  0  0  0  0  0  0  0  0
  150.3156  137.3940  154.4161 H   0  0  0  0  0  0  0  0  0  0  0  0
  150.1697  137.3277  156.1824 H   0  0  0  0  0  0  0  0  0  0  0  0
  153.3797  138.9438  155.3681 H   0  0  0  0  0  0  0  0  0  0  0  0
  151.7699  139.2157  154.7140 H   0  0  0  0  0  0  0  0  0  0  0  0
  151.0961  138.5945  157.3118 H   0  0  0  0  0  0  0  0  0  0  0  0
  152.6857  139.2649  157.5771 H   0  0  0  0  0  0  0  0  0  0  0  0
  147.6247  141.0709  155.4685 H   0  0  0  0  0  0  0  0  0  0  0  0
  147.9747  141.9245  153.9753 H   0  0  0  0  0  0  0  0  0  0  0  0
  148.2514  140.0883  152.0537 H   0  0  0  0  0  0  0  0  0  0  0  0
  145.7646  139.3813  151.1794 H   0  0  0  0  0  0  0  0  0  0  0  0
  147.2154  138.5159  150.6949 H   0  0  0  0  0  0  0  0  0  0  0  0
  150.6162  144.8292  157.8561 H   0  0  0  0  0  0  0  0  0  0  0  0
  153.2924  142.6837  160.4868 H   0  0  0  0  0  0  0  0  0  0  0  0
  153.0376  140.6005  159.1462 H   0  0  0  0  0  0  0  0  0  0  0  0
  149.6560  143.1070  155.7465 H   0  0  0  0  0  0  0  0  0  0  0  0
  1  2  1  0  0  0  0
  1 23  1  0  0  0  0
  1 24  1  0  0  0  0
  1 25  1  0  0  0  0
  2  3  1  0  0  0  0
  3  4  1  0  0  0  0
  3 26  1  0  0  0  0
  3 27  1  0  0  0  0
  4  5  1  0  0  0  0
  4 28  1  0  0  0  0
  4 29  1  0  0  0  0
  5 22  1  0  0  0  0
  5  6  1  0  0  0  0
  6  7  1  0  0  0  0
  6 15  2  0  0  0  0
  7  8  1  0  0  0  0
  8  9  1  0  0  0  0
  8 30  1  0  0  0  0
  8 31  1  0  0  0  0
  9 10  2  0  0  0  0
  9 11  1  0  0  0  0
 11 12  1  0  0  0  0
 11 32  1  0  0  0  0
 12 13  1  0  0  0  0
 12 33  1  0  0  0  0
 12 34  1  0  0  0  0
 13 14  3  0  0  0  0
 15 16  1  0  0  0  0
 15 38  1  0  0  0  0
 16 22  2  0  0  0  0
 16 17  1  0  0  0  0
 17 18  2  0  0  0  0
 17 35  1  0  0  0  0
 18 19  1  0  0  0  0
 18 20  1  0  0  0  0
 20 21  2  0  0  0  0
 20 36  1  0  0  0  0
 21 22  1  0  0  0  0
 21 37  1  0  0  0  0
M  CHG  1  15   1
M  END
> <s_m_source_file>
AV-unprocessed.smi

> <i_m_source_file_index>
1490

> <i_lp_mmshare_version>
43012

> <i_f3d_flags>
0

> <s_epik_input>
W2NIXTFjKENsKVtjSF1bY0hdYyhjMTIpbihbQ0gyXVtDSDJdT1tDSDNdKWMobjIpU1tDSDJdQyg9TylbTkhdW0NIMl1DI04=

> <s_epik_cmdline>
J2VwaWtfcHl0aG9uJywgJy1waCcsICc3LjAnLCAnLXRuJywgJzgnLCAnLW1hJywgJzIwMCcsICctbWV0YWxfYmluZGluZycsICctaW1hZScsICc8aW5maWxlLm1hZT4nLCAnLW9tYWUnLCAnPG91dGZpbGUubWFlPic=

> <r_epik_Ionization_Penalty>
2.45232

> <r_epik_Ionization_Penalty_Charging>
2.45231

> <r_epik_Ionization_Penalty_Neutral>
6.97855e-06

> <r_epik_State_Penalty>
2.61389

> <r_epik_Charging_Adjusted_Penalty>
5.0662

> <i_epik_Tot_Q>
1

> <i_epik_Tot_abs_Q>
1

> <r_epik_Metal_State_Penalty>
2.62983

> <b_epik_Metal_Only>
0

> <s_lp_Force_Field>
OPLS_2005

> <r_lp_Energy>
5.53111

> <b_lp_Chiralities_Consistent>
1

> <s_lp_Variant>
AV-unprocessed.smi:1490-2

> <Gold.Version>
5.8.1

> <Gold.Id.Protein>
6NUR|6NUR_protein|mol2

> <Gold.PLP.Fitness>
56.3810

> <Gold.PLP.PLP>
-47.1694

> <Gold.PLP.part.hbond>
-2.7395

> <Gold.PLP.part.metal>
0.0000

> <Gold.PLP.part.buried>
-3.2291

> <Gold.PLP.part.nonpolar>
-43.6169

> <Gold.PLP.part.repulsive>
1.0533

> <Gold.PLP.ligand.clash>
0.0000

> <Gold.PLP.ligand.torsion>
0.9609

> <Gold.PLP.Chemscore.Hbond>
3.6910

> <Gold.PLP.Chemscore.CHOScore>
0.0000

> <Gold.PLP.Chemscore.Metal>
0.0000

> <Gold.Chemscore.Hbonds>
donor molecule, donor type, donor heavy atom, donor atom, acceptor molecule, acceptor atom, score
      L1  H    11    32       P1  7957  1.00
      L1  H    15    38       P1  8028  1.95
      P1  H 10752 10765       L1     2  0.76

> <Gold.PLP.Chemscore.Internal.Correction>
0.0604

> <Gold.Rescore>
     Score         DG    S(hbond)    S(metal)    S(lipo)     H(rot)  DE(clash)    DE(int)     intcor
     15.57     -17.99       1.96        0.00     112.94       2.84       0.05       2.38       ----

> <Gold.Chemscore.Fitness>
15.5684

> <Gold.Chemscore.DG>
-17.9903

> <Gold.Chemscore.ZeroCoef>
-5.4800

> <Gold.Chemscore.Hbond>
1.9644

> <Gold.Chemscore.Metal>
0.0000

> <Gold.Chemscore.Lipo>
112.9411

> <Gold.Chemscore.Internal_Hbond>
0.0000

> <Gold.Chemscore.DEClash>
0.0451

> <Gold.Chemscore.DEInternal>
2.3769

> <Gold.Chemscore.Rot>
2.8378

> <Gold.Chemscore.Internal.Correction>
   9.000000E+99

> <Gold.Chemscore.Hbonds>
donor molecule, donor type, donor heavy atom, donor atom, acceptor molecule, acceptor atom, score
      L1  H    11    32       P1  7957  0.96
      L1  H    15    38       P1  8028  0.93
      P1  H 10752 10765       L1     2  0.22

> <Gold.Chemscore.Hbond.Weighted>
-6.5611

> <Gold.Chemscore.Metal.Weighted>
-0.0000

> <Gold.Chemscore.Lipo.Weighted>
-13.2141

> <Gold.Chemscore.Internal_Hbond.Weighted>
0.0000

> <Gold.Chemscore.DEClash.Weighted>
0.0451

> <Gold.Chemscore.DEInternal.Weighted>
2.3769

> <Gold.Chemscore.Rot.Weighted>
7.2649

> <Gold.Chemscore.Internal.Correction.Weighted>
   9.000000E+99

> <Gold.Protein.RotatedTorsions>
[ 6907 6896 6895 6894 ] final  174.98 input  -60.11 | X-H torsion
[ 7974 7965 7964 7962 ] final  -63.25 input  175.53 | X-H torsion
[ 8008 7997 7996 7995 ] final  -48.25 input   59.86 | X-H torsion
[ 10167 10162 10161 10158 ] final   25.60 input  -65.29 | X-H torsion
[ 10718 10713 10712 10709 ] final  128.35 input   66.30 | X-H torsion
[ 10763 10752 10751 10750 ] final -165.66 input  -60.55 | X-H torsion
[ 11005 11000 10999 10996 ] final  -14.27 input  -57.11 | X-H torsion

> <Gold.Protein.ActiveResidues>
 VAL166  LYS551  ARG553  GLY616  TRP617  ASP618  TYR619  PRO620  LYS621  CYS622 
 ASP623  PHE694  ASN695  SER759  ASP760  ASP761  ALA762  ILE779  LEU786  VAL792 
 PHE793  MET794  SER795  GLU796  ALA797  LYS798  CYS799  TRP800  GLU811  SER814 

> <Gold.Protein.RotatedAtoms>
  151.7435  133.3323  159.3371 H   0  0  0  0  0  0  0  0  0  0  0  0  # atno 6907 bound_to 6896
  150.7564  134.6256  159.6169 H   0  0  0  0  0  0  0  0  0  0  0  0  # atno 6908 bound_to 6896
  152.3515  134.7001  160.0286 H   0  0  0  0  0  0  0  0  0  0  0  0  # atno 6909 bound_to 6896
  145.7813  140.8760  143.0329 H   0  0  0  0  0  0  0  0  0  0  0  0  # atno 7974 bound_to 7965
  154.4026  140.1326  156.4308 H   0  0  0  0  0  0  0  0  0  0  0  0  # atno 8008 bound_to 7997
  155.7553  140.3487  155.5151 H   0  0  0  0  0  0  0  0  0  0  0  0  # atno 8009 bound_to 7997
  155.8910  140.1003  157.1408 H   0  0  0  0  0  0  0  0  0  0  0  0  # atno 8010 bound_to 7997
  140.5092  144.0188  150.6365 H   0  0  0  0  0  0  0  0  0  0  0  0  # atno 10167 bound_to 10162
  157.5252  131.1098  150.9094 H   0  0  0  0  0  0  0  0  0  0  0  0  # atno 10718 bound_to 10713
  154.6910  135.2971  154.9479 H   0  0  0  0  0  0  0  0  0  0  0  0  # atno 10763 bound_to 10752
  154.0442  135.6653  153.4797 H   0  0  0  0  0  0  0  0  0  0  0  0  # atno 10764 bound_to 10752
  153.0612  135.5114  154.8003 H   0  0  0  0  0  0  0  0  0  0  0  0  # atno 10765 bound_to 10752
  140.7847  133.8335  155.9324 H   0  0  0  0  0  0  0  0  0  0  0  0  # atno 11005 bound_to 11000
  144.6796  139.9993  143.7484 LP  0  0  0  0  0  0  0  0  0  0  0  0  # atno 17320 bound_to 7965
  146.0071  139.3138  143.0893 LP  0  0  0  0  0  0  0  0  0  0  0  0  # atno 17321 bound_to 7965
  140.3506  143.2965  152.0491 LP  0  0  0  0  0  0  0  0  0  0  0  0  # atno 17342 bound_to 10162
  139.4891  144.6377  151.6942 LP  0  0  0  0  0  0  0  0  0  0  0  0  # atno 17343 bound_to 10162
  156.9692  130.5484  149.5289 LP  0  0  0  0  0  0  0  0  0  0  0  0  # atno 17370 bound_to 10713
  156.0382  130.5467  150.8705 LP  0  0  0  0  0  0  0  0  0  0  0  0  # atno 17371 bound_to 10713
  140.9449  134.1854  157.4771 LP  0  0  0  0  0  0  0  0  0  0  0  0  # atno 17394 bound_to 11000
  139.8738  134.9886  156.5421 LP  0  0  0  0  0  0  0  0  0  0  0  0  # atno 17395 bound_to 11000

$$$$
