AV-unprocessed.smi:3000|AV-procd|sdf|11430|dock10
  -GOLD-   2272016353D 1   1.00000     0.00000
 Structure written by MMmdl.
 44 45  0  0  0  0  0  0  0  0  1 V2000
  143.7338  132.7759  149.6907 C   0  0  0  0  0  0  0  0  0  0  0  0
  144.2157  133.7282  150.6682 N   0  0  0  0  0  0  0  0  0  0  0  0
  145.4398  134.3649  150.7123 C   0  0  0  0  0  0  0  0  0  0  0  0
  145.4017  135.1602  151.8228 C   0  0  0  0  0  0  0  0  0  0  0  0
  146.3960  136.0272  152.3430 N   0  0  0  0  0  0  0  0  0  0  0  0
  146.2144  137.0809  153.1555 C   0  0  0  0  0  0  0  0  0  0  0  0
  145.1253  137.4469  153.5949 O   0  0  0  0  0  0  0  0  0  0  0  0
  147.3831  137.6879  153.4235 N   0  0  0  0  0  0  0  0  0  0  0  0
  147.6415  138.8624  154.2716 C   0  0  2  0  0  0  0  0  0  0  0  0
  147.0216  138.4872  155.6378 C   0  0  0  0  0  0  0  0  0  0  0  0
  146.8242  140.0730  153.7267 C   0  0  0  0  0  0  0  0  0  0  0  0
  147.0685  140.3716  152.3668 O   0  0  0  0  0  0  0  0  0  0  0  0
  149.1799  139.1562  154.4203 C   0  0  0  0  0  0  0  0  0  0  0  0
  150.0566  137.8933  154.6245 C   0  0  0  0  0  0  0  0  0  0  0  0
  151.5547  138.2393  154.6297 C   0  0  0  0  0  0  0  0  0  0  0  0
  151.8817  139.2898  155.7010 C   0  0  0  0  0  0  0  0  0  0  0  0
  151.0169  140.5463  155.5238 C   0  0  0  0  0  0  0  0  0  0  0  0
  149.5202  140.1953  155.5186 C   0  0  0  0  0  0  0  0  0  0  0  0
  144.1229  134.9538  152.4028 C   0  0  0  0  0  0  0  0  0  0  0  0
  143.4110  134.0872  151.6982 N   0  0  0  0  0  0  0  0  0  0  0  0
  144.5446  132.4840  149.0223 H   0  0  0  0  0  0  0  0  0  0  0  0
  142.9333  133.2262  149.1031 H   0  0  0  0  0  0  0  0  0  0  0  0
  143.3529  131.8866  150.1943 H   0  0  0  0  0  0  0  0  0  0  0  0
  146.2031  134.1945  149.9674 H   0  0  0  0  0  0  0  0  0  0  0  0
  147.3445  135.8270  152.0617 H   0  0  0  0  0  0  0  0  0  0  0  0
  148.2024  137.2850  152.9933 H   0  0  0  0  0  0  0  0  0  0  0  0
  147.1077  139.2936  156.3654 H   0  0  0  0  0  0  0  0  0  0  0  0
  147.4835  137.6007  156.0719 H   0  0  0  0  0  0  0  0  0  0  0  0
  145.9568  138.2709  155.5386 H   0  0  0  0  0  0  0  0  0  0  0  0
  145.7538  139.9219  153.8731 H   0  0  0  0  0  0  0  0  0  0  0  0
  147.0774  140.9756  154.2839 H   0  0  0  0  0  0  0  0  0  0  0  0
  147.9879  140.2443  152.1905 H   0  0  0  0  0  0  0  0  0  0  0  0
  149.5167  139.5959  153.4817 H   0  0  0  0  0  0  0  0  0  0  0  0
  149.8052  137.4053  155.5660 H   0  0  0  0  0  0  0  0  0  0  0  0
  149.8743  137.1601  153.8392 H   0  0  0  0  0  0  0  0  0  0  0  0
  152.1430  137.3379  154.8032 H   0  0  0  0  0  0  0  0  0  0  0  0
  151.8464  138.6134  153.6475 H   0  0  0  0  0  0  0  0  0  0  0  0
  151.7112  138.8663  156.6916 H   0  0  0  0  0  0  0  0  0  0  0  0
  152.9385  139.5541  155.6541 H   0  0  0  0  0  0  0  0  0  0  0  0
  151.2287  141.2566  156.3234 H   0  0  0  0  0  0  0  0  0  0  0  0
  151.2796  141.0450  154.5900 H   0  0  0  0  0  0  0  0  0  0  0  0
  148.9460  141.1103  155.3777 H   0  0  0  0  0  0  0  0  0  0  0  0
  149.2509  139.8106  156.5020 H   0  0  0  0  0  0  0  0  0  0  0  0
  143.6957  135.3942  153.2917 H   0  0  0  0  0  0  0  0  0  0  0  0
  1  2  1  0  0  0  0
  1 21  1  0  0  0  0
  1 22  1  0  0  0  0
  1 23  1  0  0  0  0
  2 20  1  0  0  0  0
  2  3  1  0  0  0  0
  3  4  2  0  0  0  0
  3 24  1  0  0  0  0
  4  5  1  0  0  0  0
  4 19  1  0  0  0  0
  5  6  1  0  0  0  0
  5 25  1  0  0  0  0
  6  7  2  0  0  0  0
  6  8  1  0  0  0  0
  8  9  1  0  0  0  0
  8 26  1  0  0  0  0
  9 10  1  0  0  0  0
  9 11  1  0  0  0  0
  9 13  1  0  0  0  0
 10 27  1  0  0  0  0
 10 28  1  0  0  0  0
 10 29  1  0  0  0  0
 11 12  1  0  0  0  0
 11 30  1  0  0  0  0
 11 31  1  0  0  0  0
 12 32  1  0  0  0  0
 13 18  1  0  0  0  0
 13 14  1  0  0  0  0
 13 33  1  0  0  0  0
 14 15  1  0  0  0  0
 14 34  1  0  0  0  0
 14 35  1  0  0  0  0
 15 16  1  0  0  0  0
 15 36  1  0  0  0  0
 15 37  1  0  0  0  0
 16 17  1  0  0  0  0
 16 38  1  0  0  0  0
 16 39  1  0  0  0  0
 17 18  1  0  0  0  0
 17 40  1  0  0  0  0
 17 41  1  0  0  0  0
 18 42  1  0  0  0  0
 18 43  1  0  0  0  0
 19 20  2  0  0  0  0
 19 44  1  0  0  0  0
M  END
> <s_m_source_file>
AV-unprocessed.smi

> <i_m_source_file_index>
3000

> <i_lp_mmshare_version>
43012

> <i_f3d_flags>
0

> <s_epik_input>
W0NIM11uMVtjSF1jKFtjSF1uMSlbTkhdQyg9TylbTkhdW0NAQF0oW0NIM10pKFtDSDJdW09IXSlbQ0hdMltDSDJdW0NIMl1bQ0gyXVtDSDJdW0NIMl0y

> <s_epik_cmdline>
J2VwaWtfcHl0aG9uJywgJy1waCcsICc3LjAnLCAnLXRuJywgJzgnLCAnLW1hJywgJzIwMCcsICctbWV0YWxfYmluZGluZycsICctaW1hZScsICc8aW5maWxlLm1hZT4nLCAnLW9tYWUnLCAnPG91dGZpbGUubWFlPic=

> <r_lp_tautomer_probability>
1

> <r_epik_Ionization_Penalty>
0.000189471

> <r_epik_Ionization_Penalty_Charging>
0

> <r_epik_Ionization_Penalty_Neutral>
0.000189471

> <r_epik_State_Penalty>
-0

> <r_epik_Charging_Adjusted_Penalty>
0

> <i_epik_Tot_Q>
0

> <i_epik_Tot_abs_Q>
0

> <r_epik_Metal_State_Penalty>
-0

> <b_epik_Metal_Only>
0

> <s_lp_Force_Field>
OPLS_2005

> <r_lp_Energy>
23.0127

> <b_lp_Chiralities_Consistent>
1

> <s_lp_Variant>
AV-unprocessed.smi:3000-2

> <Gold.Version>
5.8.1

> <Gold.Id.Protein>
6NUR|6NUR_protein|mol2

> <Gold.PLP.Fitness>
42.5952

> <Gold.PLP.PLP>
-31.8599

> <Gold.PLP.part.hbond>
-3.1168

> <Gold.PLP.part.metal>
0.0000

> <Gold.PLP.part.buried>
-3.8533

> <Gold.PLP.part.nonpolar>
-25.8358

> <Gold.PLP.part.repulsive>
0.3471

> <Gold.PLP.ligand.clash>
0.0000

> <Gold.PLP.ligand.torsion>
0.4503

> <Gold.PLP.Chemscore.Hbond>
3.0000

> <Gold.PLP.Chemscore.CHOScore>
0.8475

> <Gold.PLP.Chemscore.Metal>
0.0000

> <Gold.Chemscore.Hbonds>
donor molecule, donor type, donor heavy atom, donor atom, acceptor molecule, acceptor atom, score
      L1  H     5    25       P1  7948  1.00
      L1  H     8    26       P1  7948  1.00
      L1  H    12    32       P1  7957  1.00
      L1  C     3    24       P1  7921  0.85

> <Gold.PLP.Chemscore.Internal.Correction>
0.0935

> <Gold.Rescore>
     Score         DG    S(hbond)    S(metal)    S(lipo)     H(rot)  DE(clash)    DE(int)     intcor
     15.75     -18.10       2.83        0.00      71.29       2.02       0.12       2.23       ----

> <Gold.Chemscore.Fitness>
15.7517

> <Gold.Chemscore.DG>
-18.1025

> <Gold.Chemscore.ZeroCoef>
-5.4800

> <Gold.Chemscore.Hbond>
2.8273

> <Gold.Chemscore.Metal>
0.0000

> <Gold.Chemscore.Lipo>
71.2946

> <Gold.Chemscore.Internal_Hbond>
0.0000

> <Gold.Chemscore.DEClash>
0.1185

> <Gold.Chemscore.DEInternal>
2.2323

> <Gold.Chemscore.Rot>
2.0165

> <Gold.Chemscore.Internal.Correction>
   9.000000E+99

> <Gold.Chemscore.Hbonds>
donor molecule, donor type, donor heavy atom, donor atom, acceptor molecule, acceptor atom, score
      L1  H     5    25       P1  7948  0.97
      L1  H     8    26       P1  7948  0.96
      L1  H    12    32       P1  7957  0.99

> <Gold.Chemscore.Hbond.Weighted>
-9.4432

> <Gold.Chemscore.Metal.Weighted>
-0.0000

> <Gold.Chemscore.Lipo.Weighted>
-8.3415

> <Gold.Chemscore.Internal_Hbond.Weighted>
0.0000

> <Gold.Chemscore.DEClash.Weighted>
0.1185

> <Gold.Chemscore.DEInternal.Weighted>
2.2323

> <Gold.Chemscore.Rot.Weighted>
5.1622

> <Gold.Chemscore.Internal.Correction.Weighted>
   9.000000E+99

> <Gold.Protein.RotatedTorsions>
[ 6907 6896 6895 6894 ] final  176.38 input  -60.11 | X-H torsion
[ 7974 7965 7964 7962 ] final  -30.64 input  175.53 | X-H torsion
[ 8008 7997 7996 7995 ] final -119.69 input   59.86 | X-H torsion
[ 10167 10162 10161 10158 ] final  -55.49 input  -65.29 | X-H torsion
[ 10718 10713 10712 10709 ] final -166.92 input   66.30 | X-H torsion
[ 10763 10752 10751 10750 ] final   42.63 input  -60.55 | X-H torsion
[ 11005 11000 10999 10996 ] final  146.58 input  -57.11 | X-H torsion

> <Gold.Protein.ActiveResidues>
 VAL166  LYS551  ARG553  GLY616  TRP617  ASP618  TYR619  PRO620  LYS621  CYS622 
 ASP623  PHE694  ASN695  SER759  ASP760  ASP761  ALA762  ILE779  LEU786  VAL792 
 PHE793  MET794  SER795  GLU796  ALA797  LYS798  CYS799  TRP800  GLU811  SER814 

> <Gold.Protein.RotatedAtoms>
  151.7211  133.3314  159.3315 H   0  0  0  0  0  0  0  0  0  0  0  0  # atno 6907 bound_to 6896
  150.7652  134.6447  159.6265 H   0  0  0  0  0  0  0  0  0  0  0  0  # atno 6908 bound_to 6896
  152.3651  134.6818  160.0246 H   0  0  0  0  0  0  0  0  0  0  0  0  # atno 6909 bound_to 6896
  146.1128  140.5566  142.8770 H   0  0  0  0  0  0  0  0  0  0  0  0  # atno 7974 bound_to 7965
  155.1198  140.0398  157.2747 H   0  0  0  0  0  0  0  0  0  0  0  0  # atno 8008 bound_to 7997
  154.6622  140.2593  155.7071 H   0  0  0  0  0  0  0  0  0  0  0  0  # atno 8009 bound_to 7997
  156.2624  140.2814  156.1098 H   0  0  0  0  0  0  0  0  0  0  0  0  # atno 8010 bound_to 7997
  140.6372  143.2488  151.5087 H   0  0  0  0  0  0  0  0  0  0  0  0  # atno 10167 bound_to 10162
  156.6748  130.9098  151.3049 H   0  0  0  0  0  0  0  0  0  0  0  0  # atno 10718 bound_to 10713
  152.9879  135.6126  154.2980 H   0  0  0  0  0  0  0  0  0  0  0  0  # atno 10763 bound_to 10752
  154.2702  135.2780  155.2743 H   0  0  0  0  0  0  0  0  0  0  0  0  # atno 10764 bound_to 10752
  154.5129  135.5836  153.6676 H   0  0  0  0  0  0  0  0  0  0  0  0  # atno 10765 bound_to 10752
  140.0805  134.9100  157.1493 H   0  0  0  0  0  0  0  0  0  0  0  0  # atno 11005 bound_to 11000
  144.7526  140.5229  143.6791 LP  0  0  0  0  0  0  0  0  0  0  0  0  # atno 17320 bound_to 7965
  145.5629  139.1480  143.3331 LP  0  0  0  0  0  0  0  0  0  0  0  0  # atno 17321 bound_to 7965
  139.5582  144.2223  152.1647 LP  0  0  0  0  0  0  0  0  0  0  0  0  # atno 17342 bound_to 10162
  140.1483  144.5138  150.6702 LP  0  0  0  0  0  0  0  0  0  0  0  0  # atno 17343 bound_to 10162
  157.7064  130.9390  150.0946 LP  0  0  0  0  0  0  0  0  0  0  0  0  # atno 17370 bound_to 10713
  156.1911  130.3655  149.8908 LP  0  0  0  0  0  0  0  0  0  0  0  0  # atno 17371 bound_to 10713
  140.3495  134.2615  155.7200 LP  0  0  0  0  0  0  0  0  0  0  0  0  # atno 17394 bound_to 11000
  141.2045  133.7885  157.0284 LP  0  0  0  0  0  0  0  0  0  0  0  0  # atno 17395 bound_to 11000

$$$$
