AV-unprocessed.smi:516|AV-procd|sdf|2786|dock1
  -GOLD-   2262023263D 1   1.00000     0.00000
 Structure written by MMmdl.
 43 45  0  0  0  0  0  0  0  0  2 V2000
  146.8637  141.9988  154.1420 C   0  0  0  0  0  0  0  0  0  0  0  0
  148.2768  141.9001  154.1504 O   0  0  0  0  0  0  0  0  0  0  0  0
  148.7679  141.2774  155.3252 C   0  0  0  0  0  0  0  0  0  0  0  0
  150.3025  141.3098  155.3000 C   0  0  0  0  0  0  0  0  0  0  0  0
  150.8808  140.5557  156.4070 N   0  0  0  0  0  0  0  0  0  0  0  0
  150.7849  140.8339  157.7340 C   0  0  0  0  0  0  0  0  0  0  0  0
  150.0374  142.0168  158.2762 C   0  0  0  0  0  0  0  0  0  0  0  0
  150.9011  143.0594  158.8266 N   0  0  0  0  0  0  0  0  0  0  0  0
  151.7112  143.6866  157.7904 C   0  0  0  0  0  0  0  0  0  0  0  0
  152.6399  144.7664  158.3723 C   0  0  0  0  0  0  0  0  0  0  0  0
  151.8652  145.7369  159.0699 O   0  0  0  0  0  0  0  0  0  0  0  0
  151.0866  145.1691  160.1190 C   0  0  0  0  0  0  0  0  0  0  0  0
  150.1541  144.0888  159.5449 C   0  0  0  0  0  0  0  0  0  0  0  0
  151.4203  139.9653  158.5248 N   0  0  0  0  0  0  0  0  0  0  0  0
  151.9681  139.0648  157.6236 C   0  0  0  0  0  0  0  0  0  0  0  0
  151.6596  139.3980  156.3433 C   0  0  0  0  0  0  0  0  0  0  0  0
  152.1072  138.6309  155.1619 C   0  0  0  0  0  0  0  0  0  0  0  0
  151.7997  138.9817  154.0243 O   0  0  0  0  0  0  0  0  0  0  0  0
  152.8679  137.5451  155.5114 N   0  5  0  0  0  0  0  0  0  0  0  0
  153.2057  137.1694  156.7949 C   0  0  0  0  0  0  0  0  0  0  0  0
  153.8992  136.1758  157.0131 O   0  0  0  0  0  0  0  0  0  0  0  0
  152.7648  137.9137  157.8605 N   0  0  0  0  0  0  0  0  0  0  0  0
  153.0794  137.5819  159.2535 C   0  0  0  0  0  0  0  0  0  0  0  0
  146.5359  142.4863  153.2241 H   0  0  0  0  0  0  0  0  0  0  0  0
  146.5045  142.5911  154.9845 H   0  0  0  0  0  0  0  0  0  0  0  0
  146.3997  141.0125  154.1835 H   0  0  0  0  0  0  0  0  0  0  0  0
  148.3903  141.7939  156.2085 H   0  0  0  0  0  0  0  0  0  0  0  0
  148.4110  140.2482  155.3733 H   0  0  0  0  0  0  0  0  0  0  0  0
  150.6653  140.9028  154.3569 H   0  0  0  0  0  0  0  0  0  0  0  0
  150.6678  142.3357  155.3360 H   0  0  0  0  0  0  0  0  0  0  0  0
  149.4278  142.4256  157.4698 H   0  0  0  0  0  0  0  0  0  0  0  0
  149.3374  141.6725  159.0391 H   0  0  0  0  0  0  0  0  0  0  0  0
  152.3112  142.9311  157.2820 H   0  0  0  0  0  0  0  0  0  0  0  0
  151.0644  144.1339  157.0341 H   0  0  0  0  0  0  0  0  0  0  0  0
  153.3721  144.3214  159.0481 H   0  0  0  0  0  0  0  0  0  0  0  0
  153.1967  145.2592  157.5753 H   0  0  0  0  0  0  0  0  0  0  0  0
  151.7437  144.7452  160.8802 H   0  0  0  0  0  0  0  0  0  0  0  0
  150.5050  145.9560  160.5991 H   0  0  0  0  0  0  0  0  0  0  0  0
  149.4281  144.5543  158.8766 H   0  0  0  0  0  0  0  0  0  0  0  0
  149.5856  143.6429  160.3616 H   0  0  0  0  0  0  0  0  0  0  0  0
  153.6648  136.6708  159.3789 H   0  0  0  0  0  0  0  0  0  0  0  0
  152.1573  137.4538  159.8213 H   0  0  0  0  0  0  0  0  0  0  0  0
  153.6425  138.3964  159.7098 H   0  0  0  0  0  0  0  0  0  0  0  0
  1  2  1  0  0  0  0
  1 24  1  0  0  0  0
  1 25  1  0  0  0  0
  1 26  1  0  0  0  0
  2  3  1  0  0  0  0
  3  4  1  0  0  0  0
  3 27  1  0  0  0  0
  3 28  1  0  0  0  0
  4  5  1  0  0  0  0
  4 29  1  0  0  0  0
  4 30  1  0  0  0  0
  5 16  1  0  0  0  0
  5  6  1  0  0  0  0
  6  7  1  0  0  0  0
  6 14  2  0  0  0  0
  7  8  1  0  0  0  0
  7 31  1  0  0  0  0
  7 32  1  0  0  0  0
  8 13  1  0  0  0  0
  8  9  1  0  0  0  0
  9 10  1  0  0  0  0
  9 33  1  0  0  0  0
  9 34  1  0  0  0  0
 10 11  1  0  0  0  0
 10 35  1  0  0  0  0
 10 36  1  0  0  0  0
 11 12  1  0  0  0  0
 12 13  1  0  0  0  0
 12 37  1  0  0  0  0
 12 38  1  0  0  0  0
 13 39  1  0  0  0  0
 13 40  1  0  0  0  0
 14 15  1  0  0  0  0
 15 22  1  0  0  0  0
 15 16  2  0  0  0  0
 16 17  1  0  0  0  0
 17 18  2  0  0  0  0
 17 19  1  0  0  0  0
 19 20  1  0  0  0  0
 20 21  2  0  0  0  0
 20 22  1  0  0  0  0
 22 23  1  0  0  0  0
 23 41  1  0  0  0  0
 23 42  1  0  0  0  0
 23 43  1  0  0  0  0
M  CHG  1  19  -1
M  END
> <s_m_source_file>
AV-unprocessed.smi

> <i_m_source_file_index>
516

> <i_lp_mmshare_version>
43012

> <i_f3d_flags>
0

> <s_epik_input>
W0NIM11uMWMoPU8pW25IXWMoPU8pYyhjMTIpbihbQ0gyXVtDSDJdT1tDSDNdKWMobjIpW0NIMl1OM1tDSDJdW0NIMl1PW0NIMl1bQ0gyXTM=

> <s_epik_cmdline>
J2VwaWtfcHl0aG9uJywgJy1waCcsICc3LjAnLCAnLXRuJywgJzgnLCAnLW1hJywgJzIwMCcsICctbWV0YWxfYmluZGluZycsICctaW1hZScsICc8aW5maWxlLm1hZT4nLCAnLW9tYWUnLCAnPG91dGZpbGUubWFlPic=

> <r_epik_Ionization_Penalty>
4.87269

> <r_epik_Ionization_Penalty_Charging>
0.0382909

> <r_epik_Ionization_Penalty_Neutral>
4.8344

> <r_epik_State_Penalty>
4.82423

> <r_epik_Charging_Adjusted_Penalty>
4.86252

> <i_epik_Tot_Q>
-1

> <i_epik_Tot_abs_Q>
1

> <r_epik_Metal_State_Penalty>
1.05282

> <b_epik_Metal_Only>
1

> <s_lp_Force_Field>
OPLS_2005

> <r_lp_Energy>
45.4303

> <b_lp_Chiralities_Consistent>
1

> <s_lp_Variant>
AV-unprocessed.smi:516-3

> <Gold.Version>
5.8.1

> <Gold.Id.Protein>
6NUR|6NUR_protein|mol2

> <Gold.PLP.Fitness>
45.0860

> <Gold.PLP.PLP>
-39.1507

> <Gold.PLP.part.hbond>
-5.0000

> <Gold.PLP.part.metal>
0.0000

> <Gold.PLP.part.buried>
-3.7089

> <Gold.PLP.part.nonpolar>
-31.2990

> <Gold.PLP.part.repulsive>
0.5617

> <Gold.PLP.ligand.clash>
0.0000

> <Gold.PLP.ligand.torsion>
0.1792

> <Gold.PLP.Chemscore.Hbond>
2.0928

> <Gold.PLP.Chemscore.CHOScore>
0.0000

> <Gold.PLP.Chemscore.Metal>
0.0000

> <Gold.Chemscore.Hbonds>
donor molecule, donor type, donor heavy atom, donor atom, acceptor molecule, acceptor atom, score
      P1  H  7989  7998       L1    18  0.83
      P1  H  8011  8017       L1     2  0.02
      P1  H 10752 10763       L1    19  0.11
      P1  H 10752 10764       L1    21  1.00

> <Gold.PLP.Chemscore.Internal.Correction>
0.0154

> <Gold.Rescore>
     Score         DG    S(hbond)    S(metal)    S(lipo)     H(rot)  DE(clash)    DE(int)     intcor
     14.33     -15.21       1.80        0.00      75.57       2.00       0.73       0.15       ----

> <Gold.Chemscore.Fitness>
14.3316

> <Gold.Chemscore.DG>
-15.2097

> <Gold.Chemscore.ZeroCoef>
-5.4800

> <Gold.Chemscore.Hbond>
1.8025

> <Gold.Chemscore.Metal>
0.0000

> <Gold.Chemscore.Lipo>
75.5737

> <Gold.Chemscore.Internal_Hbond>
0.0000

> <Gold.Chemscore.DEClash>
0.7280

> <Gold.Chemscore.DEInternal>
0.1502

> <Gold.Chemscore.Rot>
2.0050

> <Gold.Chemscore.Internal.Correction>
   9.000000E+99

> <Gold.Chemscore.Hbonds>
donor molecule, donor type, donor heavy atom, donor atom, acceptor molecule, acceptor atom, score
      P1  H  7989  7998       L1    18  0.82
      P1  H  8011  8017       L1     2  0.04
      P1  H 10752 10763       L1    19  0.04
      P1  H 10752 10764       L1    21  0.54

> <Gold.Chemscore.Hbond.Weighted>
-6.0204

> <Gold.Chemscore.Metal.Weighted>
-0.0000

> <Gold.Chemscore.Lipo.Weighted>
-8.8421

> <Gold.Chemscore.Internal_Hbond.Weighted>
0.0000

> <Gold.Chemscore.DEClash.Weighted>
0.7280

> <Gold.Chemscore.DEInternal.Weighted>
0.1502

> <Gold.Chemscore.Rot.Weighted>
5.1327

> <Gold.Chemscore.Internal.Correction.Weighted>
   9.000000E+99

> <Gold.Protein.RotatedTorsions>
[ 6907 6896 6895 6894 ] final -175.67 input  -60.11 | X-H torsion
[ 7974 7965 7964 7962 ] final  -31.39 input  175.53 | X-H torsion
[ 8008 7997 7996 7995 ] final -124.54 input   59.86 | X-H torsion
[ 10167 10162 10161 10158 ] final  104.10 input  -65.29 | X-H torsion
[ 10718 10713 10712 10709 ] final   69.92 input   66.30 | X-H torsion
[ 10763 10752 10751 10750 ] final   30.98 input  -60.55 | X-H torsion
[ 11005 11000 10999 10996 ] final   94.03 input  -57.11 | X-H torsion

> <Gold.Protein.ActiveResidues>
 VAL166  LYS551  ARG553  GLY616  TRP617  ASP618  TYR619  PRO620  LYS621  CYS622 
 ASP623  PHE694  ASN695  SER759  ASP760  ASP761  ALA762  ILE779  LEU786  VAL792 
 PHE793  MET794  SER795  GLU796  ALA797  LYS798  CYS799  TRP800  GLU811  SER814 

> <Gold.Protein.RotatedAtoms>
  151.5923  133.3365  159.3030 H   0  0  0  0  0  0  0  0  0  0  0  0  # atno 6907 bound_to 6896
  150.8253  134.7484  159.6819 H   0  0  0  0  0  0  0  0  0  0  0  0  # atno 6908 bound_to 6896
  152.4343  134.5723  159.9976 H   0  0  0  0  0  0  0  0  0  0  0  0  # atno 6909 bound_to 6896
  146.1071  140.5661  142.8795 H   0  0  0  0  0  0  0  0  0  0  0  0  # atno 7974 bound_to 7965
  155.1986  140.0415  157.2913 H   0  0  0  0  0  0  0  0  0  0  0  0  # atno 8008 bound_to 7997
  154.6090  140.2472  155.7665 H   0  0  0  0  0  0  0  0  0  0  0  0  # atno 8009 bound_to 7997
  156.2367  140.2919  156.0342 H   0  0  0  0  0  0  0  0  0  0  0  0  # atno 8010 bound_to 7997
  139.7206  144.7059  151.0878 H   0  0  0  0  0  0  0  0  0  0  0  0  # atno 10167 bound_to 10162
  157.6372  130.9450  150.0580 H   0  0  0  0  0  0  0  0  0  0  0  0  # atno 10718 bound_to 10713
  153.0341  135.6450  154.1128 H   0  0  0  0  0  0  0  0  0  0  0  0  # atno 10763 bound_to 10752
  154.0846  135.2871  155.3285 H   0  0  0  0  0  0  0  0  0  0  0  0  # atno 10764 bound_to 10752
  154.6506  135.5427  153.7961 H   0  0  0  0  0  0  0  0  0  0  0  0  # atno 10765 bound_to 10752
  139.8803  134.8823  156.3805 H   0  0  0  0  0  0  0  0  0  0  0  0  # atno 11005 bound_to 11000
  144.7480  140.5118  143.6822 LP  0  0  0  0  0  0  0  0  0  0  0  0  # atno 17320 bound_to 7965
  145.5739  139.1485  143.3273 LP  0  0  0  0  0  0  0  0  0  0  0  0  # atno 17321 bound_to 7965
  140.7753  143.5171  150.9581 LP  0  0  0  0  0  0  0  0  0  0  0  0  # atno 17342 bound_to 10162
  139.8858  143.7015  152.3151 LP  0  0  0  0  0  0  0  0  0  0  0  0  # atno 17343 bound_to 10162
  156.1621  130.3644  149.9284 LP  0  0  0  0  0  0  0  0  0  0  0  0  # atno 17370 bound_to 10713
  156.7280  130.9032  151.3623 LP  0  0  0  0  0  0  0  0  0  0  0  0  # atno 17371 bound_to 10713
  140.9402  133.7520  156.0137 LP  0  0  0  0  0  0  0  0  0  0  0  0  # atno 17394 bound_to 11000
  140.8228  134.3269  157.5376 LP  0  0  0  0  0  0  0  0  0  0  0  0  # atno 17395 bound_to 11000

$$$$
