AV-unprocessed.smi:2448|AV-procd|sdf|9660|dock3
  -GOLD-   2272013293D 1   1.00000     0.00000
 Structure written by MMmdl.
 38 39  0  0  0  0  0  0  0  0  2 V2000
  144.6442  135.8658  149.7450 O   0  0  0  0  0  0  0  0  0  0  0  0
  144.9495  135.5590  151.0942 C   0  0  2  0  0  0  0  0  0  0  0  0
  145.5937  136.8047  151.7369 C   0  0  0  0  0  0  0  0  0  0  0  0
  146.0703  136.5328  153.0954 N   0  0  0  0  0  0  0  0  0  0  0  0
  146.3985  137.6980  153.9305 C   0  0  2  0  0  0  0  0  0  0  0  0
  147.5836  138.4269  153.2526 C   0  0  0  0  0  0  0  0  0  0  0  0
  147.8443  139.8346  153.7611 C   0  0  0  0  0  0  0  0  0  0  0  0
  146.8790  140.8521  153.5874 C   0  0  0  0  0  0  0  0  0  0  0  0
  147.1500  142.1485  154.0705 C   0  0  0  0  0  0  0  0  0  0  0  0
  148.3213  142.4029  154.6939 N   0  3  0  0  0  0  0  0  0  0  0  0
  149.2688  141.4591  154.8850 C   0  0  0  0  0  0  0  0  0  0  0  0
  149.0532  140.1443  154.4232 C   0  0  0  0  0  0  0  0  0  0  0  0
  146.6961  137.3047  155.4055 C   0  0  0  0  0  0  0  0  0  0  0  0
  145.7128  136.5708  155.9226 F   0  0  0  0  0  0  0  0  0  0  0  0
  147.8339  136.6136  155.4781 F   0  0  0  0  0  0  0  0  0  0  0  0
  146.8061  138.3851  156.1769 F   0  0  0  0  0  0  0  0  0  0  0  0
  145.9147  134.3622  151.0844 C   0  0  0  0  0  0  0  0  0  0  0  0
  145.1078  133.1103  150.7249 C   0  0  0  0  0  0  0  0  0  0  0  0
  143.4523  133.3069  151.4299 S   0  0  0  0  0  0  0  0  0  0  0  0
  143.6872  135.0615  151.8222 C   0  0  0  0  0  0  0  0  0  0  0  0
  144.2885  136.7404  149.7101 H   0  0  0  0  0  0  0  0  0  0  0  0
  146.4292  137.1364  151.1194 H   0  0  0  0  0  0  0  0  0  0  0  0
  144.8614  137.6105  151.7340 H   0  0  0  0  0  0  0  0  0  0  0  0
  145.3903  135.9528  153.5766 H   0  0  0  0  0  0  0  0  0  0  0  0
  145.5453  138.3774  153.9256 H   0  0  0  0  0  0  0  0  0  0  0  0
  148.4921  137.8317  153.3559 H   0  0  0  0  0  0  0  0  0  0  0  0
  147.3991  138.5043  152.1799 H   0  0  0  0  0  0  0  0  0  0  0  0
  145.9438  140.6463  153.0871 H   0  0  0  0  0  0  0  0  0  0  0  0
  146.4705  142.9831  153.9776 H   0  0  0  0  0  0  0  0  0  0  0  0
  150.1632  141.7815  155.3980 H   0  0  0  0  0  0  0  0  0  0  0  0
  149.8075  139.3859  154.5751 H   0  0  0  0  0  0  0  0  0  0  0  0
  146.7538  134.5105  150.4035 H   0  0  0  0  0  0  0  0  0  0  0  0
  146.3373  134.2303  152.0814 H   0  0  0  0  0  0  0  0  0  0  0  0
  145.0081  133.0262  149.6424 H   0  0  0  0  0  0  0  0  0  0  0  0
  145.5822  132.1978  151.0860 H   0  0  0  0  0  0  0  0  0  0  0  0
  143.8273  135.1350  152.9013 H   0  0  0  0  0  0  0  0  0  0  0  0
  142.7983  135.6406  151.5702 H   0  0  0  0  0  0  0  0  0  0  0  0
  148.4971  143.3482  155.0357 H   0  0  0  0  0  0  0  0  0  0  0  0
  1  2  1  0  0  0  0
  1 21  1  0  0  0  0
  2 20  1  0  0  0  0
  2  3  1  0  0  0  0
  2 17  1  0  0  0  0
  3  4  1  0  0  0  0
  3 22  1  0  0  0  0
  3 23  1  0  0  0  0
  4  5  1  0  0  0  0
  4 24  1  0  0  0  0
  5  6  1  0  0  0  0
  5 13  1  0  0  0  0
  5 25  1  0  0  0  0
  6  7  1  0  0  0  0
  6 26  1  0  0  0  0
  6 27  1  0  0  0  0
  7 12  1  0  0  0  0
  7  8  2  0  0  0  0
  8  9  1  0  0  0  0
  8 28  1  0  0  0  0
  9 10  2  0  0  0  0
  9 29  1  0  0  0  0
 10 11  1  0  0  0  0
 10 38  1  0  0  0  0
 11 12  2  0  0  0  0
 11 30  1  0  0  0  0
 12 31  1  0  0  0  0
 13 14  1  0  0  0  0
 13 15  1  0  0  0  0
 13 16  1  0  0  0  0
 17 18  1  0  0  0  0
 17 32  1  0  0  0  0
 17 33  1  0  0  0  0
 18 19  1  0  0  0  0
 18 34  1  0  0  0  0
 18 35  1  0  0  0  0
 19 20  1  0  0  0  0
 20 36  1  0  0  0  0
 20 37  1  0  0  0  0
M  CHG  1  10   1
M  END
> <s_m_source_file>
AV-unprocessed.smi

> <i_m_source_file_index>
2448

> <i_lp_mmshare_version>
43012

> <i_f3d_flags>
0

> <s_epik_input>
W0NIMl0xU1tDSDJdW0NIMl1bQ0BAXTEoW09IXSlbQ0gyXVtOSF1bQ0BASF0oQyhGKShGKUYpW0NIMl1jMltjSF1bY0hdbltjSF1bY0hdMg==

> <s_epik_cmdline>
J2VwaWtfcHl0aG9uJywgJy1waCcsICc3LjAnLCAnLXRuJywgJzgnLCAnLW1hJywgJzIwMCcsICctbWV0YWxfYmluZGluZycsICctaW1hZScsICc8aW5maWxlLm1hZT4nLCAnLW9tYWUnLCAnPG91dGZpbGUubWFlPic=

> <r_epik_Ionization_Penalty>
1.11129

> <r_epik_Ionization_Penalty_Charging>
1.08366

> <r_epik_Ionization_Penalty_Neutral>
0.0276276

> <r_epik_State_Penalty>
1.93785

> <r_epik_Charging_Adjusted_Penalty>
3.02151

> <i_epik_Tot_Q>
1

> <i_epik_Tot_abs_Q>
1

> <r_epik_Metal_State_Penalty>
5.97911

> <b_epik_Metal_Only>
0

> <s_lp_Force_Field>
OPLS_2005

> <r_lp_Energy>
38.3653

> <b_lp_Chiralities_Consistent>
1

> <s_lp_Variant>
AV-unprocessed.smi:2448-10

> <Gold.Version>
5.8.1

> <Gold.Id.Protein>
6NUR|6NUR_protein|mol2

> <Gold.PLP.Fitness>
41.4669

> <Gold.PLP.PLP>
-32.5749

> <Gold.PLP.part.hbond>
-4.0000

> <Gold.PLP.part.metal>
0.0000

> <Gold.PLP.part.buried>
-1.7495

> <Gold.PLP.part.nonpolar>
-28.1734

> <Gold.PLP.part.repulsive>
0.2106

> <Gold.PLP.ligand.clash>
0.0000

> <Gold.PLP.ligand.torsion>
0.2689

> <Gold.PLP.Chemscore.Hbond>
3.0000

> <Gold.PLP.Chemscore.CHOScore>
0.0000

> <Gold.PLP.Chemscore.Metal>
0.0000

> <Gold.Chemscore.Hbonds>
donor molecule, donor type, donor heavy atom, donor atom, acceptor molecule, acceptor atom, score
      L1  H     1    21       P1 10171  1.00
      L1  H    10    38       P1  8028  2.00

> <Gold.PLP.Chemscore.Internal.Correction>
0.4297

> <Gold.Rescore>
     Score         DG    S(hbond)    S(metal)    S(lipo)     H(rot)  DE(clash)    DE(int)     intcor
     13.82     -14.96       1.88        0.00      80.29       2.42       0.58       0.56       ----

> <Gold.Chemscore.Fitness>
13.8189

> <Gold.Chemscore.DG>
-14.9574

> <Gold.Chemscore.ZeroCoef>
-5.4800

> <Gold.Chemscore.Hbond>
1.8833

> <Gold.Chemscore.Metal>
0.0000

> <Gold.Chemscore.Lipo>
80.2934

> <Gold.Chemscore.Internal_Hbond>
0.0000

> <Gold.Chemscore.DEClash>
0.5757

> <Gold.Chemscore.DEInternal>
0.5629

> <Gold.Chemscore.Rot>
2.4247

> <Gold.Chemscore.Internal.Correction>
   9.000000E+99

> <Gold.Chemscore.Hbonds>
donor molecule, donor type, donor heavy atom, donor atom, acceptor molecule, acceptor atom, score
      L1  H     1    21       P1 10171  1.00
      L1  H    10    38       P1  8028  0.93

> <Gold.Chemscore.Hbond.Weighted>
-6.2904

> <Gold.Chemscore.Metal.Weighted>
-0.0000

> <Gold.Chemscore.Lipo.Weighted>
-9.3943

> <Gold.Chemscore.Internal_Hbond.Weighted>
0.0000

> <Gold.Chemscore.DEClash.Weighted>
0.5757

> <Gold.Chemscore.DEInternal.Weighted>
0.5629

> <Gold.Chemscore.Rot.Weighted>
6.2072

> <Gold.Chemscore.Internal.Correction.Weighted>
   9.000000E+99

> <Gold.Protein.RotatedTorsions>
[ 6907 6896 6895 6894 ] final   14.73 input  -60.11 | X-H torsion
[ 7974 7965 7964 7962 ] final   77.86 input  175.53 | X-H torsion
[ 8008 7997 7996 7995 ] final  161.68 input   59.86 | X-H torsion
[ 10167 10162 10161 10158 ] final   79.37 input  -65.29 | X-H torsion
[ 10718 10713 10712 10709 ] final  -35.00 input   66.30 | X-H torsion
[ 10763 10752 10751 10750 ] final -167.64 input  -60.55 | X-H torsion
[ 11005 11000 10999 10996 ] final  146.40 input  -57.11 | X-H torsion

> <Gold.Protein.ActiveResidues>
 VAL166  LYS551  ARG553  GLY616  TRP617  ASP618  TYR619  PRO620  LYS621  CYS622 
 ASP623  PHE694  ASN695  SER759  ASP760  ASP761  ALA762  ILE779  LEU786  VAL792 
 PHE793  MET794  SER795  GLU796  ALA797  LYS798  CYS799  TRP800  GLU811  SER814 

> <Gold.Protein.RotatedAtoms>
  151.8069  135.0692  160.0407 H   0  0  0  0  0  0  0  0  0  0  0  0  # atno 6907 bound_to 6896
  152.3049  133.5688  159.5651 H   0  0  0  0  0  0  0  0  0  0  0  0  # atno 6908 bound_to 6896
  150.7291  134.0154  159.3725 H   0  0  0  0  0  0  0  0  0  0  0  0  # atno 6909 bound_to 6896
  145.6846  139.2534  143.1795 H   0  0  0  0  0  0  0  0  0  0  0  0  # atno 7974 bound_to 7965
  156.2085  140.1770  156.7746 H   0  0  0  0  0  0  0  0  0  0  0  0  # atno 8008 bound_to 7997
  154.5689  140.0686  156.8964 H   0  0  0  0  0  0  0  0  0  0  0  0  # atno 8009 bound_to 7997
  155.2709  140.3342  155.4268 H   0  0  0  0  0  0  0  0  0  0  0  0  # atno 8010 bound_to 7997
  139.9611  144.5960  150.8071 H   0  0  0  0  0  0  0  0  0  0  0  0  # atno 10167 bound_to 10162
  156.3439  130.4298  149.7763 H   0  0  0  0  0  0  0  0  0  0  0  0  # atno 10718 bound_to 10713
  154.6711  135.2939  154.9740 H   0  0  0  0  0  0  0  0  0  0  0  0  # atno 10763 bound_to 10752
  154.0767  135.6610  153.4836 H   0  0  0  0  0  0  0  0  0  0  0  0  # atno 10764 bound_to 10752
  153.0487  135.5187  154.7708 H   0  0  0  0  0  0  0  0  0  0  0  0  # atno 10765 bound_to 10752
  140.0790  134.9108  157.1470 H   0  0  0  0  0  0  0  0  0  0  0  0  # atno 11005 bound_to 11000
  146.0935  140.7628  142.9584 LP  0  0  0  0  0  0  0  0  0  0  0  0  # atno 17320 bound_to 7965
  144.7015  140.3674  143.7152 LP  0  0  0  0  0  0  0  0  0  0  0  0  # atno 17321 bound_to 7965
  140.7553  143.3043  151.3001 LP  0  0  0  0  0  0  0  0  0  0  0  0  # atno 17342 bound_to 10162
  139.6553  144.0287  152.2655 LP  0  0  0  0  0  0  0  0  0  0  0  0  # atno 17343 bound_to 10162
  156.4989  130.8120  151.3125 LP  0  0  0  0  0  0  0  0  0  0  0  0  # atno 17370 bound_to 10713
  157.7451  130.9951  150.2731 LP  0  0  0  0  0  0  0  0  0  0  0  0  # atno 17371 bound_to 10713
  140.3515  134.2594  155.7198 LP  0  0  0  0  0  0  0  0  0  0  0  0  # atno 17394 bound_to 11000
  141.2040  133.7898  157.0310 LP  0  0  0  0  0  0  0  0  0  0  0  0  # atno 17395 bound_to 11000

$$$$
