AV-unprocessed.smi:1734|AV-procd|sdf|6980|dock4
  -GOLD-   22720 8193D 1   1.00000     0.00000
 Structure written by MMmdl.
 50 52  0  0  0  0  0  0  0  0  1 V2000
  147.8701  132.5477  152.6980 C   0  0  0  0  0  0  0  0  0  0  0  0
  146.4717  132.7896  152.1528 C   0  0  0  0  0  0  0  0  0  0  0  0
  145.7108  131.6931  151.6941 C   0  0  0  0  0  0  0  0  0  0  0  0
  144.4194  131.9182  151.1881 C   0  0  0  0  0  0  0  0  0  0  0  0
  143.9402  133.2391  151.1619 C   0  0  0  0  0  0  0  0  0  0  0  0
  144.6600  134.2926  151.5983 N   0  0  0  0  0  0  0  0  0  0  0  0
  145.9086  134.0927  152.0904 C   0  0  0  0  0  0  0  0  0  0  0  0
  146.7233  135.1563  152.5719 N   0  0  0  0  0  0  0  0  0  0  0  0
  146.6131  135.8380  153.7259 C   0  0  0  0  0  0  0  0  0  0  0  0
  145.7439  135.6615  154.5801 O   0  0  0  0  0  0  0  0  0  0  0  0
  147.5809  136.7589  153.8392 N   0  0  0  0  0  0  0  0  0  0  0  0
  147.7393  137.6683  154.9700 C   0  0  0  0  0  0  0  0  0  0  0  0
  148.7802  138.7924  154.6996 C   0  0  2  0  0  0  0  0  0  0  0  0
  150.1996  138.4451  155.2493 C   0  0  2  0  0  0  0  0  0  0  0  0
  151.3209  139.4456  154.9543 C   0  0  0  0  0  0  0  0  0  0  0  0
  152.5178  138.5579  154.6298 C   0  0  0  0  0  0  0  0  0  0  0  0
  151.9243  137.4199  154.0292 O   0  0  0  0  0  0  0  0  0  0  0  0
  150.7806  137.0901  154.8038 C   0  0  0  0  0  0  0  0  0  0  0  0
  148.3085  140.1602  154.9970 N   0  0  0  0  0  0  0  0  0  0  0  0
  147.2985  140.6406  154.0565 C   0  0  0  0  0  0  0  0  0  0  0  0
  146.9440  142.1154  154.3055 C   0  0  0  0  0  0  0  0  0  0  0  0
  146.4957  142.2703  155.6477 O   0  0  0  0  0  0  0  0  0  0  0  0
  147.4726  141.8651  156.6007 C   0  0  0  0  0  0  0  0  0  0  0  0
  147.8596  140.3936  156.3681 C   0  0  0  0  0  0  0  0  0  0  0  0
  148.1161  131.4854  152.7021 H   0  0  0  0  0  0  0  0  0  0  0  0
  147.9520  132.9134  153.7218 H   0  0  0  0  0  0  0  0  0  0  0  0
  148.6110  133.0612  152.0846 H   0  0  0  0  0  0  0  0  0  0  0  0
  146.1092  130.6897  151.7285 H   0  0  0  0  0  0  0  0  0  0  0  0
  143.8121  131.1003  150.8296 H   0  0  0  0  0  0  0  0  0  0  0  0
  142.9531  133.4566  150.7816 H   0  0  0  0  0  0  0  0  0  0  0  0
  147.4863  135.4217  151.9672 H   0  0  0  0  0  0  0  0  0  0  0  0
  148.2558  136.8387  153.0928 H   0  0  0  0  0  0  0  0  0  0  0  0
  146.7608  138.0834  155.2108 H   0  0  0  0  0  0  0  0  0  0  0  0
  148.0291  137.0714  155.8339 H   0  0  0  0  0  0  0  0  0  0  0  0
  148.9290  138.7838  153.6189 H   0  0  0  0  0  0  0  0  0  0  0  0
  150.1081  138.3906  156.3351 H   0  0  0  0  0  0  0  0  0  0  0  0
  151.0905  140.0800  154.1009 H   0  0  0  0  0  0  0  0  0  0  0  0
  151.5215  140.1067  155.7977 H   0  0  0  0  0  0  0  0  0  0  0  0
  153.2324  139.0405  153.9628 H   0  0  0  0  0  0  0  0  0  0  0  0
  153.0413  138.2601  155.5399 H   0  0  0  0  0  0  0  0  0  0  0  0
  151.1009  136.5124  155.6723 H   0  0  0  0  0  0  0  0  0  0  0  0
  150.0884  136.4663  154.2391 H   0  0  0  0  0  0  0  0  0  0  0  0
  147.6556  140.5230  153.0328 H   0  0  0  0  0  0  0  0  0  0  0  0
  146.3870  140.0497  154.1433 H   0  0  0  0  0  0  0  0  0  0  0  0
  147.8067  142.7580  154.1231 H   0  0  0  0  0  0  0  0  0  0  0  0
  146.1544  142.4358  153.6260 H   0  0  0  0  0  0  0  0  0  0  0  0
  148.3506  142.5089  156.5244 H   0  0  0  0  0  0  0  0  0  0  0  0
  147.0679  141.9952  157.6044 H   0  0  0  0  0  0  0  0  0  0  0  0
  147.0065  139.7552  156.5987 H   0  0  0  0  0  0  0  0  0  0  0  0
  148.6495  140.1470  157.0735 H   0  0  0  0  0  0  0  0  0  0  0  0
  1  2  1  0  0  0  0
  1 25  1  0  0  0  0
  1 26  1  0  0  0  0
  1 27  1  0  0  0  0
  2  7  1  0  0  0  0
  2  3  2  0  0  0  0
  3  4  1  0  0  0  0
  3 28  1  0  0  0  0
  4  5  2  0  0  0  0
  4 29  1  0  0  0  0
  5  6  1  0  0  0  0
  5 30  1  0  0  0  0
  6  7  2  0  0  0  0
  7  8  1  0  0  0  0
  8  9  1  0  0  0  0
  8 31  1  0  0  0  0
  9 10  2  0  0  0  0
  9 11  1  0  0  0  0
 11 12  1  0  0  0  0
 11 32  1  0  0  0  0
 12 13  1  0  0  0  0
 12 33  1  0  0  0  0
 12 34  1  0  0  0  0
 13 14  1  0  0  0  0
 13 19  1  0  0  0  0
 13 35  1  0  0  0  0
 14 18  1  0  0  0  0
 14 15  1  0  0  0  0
 14 36  1  0  0  0  0
 15 16  1  0  0  0  0
 15 37  1  0  0  0  0
 15 38  1  0  0  0  0
 16 17  1  0  0  0  0
 16 39  1  0  0  0  0
 16 40  1  0  0  0  0
 17 18  1  0  0  0  0
 18 41  1  0  0  0  0
 18 42  1  0  0  0  0
 19 24  1  0  0  0  0
 19 20  1  0  0  0  0
 20 21  1  0  0  0  0
 20 43  1  0  0  0  0
 20 44  1  0  0  0  0
 21 22  1  0  0  0  0
 21 45  1  0  0  0  0
 21 46  1  0  0  0  0
 22 23  1  0  0  0  0
 23 24  1  0  0  0  0
 23 47  1  0  0  0  0
 23 48  1  0  0  0  0
 24 49  1  0  0  0  0
 24 50  1  0  0  0  0
M  END
> <s_m_source_file>
AV-unprocessed.smi

> <i_m_source_file_index>
1734

> <i_lp_mmshare_version>
43012

> <i_f3d_flags>
0

> <s_epik_input>
W0NIM11jMVtjSF1bY0hdW2NIXW5jMVtOSF1DKD1PKVtOSF1bQ0gyXVtDQEhdKFtDQEBIXTJbQ0gyXVtDSDJdT1tDSDJdMilOM1tDSDJdW0NIMl1PW0NIMl1bQ0gyXTM=

> <s_epik_cmdline>
J2VwaWtfcHl0aG9uJywgJy1waCcsICc3LjAnLCAnLXRuJywgJzgnLCAnLW1hJywgJzIwMCcsICctbWV0YWxfYmluZGluZycsICctaW1hZScsICc8aW5maWxlLm1hZT4nLCAnLW9tYWUnLCAnPG91dGZpbGUubWFlPic=

> <r_epik_Ionization_Penalty>
0.125073

> <r_epik_Ionization_Penalty_Charging>
0

> <r_epik_Ionization_Penalty_Neutral>
0.125073

> <r_epik_State_Penalty>
0.114484

> <r_epik_Charging_Adjusted_Penalty>
0.114484

> <i_epik_Tot_Q>
0

> <i_epik_Tot_abs_Q>
0

> <r_epik_Metal_State_Penalty>
0.114483

> <b_epik_Metal_Only>
0

> <s_lp_Force_Field>
OPLS_2005

> <r_lp_Energy>
56.0061

> <b_lp_Chiralities_Consistent>
1

> <s_lp_Variant>
AV-unprocessed.smi:1734-1

> <Gold.Version>
5.8.1

> <Gold.Id.Protein>
6NUR|6NUR_protein|mol2

> <Gold.PLP.Fitness>
44.3941

> <Gold.PLP.PLP>
-35.4040

> <Gold.PLP.part.hbond>
-2.7954

> <Gold.PLP.part.metal>
0.0000

> <Gold.PLP.part.buried>
-3.8508

> <Gold.PLP.part.nonpolar>
-29.4980

> <Gold.PLP.part.repulsive>
0.8035

> <Gold.PLP.ligand.clash>
0.0000

> <Gold.PLP.ligand.torsion>
1.6221

> <Gold.PLP.Chemscore.Hbond>
2.9680

> <Gold.PLP.Chemscore.CHOScore>
1.0000

> <Gold.PLP.Chemscore.Metal>
0.0000

> <Gold.Chemscore.Hbonds>
donor molecule, donor type, donor heavy atom, donor atom, acceptor molecule, acceptor atom, score
      L1  H     8    31       P1  7948  0.94
      L1  H    11    32       P1  7948  1.00
      P1  H 10752 10764       L1    17  0.98
      L1  C     5    30       P1 10186  1.00

> <Gold.PLP.Chemscore.Internal.Correction>
0.3303

> <Gold.Rescore>
     Score         DG    S(hbond)    S(metal)    S(lipo)     H(rot)  DE(clash)    DE(int)     intcor
     18.63     -20.24       2.77        0.00      83.16       1.65       0.03       1.57       ----

> <Gold.Chemscore.Fitness>
18.6298

> <Gold.Chemscore.DG>
-20.2356

> <Gold.Chemscore.ZeroCoef>
-5.4800

> <Gold.Chemscore.Hbond>
2.7678

> <Gold.Chemscore.Metal>
0.0000

> <Gold.Chemscore.Lipo>
83.1606

> <Gold.Chemscore.Internal_Hbond>
0.0000

> <Gold.Chemscore.DEClash>
0.0348

> <Gold.Chemscore.DEInternal>
1.5710

> <Gold.Chemscore.Rot>
1.6480

> <Gold.Chemscore.Internal.Correction>
   9.000000E+99

> <Gold.Chemscore.Hbonds>
donor molecule, donor type, donor heavy atom, donor atom, acceptor molecule, acceptor atom, score
      L1  H     8    31       P1  7948  0.91
      L1  H    11    32       P1  7948  0.88
      P1  H 10752 10764       L1    17  0.21

> <Gold.Chemscore.Hbond.Weighted>
-9.2446

> <Gold.Chemscore.Metal.Weighted>
-0.0000

> <Gold.Chemscore.Lipo.Weighted>
-9.7298

> <Gold.Chemscore.Internal_Hbond.Weighted>
0.0000

> <Gold.Chemscore.DEClash.Weighted>
0.0348

> <Gold.Chemscore.DEInternal.Weighted>
1.5710

> <Gold.Chemscore.Rot.Weighted>
4.2188

> <Gold.Chemscore.Internal.Correction.Weighted>
   9.000000E+99

> <Gold.Protein.RotatedTorsions>
[ 6907 6896 6895 6894 ] final -159.36 input  -60.11 | X-H torsion
[ 7974 7965 7964 7962 ] final  115.94 input  175.53 | X-H torsion
[ 8008 7997 7996 7995 ] final -118.42 input   59.86 | X-H torsion
[ 10167 10162 10161 10158 ] final   46.90 input  -65.29 | X-H torsion
[ 10718 10713 10712 10709 ] final -105.03 input   66.30 | X-H torsion
[ 10763 10752 10751 10750 ] final  -82.29 input  -60.55 | X-H torsion
[ 11005 11000 10999 10996 ] final   66.41 input  -57.11 | X-H torsion

> <Gold.Protein.ActiveResidues>
 VAL166  LYS551  ARG553  GLY616  TRP617  ASP618  TYR619  PRO620  LYS621  CYS622 
 ASP623  PHE694  ASN695  SER759  ASP760  ASP761  ALA762  ILE779  LEU786  VAL792 
 PHE793  MET794  SER795  GLU796  ALA797  LYS798  CYS799  TRP800  GLU811  SER814 

> <Gold.Protein.RotatedAtoms>
  151.3323  133.3995  159.2663 H   0  0  0  0  0  0  0  0  0  0  0  0  # atno 6907 bound_to 6896
  150.9945  134.9273  159.7929 H   0  0  0  0  0  0  0  0  0  0  0  0  # atno 6908 bound_to 6896
  152.5257  134.3288  159.9228 H   0  0  0  0  0  0  0  0  0  0  0  0  # atno 6909 bound_to 6896
  145.1858  139.3026  143.4394 H   0  0  0  0  0  0  0  0  0  0  0  0  # atno 7974 bound_to 7965
  155.0993  140.0396  157.2692 H   0  0  0  0  0  0  0  0  0  0  0  0  # atno 8008 bound_to 7997
  154.6770  140.2625  155.6922 H   0  0  0  0  0  0  0  0  0  0  0  0  # atno 8009 bound_to 7997
  156.2680  140.2786  156.1301 H   0  0  0  0  0  0  0  0  0  0  0  0  # atno 8010 bound_to 7997
  140.3092  144.2841  150.6203 H   0  0  0  0  0  0  0  0  0  0  0  0  # atno 10167 bound_to 10162
  156.0329  130.5544  150.7481 H   0  0  0  0  0  0  0  0  0  0  0  0  # atno 10718 bound_to 10713
  154.5739  135.5596  153.7121 H   0  0  0  0  0  0  0  0  0  0  0  0  # atno 10763 bound_to 10752
  153.0058  135.6304  154.2075 H   0  0  0  0  0  0  0  0  0  0  0  0  # atno 10764 bound_to 10752
  154.2015  135.2877  155.2969 H   0  0  0  0  0  0  0  0  0  0  0  0  # atno 10765 bound_to 10752
  139.9833  134.6708  156.0221 H   0  0  0  0  0  0  0  0  0  0  0  0  # atno 11005 bound_to 11000
  146.3445  140.2053  142.8589 LP  0  0  0  0  0  0  0  0  0  0  0  0  # atno 17320 bound_to 7965
  145.0091  140.8698  143.5235 LP  0  0  0  0  0  0  0  0  0  0  0  0  # atno 17321 bound_to 7965
  140.5583  143.2195  151.7808 LP  0  0  0  0  0  0  0  0  0  0  0  0  # atno 17342 bound_to 10162
  139.4897  144.4383  151.9794 LP  0  0  0  0  0  0  0  0  0  0  0  0  # atno 17343 bound_to 10162
  157.5033  131.0920  151.0288 LP  0  0  0  0  0  0  0  0  0  0  0  0  # atno 17370 bound_to 10713
  157.0663  130.5846  149.5394 LP  0  0  0  0  0  0  0  0  0  0  0  0  # atno 17371 bound_to 10713
  141.1502  133.6549  156.3990 LP  0  0  0  0  0  0  0  0  0  0  0  0  # atno 17394 bound_to 11000
  140.5052  134.6448  157.5263 LP  0  0  0  0  0  0  0  0  0  0  0  0  # atno 17395 bound_to 11000

$$$$
