AV-unprocessed.smi:399|AV-procd|sdf|2490|dock6
  -GOLD-   2262022433D 1   1.00000     0.00000
 Structure written by MMmdl.
 46 47  0  0  0  0  0  0  0  0  3 V2000
  150.6691  138.8949  153.9993 C   0  0  0  0  0  0  0  0  0  0  0  0
  149.3771  139.4649  154.6398 C   0  0  0  0  0  0  0  0  0  0  0  0
  148.7567  140.3876  153.5587 C   0  0  0  0  0  0  0  0  0  0  0  0
  148.3931  138.2905  154.9257 C   0  0  0  0  0  0  0  0  0  0  0  0
  147.6828  137.8381  153.7331 N   0  0  0  0  0  0  0  0  0  0  0  0
  146.4020  138.1208  153.4582 C   0  0  0  0  0  0  0  0  0  0  0  0
  145.6914  138.8051  154.1962 O   0  0  0  0  0  0  0  0  0  0  0  0
  145.8578  137.5529  152.1395 C   0  0  0  0  0  0  0  0  0  0  0  0
  144.8163  136.5289  152.3293 N   0  0  0  0  0  0  0  0  0  0  0  0
  143.6330  136.9331  152.9783 C   0  0  0  0  0  0  0  0  0  0  0  0
  142.6172  136.0791  153.2126 C   0  0  0  0  0  0  0  0  0  0  0  0
  141.4121  136.5098  153.8869 N   0  3  0  0  0  0  0  0  0  0  0  0
  141.1592  137.7094  153.9309 O   0  0  0  0  0  0  0  0  0  0  0  0
  140.6799  135.6656  154.3949 O   0  5  0  0  0  0  0  0  0  0  0  0
  142.7741  134.7074  152.7696 C   0  0  0  0  0  0  0  0  0  0  0  0
  143.9054  134.3133  152.1525 C   0  0  0  0  0  0  0  0  0  0  0  0
  145.0118  135.2432  151.9039 C   0  0  0  0  0  0  0  0  0  0  0  0
  146.0510  134.8877  151.3475 O   0  0  0  0  0  0  0  0  0  0  0  0
  149.7087  140.2492  155.8612 N   0  0  0  0  0  0  0  0  0  0  0  0
  150.8057  141.2121  155.7021 C   0  0  0  0  0  0  0  0  0  0  0  0
  151.1778  141.8911  157.0314 C   0  0  0  0  0  0  0  0  0  0  0  0
  150.0312  142.5282  157.5812 O   0  0  0  0  0  0  0  0  0  0  0  0
  148.9621  141.6179  157.8088 C   0  0  0  0  0  0  0  0  0  0  0  0
  148.5714  140.9358  156.4864 C   0  0  0  0  0  0  0  0  0  0  0  0
  150.4909  138.4900  153.0026 H   0  0  0  0  0  0  0  0  0  0  0  0
  151.0950  138.0808  154.5856 H   0  0  0  0  0  0  0  0  0  0  0  0
  151.4329  139.6668  153.8962 H   0  0  0  0  0  0  0  0  0  0  0  0
  148.6866  139.8956  152.5882 H   0  0  0  0  0  0  0  0  0  0  0  0
  149.3563  141.2876  153.4158 H   0  0  0  0  0  0  0  0  0  0  0  0
  147.7438  140.6992  153.8137 H   0  0  0  0  0  0  0  0  0  0  0  0
  148.9234  137.4307  155.3358 H   0  0  0  0  0  0  0  0  0  0  0  0
  147.6526  138.5866  155.6693 H   0  0  0  0  0  0  0  0  0  0  0  0
  148.2012  137.2712  153.0778 H   0  0  0  0  0  0  0  0  0  0  0  0
  145.4714  138.3826  151.5457 H   0  0  0  0  0  0  0  0  0  0  0  0
  146.6859  137.1471  151.5553 H   0  0  0  0  0  0  0  0  0  0  0  0
  143.6177  137.9718  153.2755 H   0  0  0  0  0  0  0  0  0  0  0  0
  141.9865  133.9859  152.9294 H   0  0  0  0  0  0  0  0  0  0  0  0
  144.0011  133.2864  151.8314 H   0  0  0  0  0  0  0  0  0  0  0  0
  151.6997  140.7249  155.3173 H   0  0  0  0  0  0  0  0  0  0  0  0
  150.5304  141.9839  154.9833 H   0  0  0  0  0  0  0  0  0  0  0  0
  151.5741  141.1622  157.7402 H   0  0  0  0  0  0  0  0  0  0  0  0
  151.9561  142.6372  156.8703 H   0  0  0  0  0  0  0  0  0  0  0  0
  149.2568  140.8771  158.5538 H   0  0  0  0  0  0  0  0  0  0  0  0
  148.1121  142.1635  158.2186 H   0  0  0  0  0  0  0  0  0  0  0  0
  148.1677  141.6907  155.8118 H   0  0  0  0  0  0  0  0  0  0  0  0
  147.7639  140.2380  156.7003 H   0  0  0  0  0  0  0  0  0  0  0  0
  1  2  1  0  0  0  0
  1 25  1  0  0  0  0
  1 26  1  0  0  0  0
  1 27  1  0  0  0  0
  2  3  1  0  0  0  0
  2  4  1  0  0  0  0
  2 19  1  0  0  0  0
  3 28  1  0  0  0  0
  3 29  1  0  0  0  0
  3 30  1  0  0  0  0
  4  5  1  0  0  0  0
  4 31  1  0  0  0  0
  4 32  1  0  0  0  0
  5  6  1  0  0  0  0
  5 33  1  0  0  0  0
  6  7  2  0  0  0  0
  6  8  1  0  0  0  0
  8  9  1  0  0  0  0
  8 34  1  0  0  0  0
  8 35  1  0  0  0  0
  9 17  1  0  0  0  0
  9 10  1  0  0  0  0
 10 11  2  0  0  0  0
 10 36  1  0  0  0  0
 11 12  1  0  0  0  0
 11 15  1  0  0  0  0
 12 13  2  0  0  0  0
 12 14  1  0  0  0  0
 15 16  2  0  0  0  0
 15 37  1  0  0  0  0
 16 17  1  0  0  0  0
 16 38  1  0  0  0  0
 17 18  2  0  0  0  0
 19 24  1  0  0  0  0
 19 20  1  0  0  0  0
 20 21  1  0  0  0  0
 20 39  1  0  0  0  0
 20 40  1  0  0  0  0
 21 22  1  0  0  0  0
 21 41  1  0  0  0  0
 21 42  1  0  0  0  0
 22 23  1  0  0  0  0
 23 24  1  0  0  0  0
 23 43  1  0  0  0  0
 23 44  1  0  0  0  0
 24 45  1  0  0  0  0
 24 46  1  0  0  0  0
M  CHG  1  12   1
M  CHG  1  14  -1
M  END
> <s_m_source_file>
AV-unprocessed.smi

> <i_m_source_file_index>
399

> <i_lp_mmshare_version>
43012

> <i_f3d_flags>
0

> <s_epik_input>
W0NIMl0xW0NIMl1PW0NIMl1bQ0gyXU4xQyhbQ0gzXSkoW0NIM10pW0NIMl1bTkhdQyg9TylbQ0gyXW4yW2NIXWMoW04rXSg9TylbTy1dKVtjSF1bY0hdYzI9Tw==

> <s_epik_cmdline>
J2VwaWtfcHl0aG9uJywgJy1waCcsICc3LjAnLCAnLXRuJywgJzgnLCAnLW1hJywgJzIwMCcsICctbWV0YWxfYmluZGluZycsICctaW1hZScsICc8aW5maWxlLm1hZT4nLCAnLW9tYWUnLCAnPG91dGZpbGUubWFlPic=

> <r_lp_tautomer_probability>
1

> <r_epik_Ionization_Penalty>
0.237382

> <r_epik_Ionization_Penalty_Charging>
7.45368e-11

> <r_epik_Ionization_Penalty_Neutral>
0.237382

> <r_epik_State_Penalty>
0.228245

> <r_epik_Charging_Adjusted_Penalty>
0.228245

> <i_epik_Tot_Q>
0

> <i_epik_Tot_abs_Q>
2

> <r_epik_Metal_State_Penalty>
0.22822

> <b_epik_Metal_Only>
0

> <s_lp_Force_Field>
OPLS_2005

> <r_lp_Energy>
50.757

> <b_lp_Chiralities_Consistent>
1

> <s_lp_Variant>
AV-unprocessed.smi:399-1

> <Gold.Version>
5.8.1

> <Gold.Id.Protein>
6NUR|6NUR_protein|mol2

> <Gold.PLP.Fitness>
40.5877

> <Gold.PLP.PLP>
-33.0435

> <Gold.PLP.part.hbond>
-2.0000

> <Gold.PLP.part.metal>
0.0000

> <Gold.PLP.part.buried>
-4.0156

> <Gold.PLP.part.nonpolar>
-27.8659

> <Gold.PLP.part.repulsive>
0.6857

> <Gold.PLP.ligand.clash>
0.0000

> <Gold.PLP.ligand.torsion>
0.7252

> <Gold.PLP.Chemscore.Hbond>
1.9913

> <Gold.PLP.Chemscore.CHOScore>
0.9772

> <Gold.PLP.Chemscore.Metal>
0.0000

> <Gold.Chemscore.Hbonds>
donor molecule, donor type, donor heavy atom, donor atom, acceptor molecule, acceptor atom, score
      L1  H     5    33       P1  7948  1.00
      P1  H 11000 11005       L1    14  0.98
      L1  C    10    36       P1 10175  0.84

> <Gold.PLP.Chemscore.Internal.Correction>
0.0892

> <Gold.Rescore>
     Score         DG    S(hbond)    S(metal)    S(lipo)     H(rot)  DE(clash)    DE(int)     intcor
     11.42     -14.44       1.92        0.00      67.89       2.11       1.33       1.69       ----

> <Gold.Chemscore.Fitness>
11.4207

> <Gold.Chemscore.DG>
-14.4409

> <Gold.Chemscore.ZeroCoef>
-5.4800

> <Gold.Chemscore.Hbond>
1.9210

> <Gold.Chemscore.Metal>
0.0000

> <Gold.Chemscore.Lipo>
67.8949

> <Gold.Chemscore.Internal_Hbond>
0.0000

> <Gold.Chemscore.DEClash>
1.3333

> <Gold.Chemscore.DEInternal>
1.6869

> <Gold.Chemscore.Rot>
2.1090

> <Gold.Chemscore.Internal.Correction>
   9.000000E+99

> <Gold.Chemscore.Hbonds>
donor molecule, donor type, donor heavy atom, donor atom, acceptor molecule, acceptor atom, score
      L1  H     5    33       P1  7948  1.00
      P1  H 11000 11005       L1    14  0.93

> <Gold.Chemscore.Hbond.Weighted>
-6.4161

> <Gold.Chemscore.Metal.Weighted>
-0.0000

> <Gold.Chemscore.Lipo.Weighted>
-7.9437

> <Gold.Chemscore.Internal_Hbond.Weighted>
0.0000

> <Gold.Chemscore.DEClash.Weighted>
1.3333

> <Gold.Chemscore.DEInternal.Weighted>
1.6869

> <Gold.Chemscore.Rot.Weighted>
5.3989

> <Gold.Chemscore.Internal.Correction.Weighted>
   9.000000E+99

> <Gold.Protein.RotatedTorsions>
[ 6907 6896 6895 6894 ] final  143.68 input  -60.11 | X-H torsion
[ 7974 7965 7964 7962 ] final  -99.28 input  175.53 | X-H torsion
[ 8008 7997 7996 7995 ] final  145.20 input   59.86 | X-H torsion
[ 10167 10162 10161 10158 ] final  163.57 input  -65.29 | X-H torsion
[ 10718 10713 10712 10709 ] final  170.77 input   66.30 | X-H torsion
[ 10763 10752 10751 10750 ] final   86.93 input  -60.55 | X-H torsion
[ 11005 11000 10999 10996 ] final   44.20 input  -57.11 | X-H torsion

> <Gold.Protein.ActiveResidues>
 VAL166  LYS551  ARG553  GLY616  TRP617  ASP618  TYR619  PRO620  LYS621  CYS622 
 ASP623  PHE694  ASN695  SER759  ASP760  ASP761  ALA762  ILE779  LEU786  VAL792 
 PHE793  MET794  SER795  GLU796  ALA797  LYS798  CYS799  TRP800  GLU811  SER814 

> <Gold.Protein.RotatedAtoms>
  152.2033  133.4857  159.5069 H   0  0  0  0  0  0  0  0  0  0  0  0  # atno 6907 bound_to 6896
  150.6974  134.1562  159.4168 H   0  0  0  0  0  0  0  0  0  0  0  0  # atno 6908 bound_to 6896
  151.9480  135.0182  160.0591 H   0  0  0  0  0  0  0  0  0  0  0  0  # atno 6909 bound_to 6896
  145.3096  140.9397  143.2777 H   0  0  0  0  0  0  0  0  0  0  0  0  # atno 7974 bound_to 7965
  156.2889  140.2215  156.5177 H   0  0  0  0  0  0  0  0  0  0  0  0  # atno 8008 bound_to 7997
  154.7555  140.0477  157.0951 H   0  0  0  0  0  0  0  0  0  0  0  0  # atno 8009 bound_to 7997
  155.0056  140.3107  155.4853 H   0  0  0  0  0  0  0  0  0  0  0  0  # atno 8010 bound_to 7997
  139.4876  144.4324  151.9054 H   0  0  0  0  0  0  0  0  0  0  0  0  # atno 10167 bound_to 10162
  157.0033  131.0182  151.2824 H   0  0  0  0  0  0  0  0  0  0  0  0  # atno 10718 bound_to 10713
  153.1618  135.4562  154.9783 H   0  0  0  0  0  0  0  0  0  0  0  0  # atno 10763 bound_to 10752
  154.7903  135.3218  154.7794 H   0  0  0  0  0  0  0  0  0  0  0  0  # atno 10764 bound_to 10752
  153.8283  135.6941  153.4872 H   0  0  0  0  0  0  0  0  0  0  0  0  # atno 10765 bound_to 10752
  140.1574  134.4385  155.8341 H   0  0  0  0  0  0  0  0  0  0  0  0  # atno 11005 bound_to 11000
  144.9027  139.4629  143.6625 LP  0  0  0  0  0  0  0  0  0  0  0  0  # atno 17320 bound_to 7965
  146.3123  139.7790  142.9010 LP  0  0  0  0  0  0  0  0  0  0  0  0  # atno 17321 bound_to 7965
  140.3772  144.2782  150.5913 LP  0  0  0  0  0  0  0  0  0  0  0  0  # atno 17342 bound_to 10162
  140.5266  143.2253  151.8305 LP  0  0  0  0  0  0  0  0  0  0  0  0  # atno 17343 bound_to 10162
  157.5374  130.8098  149.7988 LP  0  0  0  0  0  0  0  0  0  0  0  0  # atno 17370 bound_to 10713
  156.0163  130.3812  150.2101 LP  0  0  0  0  0  0  0  0  0  0  0  0  # atno 17371 bound_to 10713
  141.2206  133.6898  156.7531 LP  0  0  0  0  0  0  0  0  0  0  0  0  # atno 17394 bound_to 11000
  140.2531  134.8525  157.3687 LP  0  0  0  0  0  0  0  0  0  0  0  0  # atno 17395 bound_to 11000

$$$$
