AV-unprocessed.smi:886|AV-procd|sdf|4051|dock8
  -GOLD-   22720 1543D 1   1.00000     0.00000
 Structure written by MMmdl.
 35 37  0  0  0  0  0  0  0  0  1 V2000
  152.6500  136.2384  157.5250 C   0  0  0  0  0  0  0  0  0  0  0  0
  151.9111  137.3712  156.9895 N   0  0  0  0  0  0  0  0  0  0  0  0
  152.2993  138.6502  157.1087 C   0  0  0  0  0  0  0  0  0  0  0  0
  153.3214  138.9926  157.7047 O   0  0  0  0  0  0  0  0  0  0  0  0
  151.3719  139.6637  156.4875 C   0  0  0  0  0  0  0  0  0  0  0  0
  150.6209  139.3097  155.3417 C   0  0  0  0  0  0  0  0  0  0  0  0
  149.7748  140.2601  154.7433 C   0  0  0  0  0  0  0  0  0  0  0  0
  149.7118  141.5440  155.3105 C   0  0  0  0  0  0  0  0  0  0  0  0
  150.4235  141.9042  156.3971 N   0  0  0  0  0  0  0  0  0  0  0  0
  151.2431  140.9951  156.9799 C   0  0  0  0  0  0  0  0  0  0  0  0
  151.9486  141.4136  158.1222 N   0  0  0  0  0  0  0  0  0  0  0  0
  151.2873  142.2106  159.1513 C   0  0  1  0  0  0  0  0  0  0  0  0
  152.2648  142.7710  160.1874 C   0  0  0  0  0  0  0  0  0  0  0  0
  151.9496  144.2724  160.1405 C   0  0  1  0  0  0  0  0  0  0  0  0
  152.5103  144.9260  158.8706 C   0  0  0  0  0  0  0  0  0  0  0  0
  151.5562  144.3960  157.8025 C   0  0  0  0  0  0  0  0  0  0  0  0
  150.6186  143.4994  158.6294 C   0  0  2  0  0  0  0  0  0  0  0  0
  150.5657  144.2472  159.8325 O   0  0  0  0  0  0  0  0  0  0  0  0
  152.1348  135.3095  157.2811 H   0  0  0  0  0  0  0  0  0  0  0  0
  152.7328  136.3073  158.6104 H   0  0  0  0  0  0  0  0  0  0  0  0
  153.6538  136.1934  157.1006 H   0  0  0  0  0  0  0  0  0  0  0  0
  151.0507  137.1727  156.4996 H   0  0  0  0  0  0  0  0  0  0  0  0
  150.6917  138.3202  154.9134 H   0  0  0  0  0  0  0  0  0  0  0  0
  149.1914  140.0116  153.8694 H   0  0  0  0  0  0  0  0  0  0  0  0
  149.0740  142.3020  154.8808 H   0  0  0  0  0  0  0  0  0  0  0  0
  152.9451  141.5436  158.0205 H   0  0  0  0  0  0  0  0  0  0  0  0
  150.5485  141.5977  159.6699 H   0  0  0  0  0  0  0  0  0  0  0  0
  152.0464  142.3590  161.1730 H   0  0  0  0  0  0  0  0  0  0  0  0
  153.3124  142.5668  159.9615 H   0  0  0  0  0  0  0  0  0  0  0  0
  152.1977  144.8059  161.0583 H   0  0  0  0  0  0  0  0  0  0  0  0
  152.4513  146.0133  158.9313 H   0  0  0  0  0  0  0  0  0  0  0  0
  153.5487  144.6492  158.6852 H   0  0  0  0  0  0  0  0  0  0  0  0
  150.9983  145.2183  157.3533 H   0  0  0  0  0  0  0  0  0  0  0  0
  152.0659  143.8620  157.0006 H   0  0  0  0  0  0  0  0  0  0  0  0
  149.6453  143.3366  158.1657 H   0  0  0  0  0  0  0  0  0  0  0  0
  1  2  1  0  0  0  0
  1 19  1  0  0  0  0
  1 20  1  0  0  0  0
  1 21  1  0  0  0  0
  2  3  1  0  0  0  0
  2 22  1  0  0  0  0
  3  4  2  0  0  0  0
  3  5  1  0  0  0  0
  5 10  1  0  0  0  0
  5  6  2  0  0  0  0
  6  7  1  0  0  0  0
  6 23  1  0  0  0  0
  7  8  2  0  0  0  0
  7 24  1  0  0  0  0
  8  9  1  0  0  0  0
  8 25  1  0  0  0  0
  9 10  2  0  0  0  0
 10 11  1  0  0  0  0
 11 12  1  0  0  0  0
 11 26  1  0  0  0  0
 12 17  1  0  0  0  0
 12 13  1  0  0  0  0
 12 27  1  0  0  0  0
 13 14  1  0  0  0  0
 13 28  1  0  0  0  0
 13 29  1  0  0  0  0
 14 18  1  0  0  0  0
 14 15  1  0  0  0  0
 14 30  1  0  0  0  0
 15 16  1  0  0  0  0
 15 31  1  0  0  0  0
 15 32  1  0  0  0  0
 16 17  1  0  0  0  0
 16 33  1  0  0  0  0
 16 34  1  0  0  0  0
 17 18  1  0  0  0  0
 17 35  1  0  0  0  0
M  END
> <s_m_source_file>
AV-unprocessed.smi

> <i_m_source_file_index>
886

> <i_lp_mmshare_version>
43012

> <i_f3d_flags>
0

> <s_epik_input>
W0NIM11bTkhdQyg9TyljMVtjSF1bY0hdW2NIXW5jMVtOSF1bQ0BIXShbQ0gyXVtDQEhdMjMpW0NASF0oTzMpW0NIMl1bQ0gyXTI=

> <s_epik_cmdline>
J2VwaWtfcHl0aG9uJywgJy1waCcsICc3LjAnLCAnLXRuJywgJzgnLCAnLW1hJywgJzIwMCcsICctbWV0YWxfYmluZGluZycsICctaW1hZScsICc8aW5maWxlLm1hZT4nLCAnLW9tYWUnLCAnPG91dGZpbGUubWFlPic=

> <r_lp_tautomer_probability>
1

> <r_epik_Ionization_Penalty>
0.0065447

> <r_epik_Ionization_Penalty_Charging>
0

> <r_epik_Ionization_Penalty_Neutral>
0.0065447

> <r_epik_State_Penalty>
0.00484214

> <r_epik_Charging_Adjusted_Penalty>
0.00484214

> <i_epik_Tot_Q>
0

> <i_epik_Tot_abs_Q>
0

> <r_epik_Metal_State_Penalty>
-0

> <b_epik_Metal_Only>
0

> <s_lp_Force_Field>
OPLS_2005

> <r_lp_Energy>
46.6605

> <b_lp_Chiralities_Consistent>
1

> <s_lp_Variant>
AV-unprocessed.smi:886-4

> <Gold.Version>
5.8.1

> <Gold.Id.Protein>
6NUR|6NUR_protein|mol2

> <Gold.PLP.Fitness>
39.1584

> <Gold.PLP.PLP>
-34.9485

> <Gold.PLP.part.hbond>
-1.0000

> <Gold.PLP.part.metal>
0.0000

> <Gold.PLP.part.buried>
-4.2625

> <Gold.PLP.part.nonpolar>
-30.4607

> <Gold.PLP.part.repulsive>
0.4221

> <Gold.PLP.ligand.clash>
0.0000

> <Gold.PLP.ligand.torsion>
0.7715

> <Gold.PLP.Chemscore.Hbond>
1.0000

> <Gold.PLP.Chemscore.CHOScore>
0.9128

> <Gold.PLP.Chemscore.Metal>
0.0000

> <Gold.Chemscore.Hbonds>
donor molecule, donor type, donor heavy atom, donor atom, acceptor molecule, acceptor atom, score
      P1  H  7997  8009       L1     4  1.00
      L1  C     8    25       P1  8028  0.93

> <Gold.PLP.Chemscore.Internal.Correction>
0.0146

> <Gold.Rescore>
     Score         DG    S(hbond)    S(metal)    S(lipo)     H(rot)  DE(clash)    DE(int)     intcor
     15.48     -17.76       1.00        0.00      98.37       1.00       0.40       1.88       ----

> <Gold.Chemscore.Fitness>
15.4825

> <Gold.Chemscore.DG>
-17.7625

> <Gold.Chemscore.ZeroCoef>
-5.4800

> <Gold.Chemscore.Hbond>
0.9979

> <Gold.Chemscore.Metal>
0.0000

> <Gold.Chemscore.Lipo>
98.3720

> <Gold.Chemscore.Internal_Hbond>
0.0000

> <Gold.Chemscore.DEClash>
0.4047

> <Gold.Chemscore.DEInternal>
1.8754

> <Gold.Chemscore.Rot>
1.0000

> <Gold.Chemscore.Internal.Correction>
   9.000000E+99

> <Gold.Chemscore.Hbonds>
donor molecule, donor type, donor heavy atom, donor atom, acceptor molecule, acceptor atom, score
      P1  H  7997  8009       L1     4  0.94

> <Gold.Chemscore.Hbond.Weighted>
-3.3330

> <Gold.Chemscore.Metal.Weighted>
-0.0000

> <Gold.Chemscore.Lipo.Weighted>
-11.5095

> <Gold.Chemscore.Internal_Hbond.Weighted>
0.0000

> <Gold.Chemscore.DEClash.Weighted>
0.4047

> <Gold.Chemscore.DEInternal.Weighted>
1.8754

> <Gold.Chemscore.Rot.Weighted>
2.5600

> <Gold.Chemscore.Internal.Correction.Weighted>
   9.000000E+99

> <Gold.Protein.RotatedTorsions>
[ 6907 6896 6895 6894 ] final  -64.00 input  -60.11 | X-H torsion
[ 7974 7965 7964 7962 ] final -116.36 input  175.53 | X-H torsion
[ 8008 7997 7996 7995 ] final  168.59 input   59.86 | X-H torsion
[ 10167 10162 10161 10158 ] final -104.03 input  -65.29 | X-H torsion
[ 10718 10713 10712 10709 ] final  -11.18 input   66.30 | X-H torsion
[ 10763 10752 10751 10750 ] final -177.79 input  -60.55 | X-H torsion
[ 11005 11000 10999 10996 ] final   13.23 input  -57.11 | X-H torsion

> <Gold.Protein.ActiveResidues>
 VAL166  LYS551  ARG553  GLY616  TRP617  ASP618  TYR619  PRO620  LYS621  CYS622 
 ASP623  PHE694  ASN695  SER759  ASP760  ASP761  ALA762  ILE779  LEU786  VAL792 
 PHE793  MET794  SER795  GLU796  ALA797  LYS798  CYS799  TRP800  GLU811  SER814 

> <Gold.Protein.RotatedAtoms>
  150.7613  134.6358  159.6210 H   0  0  0  0  0  0  0  0  0  0  0  0  # atno 6907 bound_to 6896
  152.3622  134.6853  160.0212 H   0  0  0  0  0  0  0  0  0  0  0  0  # atno 6908 bound_to 6896
  151.7240  133.3279  159.3359 H   0  0  0  0  0  0  0  0  0  0  0  0  # atno 6909 bound_to 6896
  145.0976  140.8531  143.3945 H   0  0  0  0  0  0  0  0  0  0  0  0  # atno 7974 bound_to 7965
  156.1533  140.1586  156.8734 H   0  0  0  0  0  0  0  0  0  0  0  0  # atno 8008 bound_to 7997
  154.5091  140.0805  156.7991 H   0  0  0  0  0  0  0  0  0  0  0  0  # atno 8009 bound_to 7997
  155.3853  140.3407  155.4251 H   0  0  0  0  0  0  0  0  0  0  0  0  # atno 8010 bound_to 7997
  140.2136  143.3728  152.1029 H   0  0  0  0  0  0  0  0  0  0  0  0  # atno 10167 bound_to 10162
  156.6628  130.4987  149.6025 H   0  0  0  0  0  0  0  0  0  0  0  0  # atno 10718 bound_to 10713
  154.5557  135.2816  155.0966 H   0  0  0  0  0  0  0  0  0  0  0  0  # atno 10763 bound_to 10752
  154.2395  135.6359  153.5206 H   0  0  0  0  0  0  0  0  0  0  0  0  # atno 10764 bound_to 10752
  153.0015  135.5556  154.6136 H   0  0  0  0  0  0  0  0  0  0  0  0  # atno 10765 bound_to 10752
  140.4830  134.0916  155.7755 H   0  0  0  0  0  0  0  0  0  0  0  0  # atno 11005 bound_to 11000
  145.0993  139.2834  143.5695 LP  0  0  0  0  0  0  0  0  0  0  0  0  # atno 17320 bound_to 7965
  146.3530  140.0554  142.8633 LP  0  0  0  0  0  0  0  0  0  0  0  0  # atno 17321 bound_to 7965
  139.5170  144.6986  151.5559 LP  0  0  0  0  0  0  0  0  0  0  0  0  # atno 17342 bound_to 10162
  140.6306  143.9084  150.6602 LP  0  0  0  0  0  0  0  0  0  0  0  0  # atno 17343 bound_to 10162
  156.1998  130.6612  151.1154 LP  0  0  0  0  0  0  0  0  0  0  0  0  # atno 17370 bound_to 10713
  157.7104  131.0737  150.6521 LP  0  0  0  0  0  0  0  0  0  0  0  0  # atno 17371 bound_to 10713
  141.1522  133.8949  157.2070 LP  0  0  0  0  0  0  0  0  0  0  0  0  # atno 17394 bound_to 11000
  139.9815  135.0097  156.9760 LP  0  0  0  0  0  0  0  0  0  0  0  0  # atno 17395 bound_to 11000

$$$$
