#       Name:                AV-unprocessed.smi:2784
#       Creating user name   scv26
#       Creation time:       Fri Mar 27 15:17:56 2020


#       File generated by GOLD software.
#

@<TRIPOS>MOLECULE
AV-unprocessed.smi:2784
    38    39     1
SMALL
NO_CHARGES


@<TRIPOS>ATOM
      1 ****        -2.0680   3.0054   1.2172 C.3            1 S1                 0.0000
      2 ****        -1.3212   1.8539   1.5747 O.3            1 S1                 0.0000
      3 ****        -0.0293   1.8054   0.9842 C.3            1 S1                 0.0000
      4 ****         0.9482   2.7743   1.6633 C.3            1 S1                 0.0000
      5 ****         2.3065   2.0936   1.5392 C.3            1 S1                 0.0000
      6 ****         1.9924   0.6124   1.7444 C.3            1 S1                 0.0000
      7 ****         0.5834   0.3969   1.1632 C.3            1 S1                 0.0000
      8 ****         0.6664  -0.3217  -0.1060 N.am           1 S1                 0.0000
      9 ****        -0.3666  -0.9000  -0.7370 C.2            1 S1                 0.0000
     10 ****        -1.5099  -0.8819  -0.2704 O.2            1 S1                 0.0000
     11 ****         0.0580  -1.5190  -1.9003 N.2            1 S1                 0.0000
     12 ****        -0.4878  -2.6501  -2.2228 C.2            1 S1                 0.0000
     13 ****        -0.2360  -3.4271  -3.3422 N.pl3          1 S1                 0.0000
     14 ****        -1.0270  -4.5405  -3.2728 C.2            1 S1                 0.0000
     15 ****        -1.7452  -4.4698  -2.1556 C.2            1 S1                 0.0000
     16 ****        -1.4372  -3.3231  -1.4878 O.3            1 S1                 0.0000
     17 ****        -3.0467   2.9670   1.6952 H              1 S1                 0.0000
     18 ****        -2.2243   3.0536   0.1390 H              1 S1                 0.0000
     19 ****        -1.5741   3.9218   1.5413 H              1 S1                 0.0000
     20 ****        -0.0905   2.0468  -0.0793 H              1 S1                 0.0000
     21 ****         0.9343   3.7689   1.2168 H              1 S1                 0.0000
     22 ****         0.6941   2.8798   2.7191 H              1 S1                 0.0000
     23 ****         2.7083   2.2515   0.5374 H              1 S1                 0.0000
     24 ****         3.0346   2.4726   2.2568 H              1 S1                 0.0000
     25 ****         2.7501  -0.0353   1.3011 H              1 S1                 0.0000
     26 ****         1.9750   0.3974   2.8138 H              1 S1                 0.0000
     27 ****         0.0006  -0.1946   1.8721 H              1 S1                 0.0000
     28 ****         1.5776  -0.3843  -0.5363 H              1 S1                 0.0000
     29 ****         0.4074  -3.2445  -4.0989 H              1 S1                 0.0000
     30 ****        -0.9905  -5.2861  -4.0535 H              1 S1                 0.0000
     31 ****        -2.4837  -5.1233  -1.7151 H              1 S1                 0.0000
     32 ****        -1.8314   1.0441   1.2850 LP             1 S1                 0.0000
     33 ****        -1.2146   1.8427   2.5689 LP             1 S1                 0.0000
     34 ****        -1.6866  -0.4268   0.6023 LP             1 S1                 0.0000
     35 ****        -2.2589  -1.3223  -0.7653 LP             1 S1                 0.0000
     36 ****         0.7647  -1.1060  -2.4748 LP             1 S1                 0.0000
     37 ****        -2.2554  -2.7567  -1.3891 LP             1 S1                 0.0000
     38 ****        -1.0733  -3.5437  -0.5829 LP             1 S1                 0.0000
@<TRIPOS>BOND
    1    1    2 1     
    2    1   17 1     
    3    1   18 1     
    4    1   19 1     
    5    2    3 1     
    6    3    7 1     
    7    3    4 1     
    8    3   20 1     
    9    4    5 1     
   10    4   21 1     
   11    4   22 1     
   12    5    6 1     
   13    5   23 1     
   14    5   24 1     
   15    6    7 1     
   16    6   25 1     
   17    6   26 1     
   18    7    8 1     
   19    7   27 1     
   20    8   28 1     
   21    8    9 am    
   22    9   11 1     
   23    9   10 2     
   24   11   12 2     
   25   12   16 1     
   26   12   13 1     
   27   13   29 1     
   28   13   14 1     
   29   14   30 1     
   30   14   15 2     
   31   15   31 1     
   32   15   16 1     
   33    2   32 1     
   34    2   33 1     
   35   10   34 1     
   36   10   35 1     
   37   11   36 1     
   38   16   37 1     
   39   16   38 1     
@<TRIPOS>SUBSTRUCTURE
      1 S1             1
@<TRIPOS>SET
LONE_PAIRS      STATIC     ATOMS    <user>   **** ""
7 32 33 34 35 36 37 38
DONOR_HYDROGENS      STATIC     ATOMS    <user>   **** ""
2 28 29
ATOM$BLUE        STATIC     ATOMS    COLORGROUP SYSTEM
7 32 33 34 35 36 37 38
ATOM$RED        STATIC     ATOMS    COLORGROUP SYSTEM
2 28 29
