AV-unprocessed.smi:3261|AV-procd|sdf|12482|dock4
  -GOLD-   2272018383D 1   1.00000     0.00000
 Structure written by MMmdl.
 30 31  0  0  0  0  0  0  0  0  3 V2000
  154.1580  140.2098  159.1696 O   0  0  0  0  0  0  0  0  0  0  0  0
  154.3222  140.9717  160.1211 C   0  0  0  0  0  0  0  0  0  0  0  0
  153.6356  142.1410  160.1504 N   0  0  0  0  0  0  0  0  0  0  0  0
  152.7541  142.6887  159.1804 C   0  0  0  0  0  0  0  0  0  0  0  0
  152.6820  144.0953  159.0799 C   0  0  0  0  0  0  0  0  0  0  0  0
  151.8367  144.6800  158.1151 C   0  0  0  0  0  0  0  0  0  0  0  0
  151.1143  143.8936  157.2884 N   0  3  0  0  0  0  0  0  0  0  0  0
  151.1654  142.5449  157.3345 C   0  0  0  0  0  0  0  0  0  0  0  0
  151.9933  141.9036  158.2781 C   0  0  0  0  0  0  0  0  0  0  0  0
  155.1606  140.6486  161.1527 N   0  5  0  0  0  0  0  0  0  0  0  0
  155.5324  139.3202  161.6651 C   0  0  2  0  0  0  0  0  0  0  0  0
  154.3114  138.3788  161.7214 C   0  0  0  0  0  0  0  0  0  0  0  0
  154.6702  137.1598  162.5831 C   0  0  0  0  0  0  0  0  0  0  0  0
  155.8550  137.7708  163.8441 S   0  0  0  0  0  0  0  0  0  0  0  0
  155.1636  137.9289  165.1329 O   0  0  0  0  0  0  0  0  0  0  0  0
  157.0985  136.9899  163.7479 O   0  0  0  0  0  0  0  0  0  0  0  0
  156.1017  139.4248  163.0867 C   0  0  0  0  0  0  0  0  0  0  0  0
  153.7181  142.6660  161.0088 H   0  0  0  0  0  0  0  0  0  0  0  0
  153.2633  144.7224  159.7405 H   0  0  0  0  0  0  0  0  0  0  0  0
  151.7200  145.7454  157.9799 H   0  0  0  0  0  0  0  0  0  0  0  0
  150.5521  142.0216  156.6157 H   0  0  0  0  0  0  0  0  0  0  0  0
  152.0407  140.8250  158.2874 H   0  0  0  0  0  0  0  0  0  0  0  0
  156.2908  138.8427  161.0424 H   0  0  0  0  0  0  0  0  0  0  0  0
  153.4732  138.8995  162.1874 H   0  0  0  0  0  0  0  0  0  0  0  0
  153.9843  138.0781  160.7257 H   0  0  0  0  0  0  0  0  0  0  0  0
  153.8008  136.7173  163.0688 H   0  0  0  0  0  0  0  0  0  0  0  0
  155.1678  136.3883  161.9935 H   0  0  0  0  0  0  0  0  0  0  0  0
  157.1573  139.6953  163.1043 H   0  0  0  0  0  0  0  0  0  0  0  0
  155.5467  140.1493  163.6841 H   0  0  0  0  0  0  0  0  0  0  0  0
  150.5094  144.3367  156.5964 H   0  0  0  0  0  0  0  0  0  0  0  0
  1  2  2  0  0  0  0
  2  3  1  0  0  0  0
  2 10  1  0  0  0  0
  3  4  1  0  0  0  0
  3 18  1  0  0  0  0
  4  9  1  0  0  0  0
  4  5  2  0  0  0  0
  5  6  1  0  0  0  0
  5 19  1  0  0  0  0
  6  7  2  0  0  0  0
  6 20  1  0  0  0  0
  7  8  1  0  0  0  0
  7 30  1  0  0  0  0
  8  9  2  0  0  0  0
  8 21  1  0  0  0  0
  9 22  1  0  0  0  0
 10 11  1  0  0  0  0
 11 17  1  0  0  0  0
 11 12  1  0  0  0  0
 11 23  1  0  0  0  0
 12 13  1  0  0  0  0
 12 24  1  0  0  0  0
 12 25  1  0  0  0  0
 13 14  1  0  0  0  0
 13 26  1  0  0  0  0
 13 27  1  0  0  0  0
 14 15  2  0  0  0  0
 14 16  2  0  0  0  0
 14 17  1  0  0  0  0
 17 28  1  0  0  0  0
 17 29  1  0  0  0  0
M  CHG  1   7   1
M  CHG  1  10  -1
M  END
> <s_m_source_file>
AV-unprocessed.smi

> <i_m_source_file_index>
3261

> <i_lp_mmshare_version>
43012

> <i_f3d_flags>
0

> <s_epik_input>
Tz1TMSg9TylbQ0gyXVtDSDJdW0NASF0oW0NIMl0xKVtOSF1DKD1PKVtOSF1jMltjSF1bY0hdbltjSF1bY0hdMg==

> <s_epik_cmdline>
J2VwaWtfcHl0aG9uJywgJy1waCcsICc3LjAnLCAnLXRuJywgJzgnLCAnLW1hJywgJzIwMCcsICctbWV0YWxfYmluZGluZycsICctaW1hZScsICc8aW5maWxlLm1hZT4nLCAnLW9tYWUnLCAnPG91dGZpbGUubWFlPic=

> <r_epik_Ionization_Penalty>
8.1176

> <r_epik_Ionization_Penalty_Charging>
8.1176

> <r_epik_Ionization_Penalty_Neutral>
3.03687e-06

> <r_epik_State_Penalty>
7.79629

> <r_epik_Charging_Adjusted_Penalty>
15.9139

> <i_epik_Tot_Q>
0

> <i_epik_Tot_abs_Q>
2

> <r_epik_Metal_State_Penalty>
3.7997

> <b_epik_Metal_Only>
1

> <s_lp_Force_Field>
OPLS_2005

> <r_lp_Energy>
18.9878

> <b_lp_Chiralities_Consistent>
1

> <s_lp_Variant>
AV-unprocessed.smi:3261-5

> <Gold.Version>
5.8.1

> <Gold.Id.Protein>
6NUR|6NUR_protein|mol2

> <Gold.PLP.Fitness>
40.1197

> <Gold.PLP.PLP>
-32.5001

> <Gold.PLP.part.hbond>
-2.8595

> <Gold.PLP.part.metal>
0.0000

> <Gold.PLP.part.buried>
-4.7729

> <Gold.PLP.part.nonpolar>
-24.0173

> <Gold.PLP.part.repulsive>
0.1301

> <Gold.PLP.ligand.clash>
0.0000

> <Gold.PLP.ligand.torsion>
0.6182

> <Gold.PLP.Chemscore.Hbond>
2.9516

> <Gold.PLP.Chemscore.CHOScore>
0.0000

> <Gold.PLP.Chemscore.Metal>
0.0000

> <Gold.Chemscore.Hbonds>
donor molecule, donor type, donor heavy atom, donor atom, acceptor molecule, acceptor atom, score
      L1  H     7    30       P1  8028  2.00
      P1  H  7997  8008       L1     1  0.89

> <Gold.PLP.Chemscore.Internal.Correction>
0.0013

> <Gold.Rescore>
     Score         DG    S(hbond)    S(metal)    S(lipo)     H(rot)  DE(clash)    DE(int)     intcor
     17.05     -18.96       1.94        0.00      81.74       1.00       0.00       1.91       ----

> <Gold.Chemscore.Fitness>
17.0471

> <Gold.Chemscore.DG>
-18.9552

> <Gold.Chemscore.ZeroCoef>
-5.4800

> <Gold.Chemscore.Hbond>
1.9377

> <Gold.Chemscore.Metal>
0.0000

> <Gold.Chemscore.Lipo>
81.7369

> <Gold.Chemscore.Internal_Hbond>
0.0000

> <Gold.Chemscore.DEClash>
0.0000

> <Gold.Chemscore.DEInternal>
1.9081

> <Gold.Chemscore.Rot>
1.0000

> <Gold.Chemscore.Internal.Correction>
   9.000000E+99

> <Gold.Chemscore.Hbonds>
donor molecule, donor type, donor heavy atom, donor atom, acceptor molecule, acceptor atom, score
      L1  H     7    30       P1  8028  0.98
      P1  H  7997  8008       L1     1  0.83

> <Gold.Chemscore.Hbond.Weighted>
-6.4720

> <Gold.Chemscore.Metal.Weighted>
-0.0000

> <Gold.Chemscore.Lipo.Weighted>
-9.5632

> <Gold.Chemscore.Internal_Hbond.Weighted>
0.0000

> <Gold.Chemscore.DEClash.Weighted>
0.0000

> <Gold.Chemscore.DEInternal.Weighted>
1.9081

> <Gold.Chemscore.Rot.Weighted>
2.5600

> <Gold.Chemscore.Internal.Correction.Weighted>
   9.000000E+99

> <Gold.Protein.RotatedTorsions>
[ 6907 6896 6895 6894 ] final    7.73 input  -60.11 | X-H torsion
[ 7974 7965 7964 7962 ] final   55.01 input  175.53 | X-H torsion
[ 8008 7997 7996 7995 ] final -110.06 input   59.86 | X-H torsion
[ 10167 10162 10161 10158 ] final  -18.90 input  -65.29 | X-H torsion
[ 10718 10713 10712 10709 ] final  161.42 input   66.30 | X-H torsion
[ 10763 10752 10751 10750 ] final  -35.11 input  -60.55 | X-H torsion
[ 11005 11000 10999 10996 ] final  110.11 input  -57.11 | X-H torsion

> <Gold.Protein.ActiveResidues>
 VAL166  LYS551  ARG553  GLY616  TRP617  ASP618  TYR619  PRO620  LYS621  CYS622 
 ASP623  PHE694  ASN695  SER759  ASP760  ASP761  ALA762  ILE779  LEU786  VAL792 
 PHE793  MET794  SER795  GLU796  ALA797  LYS798  CYS799  TRP800  GLU811  SER814 

> <Gold.Protein.RotatedAtoms>
  151.6945  135.0941  160.0239 H   0  0  0  0  0  0  0  0  0  0  0  0  # atno 6907 bound_to 6896
  152.3758  133.6475  159.6131 H   0  0  0  0  0  0  0  0  0  0  0  0  # atno 6908 bound_to 6896
  150.7708  133.9112  159.3411 H   0  0  0  0  0  0  0  0  0  0  0  0  # atno 6909 bound_to 6896
  145.9549  139.4006  143.0283 H   0  0  0  0  0  0  0  0  0  0  0  0  # atno 7974 bound_to 7965
  154.9688  140.0398  157.2224 H   0  0  0  0  0  0  0  0  0  0  0  0  # atno 8008 bound_to 7997
  154.7821  140.2820  155.6034 H   0  0  0  0  0  0  0  0  0  0  0  0  # atno 8009 bound_to 7997
  156.2937  140.2589  156.2648 H   0  0  0  0  0  0  0  0  0  0  0  0  # atno 8010 bound_to 7997
  140.7263  143.4871  151.0040 H   0  0  0  0  0  0  0  0  0  0  0  0  # atno 10167 bound_to 10162
  157.1367  131.0530  151.2346 H   0  0  0  0  0  0  0  0  0  0  0  0  # atno 10718 bound_to 10713
  153.8578  135.6843  153.4786 H   0  0  0  0  0  0  0  0  0  0  0  0  # atno 10763 bound_to 10752
  153.1359  135.4678  154.9419 H   0  0  0  0  0  0  0  0  0  0  0  0  # atno 10764 bound_to 10752
  154.7772  135.3257  154.8015 H   0  0  0  0  0  0  0  0  0  0  0  0  # atno 10765 bound_to 10752
  139.8875  134.9476  156.6229 H   0  0  0  0  0  0  0  0  0  0  0  0  # atno 11005 bound_to 11000
  145.8120  140.9721  143.0944 LP  0  0  0  0  0  0  0  0  0  0  0  0  # atno 17320 bound_to 7965
  144.6803  139.9933  143.7484 LP  0  0  0  0  0  0  0  0  0  0  0  0  # atno 17321 bound_to 7965
  139.8573  143.7360  152.3175 LP  0  0  0  0  0  0  0  0  0  0  0  0  # atno 17342 bound_to 10162
  139.7563  144.7520  151.0431 LP  0  0  0  0  0  0  0  0  0  0  0  0  # atno 17343 bound_to 10162
  157.4344  130.7508  149.7017 LP  0  0  0  0  0  0  0  0  0  0  0  0  # atno 17370 bound_to 10713
  155.9797  130.4037  150.3573 LP  0  0  0  0  0  0  0  0  0  0  0  0  # atno 17371 bound_to 10713
  140.7725  133.8726  155.8503 LP  0  0  0  0  0  0  0  0  0  0  0  0  # atno 17394 bound_to 11000
  140.9830  134.1381  157.4478 LP  0  0  0  0  0  0  0  0  0  0  0  0  # atno 17395 bound_to 11000

$$$$
