AV-unprocessed.smi:3157|AV-procd|sdf|12040|dock7
  -GOLD-   2272017463D 1   1.00000     0.00000
 Structure written by MMmdl.
 40 41  0  0  0  0  0  0  0  0  2 V2000
  147.7094  141.8291  154.9495 C   0  0  0  0  0  0  0  0  0  0  0  0
  149.1015  141.2049  154.7591 C   0  0  1  0  0  0  0  0  0  0  0  0
  150.0922  142.0360  155.4828 N   0  3  0  0  0  0  0  0  0  0  0  0
  150.0751  141.8898  156.9529 C   0  0  0  0  0  0  0  0  0  0  0  0
  151.3402  142.4885  157.5867 C   0  0  0  0  0  0  0  0  0  0  0  0
  151.3692  142.3729  159.1131 C   0  0  0  0  0  0  0  0  0  0  0  0
  152.3678  143.4385  159.5819 C   0  0  0  0  0  0  0  0  0  0  0  0
  152.4926  144.4495  158.4321 C   0  0  0  0  0  0  0  0  0  0  0  0
  151.5023  143.9940  157.3570 C   0  0  0  0  0  0  0  0  0  0  0  0
  149.1697  139.7320  155.2447 C   0  0  1  0  0  0  0  0  0  0  0  0
  148.1163  138.8202  154.5873 C   0  0  0  0  0  0  0  0  0  0  0  0
  150.5018  139.1719  155.0439 N   0  0  0  0  0  0  0  0  0  0  0  0
  150.8873  138.1159  154.2413 C   0  0  0  0  0  0  0  0  0  0  0  0
  152.2419  137.9892  154.3552 C   0  0  0  0  0  0  0  0  0  0  0  0
  152.6043  139.0289  155.2555 C   0  0  0  0  0  0  0  0  0  0  0  0
  151.5636  139.7409  155.6566 N   0  0  0  0  0  0  0  0  0  0  0  0
  146.9567  141.3317  154.3381 H   0  0  0  0  0  0  0  0  0  0  0  0
  147.7099  142.8800  154.6578 H   0  0  0  0  0  0  0  0  0  0  0  0
  147.3872  141.7735  155.9900 H   0  0  0  0  0  0  0  0  0  0  0  0
  149.3265  141.2323  153.6914 H   0  0  0  0  0  0  0  0  0  0  0  0
  151.0155  141.7925  155.1541 H   0  0  0  0  0  0  0  0  0  0  0  0
  149.1872  142.3693  157.3663 H   0  0  0  0  0  0  0  0  0  0  0  0
  150.0057  140.8285  157.1949 H   0  0  0  0  0  0  0  0  0  0  0  0
  152.2202  141.9769  157.1923 H   0  0  0  0  0  0  0  0  0  0  0  0
  150.3828  142.5998  159.5212 H   0  0  0  0  0  0  0  0  0  0  0  0
  151.6408  141.3720  159.4507 H   0  0  0  0  0  0  0  0  0  0  0  0
  152.0308  143.9137  160.5039 H   0  0  0  0  0  0  0  0  0  0  0  0
  153.3394  142.9867  159.7854 H   0  0  0  0  0  0  0  0  0  0  0  0
  152.2903  145.4704  158.7582 H   0  0  0  0  0  0  0  0  0  0  0  0
  153.5083  144.4291  158.0349 H   0  0  0  0  0  0  0  0  0  0  0  0
  151.8427  144.2335  156.3490 H   0  0  0  0  0  0  0  0  0  0  0  0
  150.5478  144.4987  157.5117 H   0  0  0  0  0  0  0  0  0  0  0  0
  148.9712  139.7217  156.3184 H   0  0  0  0  0  0  0  0  0  0  0  0
  147.1037  139.1036  154.8733 H   0  0  0  0  0  0  0  0  0  0  0  0
  148.2528  137.7828  154.8953 H   0  0  0  0  0  0  0  0  0  0  0  0
  148.1772  138.8541  153.4991 H   0  0  0  0  0  0  0  0  0  0  0  0
  150.1750  137.5495  153.6598 H   0  0  0  0  0  0  0  0  0  0  0  0
  152.8781  137.2651  153.8680 H   0  0  0  0  0  0  0  0  0  0  0  0
  153.5865  139.2907  155.6202 H   0  0  0  0  0  0  0  0  0  0  0  0
  149.9158  143.0041  155.2535 H   0  0  0  0  0  0  0  0  0  0  0  0
  1  2  1  0  0  0  0
  1 17  1  0  0  0  0
  1 18  1  0  0  0  0
  1 19  1  0  0  0  0
  2  3  1  0  0  0  0
  2 10  1  0  0  0  0
  2 20  1  0  0  0  0
  3  4  1  0  0  0  0
  3 21  1  0  0  0  0
  3 40  1  0  0  0  0
  4  5  1  0  0  0  0
  4 22  1  0  0  0  0
  4 23  1  0  0  0  0
  5  9  1  0  0  0  0
  5  6  1  0  0  0  0
  5 24  1  0  0  0  0
  6  7  1  0  0  0  0
  6 25  1  0  0  0  0
  6 26  1  0  0  0  0
  7  8  1  0  0  0  0
  7 27  1  0  0  0  0
  7 28  1  0  0  0  0
  8  9  1  0  0  0  0
  8 29  1  0  0  0  0
  8 30  1  0  0  0  0
  9 31  1  0  0  0  0
  9 32  1  0  0  0  0
 10 11  1  0  0  0  0
 10 12  1  0  0  0  0
 10 33  1  0  0  0  0
 11 34  1  0  0  0  0
 11 35  1  0  0  0  0
 11 36  1  0  0  0  0
 12 16  1  0  0  0  0
 12 13  1  0  0  0  0
 13 14  2  0  0  0  0
 13 37  1  0  0  0  0
 14 15  1  0  0  0  0
 14 38  1  0  0  0  0
 15 16  2  0  0  0  0
 15 39  1  0  0  0  0
M  CHG  1   3   1
M  END
> <s_m_source_file>
AV-unprocessed.smi

> <i_m_source_file_index>
3157

> <i_lp_mmshare_version>
43012

> <i_f3d_flags>
0

> <s_epik_input>
bjFbY0hdW2NIXVtjSF1uMVtDQEBIXShbQ0gzXSlbQ0BIXShbQ0gzXSlbTkhdW0NIMl1bQ0hdMltDSDJdW0NIMl1bQ0gyXVtDSDJdMg==

> <s_epik_cmdline>
J2VwaWtfcHl0aG9uJywgJy1waCcsICc3LjAnLCAnLXRuJywgJzgnLCAnLW1hJywgJzIwMCcsICctbWV0YWxfYmluZGluZycsICctaW1hZScsICc8aW5maWxlLm1hZT4nLCAnLW9tYWUnLCAnPG91dGZpbGUubWFlPic=

> <r_lp_tautomer_probability>
1

> <r_epik_Ionization_Penalty>
0.00132192

> <r_epik_Ionization_Penalty_Charging>
0.0013111

> <r_epik_Ionization_Penalty_Neutral>
1.08112e-05

> <r_epik_State_Penalty>
-0

> <r_epik_Charging_Adjusted_Penalty>
0.0013111

> <i_epik_Tot_Q>
1

> <i_epik_Tot_abs_Q>
1

> <r_epik_Metal_State_Penalty>
-0

> <b_epik_Metal_Only>
0

> <s_lp_Force_Field>
OPLS_2005

> <r_lp_Energy>
31.1459

> <b_lp_Chiralities_Consistent>
1

> <s_lp_Variant>
AV-unprocessed.smi:3157-4

> <Gold.Version>
5.8.1

> <Gold.Id.Protein>
6NUR|6NUR_protein|mol2

> <Gold.PLP.Fitness>
45.8862

> <Gold.PLP.PLP>
-36.9662

> <Gold.PLP.part.hbond>
-1.3392

> <Gold.PLP.part.metal>
0.0000

> <Gold.PLP.part.buried>
-2.8723

> <Gold.PLP.part.nonpolar>
-33.5350

> <Gold.PLP.part.repulsive>
0.1822

> <Gold.PLP.ligand.clash>
0.0000

> <Gold.PLP.ligand.torsion>
0.2096

> <Gold.PLP.Chemscore.Hbond>
2.0077

> <Gold.PLP.Chemscore.CHOScore>
1.0780

> <Gold.PLP.Chemscore.Metal>
0.0000

> <Gold.Chemscore.Hbonds>
donor molecule, donor type, donor heavy atom, donor atom, acceptor molecule, acceptor atom, score
      L1  H     3    40       P1  8028  1.93
      L1  C    13    37       P1  7948  1.00
      L1  C    13    37       P1  7949  0.04

> <Gold.PLP.Chemscore.Internal.Correction>
0.0822

> <Gold.Rescore>
     Score         DG    S(hbond)    S(metal)    S(lipo)     H(rot)  DE(clash)    DE(int)     intcor
     15.38     -17.07       0.99        0.00     103.60       1.50       0.03       1.66       ----

> <Gold.Chemscore.Fitness>
15.3760

> <Gold.Chemscore.DG>
-17.0707

> <Gold.Chemscore.ZeroCoef>
-5.4800

> <Gold.Chemscore.Hbond>
0.9943

> <Gold.Chemscore.Metal>
0.0000

> <Gold.Chemscore.Lipo>
103.6042

> <Gold.Chemscore.Internal_Hbond>
0.0000

> <Gold.Chemscore.DEClash>
0.0323

> <Gold.Chemscore.DEInternal>
1.6625

> <Gold.Chemscore.Rot>
1.5047

> <Gold.Chemscore.Internal.Correction>
   9.000000E+99

> <Gold.Chemscore.Hbonds>
donor molecule, donor type, donor heavy atom, donor atom, acceptor molecule, acceptor atom, score
      L1  H     3    40       P1  8028  0.86

> <Gold.Chemscore.Hbond.Weighted>
-3.3210

> <Gold.Chemscore.Metal.Weighted>
-0.0000

> <Gold.Chemscore.Lipo.Weighted>
-12.1217

> <Gold.Chemscore.Internal_Hbond.Weighted>
0.0000

> <Gold.Chemscore.DEClash.Weighted>
0.0323

> <Gold.Chemscore.DEInternal.Weighted>
1.6625

> <Gold.Chemscore.Rot.Weighted>
3.8520

> <Gold.Chemscore.Internal.Correction.Weighted>
   9.000000E+99

> <Gold.Protein.RotatedTorsions>
[ 6907 6896 6895 6894 ] final  113.51 input  -60.11 | X-H torsion
[ 7974 7965 7964 7962 ] final  -18.67 input  175.53 | X-H torsion
[ 8008 7997 7996 7995 ] final  175.35 input   59.86 | X-H torsion
[ 10167 10162 10161 10158 ] final  143.12 input  -65.29 | X-H torsion
[ 10718 10713 10712 10709 ] final  -34.59 input   66.30 | X-H torsion
[ 10763 10752 10751 10750 ] final  124.65 input  -60.55 | X-H torsion
[ 11005 11000 10999 10996 ] final  -91.17 input  -57.11 | X-H torsion

> <Gold.Protein.ActiveResidues>
 VAL166  LYS551  ARG553  GLY616  TRP617  ASP618  TYR619  PRO620  LYS621  CYS622 
 ASP623  PHE694  ASN695  SER759  ASP760  ASP761  ALA762  ILE779  LEU786  VAL792 
 PHE793  MET794  SER795  GLU796  ALA797  LYS798  CYS799  TRP800  GLU811  SER814 

> <Gold.Protein.RotatedAtoms>
  152.4856  133.8365  159.7130 H   0  0  0  0  0  0  0  0  0  0  0  0  # atno 6907 bound_to 6896
  150.8940  133.7196  159.2903 H   0  0  0  0  0  0  0  0  0  0  0  0  # atno 6908 bound_to 6896
  151.4659  135.1046  159.9790 H   0  0  0  0  0  0  0  0  0  0  0  0  # atno 6909 bound_to 6896
  146.1881  140.3953  142.8468 H   0  0  0  0  0  0  0  0  0  0  0  0  # atno 7974 bound_to 7965
  156.0879  140.1411  156.9629 H   0  0  0  0  0  0  0  0  0  0  0  0  # atno 8008 bound_to 7997
  154.4624  140.0938  156.6977 H   0  0  0  0  0  0  0  0  0  0  0  0  # atno 8009 bound_to 7997
  155.4968  140.3449  155.4366 H   0  0  0  0  0  0  0  0  0  0  0  0  # atno 8010 bound_to 7997
  139.4977  144.6061  151.6374 H   0  0  0  0  0  0  0  0  0  0  0  0  # atno 10167 bound_to 10162
  156.3488  130.4305  149.7722 H   0  0  0  0  0  0  0  0  0  0  0  0  # atno 10718 bound_to 10713
  153.6648  135.3340  155.3137 H   0  0  0  0  0  0  0  0  0  0  0  0  # atno 10763 bound_to 10752
  154.8506  135.4372  154.1767 H   0  0  0  0  0  0  0  0  0  0  0  0  # atno 10764 bound_to 10752
  153.2743  135.7003  153.7525 H   0  0  0  0  0  0  0  0  0  0  0  0  # atno 10765 bound_to 10752
  141.1550  133.7738  156.9841 H   0  0  0  0  0  0  0  0  0  0  0  0  # atno 11005 bound_to 11000
  144.8434  140.6892  143.6215 LP  0  0  0  0  0  0  0  0  0  0  0  0  # atno 17320 bound_to 7965
  145.3878  139.1623  143.4245 LP  0  0  0  0  0  0  0  0  0  0  0  0  # atno 17321 bound_to 7965
  140.5724  144.0087  150.6223 LP  0  0  0  0  0  0  0  0  0  0  0  0  # atno 17342 bound_to 10162
  140.3208  143.3138  152.0785 LP  0  0  0  0  0  0  0  0  0  0  0  0  # atno 17343 bound_to 10162
  156.4931  130.8094  151.3102 LP  0  0  0  0  0  0  0  0  0  0  0  0  # atno 17370 bound_to 10713
  157.7458  130.9969  150.2796 LP  0  0  0  0  0  0  0  0  0  0  0  0  # atno 17371 bound_to 10713
  140.1046  134.9514  157.1974 LP  0  0  0  0  0  0  0  0  0  0  0  0  # atno 17394 bound_to 11000
  140.3273  134.2849  155.7234 LP  0  0  0  0  0  0  0  0  0  0  0  0  # atno 17395 bound_to 11000

$$$$
