#       Name:                AV-unprocessed.smi:3298
#       Creating user name   scv26
#       Creation time:       Fri Mar 27 18:57:39 2020


#       File generated by GOLD software.
#

@<TRIPOS>MOLECULE
AV-unprocessed.smi:3298
    40    41     1
SMALL
NO_CHARGES


@<TRIPOS>ATOM
      1 ****        -6.3252   0.8413   0.9497 C.3            1 S1                 0.0000
      2 ****        -4.9455   1.3294   0.5603 C.ar           1 S1                 0.0000
      3 ****        -3.8190   0.4887   0.6818 C.ar           1 S1                 0.0000
      4 ****        -2.5524   0.9919   0.3189 C.ar           1 S1                 0.0000
      5 ****        -1.4352   0.1209   0.4327 N.am           1 S1                 0.0000
      6 ****        -0.1319   0.4370   0.5261 C.2            1 S1                 0.0000
      7 ****         0.3230   1.5796   0.5812 O.2            1 S1                 0.0000
      8 ****         0.6317  -0.6638   0.5739 N.am           1 S1                 0.0000
      9 ****         2.0865  -0.6653   0.6811 C.3            1 S1                 0.0000
     10 ****         2.5923  -2.0475   0.9894 C.2            1 S1                 0.0000
     11 ****         3.4382  -2.5033   0.0684 C.2            1 S1                 0.0000
     12 ****         3.6561  -1.5312  -1.0611 C.3            1 S1                 0.0000
     13 ****         5.1453  -1.2032  -1.2582 C.3            1 S1                 0.0000
     14 ****         5.3172  -0.3692  -2.3842 O.3            1 S1                 0.0000
     15 ****         2.7909  -0.3091  -0.6545 C.3            1 S1                 0.0000
     16 ****        -2.4779   2.3159  -0.1761 C.ar           1 S1                 0.0000
     17 ****        -3.6641   3.0717  -0.2600 C.ar           1 S1                 0.0000
     18 ****        -4.8751   2.5975   0.1014 N.ar           1 S1                 0.0000
     19 ****         2.4059   0.0062   1.4801 H              1 S1                 0.0000
     20 ****         3.2557  -1.9876  -1.9675 H              1 S1                 0.0000
     21 ****        -6.3146  -0.2211   1.1942 H              1 S1                 0.0000
     22 ****        -7.0292   0.9936   0.1309 H              1 S1                 0.0000
     23 ****        -6.6870   1.3882   1.8208 H              1 S1                 0.0000
     24 ****        -3.9245  -0.5206   1.0528 H              1 S1                 0.0000
     25 ****        -1.6587  -0.8614   0.4935 H              1 S1                 0.0000
     26 ****         0.1773  -1.5641   0.5276 H              1 S1                 0.0000
     27 ****         2.2938  -2.5845   1.8778 H              1 S1                 0.0000
     28 ****         3.9198  -3.4696   0.0940 H              1 S1                 0.0000
     29 ****         5.5570  -0.7105  -0.3767 H              1 S1                 0.0000
     30 ****         5.7190  -2.1171  -1.4157 H              1 S1                 0.0000
     31 ****         6.2386  -0.1833  -2.4828 H              1 S1                 0.0000
     32 ****         2.0759  -0.0740  -1.4442 H              1 S1                 0.0000
     33 ****         3.4047   0.5823  -0.5187 H              1 S1                 0.0000
     34 ****        -1.5487   2.7572  -0.5018 H              1 S1                 0.0000
     35 ****        -3.6399   4.0840  -0.6350 H              1 S1                 0.0000
     36 ****        -0.2949   2.3655   0.5573 LP             1 S1                 0.0000
     37 ****         1.3104   1.7219   0.6498 LP             1 S1                 0.0000
     38 ****         4.8134   0.4844  -2.2516 LP             1 S1                 0.0000
     39 ****         4.9774  -0.8331  -3.2023 LP             1 S1                 0.0000
     40 ****        -5.6940   3.1671   0.0315 LP             1 S1                 0.0000
@<TRIPOS>BOND
    1    1    2 1     
    2    1   21 1     
    3    1   22 1     
    4    1   23 1     
    5    2   18 ar    
    6    2    3 ar    
    7    3    4 ar    
    8    3   24 1     
    9    4    5 1     
   10    4   16 ar    
   11    5    6 am    
   12    5   25 1     
   13    6    7 2     
   14    6    8 am    
   15    8    9 1     
   16    8   26 1     
   17    9   19 1     
   18    9   15 1     
   19    9   10 1     
   20   10   11 2     
   21   10   27 1     
   22   11   12 1     
   23   11   28 1     
   24   12   20 1     
   25   12   13 1     
   26   12   15 1     
   27   13   14 1     
   28   13   29 1     
   29   13   30 1     
   30   14   31 1     
   31   15   32 1     
   32   15   33 1     
   33   16   17 ar    
   34   16   34 1     
   35   17   18 ar    
   36   17   35 1     
   37    7   36 1     
   38    7   37 1     
   39   14   38 1     
   40   14   39 1     
   41   18   40 1     
@<TRIPOS>SUBSTRUCTURE
      1 S1             1
@<TRIPOS>SET
LONE_PAIRS      STATIC     ATOMS    <user>   **** ""
5 36 37 38 39 40
DONOR_HYDROGENS      STATIC     ATOMS    <user>   **** ""
3 25 26 31
ATOM$BLUE        STATIC     ATOMS    COLORGROUP SYSTEM
5 36 37 38 39 40
ATOM$RED        STATIC     ATOMS    COLORGROUP SYSTEM
3 25 26 31
