AV-unprocessed.smi:283|AV-procd|sdf|2144|dock7
  -GOLD-   2262021473D 1   1.00000     0.00000
 Structure written by MMmdl.
 48 51  0  0  0  0  0  0  0  0  1 V2000
  154.5745  140.8996  159.7892 C   0  0  0  0  0  0  0  0  0  0  0  0
  153.3349  141.5442  159.1544 C   0  0  1  0  0  0  0  0  0  0  0  0
  152.3351  140.5163  158.8709 N   0  0  0  0  0  0  0  0  0  0  0  0
  151.8544  140.3455  157.6196 C   0  0  0  0  0  0  0  0  0  0  0  0
  152.6556  139.6569  156.7724 N   0  0  0  0  0  0  0  0  0  0  0  0
  152.2552  139.4112  155.5223 C   0  0  0  0  0  0  0  0  0  0  0  0
  151.1124  139.7605  154.9295 N   0  0  0  0  0  0  0  0  0  0  0  0
  150.3056  140.4705  155.7699 C   0  0  0  0  0  0  0  0  0  0  0  0
  150.6017  140.8107  157.1211 C   0  0  0  0  0  0  0  0  0  0  0  0
  149.5504  141.5523  157.6476 N   0  0  0  0  0  0  0  0  0  0  0  0
  148.6854  141.6274  156.6742 C   0  0  0  0  0  0  0  0  0  0  0  0
  149.0567  140.9973  155.5089 N   0  0  0  0  0  0  0  0  0  0  0  0
  148.2763  140.9028  154.2389 C   0  0  1  0  0  0  0  0  0  0  0  0
  148.3443  139.5886  153.7816 O   0  0  0  0  0  0  0  0  0  0  0  0
  147.0957  139.1927  153.2243 C   0  0  2  0  0  0  0  0  0  0  0  0
  147.0762  139.5552  151.7266 C   0  0  0  0  0  0  0  0  0  0  0  0
  146.6809  138.4342  150.9659 O   0  0  0  0  0  0  0  0  0  0  0  0
  146.0656  139.9843  154.0421 C   0  0  1  0  0  0  0  0  0  0  0  0
  145.6743  139.2178  155.1638 O   0  0  0  0  0  0  0  0  0  0  0  0
  146.7981  141.2513  154.4773 C   0  0  2  0  0  0  0  0  0  0  0  0
  146.3951  142.3329  153.6609 O   0  0  0  0  0  0  0  0  0  0  0  0
  152.8349  142.7025  160.0230 C   0  0  0  0  0  0  0  0  0  0  0  0
  152.9401  142.6233  161.4316 C   0  0  0  0  0  0  0  0  0  0  0  0
  152.4811  143.6743  162.2473 C   0  0  0  0  0  0  0  0  0  0  0  0
  151.9192  144.8231  161.6626 C   0  0  0  0  0  0  0  0  0  0  0  0
  151.8241  144.9207  160.2622 C   0  0  0  0  0  0  0  0  0  0  0  0
  152.2823  143.8714  159.4405 C   0  0  0  0  0  0  0  0  0  0  0  0
  152.1543  144.0548  157.7259 Cl  0  0  0  0  0  0  0  0  0  0  0  0
  148.7824  141.5764  153.5456 H   0  0  0  0  0  0  0  0  0  0  0  0
  146.9458  138.1178  153.3407 H   0  0  0  0  0  0  0  0  0  0  0  0
  145.1603  140.1971  153.4713 H   0  0  0  0  0  0  0  0  0  0  0  0
  146.6105  141.5037  155.5226 H   0  0  0  0  0  0  0  0  0  0  0  0
  155.3699  141.6326  159.9272 H   0  0  0  0  0  0  0  0  0  0  0  0
  154.9697  140.1016  159.1597 H   0  0  0  0  0  0  0  0  0  0  0  0
  154.3438  140.4716  160.7653 H   0  0  0  0  0  0  0  0  0  0  0  0
  153.6466  141.9333  158.1869 H   0  0  0  0  0  0  0  0  0  0  0  0
  151.8275  140.1910  159.6808 H   0  0  0  0  0  0  0  0  0  0  0  0
  152.9471  138.8512  154.9106 H   0  0  0  0  0  0  0  0  0  0  0  0
  147.7433  142.1451  156.7833 H   0  0  0  0  0  0  0  0  0  0  0  0
  146.3473  140.3440  151.5392 H   0  0  0  0  0  0  0  0  0  0  0  0
  148.0428  139.9231  151.3819 H   0  0  0  0  0  0  0  0  0  0  0  0
  145.8368  138.6161  150.5815 H   0  0  0  0  0  0  0  0  0  0  0  0
  144.7322  139.1316  155.1522 H   0  0  0  0  0  0  0  0  0  0  0  0
  147.0219  142.4295  152.9603 H   0  0  0  0  0  0  0  0  0  0  0  0
  153.3718  141.7499  161.8977 H   0  0  0  0  0  0  0  0  0  0  0  0
  152.5613  143.5982  163.3217 H   0  0  0  0  0  0  0  0  0  0  0  0
  151.5661  145.6309  162.2866 H   0  0  0  0  0  0  0  0  0  0  0  0
  151.3988  145.8079  159.8162 H   0  0  0  0  0  0  0  0  0  0  0  0
  1  2  1  0  0  0  0
  1 33  1  0  0  0  0
  1 34  1  0  0  0  0
  1 35  1  0  0  0  0
  2  3  1  0  0  0  0
  2 22  1  0  0  0  0
  2 36  1  0  0  0  0
  3  4  1  0  0  0  0
  3 37  1  0  0  0  0
  4  9  1  0  0  0  0
  4  5  2  0  0  0  0
  5  6  1  0  0  0  0
  6  7  2  0  0  0  0
  6 38  1  0  0  0  0
  7  8  1  0  0  0  0
  8 12  1  0  0  0  0
  8  9  2  0  0  0  0
  9 10  1  0  0  0  0
 10 11  2  0  0  0  0
 11 12  1  0  0  0  0
 11 39  1  0  0  0  0
 12 13  1  0  0  0  0
 13 29  1  0  0  0  0
 13 20  1  0  0  0  0
 13 14  1  0  0  0  0
 14 15  1  0  0  0  0
 15 30  1  0  0  0  0
 15 16  1  0  0  0  0
 15 18  1  0  0  0  0
 16 17  1  0  0  0  0
 16 40  1  0  0  0  0
 16 41  1  0  0  0  0
 17 42  1  0  0  0  0
 18 31  1  0  0  0  0
 18 19  1  0  0  0  0
 18 20  1  0  0  0  0
 19 43  1  0  0  0  0
 20 32  1  0  0  0  0
 20 21  1  0  0  0  0
 21 44  1  0  0  0  0
 22 27  1  0  0  0  0
 22 23  2  0  0  0  0
 23 24  1  0  0  0  0
 23 45  1  0  0  0  0
 24 25  2  0  0  0  0
 24 46  1  0  0  0  0
 25 26  1  0  0  0  0
 25 47  1  0  0  0  0
 26 27  2  0  0  0  0
 26 48  1  0  0  0  0
 27 28  1  0  0  0  0
M  END
> <s_m_source_file>
AV-unprocessed.smi

> <i_m_source_file_index>
283

> <i_lp_mmshare_version>
43012

> <i_f3d_flags>
0

> <s_epik_input>
Q2xjMVtjSF1bY0hdW2NIXVtjSF1jMVtDQEhdKFtDSDNdKVtOSF1jKG5bY0hdbjIpYyhjMjMpbltjSF1uM1tDQEBIXTRPW0NASF0oW0NIMl1bT0hdKVtDQEBIXShbT0hdKVtDQEhdNFtPSF0=

> <s_epik_cmdline>
J2VwaWtfcHl0aG9uJywgJy1waCcsICc3LjAnLCAnLXRuJywgJzgnLCAnLW1hJywgJzIwMCcsICctbWV0YWxfYmluZGluZycsICctaW1hZScsICc8aW5maWxlLm1hZT4nLCAnLW9tYWUnLCAnPG91dGZpbGUubWFlPic=

> <r_lp_tautomer_probability>
1

> <r_epik_Ionization_Penalty>
0.000266407

> <r_epik_Ionization_Penalty_Charging>
0

> <r_epik_Ionization_Penalty_Neutral>
0.000266407

> <r_epik_State_Penalty>
-0

> <r_epik_Charging_Adjusted_Penalty>
0

> <i_epik_Tot_Q>
0

> <i_epik_Tot_abs_Q>
0

> <r_epik_Metal_State_Penalty>
-0

> <b_epik_Metal_Only>
0

> <s_epik_Chemistry_Notes>
This compound contains an acetal/aminal-like group ( X-CH(R)-Y where X, Y are N, S, or O) that may be acid/base labile, releasing an aldehyde.

> <s_lp_Force_Field>
OPLS_2005

> <r_lp_Energy>
38.3642

> <b_lp_Chiralities_Consistent>
1

> <s_lp_Variant>
AV-unprocessed.smi:283-20

> <Gold.Version>
5.8.1

> <Gold.Id.Protein>
6NUR|6NUR_protein|mol2

> <Gold.PLP.Fitness>
60.9848

> <Gold.PLP.PLP>
-54.1143

> <Gold.PLP.part.hbond>
-4.1859

> <Gold.PLP.part.metal>
0.0000

> <Gold.PLP.part.buried>
0.1947

> <Gold.PLP.part.nonpolar>
-51.2980

> <Gold.PLP.part.repulsive>
1.3534

> <Gold.PLP.ligand.clash>
0.0000

> <Gold.PLP.ligand.torsion>
2.6091

> <Gold.PLP.Chemscore.Hbond>
3.9913

> <Gold.PLP.Chemscore.CHOScore>
0.0000

> <Gold.PLP.Chemscore.Metal>
0.0000

> <Gold.Chemscore.Hbonds>
donor molecule, donor type, donor heavy atom, donor atom, acceptor molecule, acceptor atom, score
      L1  H    17    42       P1 10171  0.84
      P1  H  7954  7966       L1    17  1.00
      P1  H  7989  7998       L1     7  1.00
      P1  H  7997  8010       L1     5  0.90

> <Gold.PLP.Chemscore.Internal.Correction>
0.1148

> <Gold.Rescore>
     Score         DG    S(hbond)    S(metal)    S(lipo)     H(rot)  DE(clash)    DE(int)     intcor
     11.43     -19.28       2.50        0.00     136.33       4.10       4.17       3.68       ----

> <Gold.Chemscore.Fitness>
11.4284

> <Gold.Chemscore.DG>
-19.2823

> <Gold.Chemscore.ZeroCoef>
-5.4800

> <Gold.Chemscore.Hbond>
2.4969

> <Gold.Chemscore.Metal>
0.0000

> <Gold.Chemscore.Lipo>
136.3300

> <Gold.Chemscore.Internal_Hbond>
0.0000

> <Gold.Chemscore.DEClash>
4.1712

> <Gold.Chemscore.DEInternal>
3.6827

> <Gold.Chemscore.Rot>
4.0968

> <Gold.Chemscore.Internal.Correction>
   9.000000E+99

> <Gold.Chemscore.Hbonds>
donor molecule, donor type, donor heavy atom, donor atom, acceptor molecule, acceptor atom, score
      L1  H    17    42       P1 10171  0.82
      P1  H  7954  7966       L1    17  0.62
      P1  H  7989  7998       L1     7  0.31
      P1  H  7997  8010       L1     5  0.18

> <Gold.Chemscore.Hbond.Weighted>
-8.3396

> <Gold.Chemscore.Metal.Weighted>
-0.0000

> <Gold.Chemscore.Lipo.Weighted>
-15.9506

> <Gold.Chemscore.Internal_Hbond.Weighted>
0.0000

> <Gold.Chemscore.DEClash.Weighted>
4.1712

> <Gold.Chemscore.DEInternal.Weighted>
3.6827

> <Gold.Chemscore.Rot.Weighted>
10.4879

> <Gold.Chemscore.Internal.Correction.Weighted>
   9.000000E+99

> <Gold.Protein.RotatedTorsions>
[ 6907 6896 6895 6894 ] final   -3.19 input  -60.11 | X-H torsion
[ 7974 7965 7964 7962 ] final  -59.60 input  175.53 | X-H torsion
[ 8008 7997 7996 7995 ] final   73.81 input   59.86 | X-H torsion
[ 10167 10162 10161 10158 ] final   31.91 input  -65.29 | X-H torsion
[ 10718 10713 10712 10709 ] final -129.50 input   66.30 | X-H torsion
[ 10763 10752 10751 10750 ] final    2.66 input  -60.55 | X-H torsion
[ 11005 11000 10999 10996 ] final -140.64 input  -57.11 | X-H torsion

> <Gold.Protein.ActiveResidues>
 VAL166  LYS551  ARG553  GLY616  TRP617  ASP618  TYR619  PRO620  LYS621  CYS622 
 ASP623  PHE694  ASN695  SER759  ASP760  ASP761  ALA762  ILE779  LEU786  VAL792 
 PHE793  MET794  SER795  GLU796  ALA797  LYS798  CYS799  TRP800  GLU811  SER814 

> <Gold.Protein.RotatedAtoms>
  151.5178  135.1066  159.9870 H   0  0  0  0  0  0  0  0  0  0  0  0  # atno 6907 bound_to 6896
  152.4633  133.7866  159.6890 H   0  0  0  0  0  0  0  0  0  0  0  0  # atno 6908 bound_to 6896
  150.8606  133.7586  159.3019 H   0  0  0  0  0  0  0  0  0  0  0  0  # atno 6909 bound_to 6896
  145.8255  140.8513  143.0110 H   0  0  0  0  0  0  0  0  0  0  0  0  # atno 7974 bound_to 7965
  155.7891  140.3480  155.5339 H   0  0  0  0  0  0  0  0  0  0  0  0  # atno 8008 bound_to 7997
  155.8652  140.0977  157.1608 H   0  0  0  0  0  0  0  0  0  0  0  0  # atno 8009 bound_to 7997
  154.4014  140.1351  156.3997 H   0  0  0  0  0  0  0  0  0  0  0  0  # atno 8010 bound_to 7997
  140.4546  144.0997  150.6199 H   0  0  0  0  0  0  0  0  0  0  0  0  # atno 10167 bound_to 10162
  156.2052  130.6883  151.0586 H   0  0  0  0  0  0  0  0  0  0  0  0  # atno 10718 bound_to 10713
  153.2928  135.6950  153.7277 H   0  0  0  0  0  0  0  0  0  0  0  0  # atno 10763 bound_to 10752
  153.6221  135.3425  155.3015 H   0  0  0  0  0  0  0  0  0  0  0  0  # atno 10764 bound_to 10752
  154.8529  135.4388  154.2016 H   0  0  0  0  0  0  0  0  0  0  0  0  # atno 10765 bound_to 10752
  140.8403  134.2410  157.4813 H   0  0  0  0  0  0  0  0  0  0  0  0  # atno 11005 bound_to 11000
  144.6744  140.0595  143.7476 LP  0  0  0  0  0  0  0  0  0  0  0  0  # atno 17320 bound_to 7965
  145.9628  139.2813  143.1145 LP  0  0  0  0  0  0  0  0  0  0  0  0  # atno 17321 bound_to 7965
  140.4166  143.2631  151.9767 LP  0  0  0  0  0  0  0  0  0  0  0  0  # atno 17342 bound_to 10162
  139.4800  144.5868  151.7840 LP  0  0  0  0  0  0  0  0  0  0  0  0  # atno 17343 bound_to 10162
  157.7008  131.0776  150.6825 LP  0  0  0  0  0  0  0  0  0  0  0  0  # atno 17370 bound_to 10713
  156.6883  130.4587  149.5607 LP  0  0  0  0  0  0  0  0  0  0  0  0  # atno 17371 bound_to 10713
  139.8703  134.9632  156.4453 LP  0  0  0  0  0  0  0  0  0  0  0  0  # atno 17394 bound_to 11000
  140.8903  133.7853  155.9564 LP  0  0  0  0  0  0  0  0  0  0  0  0  # atno 17395 bound_to 11000

$$$$
