AV-unprocessed.smi:1178|AV-procd|sdf|4956|dock9
  -GOLD-   22720 3543D 1   1.00000     0.00000
 Structure written by MMmdl.
 33 34  0  0  0  0  0  0  0  0  1 V2000
  149.3867  132.8369  154.9113 O   0  0  0  0  0  0  0  0  0  0  0  0
  148.9459  133.5702  154.0251 C   0  0  0  0  0  0  0  0  0  0  0  0
  148.3170  132.9752  152.7573 C   0  0  0  0  0  0  0  0  0  0  0  0
  146.9048  133.3500  152.5963 N   0  0  0  0  0  0  0  0  0  0  0  0
  146.5364  134.3136  151.6680 C   0  0  0  0  0  0  0  0  0  0  0  0
  145.2533  134.6887  151.4522 C   0  0  0  0  0  0  0  0  0  0  0  0
  144.1673  134.0760  152.2096 C   0  0  0  0  0  0  0  0  0  0  0  0
  142.9749  134.3466  152.0850 O   0  0  0  0  0  0  0  0  0  0  0  0
  144.5783  133.1120  153.1337 N   0  0  0  0  0  0  0  0  0  0  0  0
  145.8985  132.7209  153.3613 C   0  0  0  0  0  0  0  0  0  0  0  0
  146.1510  131.8577  154.2006 O   0  0  0  0  0  0  0  0  0  0  0  0
  148.9953  134.9094  154.0889 N   0  0  0  0  0  0  0  0  0  0  0  0
  149.5281  135.6817  155.2061 C   0  0  0  0  0  0  0  0  0  0  0  0
  150.7328  136.5514  154.7893 C   0  0  0  0  0  0  0  0  0  0  0  0
  151.0548  137.5662  155.8023 N   0  0  0  0  0  0  0  0  0  0  0  0
  151.2883  137.2561  157.0985 C   0  0  0  0  0  0  0  0  0  0  0  0
  151.2628  136.1180  157.5653 O   0  0  0  0  0  0  0  0  0  0  0  0
  151.5925  138.4625  157.9946 C   0  0  0  0  0  0  0  0  0  0  0  0
  151.5004  139.8835  156.9026 S   0  0  0  0  0  0  0  0  0  0  0  0
  151.1179  138.8807  155.5297 C   0  0  0  0  0  0  0  0  0  0  0  0
  150.9213  139.3752  154.4201 O   0  0  0  0  0  0  0  0  0  0  0  0
  143.8607  132.6589  153.6807 H   0  0  0  0  0  0  0  0  0  0  0  0
  148.8890  133.2788  151.8781 H   0  0  0  0  0  0  0  0  0  0  0  0
  148.4180  131.8902  152.8063 H   0  0  0  0  0  0  0  0  0  0  0  0
  147.3073  134.7900  151.0792 H   0  0  0  0  0  0  0  0  0  0  0  0
  145.0289  135.4443  150.7131 H   0  0  0  0  0  0  0  0  0  0  0  0
  148.6161  135.4332  153.3134 H   0  0  0  0  0  0  0  0  0  0  0  0
  148.7361  136.3216  155.5984 H   0  0  0  0  0  0  0  0  0  0  0  0
  149.7946  135.0039  156.0174 H   0  0  0  0  0  0  0  0  0  0  0  0
  151.6022  135.9349  154.5540 H   0  0  0  0  0  0  0  0  0  0  0  0
  150.4936  137.0558  153.8514 H   0  0  0  0  0  0  0  0  0  0  0  0
  150.8564  138.5447  158.7943 H   0  0  0  0  0  0  0  0  0  0  0  0
  152.5876  138.3779  158.4318 H   0  0  0  0  0  0  0  0  0  0  0  0
  1  2  2  0  0  0  0
  2  3  1  0  0  0  0
  2 12  1  0  0  0  0
  3  4  1  0  0  0  0
  3 23  1  0  0  0  0
  3 24  1  0  0  0  0
  4 10  1  0  0  0  0
  4  5  1  0  0  0  0
  5  6  2  0  0  0  0
  5 25  1  0  0  0  0
  6  7  1  0  0  0  0
  6 26  1  0  0  0  0
  7  8  2  0  0  0  0
  7  9  1  0  0  0  0
  9 22  1  0  0  0  0
  9 10  1  0  0  0  0
 10 11  2  0  0  0  0
 12 13  1  0  0  0  0
 12 27  1  0  0  0  0
 13 14  1  0  0  0  0
 13 28  1  0  0  0  0
 13 29  1  0  0  0  0
 14 15  1  0  0  0  0
 14 30  1  0  0  0  0
 14 31  1  0  0  0  0
 15 20  1  0  0  0  0
 15 16  1  0  0  0  0
 16 17  2  0  0  0  0
 16 18  1  0  0  0  0
 18 19  1  0  0  0  0
 18 32  1  0  0  0  0
 18 33  1  0  0  0  0
 19 20  1  0  0  0  0
 20 21  2  0  0  0  0
M  END
> <s_m_source_file>
AV-unprocessed.smi

> <i_m_source_file_index>
1178

> <i_lp_mmshare_version>
43012

> <i_f3d_flags>
0

> <s_epik_input>
Tz1jMVtuSF1jKD1PKVtjSF1bY0hdbjFbQ0gyXUMoPU8pW05IXVtDSDJdW0NIMl1OMkMoPU8pW0NIMl1TQzI9Tw==

> <s_epik_cmdline>
J2VwaWtfcHl0aG9uJywgJy1waCcsICc3LjAnLCAnLXRuJywgJzgnLCAnLW1hJywgJzIwMCcsICctbWV0YWxfYmluZGluZycsICctaW1hZScsICc8aW5maWxlLm1hZT4nLCAnLW9tYWUnLCAnPG91dGZpbGUubWFlPic=

> <r_lp_tautomer_probability>
0.999537

> <r_epik_Ionization_Penalty>
0.00339795

> <r_epik_Ionization_Penalty_Charging>
0.0033979

> <r_epik_Ionization_Penalty_Neutral>
5.48861e-08

> <r_epik_State_Penalty>
0.00240602

> <r_epik_Charging_Adjusted_Penalty>
0.00580392

> <i_epik_Tot_Q>
0

> <i_epik_Tot_abs_Q>
0

> <r_epik_Metal_State_Penalty>
0.366682

> <b_epik_Metal_Only>
0

> <s_lp_Force_Field>
OPLS_2005

> <r_lp_Energy>
11.0957

> <b_lp_Chiralities_Consistent>
1

> <s_lp_Variant>
AV-unprocessed.smi:1178-1

> <Gold.Version>
5.8.1

> <Gold.Id.Protein>
6NUR|6NUR_protein|mol2

> <Gold.PLP.Fitness>
37.8518

> <Gold.PLP.PLP>
-26.7387

> <Gold.PLP.part.hbond>
-3.8640

> <Gold.PLP.part.metal>
0.0000

> <Gold.PLP.part.buried>
-3.5147

> <Gold.PLP.part.nonpolar>
-20.3521

> <Gold.PLP.part.repulsive>
0.5205

> <Gold.PLP.ligand.clash>
0.0000

> <Gold.PLP.ligand.torsion>
0.2951

> <Gold.PLP.Chemscore.Hbond>
2.9280

> <Gold.PLP.Chemscore.CHOScore>
0.9672

> <Gold.PLP.Chemscore.Metal>
0.0000

> <Gold.Chemscore.Hbonds>
donor molecule, donor type, donor heavy atom, donor atom, acceptor molecule, acceptor atom, score
      L1  H     9    22       P1 10957  1.00
      L1  H    12    27       P1  7948  0.90
      P1  H  7989  7998       L1    21  1.00
      L1  C     5    25       P1  7948  0.96

> <Gold.PLP.Chemscore.Internal.Correction>
0.0177

> <Gold.Rescore>
     Score         DG    S(hbond)    S(metal)    S(lipo)     H(rot)  DE(clash)    DE(int)     intcor
     11.08     -11.52       2.82        0.00      35.93       2.97       0.16       0.28       ----

> <Gold.Chemscore.Fitness>
11.0800

> <Gold.Chemscore.DG>
-11.5180

> <Gold.Chemscore.ZeroCoef>
-5.4800

> <Gold.Chemscore.Hbond>
2.8234

> <Gold.Chemscore.Metal>
0.0000

> <Gold.Chemscore.Lipo>
35.9298

> <Gold.Chemscore.Internal_Hbond>
0.0000

> <Gold.Chemscore.DEClash>
0.1596

> <Gold.Chemscore.DEInternal>
0.2784

> <Gold.Chemscore.Rot>
2.9672

> <Gold.Chemscore.Internal.Correction>
   9.000000E+99

> <Gold.Chemscore.Hbonds>
donor molecule, donor type, donor heavy atom, donor atom, acceptor molecule, acceptor atom, score
      L1  H     9    22       P1 10957  0.65
      L1  H    12    27       P1  7948  0.83
      P1  H  7989  7998       L1    21  1.00

> <Gold.Chemscore.Hbond.Weighted>
-9.4302

> <Gold.Chemscore.Metal.Weighted>
-0.0000

> <Gold.Chemscore.Lipo.Weighted>
-4.2038

> <Gold.Chemscore.Internal_Hbond.Weighted>
0.0000

> <Gold.Chemscore.DEClash.Weighted>
0.1596

> <Gold.Chemscore.DEInternal.Weighted>
0.2784

> <Gold.Chemscore.Rot.Weighted>
7.5960

> <Gold.Chemscore.Internal.Correction.Weighted>
   9.000000E+99

> <Gold.Protein.RotatedTorsions>
[ 6907 6896 6895 6894 ] final  -86.03 input  -60.11 | X-H torsion
[ 7974 7965 7964 7962 ] final  -25.35 input  175.53 | X-H torsion
[ 8008 7997 7996 7995 ] final   53.50 input   59.86 | X-H torsion
[ 10167 10162 10161 10158 ] final   33.15 input  -65.29 | X-H torsion
[ 10718 10713 10712 10709 ] final -161.14 input   66.30 | X-H torsion
[ 10763 10752 10751 10750 ] final -156.53 input  -60.55 | X-H torsion
[ 11005 11000 10999 10996 ] final -177.71 input  -57.11 | X-H torsion

> <Gold.Protein.ActiveResidues>
 VAL166  LYS551  ARG553  GLY616  TRP617  ASP618  TYR619  PRO620  LYS621  CYS622 
 ASP623  PHE694  ASN695  SER759  ASP760  ASP761  ALA762  ILE779  LEU786  VAL792 
 PHE793  MET794  SER795  GLU796  ALA797  LYS798  CYS799  TRP800  GLU811  SER814 

> <Gold.Protein.RotatedAtoms>
  150.6868  134.3113  159.4747 H   0  0  0  0  0  0  0  0  0  0  0  0  # atno 6907 bound_to 6896
  152.0999  134.9346  160.0579 H   0  0  0  0  0  0  0  0  0  0  0  0  # atno 6908 bound_to 6896
  152.0630  133.4036  159.4463 H   0  0  0  0  0  0  0  0  0  0  0  0  # atno 6909 bound_to 6896
  146.1497  140.4874  142.8617 H   0  0  0  0  0  0  0  0  0  0  0  0  # atno 7974 bound_to 7965
  155.4693  140.3464  155.4323 H   0  0  0  0  0  0  0  0  0  0  0  0  # atno 8008 bound_to 7997
  156.1110  140.1461  156.9367 H   0  0  0  0  0  0  0  0  0  0  0  0  # atno 8009 bound_to 7997
  154.4757  140.0886  156.7234 H   0  0  0  0  0  0  0  0  0  0  0  0  # atno 8010 bound_to 7997
  140.4434  144.1155  150.6178 H   0  0  0  0  0  0  0  0  0  0  0  0  # atno 10167 bound_to 10162
  156.5920  130.8774  151.2892 H   0  0  0  0  0  0  0  0  0  0  0  0  # atno 10718 bound_to 10713
  154.7706  135.3144  154.8198 H   0  0  0  0  0  0  0  0  0  0  0  0  # atno 10763 bound_to 10752
  153.8934  135.6823  153.4763 H   0  0  0  0  0  0  0  0  0  0  0  0  # atno 10764 bound_to 10752
  153.1319  135.4776  154.9296 H   0  0  0  0  0  0  0  0  0  0  0  0  # atno 10765 bound_to 10752
  140.4378  134.6459  157.4743 H   0  0  0  0  0  0  0  0  0  0  0  0  # atno 11005 bound_to 11000
  144.7889  140.5991  143.6555 LP  0  0  0  0  0  0  0  0  0  0  0  0  # atno 17320 bound_to 7965
  145.4853  139.1492  143.3739 LP  0  0  0  0  0  0  0  0  0  0  0  0  # atno 17321 bound_to 7965
  140.4292  143.2576  151.9617 LP  0  0  0  0  0  0  0  0  0  0  0  0  # atno 17342 bound_to 10162
  139.4791  144.5759  151.8012 LP  0  0  0  0  0  0  0  0  0  0  0  0  # atno 17343 bound_to 10162
  157.7301  130.9681  150.1818 LP  0  0  0  0  0  0  0  0  0  0  0  0  # atno 17370 bound_to 10713
  156.2542  130.3704  149.8200 LP  0  0  0  0  0  0  0  0  0  0  0  0  # atno 17371 bound_to 10713
  140.0090  134.6719  155.9410 LP  0  0  0  0  0  0  0  0  0  0  0  0  # atno 17394 bound_to 11000
  141.1718  133.6538  156.4680 LP  0  0  0  0  0  0  0  0  0  0  0  0  # atno 17395 bound_to 11000

$$$$
