#       Name:                AV-unprocessed.smi:148
#       Creating user name   scv26
#       Creation time:       Thu Mar 26 18:44:07 2020


#       File generated by GOLD software.
#

@<TRIPOS>MOLECULE
AV-unprocessed.smi:148
    73    77     1
SMALL
NO_CHARGES


@<TRIPOS>ATOM
      1 ****        -5.1598  -1.4125  -1.6753 O.3            1 S1                 0.0000
      2 ****        -3.7581  -1.5830  -1.6443 C.3            1 S1                 0.0000
      3 ****        -3.0876  -0.9580  -2.8921 C.3            1 S1                 0.0000
      4 ****        -1.5423  -0.9186  -2.7624 C.3            1 S1                 0.0000
      5 ****        -1.0850  -0.2293  -1.5682 N.pl3          1 S1                 0.0000
      6 ****        -1.0574   1.1324  -1.3649 C.2            1 S1                 0.0000
      7 ****        -0.5913   1.5132  -0.2062 N.2            1 S1                 0.0000
      8 ****        -0.2708   0.3228   0.4337 C.ar           1 S1                 0.0000
      9 ****         0.2849   0.0020   1.6996 C.ar           1 S1                 0.0000
     10 ****         0.6294   0.9584   2.5931 N.3            1 S1                 0.0000
     11 ****        -0.4349   1.1093   3.5856 C.3            1 S1                 0.0000
     12 ****        -0.1946   2.3267   4.4861 C.3            1 S1                 0.0000
     13 ****         1.1823   2.2285   5.1480 C.3            1 S1                 0.0000
     14 ****         2.2695   2.0934   4.0742 C.3            1 S1                 0.0000
     15 ****         2.0054   0.8956   3.1231 C.3            1 S1                 0.0000
     16 ****         3.0766   0.7627   1.9938 C.3            1 S1                 0.0000
     17 ****         3.0956   1.8879   0.9402 C.3            1 S1                 0.0000
     18 ****         4.5432   1.9796   0.4299 C.3            1 S1                 0.0000
     19 ****         5.3269   0.8851   1.1612 C.3            1 S1                 0.0000
     20 ****         4.5390   0.6509   2.4495 C.3            1 S1                 0.0000
     21 ****         4.8309  -0.6121   3.0104 O.3            1 S1                 0.0000
     22 ****         0.4571  -1.3114   2.0062 N.ar           1 S1                 0.0000
     23 ****         0.1208  -2.2521   1.1183 C.ar           1 S1                 0.0000
     24 ****        -0.3954  -2.1012  -0.1039 N.ar           1 S1                 0.0000
     25 ****        -0.5757  -0.7833  -0.4068 C.ar           1 S1                 0.0000
     26 ****        -3.5866  -1.6307  -4.2031 C.3            1 S1                 0.0000
     27 ****        -3.1089  -1.0220  -5.5092 C.3            1 S1                 0.0000
     28 ****        -3.4947  -2.1093  -6.5073 C.3            1 S1                 0.0000
     29 ****        -3.3475  -3.3425  -5.8085 O.3            1 S1                 0.0000
     30 ****        -3.2242  -3.1051  -4.4082 C.3            1 S1                 0.0000
     31 ****        -5.5271  -1.7992  -0.8949 H              1 S1                 0.0000
     32 ****        -3.4055  -1.1140  -0.7263 H              1 S1                 0.0000
     33 ****        -3.5236  -2.6449  -1.5668 H              1 S1                 0.0000
     34 ****        -3.4169   0.0815  -2.9349 H              1 S1                 0.0000
     35 ****        -1.1278  -1.9259  -2.7501 H              1 S1                 0.0000
     36 ****        -1.0922  -0.4092  -3.6129 H              1 S1                 0.0000
     37 ****        -1.3964   1.8386  -2.1088 H              1 S1                 0.0000
     38 ****        -1.3988   1.2155   3.0849 H              1 S1                 0.0000
     39 ****        -0.4916   0.2063   4.1958 H              1 S1                 0.0000
     40 ****        -0.2576   3.2413   3.8950 H              1 S1                 0.0000
     41 ****        -0.9738   2.3902   5.2459 H              1 S1                 0.0000
     42 ****         1.3687   3.1094   5.7631 H              1 S1                 0.0000
     43 ****         1.2120   1.3667   5.8160 H              1 S1                 0.0000
     44 ****         2.3207   3.0257   3.5129 H              1 S1                 0.0000
     45 ****         3.2287   1.9820   4.5773 H              1 S1                 0.0000
     46 ****         2.0654  -0.0070   3.7331 H              1 S1                 0.0000
     47 ****         2.8801  -0.1590   1.4438 H              1 S1                 0.0000
     48 ****         2.4024   1.6710   0.1272 H              1 S1                 0.0000
     49 ****         2.7975   2.8475   1.3602 H              1 S1                 0.0000
     50 ****         4.6050   1.8608  -0.6522 H              1 S1                 0.0000
     51 ****         4.9561   2.9588   0.6749 H              1 S1                 0.0000
     52 ****         5.3295  -0.0216   0.5540 H              1 S1                 0.0000
     53 ****         6.3651   1.1629   1.3462 H              1 S1                 0.0000
     54 ****         4.7991   1.4334   3.1607 H              1 S1                 0.0000
     55 ****         4.3069  -0.7231   3.7890 H              1 S1                 0.0000
     56 ****         0.2901  -3.2717   1.4315 H              1 S1                 0.0000
     57 ****        -4.6756  -1.5631  -4.2215 H              1 S1                 0.0000
     58 ****        -3.5727  -0.0603  -5.7300 H              1 S1                 0.0000
     59 ****        -2.0277  -0.8932  -5.5259 H              1 S1                 0.0000
     60 ****        -4.5386  -2.0005  -6.8042 H              1 S1                 0.0000
     61 ****        -2.8820  -2.0860  -7.4087 H              1 S1                 0.0000
     62 ****        -2.1935  -3.3144  -4.1254 H              1 S1                 0.0000
     63 ****        -3.8708  -3.7737  -3.8393 H              1 S1                 0.0000
     64 ****        -5.5365  -1.8636  -2.4844 LP             1 S1                 0.0000
     65 ****        -5.3803  -0.4376  -1.7043 LP             1 S1                 0.0000
     66 ****        -0.4889   2.4456   0.1402 LP             1 S1                 0.0000
     67 ****         0.6956   1.8200   2.0899 LP             1 S1                 0.0000
     68 ****         5.8012  -0.6598   3.2473 LP             1 S1                 0.0000
     69 ****         4.6128  -1.3322   2.3516 LP             1 S1                 0.0000
     70 ****         0.8347  -1.5731   2.8944 LP             1 S1                 0.0000
     71 ****        -0.6209  -2.8573  -0.7184 LP             1 S1                 0.0000
     72 ****        -2.5281  -3.8123  -6.1371 LP             1 S1                 0.0000
     73 ****        -4.1500  -3.9151  -5.9768 LP             1 S1                 0.0000
@<TRIPOS>BOND
    1    1    2 1     
    2    1   31 1     
    3    2    3 1     
    4    2   32 1     
    5    2   33 1     
    6    3    4 1     
    7    3   26 1     
    8    3   34 1     
    9    4    5 1     
   10    4   35 1     
   11    4   36 1     
   12    5   25 1     
   13    5    6 1     
   14    6    7 2     
   15    6   37 1     
   16    7    8 1     
   17    8   25 ar    
   18    8    9 ar    
   19    9   10 1     
   20    9   22 ar    
   21   10   15 1     
   22   10   11 1     
   23   11   12 1     
   24   11   38 1     
   25   11   39 1     
   26   12   13 1     
   27   12   40 1     
   28   12   41 1     
   29   13   14 1     
   30   13   42 1     
   31   13   43 1     
   32   14   15 1     
   33   14   44 1     
   34   14   45 1     
   35   15   16 1     
   36   15   46 1     
   37   16   20 1     
   38   16   17 1     
   39   16   47 1     
   40   17   18 1     
   41   17   48 1     
   42   17   49 1     
   43   18   19 1     
   44   18   50 1     
   45   18   51 1     
   46   19   20 1     
   47   19   52 1     
   48   19   53 1     
   49   20   21 1     
   50   20   54 1     
   51   21   55 1     
   52   22   23 ar    
   53   23   24 ar    
   54   23   56 1     
   55   24   25 ar    
   56   26   30 1     
   57   26   27 1     
   58   26   57 1     
   59   27   28 1     
   60   27   58 1     
   61   27   59 1     
   62   28   29 1     
   63   28   60 1     
   64   28   61 1     
   65   29   30 1     
   66   30   62 1     
   67   30   63 1     
   68    1   64 1     
   69    1   65 1     
   70    7   66 1     
   71   10   67 1     
   72   21   68 1     
   73   21   69 1     
   74   22   70 1     
   75   24   71 1     
   76   29   72 1     
   77   29   73 1     
@<TRIPOS>SUBSTRUCTURE
      1 S1             1
@<TRIPOS>SET
LONE_PAIRS      STATIC     ATOMS    <user>   **** ""
10 64 65 66 67 68 69 70 71 72 73
DONOR_HYDROGENS      STATIC     ATOMS    <user>   **** ""
2 31 55
ATOM$BLUE        STATIC     ATOMS    COLORGROUP SYSTEM
10 64 65 66 67 68 69 70 71 72 73
ATOM$RED        STATIC     ATOMS    COLORGROUP SYSTEM
2 31 55
