AV-unprocessed.smi:501|AV-procd|sdf|2742|dock3
  -GOLD-   2262023203D 1   1.00000     0.00000
 Structure written by MMmdl.
 45 47  0  0  0  0  0  0  0  0  1 V2000
  146.6651  138.8080  152.8272 C   0  0  0  0  0  0  0  0  0  0  0  0
  147.7272  139.5337  153.6273 C   0  0  0  0  0  0  0  0  0  0  0  0
  147.5602  140.8961  153.9446 C   0  0  0  0  0  0  0  0  0  0  0  0
  148.5451  141.5698  154.6897 C   0  0  0  0  0  0  0  0  0  0  0  0
  149.6961  140.8825  155.1193 C   0  0  0  0  0  0  0  0  0  0  0  0
  149.8780  139.5181  154.8141 C   0  0  0  0  0  0  0  0  0  0  0  0
  151.0318  138.9232  155.2779 O   0  0  0  0  0  0  0  0  0  0  0  0
  151.8508  139.6558  156.1778 C   0  0  0  0  0  0  0  0  0  0  0  0
  151.7717  138.9938  157.5584 C   0  0  0  0  0  0  0  0  0  0  0  0
  152.4146  139.8024  158.5848 N   0  0  0  0  0  0  0  0  0  0  0  0
  153.2450  139.4170  159.5903 C   0  0  0  0  0  0  0  0  0  0  0  0
  153.6762  137.9961  159.8090 C   0  0  0  0  0  0  0  0  0  0  0  0
  153.4456  137.5214  161.2536 C   0  0  0  0  0  0  0  0  0  0  0  0
  154.6078  136.8153  161.7803 N   0  0  0  0  0  0  0  0  0  0  0  0
  155.0908  135.6629  161.2950 C   0  0  0  0  0  0  0  0  0  0  0  0
  154.6145  135.0571  160.3364 O   0  0  0  0  0  0  0  0  0  0  0  0
  153.6864  140.3964  160.3810 N   0  0  0  0  0  0  0  0  0  0  0  0
  153.0905  141.5191  159.8430 C   0  0  0  0  0  0  0  0  0  0  0  0
  153.1650  142.8750  160.2342 C   0  0  0  0  0  0  0  0  0  0  0  0
  152.4606  143.8642  159.5169 C   0  0  0  0  0  0  0  0  0  0  0  0
  151.6743  143.5124  158.4008 C   0  0  0  0  0  0  0  0  0  0  0  0
  151.5861  142.1666  157.9954 C   0  0  0  0  0  0  0  0  0  0  0  0
  152.2898  141.1826  158.7158 C   0  0  0  0  0  0  0  0  0  0  0  0
  148.8806  138.8472  154.0611 C   0  0  0  0  0  0  0  0  0  0  0  0
  146.1949  139.4802  152.1088 H   0  0  0  0  0  0  0  0  0  0  0  0
  145.8928  138.4208  153.4920 H   0  0  0  0  0  0  0  0  0  0  0  0
  147.0944  137.9716  152.2748 H   0  0  0  0  0  0  0  0  0  0  0  0
  146.6777  141.4272  153.6186 H   0  0  0  0  0  0  0  0  0  0  0  0
  148.4178  142.6142  154.9332 H   0  0  0  0  0  0  0  0  0  0  0  0
  150.4467  141.4079  155.6912 H   0  0  0  0  0  0  0  0  0  0  0  0
  152.8819  139.6609  155.8255 H   0  0  0  0  0  0  0  0  0  0  0  0
  151.5067  140.6892  156.2439 H   0  0  0  0  0  0  0  0  0  0  0  0
  150.7271  138.8536  157.8380 H   0  0  0  0  0  0  0  0  0  0  0  0
  152.2056  137.9961  157.5361 H   0  0  0  0  0  0  0  0  0  0  0  0
  153.1076  137.3657  159.1240 H   0  0  0  0  0  0  0  0  0  0  0  0
  154.7184  137.8601  159.5284 H   0  0  0  0  0  0  0  0  0  0  0  0
  153.2499  138.3735  161.9027 H   0  0  0  0  0  0  0  0  0  0  0  0
  152.5620  136.8832  161.3094 H   0  0  0  0  0  0  0  0  0  0  0  0
  155.0755  137.2302  162.5733 H   0  0  0  0  0  0  0  0  0  0  0  0
  155.9698  135.3329  161.8699 H   0  0  0  0  0  0  0  0  0  0  0  0
  153.7660  143.1542  161.0869 H   0  0  0  0  0  0  0  0  0  0  0  0
  152.5246  144.8978  159.8241 H   0  0  0  0  0  0  0  0  0  0  0  0
  151.1387  144.2760  157.8559 H   0  0  0  0  0  0  0  0  0  0  0  0
  150.9852  141.8948  157.1403 H   0  0  0  0  0  0  0  0  0  0  0  0
  148.9803  137.8036  153.8042 H   0  0  0  0  0  0  0  0  0  0  0  0
  1  2  1  0  0  0  0
  1 25  1  0  0  0  0
  1 26  1  0  0  0  0
  1 27  1  0  0  0  0
  2 24  1  0  0  0  0
  2  3  2  0  0  0  0
  3  4  1  0  0  0  0
  3 28  1  0  0  0  0
  4  5  2  0  0  0  0
  4 29  1  0  0  0  0
  5  6  1  0  0  0  0
  5 30  1  0  0  0  0
  6  7  1  0  0  0  0
  6 24  2  0  0  0  0
  7  8  1  0  0  0  0
  8  9  1  0  0  0  0
  8 31  1  0  0  0  0
  8 32  1  0  0  0  0
  9 10  1  0  0  0  0
  9 33  1  0  0  0  0
  9 34  1  0  0  0  0
 10 23  1  0  0  0  0
 10 11  1  0  0  0  0
 11 12  1  0  0  0  0
 11 17  2  0  0  0  0
 12 13  1  0  0  0  0
 12 35  1  0  0  0  0
 12 36  1  0  0  0  0
 13 14  1  0  0  0  0
 13 37  1  0  0  0  0
 13 38  1  0  0  0  0
 14 15  1  0  0  0  0
 14 39  1  0  0  0  0
 15 16  2  0  0  0  0
 15 40  1  0  0  0  0
 17 18  1  0  0  0  0
 18 23  2  0  0  0  0
 18 19  1  0  0  0  0
 19 20  2  0  0  0  0
 19 41  1  0  0  0  0
 20 21  1  0  0  0  0
 20 42  1  0  0  0  0
 21 22  2  0  0  0  0
 21 43  1  0  0  0  0
 22 23  1  0  0  0  0
 22 44  1  0  0  0  0
 24 45  1  0  0  0  0
M  END
> <s_m_source_file>
AV-unprocessed.smi

> <i_m_source_file_index>
501

> <i_lp_mmshare_version>
43012

> <i_f3d_flags>
0

> <s_epik_input>
W0NIM11jMVtjSF1bY0hdW2NIXWMoW2NIXTEpT1tDSDJdW0NIMl1uKGMobjIpW0NIMl1bQ0gyXVtOSF1bQ0hdPU8pYyhjMjMpW2NIXVtjSF1bY0hdW2NIXTM=

> <s_epik_cmdline>
J2VwaWtfcHl0aG9uJywgJy1waCcsICc3LjAnLCAnLXRuJywgJzgnLCAnLW1hJywgJzIwMCcsICctbWV0YWxfYmluZGluZycsICctaW1hZScsICc8aW5maWxlLm1hZT4nLCAnLW9tYWUnLCAnPG91dGZpbGUubWFlPic=

> <r_lp_tautomer_probability>
1

> <r_epik_Ionization_Penalty>
0.092246

> <r_epik_Ionization_Penalty_Charging>
0

> <r_epik_Ionization_Penalty_Neutral>
0.092246

> <r_epik_State_Penalty>
0.0825475

> <r_epik_Charging_Adjusted_Penalty>
0.0825475

> <i_epik_Tot_Q>
0

> <i_epik_Tot_abs_Q>
0

> <r_epik_Metal_State_Penalty>
0.0713424

> <b_epik_Metal_Only>
0

> <s_lp_Force_Field>
OPLS_2005

> <r_lp_Energy>
15.5248

> <b_lp_Chiralities_Consistent>
1

> <s_lp_Variant>
AV-unprocessed.smi:501-1

> <Gold.Version>
5.8.1

> <Gold.Id.Protein>
6NUR|6NUR_protein|mol2

> <Gold.PLP.Fitness>
47.4762

> <Gold.PLP.PLP>
-48.2873

> <Gold.PLP.part.hbond>
-1.0000

> <Gold.PLP.part.metal>
0.0000

> <Gold.PLP.part.buried>
-1.2367

> <Gold.PLP.part.nonpolar>
-45.4895

> <Gold.PLP.part.repulsive>
0.0816

> <Gold.PLP.ligand.clash>
1.9474

> <Gold.PLP.ligand.torsion>
1.0597

> <Gold.PLP.Chemscore.Hbond>
1.0000

> <Gold.PLP.Chemscore.CHOScore>
0.0000

> <Gold.PLP.Chemscore.Metal>
0.0000

> <Gold.Chemscore.Hbonds>
donor molecule, donor type, donor heavy atom, donor atom, acceptor molecule, acceptor atom, score
      P1  H  6896  6907       L1    16  0.65

> <Gold.PLP.Chemscore.Internal.Correction>
0.2557

> <Gold.Rescore>
     Score         DG    S(hbond)    S(metal)    S(lipo)     H(rot)  DE(clash)    DE(int)     intcor
     16.86     -18.10       1.00        0.00     136.51       2.61       0.25       0.98       ----

> <Gold.Chemscore.Fitness>
16.8629

> <Gold.Chemscore.DG>
-18.0973

> <Gold.Chemscore.ZeroCoef>
-5.4800

> <Gold.Chemscore.Hbond>
0.9978

> <Gold.Chemscore.Metal>
0.0000

> <Gold.Chemscore.Lipo>
136.5105

> <Gold.Chemscore.Internal_Hbond>
0.0000

> <Gold.Chemscore.DEClash>
0.2532

> <Gold.Chemscore.DEInternal>
0.9812

> <Gold.Chemscore.Rot>
2.6122

> <Gold.Chemscore.Internal.Correction>
   9.000000E+99

> <Gold.Chemscore.Hbonds>
donor molecule, donor type, donor heavy atom, donor atom, acceptor molecule, acceptor atom, score
      P1  H  6896  6907       L1    16  0.65

> <Gold.Chemscore.Hbond.Weighted>
-3.3327

> <Gold.Chemscore.Metal.Weighted>
-0.0000

> <Gold.Chemscore.Lipo.Weighted>
-15.9717

> <Gold.Chemscore.Internal_Hbond.Weighted>
0.0000

> <Gold.Chemscore.DEClash.Weighted>
0.2532

> <Gold.Chemscore.DEInternal.Weighted>
0.9812

> <Gold.Chemscore.Rot.Weighted>
6.6872

> <Gold.Chemscore.Internal.Correction.Weighted>
   9.000000E+99

> <Gold.Protein.RotatedTorsions>
[ 6907 6896 6895 6894 ] final   71.72 input  -60.11 | X-H torsion
[ 7974 7965 7964 7962 ] final  -79.63 input  175.53 | X-H torsion
[ 8008 7997 7996 7995 ] final -121.18 input   59.86 | X-H torsion
[ 10167 10162 10161 10158 ] final   83.66 input  -65.29 | X-H torsion
[ 10718 10713 10712 10709 ] final -156.81 input   66.30 | X-H torsion
[ 10763 10752 10751 10750 ] final  159.12 input  -60.55 | X-H torsion
[ 11005 11000 10999 10996 ] final   40.37 input  -57.11 | X-H torsion

> <Gold.Protein.ActiveResidues>
 VAL166  LYS551  ARG553  GLY616  TRP617  ASP618  TYR619  PRO620  LYS621  CYS622 
 ASP623  PHE694  ASN695  SER759  ASP760  ASP761  ALA762  ILE779  LEU786  VAL792 
 PHE793  MET794  SER795  GLU796  ALA797  LYS798  CYS799  TRP800  GLU811  SER814 

> <Gold.Protein.RotatedAtoms>
  152.4826  134.4679  159.9625 H   0  0  0  0  0  0  0  0  0  0  0  0  # atno 6907 bound_to 6896
  151.4681  133.3570  159.2827 H   0  0  0  0  0  0  0  0  0  0  0  0  # atno 6908 bound_to 6896
  150.8911  134.8340  159.7354 H   0  0  0  0  0  0  0  0  0  0  0  0  # atno 6909 bound_to 6896
  145.5706  140.9466  143.1397 H   0  0  0  0  0  0  0  0  0  0  0  0  # atno 7974 bound_to 7965
  155.1439  140.0402  157.2805 H   0  0  0  0  0  0  0  0  0  0  0  0  # atno 8008 bound_to 7997
  154.6453  140.2556  155.7249 H   0  0  0  0  0  0  0  0  0  0  0  0  # atno 8009 bound_to 7997
  156.2552  140.2847  156.0864 H   0  0  0  0  0  0  0  0  0  0  0  0  # atno 8010 bound_to 7997
  139.9161  144.6242  150.8488 H   0  0  0  0  0  0  0  0  0  0  0  0  # atno 10167 bound_to 10162
  156.5317  130.8523  151.2718 H   0  0  0  0  0  0  0  0  0  0  0  0  # atno 10718 bound_to 10713
  154.2268  135.2780  155.2904 H   0  0  0  0  0  0  0  0  0  0  0  0  # atno 10763 bound_to 10752
  154.5656  135.5634  153.7051 H   0  0  0  0  0  0  0  0  0  0  0  0  # atno 10764 bound_to 10752
  153.0029  135.6309  154.2409 H   0  0  0  0  0  0  0  0  0  0  0  0  # atno 10765 bound_to 10752
  140.1938  134.3954  155.8132 H   0  0  0  0  0  0  0  0  0  0  0  0  # atno 11005 bound_to 11000
  144.7439  139.7372  143.7300 LP  0  0  0  0  0  0  0  0  0  0  0  0  # atno 17320 bound_to 7965
  146.1787  139.4969  142.9881 LP  0  0  0  0  0  0  0  0  0  0  0  0  # atno 17321 bound_to 7965
  140.7674  143.3331  151.2368 LP  0  0  0  0  0  0  0  0  0  0  0  0  # atno 17342 bound_to 10162
  139.6901  143.9706  152.2855 LP  0  0  0  0  0  0  0  0  0  0  0  0  # atno 17343 bound_to 10162
  157.7420  130.9882  150.2489 LP  0  0  0  0  0  0  0  0  0  0  0  0  # atno 17370 bound_to 10713
  156.3054  130.3764  149.7711 LP  0  0  0  0  0  0  0  0  0  0  0  0  # atno 17371 bound_to 10713
  141.2227  133.7059  156.8140 LP  0  0  0  0  0  0  0  0  0  0  0  0  # atno 17394 bound_to 11000
  140.2130  134.8813  157.3295 LP  0  0  0  0  0  0  0  0  0  0  0  0  # atno 17395 bound_to 11000

$$$$
