AV-unprocessed.smi:912|AV-procd|sdf|4141|dock4
  -GOLD-   22720 2 43D 1   1.00000     0.00000
 Structure written by MMmdl.
 26 26  0  0  0  0  0  0  0  0  1 V2000
  145.9297  137.6042  152.0079 C   0  0  0  0  0  0  0  0  0  0  0  0
  146.0768  136.2277  151.5416 N   0  0  0  0  0  0  0  0  0  0  0  0
  145.3317  135.1573  152.2276 C   0  0  2  0  0  0  0  0  0  0  0  0
  143.9590  135.7755  152.5985 C   0  0  0  0  0  0  0  0  0  0  0  0
  146.0854  134.6634  153.4933 C   0  0  0  0  0  0  0  0  0  0  0  0
  147.2965  135.1802  153.7305 N   0  0  0  0  0  0  0  0  0  0  0  0
  145.5848  133.8344  154.2521 O   0  0  0  0  0  0  0  0  0  0  0  0
  145.1031  133.9412  151.3059 C   0  0  0  0  0  0  0  0  0  0  0  0
  146.1693  133.1427  150.8198 C   0  0  0  0  0  0  0  0  0  0  0  0
  145.8781  132.0480  149.9816 C   0  0  0  0  0  0  0  0  0  0  0  0
  144.6272  131.7060  149.6114 N   0  0  0  0  0  0  0  0  0  0  0  0
  143.6095  132.4603  150.0738 C   0  0  0  0  0  0  0  0  0  0  0  0
  143.7923  133.5761  150.9138 C   0  0  0  0  0  0  0  0  0  0  0  0
  146.4025  138.2761  151.2919 H   0  0  0  0  0  0  0  0  0  0  0  0
  146.4191  137.7620  152.9692 H   0  0  0  0  0  0  0  0  0  0  0  0
  144.8843  137.8992  152.0948 H   0  0  0  0  0  0  0  0  0  0  0  0
  147.0476  135.9726  151.4310 H   0  0  0  0  0  0  0  0  0  0  0  0
  143.3153  135.0656  153.1184 H   0  0  0  0  0  0  0  0  0  0  0  0
  143.4218  136.0991  151.7060 H   0  0  0  0  0  0  0  0  0  0  0  0
  144.0533  136.6435  153.2513 H   0  0  0  0  0  0  0  0  0  0  0  0
  147.8162  134.8888  154.5456 H   0  0  0  0  0  0  0  0  0  0  0  0
  147.6834  135.8635  153.0958 H   0  0  0  0  0  0  0  0  0  0  0  0
  147.2000  133.3450  151.0682 H   0  0  0  0  0  0  0  0  0  0  0  0
  146.6751  131.4278  149.5990 H   0  0  0  0  0  0  0  0  0  0  0  0
  142.6171  132.1646  149.7674 H   0  0  0  0  0  0  0  0  0  0  0  0
  142.9328  134.1347  151.2538 H   0  0  0  0  0  0  0  0  0  0  0  0
  1  2  1  0  0  0  0
  1 14  1  0  0  0  0
  1 15  1  0  0  0  0
  1 16  1  0  0  0  0
  2  3  1  0  0  0  0
  2 17  1  0  0  0  0
  3  4  1  0  0  0  0
  3  5  1  0  0  0  0
  3  8  1  0  0  0  0
  4 18  1  0  0  0  0
  4 19  1  0  0  0  0
  4 20  1  0  0  0  0
  5  6  1  0  0  0  0
  5  7  2  0  0  0  0
  6 21  1  0  0  0  0
  6 22  1  0  0  0  0
  8 13  1  0  0  0  0
  8  9  2  0  0  0  0
  9 10  1  0  0  0  0
  9 23  1  0  0  0  0
 10 11  2  0  0  0  0
 10 24  1  0  0  0  0
 11 12  1  0  0  0  0
 12 13  2  0  0  0  0
 12 25  1  0  0  0  0
 13 26  1  0  0  0  0
M  END
> <s_m_source_file>
AV-unprocessed.smi

> <i_m_source_file_index>
912

> <i_lp_mmshare_version>
43012

> <i_f3d_flags>
0

> <s_epik_input>
W0NIM11bTkhdW0NAQF0oW0NIM10pKEMoPU8pW05IMl0pYzFbY0hdW2NIXW5bY0hdW2NIXTE=

> <s_epik_cmdline>
J2VwaWtfcHl0aG9uJywgJy1waCcsICc3LjAnLCAnLXRuJywgJzgnLCAnLW1hJywgJzIwMCcsICctbWV0YWxfYmluZGluZycsICctaW1hZScsICc8aW5maWxlLm1hZT4nLCAnLW9tYWUnLCAnPG91dGZpbGUubWFlPic=

> <r_epik_Ionization_Penalty>
0.458428

> <r_epik_Ionization_Penalty_Charging>
0

> <r_epik_Ionization_Penalty_Neutral>
0.458428

> <r_epik_State_Penalty>
0.443707

> <r_epik_Charging_Adjusted_Penalty>
0.443707

> <i_epik_Tot_Q>
0

> <i_epik_Tot_abs_Q>
0

> <r_epik_Metal_State_Penalty>
0.312856

> <b_epik_Metal_Only>
0

> <s_lp_Force_Field>
OPLS_2005

> <r_lp_Energy>
10.5143

> <b_lp_Chiralities_Consistent>
1

> <s_lp_Variant>
AV-unprocessed.smi:912-2

> <Gold.Version>
5.8.1

> <Gold.Id.Protein>
6NUR|6NUR_protein|mol2

> <Gold.PLP.Fitness>
34.4817

> <Gold.PLP.PLP>
-22.0340

> <Gold.PLP.part.hbond>
-3.0000

> <Gold.PLP.part.metal>
0.0000

> <Gold.PLP.part.buried>
-2.2311

> <Gold.PLP.part.nonpolar>
-18.5446

> <Gold.PLP.part.repulsive>
0.2387

> <Gold.PLP.ligand.clash>
0.0000

> <Gold.PLP.ligand.torsion>
0.4402

> <Gold.PLP.Chemscore.Hbond>
2.1475

> <Gold.PLP.Chemscore.CHOScore>
2.2863

> <Gold.PLP.Chemscore.Metal>
0.0000

> <Gold.Chemscore.Hbonds>
donor molecule, donor type, donor heavy atom, donor atom, acceptor molecule, acceptor atom, score
      L1  H     2    17       P1  7948  1.00
      L1  H     6    22       P1  7948  0.91
      P1  H 10785 10796       L1    11  0.11
      L1  C    10    24       P1 10747  1.00
      L1  C    12    25       P1 10186  0.24
      L1  C    12    25       P1 10952  0.93

> <Gold.PLP.Chemscore.Internal.Correction>
0.0269

> <Gold.Rescore>
     Score         DG    S(hbond)    S(metal)    S(lipo)     H(rot)  DE(clash)    DE(int)     intcor
     14.91     -15.78       2.54        0.00      54.15       1.77       0.13       0.74       ----

> <Gold.Chemscore.Fitness>
14.9072

> <Gold.Chemscore.DG>
-15.7795

> <Gold.Chemscore.ZeroCoef>
-5.4800

> <Gold.Chemscore.Hbond>
2.5443

> <Gold.Chemscore.Metal>
0.0000

> <Gold.Chemscore.Lipo>
54.1528

> <Gold.Chemscore.Internal_Hbond>
0.0000

> <Gold.Chemscore.DEClash>
0.1287

> <Gold.Chemscore.DEInternal>
0.7435

> <Gold.Chemscore.Rot>
1.7712

> <Gold.Chemscore.Internal.Correction>
   9.000000E+99

> <Gold.Chemscore.Hbonds>
donor molecule, donor type, donor heavy atom, donor atom, acceptor molecule, acceptor atom, score
      L1  H     2    17       P1  7948  0.96
      L1  H     6    22       P1  7948  0.90
      P1  H 10785 10796       L1    11  0.01

> <Gold.Chemscore.Hbond.Weighted>
-8.4980

> <Gold.Chemscore.Metal.Weighted>
-0.0000

> <Gold.Chemscore.Lipo.Weighted>
-6.3359

> <Gold.Chemscore.Internal_Hbond.Weighted>
0.0000

> <Gold.Chemscore.DEClash.Weighted>
0.1287

> <Gold.Chemscore.DEInternal.Weighted>
0.7435

> <Gold.Chemscore.Rot.Weighted>
4.5343

> <Gold.Chemscore.Internal.Correction.Weighted>
   9.000000E+99

> <Gold.Protein.RotatedTorsions>
[ 6907 6896 6895 6894 ] final  120.60 input  -60.11 | X-H torsion
[ 7974 7965 7964 7962 ] final    2.15 input  175.53 | X-H torsion
[ 8008 7997 7996 7995 ] final  120.84 input   59.86 | X-H torsion
[ 10167 10162 10161 10158 ] final   69.41 input  -65.29 | X-H torsion
[ 10718 10713 10712 10709 ] final  134.80 input   66.30 | X-H torsion
[ 10763 10752 10751 10750 ] final   69.21 input  -60.55 | X-H torsion
[ 11005 11000 10999 10996 ] final   89.63 input  -57.11 | X-H torsion

> <Gold.Protein.ActiveResidues>
 VAL166  LYS551  ARG553  GLY616  TRP617  ASP618  TYR619  PRO620  LYS621  CYS622 
 ASP623  PHE694  ASN695  SER759  ASP760  ASP761  ALA762  ILE779  LEU786  VAL792 
 PHE793  MET794  SER795  GLU796  ALA797  LYS798  CYS799  TRP800  GLU811  SER814 

> <Gold.Protein.RotatedAtoms>
  152.4385  133.7405  159.6638 H   0  0  0  0  0  0  0  0  0  0  0  0  # atno 6907 bound_to 6896
  150.8273  133.8140  159.3119 H   0  0  0  0  0  0  0  0  0  0  0  0  # atno 6908 bound_to 6896
  151.5805  135.1061  160.0068 H   0  0  0  0  0  0  0  0  0  0  0  0  # atno 6909 bound_to 6896
  146.2443  140.0880  142.8353 H   0  0  0  0  0  0  0  0  0  0  0  0  # atno 7974 bound_to 7965
  156.2661  140.2821  156.1214 H   0  0  0  0  0  0  0  0  0  0  0  0  # atno 8008 bound_to 7997
  155.1151  140.0391  157.2752 H   0  0  0  0  0  0  0  0  0  0  0  0  # atno 8009 bound_to 7997
  154.6713  140.2588  155.7011 H   0  0  0  0  0  0  0  0  0  0  0  0  # atno 8010 bound_to 7997
  140.0681  144.5176  150.7247 H   0  0  0  0  0  0  0  0  0  0  0  0  # atno 10167 bound_to 10162
  157.4636  131.1075  150.9889 H   0  0  0  0  0  0  0  0  0  0  0  0  # atno 10718 bound_to 10713
  153.0275  135.5219  154.7254 H   0  0  0  0  0  0  0  0  0  0  0  0  # atno 10763 bound_to 10752
  154.6297  135.2899  155.0233 H   0  0  0  0  0  0  0  0  0  0  0  0  # atno 10764 bound_to 10752
  154.1189  135.6610  153.4952 H   0  0  0  0  0  0  0  0  0  0  0  0  # atno 10765 bound_to 10752
  139.8871  134.8564  156.3170 H   0  0  0  0  0  0  0  0  0  0  0  0  # atno 11005 bound_to 11000
  145.0675  140.9132  143.4901 LP  0  0  0  0  0  0  0  0  0  0  0  0  # atno 17320 bound_to 7965
  145.1007  139.2824  143.5687 LP  0  0  0  0  0  0  0  0  0  0  0  0  # atno 17321 bound_to 7965
  140.7139  143.2528  151.4495 LP  0  0  0  0  0  0  0  0  0  0  0  0  # atno 17342 bound_to 10162
  139.5853  144.1619  152.2020 LP  0  0  0  0  0  0  0  0  0  0  0  0  # atno 17343 bound_to 10162
  157.0678  130.5852  149.5397 LP  0  0  0  0  0  0  0  0  0  0  0  0  # atno 17370 bound_to 10713
  156.0040  130.5124  150.7765 LP  0  0  0  0  0  0  0  0  0  0  0  0  # atno 17371 bound_to 10713
  140.9812  133.7266  156.0675 LP  0  0  0  0  0  0  0  0  0  0  0  0  # atno 17394 bound_to 11000
  140.7747  134.3793  157.5500 LP  0  0  0  0  0  0  0  0  0  0  0  0  # atno 17395 bound_to 11000

$$$$
