#       Name:                AV-unprocessed.smi:3135
#       Creating user name   scv26
#       Creation time:       Fri Mar 27 17:33:47 2020


#       File generated by GOLD software.
#

@<TRIPOS>MOLECULE
AV-unprocessed.smi:3135
    41    42     1
SMALL
NO_CHARGES


@<TRIPOS>ATOM
      1 ****        -4.5666  -2.7486   2.8609 C.3            1 S1                 0.0000
      2 ****        -4.1082  -1.4400   2.2845 C.2            1 S1                 0.0000
      3 ****        -3.9288  -0.2016   2.9640 C.2            1 S1                 0.0000
      4 ****        -3.5124   0.7675   2.1653 N.2            1 S1                 0.0000
      5 ****        -3.4104   0.1848   0.9513 N.pl3          1 S1                 0.0000
      6 ****        -2.9665   0.9637  -0.1923 C.3            1 S1                 0.0000
      7 ****        -1.4445   1.1338  -0.2173 C.2            1 S1                 0.0000
      8 ****        -0.9551   2.2614  -0.2790 O.2            1 S1                 0.0000
      9 ****        -0.7035   0.0136  -0.1862 N.am           1 S1                 0.0000
     10 ****         0.7541  -0.0195  -0.1873 C.3            1 S1                 0.0000
     11 ****         1.3229   0.2169  -1.5995 C.3            1 S1                 0.0000
     12 ****         2.8060   0.1605  -1.6468 N.4            1 S1                 1.0000
     13 ****         3.2925   0.0177  -3.0381 C.3            1 S1                 0.0000
     14 ****         3.4472   1.3090  -0.9613 C.3            1 S1                 0.0000
     15 ****         4.8945   1.0739  -0.5847 C.3            1 S1                 0.0000
     16 ****         3.8240   1.0412   0.4793 C.3            1 S1                 0.0000
     17 ****        -3.7678  -1.1465   0.9945 C.2            1 S1                 0.0000
     18 ****        -4.1566  -2.9164   3.8568 H              1 S1                 0.0000
     19 ****        -4.2615  -3.5932   2.2426 H              1 S1                 0.0000
     20 ****        -5.6524  -2.7896   2.9483 H              1 S1                 0.0000
     21 ****        -4.0883   0.0205   4.0090 H              1 S1                 0.0000
     22 ****        -3.2915   0.4681  -1.1078 H              1 S1                 0.0000
     23 ****        -3.4535   1.9402  -0.1660 H              1 S1                 0.0000
     24 ****        -1.1844  -0.8731  -0.1339 H              1 S1                 0.0000
     25 ****         1.1239   0.7244   0.5190 H              1 S1                 0.0000
     26 ****         1.0736  -0.9924   0.1871 H              1 S1                 0.0000
     27 ****         0.9168  -0.5493  -2.2619 H              1 S1                 0.0000
     28 ****         0.9884   1.1766  -1.9965 H              1 S1                 0.0000
     29 ****         3.0059   0.8805  -3.6409 H              1 S1                 0.0000
     30 ****         2.8778  -0.8773  -3.5031 H              1 S1                 0.0000
     31 ****         4.3783  -0.0730  -3.0701 H              1 S1                 0.0000
     32 ****         3.1286   2.2995  -1.2818 H              1 S1                 0.0000
     33 ****         5.3575   0.1257  -0.8522 H              1 S1                 0.0000
     34 ****         5.5608   1.9341  -0.5934 H              1 S1                 0.0000
     35 ****         3.7820   1.8795   1.1717 H              1 S1                 0.0000
     36 ****         3.5770   0.0717   0.9081 H              1 S1                 0.0000
     37 ****        -3.7490  -1.7697   0.1125 H              1 S1                 0.0000
     38 ****         3.0879  -0.6763  -1.1565 H              1 S1                 0.0000
     39 ****        -3.3170   1.7182   2.4065 LP             1 S1                 0.0000
     40 ****        -1.5508   3.0639  -0.3126 LP             1 S1                 0.0000
     41 ****         0.0383   2.3751  -0.2954 LP             1 S1                 0.0000
@<TRIPOS>BOND
    1    1    2 1     
    2    1   18 1     
    3    1   19 1     
    4    1   20 1     
    5    2   17 2     
    6    2    3 1     
    7    3    4 2     
    8    3   21 1     
    9    4    5 1     
   10    5    6 1     
   11    5   17 1     
   12    6    7 1     
   13    6   22 1     
   14    6   23 1     
   15    7    8 2     
   16    7    9 am    
   17    9   10 1     
   18    9   24 1     
   19   10   11 1     
   20   10   25 1     
   21   10   26 1     
   22   11   12 1     
   23   11   27 1     
   24   11   28 1     
   25   12   13 1     
   26   12   14 1     
   27   12   38 1     
   28   13   29 1     
   29   13   30 1     
   30   13   31 1     
   31   14   16 1     
   32   14   15 1     
   33   14   32 1     
   34   15   16 1     
   35   15   33 1     
   36   15   34 1     
   37   16   35 1     
   38   16   36 1     
   39   17   37 1     
   40    4   39 1     
   41    8   40 1     
   42    8   41 1     
@<TRIPOS>SUBSTRUCTURE
      1 S1             1
@<TRIPOS>SET
LONE_PAIRS      STATIC     ATOMS    <user>   **** ""
3 39 40 41
DONOR_HYDROGENS      STATIC     ATOMS    <user>   **** ""
2 24 38
ATOM$BLUE        STATIC     ATOMS    COLORGROUP SYSTEM
3 39 40 41
ATOM$RED        STATIC     ATOMS    COLORGROUP SYSTEM
2 24 38
