#       Name:                AV-unprocessed.smi:15
#       Creating user name   scv26
#       Creation time:       Thu Mar 26 15:22:05 2020


#       File generated by GOLD software.
#

@<TRIPOS>MOLECULE
AV-unprocessed.smi:15
    63    66     1
SMALL
NO_CHARGES


@<TRIPOS>ATOM
      1 ****        -2.5116  -3.2078  -1.5952 C.3            1 S1                 0.0000
      2 ****        -3.0063  -1.8749  -1.0110 C.3            1 S1                 0.0000
      3 ****        -2.1979  -0.7258  -1.4202 N.3            1 S1                 0.0000
      4 ****        -2.7422   0.6020  -1.1490 C.3            1 S1                 0.0000
      5 ****        -3.8315   1.0028  -2.1562 C.3            1 S1                 0.0000
      6 ****        -3.3227   1.1986  -3.5843 C.3            1 S1                 0.0000
      7 ****        -4.3095   2.1881  -4.1850 C.3            1 S1                 0.0000
      8 ****        -5.0678   2.7429  -2.9756 C.3            1 S1                 0.0000
      9 ****        -4.3438   2.2870  -1.8413 O.3            1 S1                 0.0000
     10 ****        -0.8857  -0.8058  -1.1097 C.ar           1 S1                 0.0000
     11 ****        -0.0022  -0.7691  -2.1370 N.ar           1 S1                 0.0000
     12 ****         1.3090  -0.8468  -1.8908 C.ar           1 S1                 0.0000
     13 ****         1.9335  -0.9577  -0.7160 N.ar           1 S1                 0.0000
     14 ****         1.0451  -0.9824   0.3191 C.ar           1 S1                 0.0000
     15 ****        -0.3722  -0.9118   0.2131 C.ar           1 S1                 0.0000
     16 ****        -0.9466  -0.9617   1.4772 N.2            1 S1                 0.0000
     17 ****         0.0738  -1.0623   2.2849 C.2            1 S1                 0.0000
     18 ****         1.3082  -1.0765   1.6746 N.pl3          1 S1                 0.0000
     19 ****         2.6036  -1.1786   2.3303 C.3            1 S1                 0.0000
     20 ****         3.1571   0.1858   2.8186 C.3            1 S1                 0.0000
     21 ****         2.2571   0.6959   3.7888 O.3            1 S1                 0.0000
     22 ****         3.2907   1.2264   1.7112 C.3            1 S1                 0.0000
     23 ****         4.4032   2.1272   2.2251 C.3            1 S1                 0.0000
     24 ****         5.3088   1.2017   2.8004 O.3            1 S1                 0.0000
     25 ****         4.5745   0.1705   3.4576 C.3            1 S1                 0.0000
     26 ****         5.3825  -1.1286   3.3119 C.3            1 S1                 0.0000
     27 ****        -3.1824  -4.0207  -1.3174 H              1 S1                 0.0000
     28 ****        -1.5171  -3.4672  -1.2310 H              1 S1                 0.0000
     29 ****        -2.4722  -3.1677  -2.6841 H              1 S1                 0.0000
     30 ****        -4.0340  -1.7158  -1.3356 H              1 S1                 0.0000
     31 ****        -3.0403  -1.9357   0.0768 H              1 S1                 0.0000
     32 ****        -3.1576   0.6104  -0.1405 H              1 S1                 0.0000
     33 ****        -1.9500   1.3533  -1.1601 H              1 S1                 0.0000
     34 ****        -4.6598   0.2926  -2.1441 H              1 S1                 0.0000
     35 ****        -2.3253   1.6403  -3.5720 H              1 S1                 0.0000
     36 ****        -3.2671   0.2620  -4.1401 H              1 S1                 0.0000
     37 ****        -3.7854   2.9759  -4.7271 H              1 S1                 0.0000
     38 ****        -4.9950   1.7012  -4.8794 H              1 S1                 0.0000
     39 ****        -5.1368   3.8308  -2.9868 H              1 S1                 0.0000
     40 ****        -6.0803   2.3380  -2.9402 H              1 S1                 0.0000
     41 ****         1.9499  -0.8161  -2.7597 H              1 S1                 0.0000
     42 ****        -0.0457  -1.1237   3.3570 H              1 S1                 0.0000
     43 ****         2.5066  -1.8715   3.1672 H              1 S1                 0.0000
     44 ****         3.2935  -1.6420   1.6249 H              1 S1                 0.0000
     45 ****         2.5844   1.5294   4.0909 H              1 S1                 0.0000
     46 ****         3.6247   0.7510   0.7883 H              1 S1                 0.0000
     47 ****         2.3661   1.7633   1.4937 H              1 S1                 0.0000
     48 ****         4.8732   2.7125   1.4346 H              1 S1                 0.0000
     49 ****         4.0353   2.8103   2.9922 H              1 S1                 0.0000
     50 ****         4.5188   0.4232   4.5182 H              1 S1                 0.0000
     51 ****         4.8860  -1.9655   3.8030 H              1 S1                 0.0000
     52 ****         6.3669  -1.0215   3.7680 H              1 S1                 0.0000
     53 ****         5.5359  -1.3882   2.2642 H              1 S1                 0.0000
     54 ****        -2.2640  -0.8182  -2.4138 LP             1 S1                 0.0000
     55 ****        -3.5923   2.9153  -1.6399 LP             1 S1                 0.0000
     56 ****        -4.9508   2.2284  -1.0488 LP             1 S1                 0.0000
     57 ****        -0.3310  -0.6840  -3.0776 LP             1 S1                 0.0000
     58 ****         2.9260  -1.0153  -0.6085 LP             1 S1                 0.0000
     59 ****        -1.9177  -0.9282   1.7136 LP             1 S1                 0.0000
     60 ****         2.1932   0.0596   4.5575 LP             1 S1                 0.0000
     61 ****         1.3526   0.8166   3.3798 LP             1 S1                 0.0000
     62 ****         5.8909   1.6721   3.4636 LP             1 S1                 0.0000
     63 ****         5.8781   0.8010   2.0825 LP             1 S1                 0.0000
@<TRIPOS>BOND
    1    1    2 1     
    2    1   27 1     
    3    1   28 1     
    4    1   29 1     
    5    2    3 1     
    6    2   30 1     
    7    2   31 1     
    8    3    4 1     
    9    3   10 1     
   10    4    5 1     
   11    4   32 1     
   12    4   33 1     
   13    5    9 1     
   14    5    6 1     
   15    5   34 1     
   16    6    7 1     
   17    6   35 1     
   18    6   36 1     
   19    7    8 1     
   20    7   37 1     
   21    7   38 1     
   22    8    9 1     
   23    8   39 1     
   24    8   40 1     
   25   10   15 ar    
   26   10   11 ar    
   27   11   12 ar    
   28   12   13 ar    
   29   12   41 1     
   30   13   14 ar    
   31   14   18 1     
   32   14   15 ar    
   33   15   16 1     
   34   16   17 2     
   35   17   18 1     
   36   17   42 1     
   37   18   19 1     
   38   19   20 1     
   39   19   43 1     
   40   19   44 1     
   41   20   25 1     
   42   20   21 1     
   43   20   22 1     
   44   21   45 1     
   45   22   23 1     
   46   22   46 1     
   47   22   47 1     
   48   23   24 1     
   49   23   48 1     
   50   23   49 1     
   51   24   25 1     
   52   25   26 1     
   53   25   50 1     
   54   26   51 1     
   55   26   52 1     
   56   26   53 1     
   57    3   54 1     
   58    9   55 1     
   59    9   56 1     
   60   11   57 1     
   61   13   58 1     
   62   16   59 1     
   63   21   60 1     
   64   21   61 1     
   65   24   62 1     
   66   24   63 1     
@<TRIPOS>SUBSTRUCTURE
      1 S1             1
@<TRIPOS>SET
LONE_PAIRS      STATIC     ATOMS    <user>   **** ""
10 54 55 56 57 58 59 60 61 62 63
DONOR_HYDROGENS      STATIC     ATOMS    <user>   **** ""
1 45
ATOM$BLUE        STATIC     ATOMS    COLORGROUP SYSTEM
10 54 55 56 57 58 59 60 61 62 63
ATOM$RED        STATIC     ATOMS    COLORGROUP SYSTEM
1 45
