AV-unprocessed.smi:16|AV-procd|sdf|95|dock4
  -GOLD-   2262015243D 1   1.00000     0.00000
 Structure written by MMmdl.
 59 63  0  0  0  0  0  0  0  0  1 V2000
  151.8227  137.6273  154.2416 C   0  0  0  0  0  0  0  0  0  0  0  0
  151.8896  139.0769  154.7475 C   0  0  0  0  0  0  0  0  0  0  0  0
  150.6696  139.4755  155.4485 N   0  0  0  0  0  0  0  0  0  0  0  0
  150.7753  140.8917  155.8080 C   0  0  0  0  0  0  0  0  0  0  0  0
  149.5583  141.3284  156.6411 C   0  0  0  0  0  0  0  0  0  0  0  0
  148.2446  141.0869  155.8875 C   0  0  1  0  0  0  0  0  0  0  0  0
  148.1457  141.9979  154.7950 O   0  0  0  0  0  0  0  0  0  0  0  0
  146.9136  141.8613  154.0957 C   0  0  0  0  0  0  0  0  0  0  0  0
  146.8052  140.4464  153.5058 C   0  0  0  0  0  0  0  0  0  0  0  0
  146.9936  139.4451  154.5554 N   0  0  0  0  0  0  0  0  0  0  0  0
  146.6490  138.1588  154.2802 C   0  0  0  0  0  0  0  0  0  0  0  0
  146.5830  137.2503  155.2909 N   0  0  0  0  0  0  0  0  0  0  0  0
  146.2406  135.9833  155.0431 C   0  0  0  0  0  0  0  0  0  0  0  0
  145.9295  135.4169  153.8766 N   0  0  0  0  0  0  0  0  0  0  0  0
  145.9957  136.3185  152.8558 C   0  0  0  0  0  0  0  0  0  0  0  0
  146.3487  137.6942  152.9668 C   0  0  0  0  0  0  0  0  0  0  0  0
  146.3393  138.2827  151.7071 N   0  0  0  0  0  0  0  0  0  0  0  0
  145.9947  137.3153  150.9020 C   0  0  0  0  0  0  0  0  0  0  0  0
  145.7450  136.1069  151.5110 N   0  0  0  0  0  0  0  0  0  0  0  0
  145.4064  134.8732  150.8638 C   0  0  0  0  0  0  0  0  0  0  0  0
  144.3539  133.9258  151.4498 C   0  0  0  0  0  0  0  0  0  0  0  0
  145.1378  132.7237  150.8732 C   0  0  0  0  0  0  0  0  0  0  0  0
  145.2117  131.4593  151.7513 C   0  0  0  0  0  0  0  0  0  0  0  0
  145.6458  131.7346  153.0680 O   0  0  0  0  0  0  0  0  0  0  0  0
  144.6679  132.2775  149.4751 C   0  0  0  0  0  0  0  0  0  0  0  0
  143.3378  131.8004  149.5006 O   0  0  0  0  0  0  0  0  0  0  0  0
  146.3581  133.6734  150.8919 C   0  0  0  0  0  0  0  0  0  0  0  0
  148.1972  139.6349  155.3690 C   0  0  1  0  0  0  0  0  0  0  0  0
  149.4909  139.2800  154.5985 C   0  0  0  0  0  0  0  0  0  0  0  0
  147.4115  141.2672  156.5694 H   0  0  0  0  0  0  0  0  0  0  0  0
  148.1474  138.9884  156.2435 H   0  0  0  0  0  0  0  0  0  0  0  0
  152.7901  137.3196  153.8451 H   0  0  0  0  0  0  0  0  0  0  0  0
  151.0950  137.5002  153.4409 H   0  0  0  0  0  0  0  0  0  0  0  0
  151.5645  136.9392  155.0471 H   0  0  0  0  0  0  0  0  0  0  0  0
  152.7309  139.1452  155.4386 H   0  0  0  0  0  0  0  0  0  0  0  0
  152.1030  139.7644  153.9277 H   0  0  0  0  0  0  0  0  0  0  0  0
  151.6804  141.0552  156.3943 H   0  0  0  0  0  0  0  0  0  0  0  0
  150.8621  141.5045  154.9093 H   0  0  0  0  0  0  0  0  0  0  0  0
  149.5458  140.7705  157.5783 H   0  0  0  0  0  0  0  0  0  0  0  0
  149.6461  142.3809  156.9115 H   0  0  0  0  0  0  0  0  0  0  0  0
  146.0777  142.0661  154.7665 H   0  0  0  0  0  0  0  0  0  0  0  0
  146.8716  142.6039  153.2991 H   0  0  0  0  0  0  0  0  0  0  0  0
  145.8258  140.3245  153.0410 H   0  0  0  0  0  0  0  0  0  0  0  0
  147.5520  140.3076  152.7232 H   0  0  0  0  0  0  0  0  0  0  0  0
  146.2116  135.3302  155.9026 H   0  0  0  0  0  0  0  0  0  0  0  0
  145.9140  137.4597  149.8344 H   0  0  0  0  0  0  0  0  0  0  0  0
  145.1552  135.1381  149.8354 H   0  0  0  0  0  0  0  0  0  0  0  0
  144.3326  133.9561  152.5404 H   0  0  0  0  0  0  0  0  0  0  0  0
  143.3522  134.0585  151.0400 H   0  0  0  0  0  0  0  0  0  0  0  0
  144.2373  130.9738  151.8154 H   0  0  0  0  0  0  0  0  0  0  0  0
  145.9005  130.7279  151.3278 H   0  0  0  0  0  0  0  0  0  0  0  0
  144.8938  131.7239  153.6401 H   0  0  0  0  0  0  0  0  0  0  0  0
  144.7315  133.0982  148.7598 H   0  0  0  0  0  0  0  0  0  0  0  0
  145.2981  131.4811  149.0792 H   0  0  0  0  0  0  0  0  0  0  0  0
  142.8360  132.3407  150.0917 H   0  0  0  0  0  0  0  0  0  0  0  0
  147.0136  133.6022  150.0235 H   0  0  0  0  0  0  0  0  0  0  0  0
  146.9353  133.6256  151.8168 H   0  0  0  0  0  0  0  0  0  0  0  0
  149.5843  139.8837  153.6947 H   0  0  0  0  0  0  0  0  0  0  0  0
  149.4315  138.2402  154.2799 H   0  0  0  0  0  0  0  0  0  0  0  0
  1  2  1  0  0  0  0
  1 32  1  0  0  0  0
  1 33  1  0  0  0  0
  1 34  1  0  0  0  0
  2  3  1  0  0  0  0
  2 35  1  0  0  0  0
  2 36  1  0  0  0  0
  3 29  1  0  0  0  0
  3  4  1  0  0  0  0
  4  5  1  0  0  0  0
  4 37  1  0  0  0  0
  4 38  1  0  0  0  0
  5  6  1  0  0  0  0
  5 39  1  0  0  0  0
  5 40  1  0  0  0  0
  6 30  1  0  0  0  0
  6 28  1  0  0  0  0
  6  7  1  0  0  0  0
  7  8  1  0  0  0  0
  8  9  1  0  0  0  0
  8 41  1  0  0  0  0
  8 42  1  0  0  0  0
  9 10  1  0  0  0  0
  9 43  1  0  0  0  0
  9 44  1  0  0  0  0
 10 11  1  0  0  0  0
 10 28  1  0  0  0  0
 11 16  1  0  0  0  0
 11 12  2  0  0  0  0
 12 13  1  0  0  0  0
 13 14  2  0  0  0  0
 13 45  1  0  0  0  0
 14 15  1  0  0  0  0
 15 19  1  0  0  0  0
 15 16  2  0  0  0  0
 16 17  1  0  0  0  0
 17 18  2  0  0  0  0
 18 19  1  0  0  0  0
 18 46  1  0  0  0  0
 19 20  1  0  0  0  0
 20 27  1  0  0  0  0
 20 21  1  0  0  0  0
 20 47  1  0  0  0  0
 21 22  1  0  0  0  0
 21 48  1  0  0  0  0
 21 49  1  0  0  0  0
 22 23  1  0  0  0  0
 22 25  1  0  0  0  0
 22 27  1  0  0  0  0
 23 24  1  0  0  0  0
 23 50  1  0  0  0  0
 23 51  1  0  0  0  0
 24 52  1  0  0  0  0
 25 26  1  0  0  0  0
 25 53  1  0  0  0  0
 25 54  1  0  0  0  0
 26 55  1  0  0  0  0
 27 56  1  0  0  0  0
 27 57  1  0  0  0  0
 28 31  1  0  0  0  0
 28 29  1  0  0  0  0
 29 58  1  0  0  0  0
 29 59  1  0  0  0  0
M  END
> <s_m_source_file>
AV-unprocessed.smi

> <i_m_source_file_index>
16

> <i_lp_mmshare_version>
43012

> <i_f3d_flags>
0

> <s_epik_input>
W0NIM11bQ0gyXU4oW0NIMl1bQ0gyXTEpW0NIMl1bQ0BASF0oW0NAQEhdMTIpTihbQ0gyXVtDSDJdTzIpYyhuW2NIXW4zKWMoYzM0KW5bY0hdbjRbQ0hdKFtDSDJdNSlbQ0gyXUM1KFtDSDJdW09IXSlbQ0gyXVtPSF0=

> <s_epik_cmdline>
J2VwaWtfcHl0aG9uJywgJy1waCcsICc3LjAnLCAnLXRuJywgJzgnLCAnLW1hJywgJzIwMCcsICctbWV0YWxfYmluZGluZycsICctaW1hZScsICc8aW5maWxlLm1hZT4nLCAnLW9tYWUnLCAnPG91dGZpbGUubWFlPic=

> <r_lp_tautomer_probability>
1

> <r_epik_Ionization_Penalty>
2.27341

> <r_epik_Ionization_Penalty_Charging>
0

> <r_epik_Ionization_Penalty_Neutral>
2.27341

> <r_epik_State_Penalty>
2.41121

> <r_epik_Charging_Adjusted_Penalty>
2.41121

> <i_epik_Tot_Q>
0

> <i_epik_Tot_abs_Q>
0

> <r_epik_Metal_State_Penalty>
2.40177

> <b_epik_Metal_Only>
0

> <s_lp_Force_Field>
OPLS_2005

> <r_lp_Energy>
57.2914

> <b_lp_Chiralities_Consistent>
1

> <s_lp_Variant>
AV-unprocessed.smi:16-9

> <Gold.Version>
5.8.1

> <Gold.Id.Protein>
6NUR|6NUR_protein|mol2

> <Gold.PLP.Fitness>
48.8309

> <Gold.PLP.PLP>
-43.4140

> <Gold.PLP.part.hbond>
-4.1117

> <Gold.PLP.part.metal>
0.0000

> <Gold.PLP.part.buried>
-3.1793

> <Gold.PLP.part.nonpolar>
-42.4045

> <Gold.PLP.part.repulsive>
3.3475

> <Gold.PLP.ligand.clash>
0.0000

> <Gold.PLP.ligand.torsion>
0.6455

> <Gold.PLP.Chemscore.Hbond>
1.7124

> <Gold.PLP.Chemscore.CHOScore>
0.2086

> <Gold.PLP.Chemscore.Metal>
0.0000

> <Gold.Chemscore.Hbonds>
donor molecule, donor type, donor heavy atom, donor atom, acceptor molecule, acceptor atom, score
      P1  H 10785 10796       L1    26  1.00
      L1  C    18    46       P1 10171  0.39

> <Gold.PLP.Chemscore.Internal.Correction>
0.9450

> <Gold.Rescore>
     Score         DG    S(hbond)    S(metal)    S(lipo)     H(rot)  DE(clash)    DE(int)     intcor
      7.12     -12.11       0.96        0.00     101.07       3.28       2.77       2.23       ----

> <Gold.Chemscore.Fitness>
7.1196

> <Gold.Chemscore.DG>
-12.1145

> <Gold.Chemscore.ZeroCoef>
-5.4800

> <Gold.Chemscore.Hbond>
0.9581

> <Gold.Chemscore.Metal>
0.0000

> <Gold.Chemscore.Lipo>
101.0696

> <Gold.Chemscore.Internal_Hbond>
0.0000

> <Gold.Chemscore.DEClash>
2.7656

> <Gold.Chemscore.DEInternal>
2.2294

> <Gold.Chemscore.Rot>
3.2776

> <Gold.Chemscore.Internal.Correction>
   9.000000E+99

> <Gold.Chemscore.Hbonds>
donor molecule, donor type, donor heavy atom, donor atom, acceptor molecule, acceptor atom, score
      P1  H 10785 10796       L1    26  0.81

> <Gold.Chemscore.Hbond.Weighted>
-3.2001

> <Gold.Chemscore.Metal.Weighted>
-0.0000

> <Gold.Chemscore.Lipo.Weighted>
-11.8251

> <Gold.Chemscore.Internal_Hbond.Weighted>
0.0000

> <Gold.Chemscore.DEClash.Weighted>
2.7656

> <Gold.Chemscore.DEInternal.Weighted>
2.2294

> <Gold.Chemscore.Rot.Weighted>
8.3907

> <Gold.Chemscore.Internal.Correction.Weighted>
   9.000000E+99

> <Gold.Protein.RotatedTorsions>
[ 6907 6896 6895 6894 ] final   92.53 input  -60.11 | X-H torsion
[ 7974 7965 7964 7962 ] final  119.05 input  175.53 | X-H torsion
[ 8008 7997 7996 7995 ] final   34.77 input   59.86 | X-H torsion
[ 10167 10162 10161 10158 ] final -123.68 input  -65.29 | X-H torsion
[ 10718 10713 10712 10709 ] final  -98.89 input   66.30 | X-H torsion
[ 10763 10752 10751 10750 ] final -165.13 input  -60.55 | X-H torsion
[ 11005 11000 10999 10996 ] final  -13.77 input  -57.11 | X-H torsion

> <Gold.Protein.ActiveResidues>
 VAL166  LYS551  ARG553  GLY616  TRP617  ASP618  TYR619  PRO620  LYS621  CYS622 
 ASP623  PHE694  ASN695  SER759  ASP760  ASP761  ALA762  ILE779  LEU786  VAL792 
 PHE793  MET794  SER795  GLU796  ALA797  LYS798  CYS799  TRP800  GLU811  SER814 

> <Gold.Protein.RotatedAtoms>
  152.5452  134.1488  159.8509 H   0  0  0  0  0  0  0  0  0  0  0  0  # atno 6907 bound_to 6896
  151.1517  133.4896  159.2602 H   0  0  0  0  0  0  0  0  0  0  0  0  # atno 6908 bound_to 6896
  151.1465  135.0216  159.8704 H   0  0  0  0  0  0  0  0  0  0  0  0  # atno 6909 bound_to 6896
  145.1478  139.3229  143.4582 H   0  0  0  0  0  0  0  0  0  0  0  0  # atno 7974 bound_to 7965
  155.1603  140.3283  155.4413 H   0  0  0  0  0  0  0  0  0  0  0  0  # atno 8008 bound_to 7997
  156.2545  140.1961  156.6661 H   0  0  0  0  0  0  0  0  0  0  0  0  # atno 8009 bound_to 7997
  154.6410  140.0570  156.9831 H   0  0  0  0  0  0  0  0  0  0  0  0  # atno 8010 bound_to 7997
  140.0009  143.5541  152.2304 H   0  0  0  0  0  0  0  0  0  0  0  0  # atno 10167 bound_to 10162
  156.0119  130.5258  150.6589 H   0  0  0  0  0  0  0  0  0  0  0  0  # atno 10718 bound_to 10713
  154.6961  135.2979  154.9409 H   0  0  0  0  0  0  0  0  0  0  0  0  # atno 10763 bound_to 10752
  154.0356  135.6664  153.4789 H   0  0  0  0  0  0  0  0  0  0  0  0  # atno 10764 bound_to 10752
  153.0647  135.5095  154.8080 H   0  0  0  0  0  0  0  0  0  0  0  0  # atno 10765 bound_to 10752
  140.7795  133.8374  155.9279 H   0  0  0  0  0  0  0  0  0  0  0  0  # atno 11005 bound_to 11000
  146.3498  140.1540  142.8592 LP  0  0  0  0  0  0  0  0  0  0  0  0  # atno 17320 bound_to 7965
  145.0463  140.8984  143.5022 LP  0  0  0  0  0  0  0  0  0  0  0  0  # atno 17321 bound_to 7965
  139.6272  144.7639  151.2613 LP  0  0  0  0  0  0  0  0  0  0  0  0  # atno 17342 bound_to 10162
  140.7419  143.6543  150.8221 LP  0  0  0  0  0  0  0  0  0  0  0  0  # atno 17343 bound_to 10162
  157.4335  131.0852  151.1015 LP  0  0  0  0  0  0  0  0  0  0  0  0  # atno 17370 bound_to 10713
  157.1580  130.6213  149.5602 LP  0  0  0  0  0  0  0  0  0  0  0  0  # atno 17371 bound_to 10713
  140.9496  134.1796  157.4738 LP  0  0  0  0  0  0  0  0  0  0  0  0  # atno 17394 bound_to 11000
  139.8744  134.9904  156.5500 LP  0  0  0  0  0  0  0  0  0  0  0  0  # atno 17395 bound_to 11000

$$$$
