#       Name:                AV-unprocessed.smi:513
#       Creating user name   scv26
#       Creation time:       Thu Mar 26 23:24:13 2020


#       File generated by GOLD software.
#

@<TRIPOS>MOLECULE
AV-unprocessed.smi:513
    50    52     1
SMALL
NO_CHARGES


@<TRIPOS>ATOM
      1 ****        -2.8935   2.1029   0.8166 C.3            1 S1                 0.0000
      2 ****        -1.6307   1.4725   0.9270 O.3            1 S1                 0.0000
      3 ****        -1.5959   0.4930   1.9524 C.3            1 S1                 0.0000
      4 ****        -0.2082  -0.1614   1.9884 C.3            1 S1                 0.0000
      5 ****         0.1217  -0.8032   0.7172 N.pl3          1 S1                 0.0000
      6 ****         0.7944  -0.2985  -0.3555 C.2            1 S1                 0.0000
      7 ****         1.3416   0.9852  -0.3622 N.pl3          1 S1                 0.0000
      8 ****         1.2500   1.9151  -1.4843 C.3            1 S1                 0.0000
      9 ****         0.8236   3.3175  -1.0044 C.3            1 S1                 0.0000
     10 ****         1.8062   3.8384  -0.0595 N.3            1 S1                 0.0000
     11 ****         1.8941   2.9233   1.0733 C.3            1 S1                 0.0000
     12 ****         2.3237   1.5299   0.5728 C.3            1 S1                 0.0000
     13 ****         0.8476  -1.1155  -1.4120 N.2            1 S1                 0.0000
     14 ****         0.1814  -2.2461  -0.9677 C.2            1 S1                 0.0000
     15 ****        -0.2645  -2.0788   0.3020 C.2            1 S1                 0.0000
     16 ****        -1.0370  -3.1113   1.0052 C.2            1 S1                 0.0000
     17 ****        -1.4650  -2.9774   2.1496 O.2            1 S1                 0.0000
     18 ****        -1.2355  -4.2258   0.2600 N.am           1 S1                 0.0000
     19 ****        -0.8107  -4.4587  -1.0197 C.2            1 S1                 0.0000
     20 ****        -1.0776  -5.5293  -1.5646 O.2            1 S1                 0.0000
     21 ****        -0.0963  -3.4662  -1.6440 N.am           1 S1                 0.0000
     22 ****         0.3990  -3.6120  -3.0141 C.3            1 S1                 0.0000
     23 ****        -1.7609  -4.9686   0.6979 H              1 S1                 0.0000
     24 ****        -2.8639   2.8415   0.0156 H              1 S1                 0.0000
     25 ****        -3.1590   2.6178   1.7408 H              1 S1                 0.0000
     26 ****        -3.6754   1.3802   0.5794 H              1 S1                 0.0000
     27 ****        -1.8122   0.9542   2.9170 H              1 S1                 0.0000
     28 ****        -2.3622  -0.2627   1.7731 H              1 S1                 0.0000
     29 ****         0.5350   0.5866   2.2435 H              1 S1                 0.0000
     30 ****        -0.1539  -0.9000   2.7870 H              1 S1                 0.0000
     31 ****         2.2082   1.9602  -2.0043 H              1 S1                 0.0000
     32 ****         0.5212   1.5423  -2.2047 H              1 S1                 0.0000
     33 ****         0.7521   3.9990  -1.8522 H              1 S1                 0.0000
     34 ****        -0.1612   3.2833  -0.5363 H              1 S1                 0.0000
     35 ****         1.5181   4.7514   0.2623 H              1 S1                 0.0000
     36 ****         2.6251   3.3105   1.7834 H              1 S1                 0.0000
     37 ****         0.9347   2.8757   1.5903 H              1 S1                 0.0000
     38 ****         2.4739   0.8473   1.4081 H              1 S1                 0.0000
     39 ****         3.2914   1.5959   0.0733 H              1 S1                 0.0000
     40 ****         0.2034  -4.5895  -3.4561 H              1 S1                 0.0000
     41 ****         1.4779  -3.4554  -3.0385 H              1 S1                 0.0000
     42 ****        -0.0626  -2.8623  -3.6574 H              1 S1                 0.0000
     43 ****        -0.9416   2.1692   1.1265 LP             1 S1                 0.0000
     44 ****        -1.4160   1.0313   0.0557 LP             1 S1                 0.0000
     45 ****         2.6984   3.9181  -0.5040 LP             1 S1                 0.0000
     46 ****         1.2662  -0.9509  -2.3051 LP             1 S1                 0.0000
     47 ****        -1.2925  -2.1302   2.6520 LP             1 S1                 0.0000
     48 ****        -1.9856  -3.7157   2.5783 LP             1 S1                 0.0000
     49 ****        -1.6024  -6.2238  -1.0723 LP             1 S1                 0.0000
     50 ****        -0.7696  -5.7049  -2.4996 LP             1 S1                 0.0000
@<TRIPOS>BOND
    1    1    2 1     
    2    1   24 1     
    3    1   25 1     
    4    1   26 1     
    5    2    3 1     
    6    3    4 1     
    7    3   27 1     
    8    3   28 1     
    9    4    5 1     
   10    4   29 1     
   11    4   30 1     
   12    5   15 1     
   13    5    6 1     
   14    6    7 1     
   15    6   13 2     
   16    7   12 1     
   17    7    8 1     
   18    8    9 1     
   19    8   31 1     
   20    8   32 1     
   21    9   10 1     
   22    9   33 1     
   23    9   34 1     
   24   10   11 1     
   25   10   35 1     
   26   11   12 1     
   27   11   36 1     
   28   11   37 1     
   29   12   38 1     
   30   12   39 1     
   31   13   14 1     
   32   14   21 1     
   33   14   15 2     
   34   15   16 1     
   35   16   17 2     
   36   16   18 1     
   37   18   23 1     
   38   18   19 1     
   39   19   20 2     
   40   19   21 1     
   41   21   22 1     
   42   22   40 1     
   43   22   41 1     
   44   22   42 1     
   45    2   43 1     
   46    2   44 1     
   47   10   45 1     
   48   13   46 1     
   49   17   47 1     
   50   17   48 1     
   51   20   49 1     
   52   20   50 1     
@<TRIPOS>SUBSTRUCTURE
      1 S1             1
@<TRIPOS>SET
LONE_PAIRS      STATIC     ATOMS    <user>   **** ""
8 43 44 45 46 47 48 49 50
DONOR_HYDROGENS      STATIC     ATOMS    <user>   **** ""
2 35 23
ATOM$BLUE        STATIC     ATOMS    COLORGROUP SYSTEM
8 43 44 45 46 47 48 49 50
ATOM$RED        STATIC     ATOMS    COLORGROUP SYSTEM
2 35 23
