AV-unprocessed.smi:187|AV-procd|sdf|1469|dock6
  -GOLD-   2262019283D 1   1.00000     0.00000
 Structure written by MMmdl.
 53 56  0  0  0  0  0  0  0  0  1 V2000
  145.6767  139.3089  155.6989 C   0  0  0  0  0  0  0  0  0  0  0  0
  146.4124  139.9701  154.5144 C   0  0  1  0  0  0  0  0  0  0  0  0
  146.9531  141.3465  154.9569 C   0  0  0  0  0  0  0  0  0  0  0  0
  147.7808  142.0264  153.8535 C   0  0  0  0  0  0  0  0  0  0  0  0
  148.8983  141.1092  153.3148 C   0  0  1  0  0  0  0  0  0  0  0  0
  150.0802  140.9717  154.2942 C   0  0  0  0  0  0  0  0  0  0  0  0
  150.6747  142.1018  154.6855 N   0  0  0  0  0  0  0  0  0  0  0  0
  150.4649  139.8712  154.6854 O   0  0  0  0  0  0  0  0  0  0  0  0
  148.2994  139.7438  152.9168 C   0  0  0  0  0  0  0  0  0  0  0  0
  147.5074  139.1392  153.9900 N   0  0  0  0  0  0  0  0  0  0  0  0
  147.2211  137.8526  153.6843 C   0  0  0  0  0  0  0  0  0  0  0  0
  147.7146  136.8396  154.4453 N   0  0  0  0  0  0  0  0  0  0  0  0
  147.4119  135.5726  154.1456 C   0  0  0  0  0  0  0  0  0  0  0  0
  146.6426  135.1083  153.1578 N   0  0  0  0  0  0  0  0  0  0  0  0
  146.1360  136.1261  152.4035 C   0  0  0  0  0  0  0  0  0  0  0  0
  146.3747  137.5148  152.5964 C   0  0  0  0  0  0  0  0  0  0  0  0
  145.7037  138.2540  151.6314 N   0  0  0  0  0  0  0  0  0  0  0  0
  145.1084  137.3510  150.9006 C   0  0  0  0  0  0  0  0  0  0  0  0
  145.2945  136.0480  151.3082 N   0  0  0  0  0  0  0  0  0  0  0  0
  144.7900  134.8617  150.6816 C   0  0  0  0  0  0  0  0  0  0  0  0
  144.3480  133.6439  151.4971 C   0  0  0  0  0  0  0  0  0  0  0  0
  144.8205  132.7178  150.3527 C   0  0  0  0  0  0  0  0  0  0  0  0
  145.5557  131.4414  150.7945 C   0  0  0  0  0  0  0  0  0  0  0  0
  146.3078  130.8891  149.7330 O   0  0  0  0  0  0  0  0  0  0  0  0
  143.7420  132.3464  149.3147 C   0  0  0  0  0  0  0  0  0  0  0  0
  142.6772  131.6327  149.9096 O   0  0  0  0  0  0  0  0  0  0  0  0
  145.7323  133.9000  149.9555 C   0  0  0  0  0  0  0  0  0  0  0  0
  144.9051  139.9701  156.0938 H   0  0  0  0  0  0  0  0  0  0  0  0
  146.3652  139.0814  156.5136 H   0  0  0  0  0  0  0  0  0  0  0  0
  145.1812  138.3810  155.4142 H   0  0  0  0  0  0  0  0  0  0  0  0
  145.6967  140.1316  153.7070 H   0  0  0  0  0  0  0  0  0  0  0  0
  146.1243  141.9964  155.2394 H   0  0  0  0  0  0  0  0  0  0  0  0
  147.5623  141.2329  155.8540 H   0  0  0  0  0  0  0  0  0  0  0  0
  147.1192  142.3007  153.0308 H   0  0  0  0  0  0  0  0  0  0  0  0
  148.1999  142.9616  154.2271 H   0  0  0  0  0  0  0  0  0  0  0  0
  149.2914  141.5670  152.4055 H   0  0  0  0  0  0  0  0  0  0  0  0
  151.4525  142.0675  155.3281 H   0  0  0  0  0  0  0  0  0  0  0  0
  150.3405  142.9885  154.3370 H   0  0  0  0  0  0  0  0  0  0  0  0
  147.6623  139.8697  152.0398 H   0  0  0  0  0  0  0  0  0  0  0  0
  149.1027  139.0674  152.6185 H   0  0  0  0  0  0  0  0  0  0  0  0
  147.8463  134.8235  154.7911 H   0  0  0  0  0  0  0  0  0  0  0  0
  144.5095  137.6170  150.0418 H   0  0  0  0  0  0  0  0  0  0  0  0
  143.9888  135.1913  150.0179 H   0  0  0  0  0  0  0  0  0  0  0  0
  144.9304  133.5171  152.4116 H   0  0  0  0  0  0  0  0  0  0  0  0
  143.2792  133.6121  151.7104 H   0  0  0  0  0  0  0  0  0  0  0  0
  146.2441  131.6544  151.6128 H   0  0  0  0  0  0  0  0  0  0  0  0
  144.8628  130.6868  151.1677 H   0  0  0  0  0  0  0  0  0  0  0  0
  147.1389  131.3371  149.6887 H   0  0  0  0  0  0  0  0  0  0  0  0
  143.3234  133.2356  148.8432 H   0  0  0  0  0  0  0  0  0  0  0  0
  144.1576  131.7452  148.5056 H   0  0  0  0  0  0  0  0  0  0  0  0
  142.0655  132.2544  150.2732 H   0  0  0  0  0  0  0  0  0  0  0  0
  145.8171  134.0745  148.8824 H   0  0  0  0  0  0  0  0  0  0  0  0
  146.7186  133.8533  150.4216 H   0  0  0  0  0  0  0  0  0  0  0  0
  1  2  1  0  0  0  0
  1 28  1  0  0  0  0
  1 29  1  0  0  0  0
  1 30  1  0  0  0  0
  2 10  1  0  0  0  0
  2  3  1  0  0  0  0
  2 31  1  0  0  0  0
  3  4  1  0  0  0  0
  3 32  1  0  0  0  0
  3 33  1  0  0  0  0
  4  5  1  0  0  0  0
  4 34  1  0  0  0  0
  4 35  1  0  0  0  0
  5  6  1  0  0  0  0
  5  9  1  0  0  0  0
  5 36  1  0  0  0  0
  6  7  1  0  0  0  0
  6  8  2  0  0  0  0
  7 37  1  0  0  0  0
  7 38  1  0  0  0  0
  9 10  1  0  0  0  0
  9 39  1  0  0  0  0
  9 40  1  0  0  0  0
 10 11  1  0  0  0  0
 11 16  1  0  0  0  0
 11 12  2  0  0  0  0
 12 13  1  0  0  0  0
 13 14  2  0  0  0  0
 13 41  1  0  0  0  0
 14 15  1  0  0  0  0
 15 19  1  0  0  0  0
 15 16  2  0  0  0  0
 16 17  1  0  0  0  0
 17 18  2  0  0  0  0
 18 19  1  0  0  0  0
 18 42  1  0  0  0  0
 19 20  1  0  0  0  0
 20 27  1  0  0  0  0
 20 21  1  0  0  0  0
 20 43  1  0  0  0  0
 21 22  1  0  0  0  0
 21 44  1  0  0  0  0
 21 45  1  0  0  0  0
 22 23  1  0  0  0  0
 22 25  1  0  0  0  0
 22 27  1  0  0  0  0
 23 24  1  0  0  0  0
 23 46  1  0  0  0  0
 23 47  1  0  0  0  0
 24 48  1  0  0  0  0
 25 26  1  0  0  0  0
 25 49  1  0  0  0  0
 25 50  1  0  0  0  0
 26 51  1  0  0  0  0
 27 52  1  0  0  0  0
 27 53  1  0  0  0  0
M  END
> <s_m_source_file>
AV-unprocessed.smi

> <i_m_source_file_index>
187

> <i_lp_mmshare_version>
43012

> <i_f3d_flags>
0

> <s_epik_input>
W0NIM11bQ0BASF0xW0NIMl1bQ0gyXVtDQEBIXShDKD1PKVtOSDJdKVtDSDJdTjFjKG5bY0hdbjIpYyhjMjMpbltjSF1uM1tDSF0oW0NIMl00KVtDSDJdQzQoW0NIMl1bT0hdKVtDSDJdW09IXQ==

> <s_epik_cmdline>
J2VwaWtfcHl0aG9uJywgJy1waCcsICc3LjAnLCAnLXRuJywgJzgnLCAnLW1hJywgJzIwMCcsICctbWV0YWxfYmluZGluZycsICctaW1hZScsICc8aW5maWxlLm1hZT4nLCAnLW9tYWUnLCAnPG91dGZpbGUubWFlPic=

> <r_lp_tautomer_probability>
1

> <r_epik_Ionization_Penalty>
0.0017711

> <r_epik_Ionization_Penalty_Charging>
0

> <r_epik_Ionization_Penalty_Neutral>
0.0017711

> <r_epik_State_Penalty>
0.00107211

> <r_epik_Charging_Adjusted_Penalty>
0.00107211

> <i_epik_Tot_Q>
0

> <i_epik_Tot_abs_Q>
0

> <r_epik_Metal_State_Penalty>
-0

> <b_epik_Metal_Only>
0

> <s_lp_Force_Field>
OPLS_2005

> <r_lp_Energy>
37.2201

> <b_lp_Chiralities_Consistent>
1

> <s_lp_Variant>
AV-unprocessed.smi:187-2

> <Gold.Version>
5.8.1

> <Gold.Id.Protein>
6NUR|6NUR_protein|mol2

> <Gold.PLP.Fitness>
43.7676

> <Gold.PLP.PLP>
-35.1504

> <Gold.PLP.part.hbond>
-3.9297

> <Gold.PLP.part.metal>
0.0000

> <Gold.PLP.part.buried>
1.5558

> <Gold.PLP.part.nonpolar>
-32.8903

> <Gold.PLP.part.repulsive>
0.5941

> <Gold.PLP.ligand.clash>
0.0000

> <Gold.PLP.ligand.torsion>
0.7541

> <Gold.PLP.Chemscore.Hbond>
2.5167

> <Gold.PLP.Chemscore.CHOScore>
0.6158

> <Gold.PLP.Chemscore.Metal>
0.0000

> <Gold.Chemscore.Hbonds>
donor molecule, donor type, donor heavy atom, donor atom, acceptor molecule, acceptor atom, score
      L1  H    24    48       P1 10747  0.67
      P1  H 10785 10796       L1    26  0.35

> <Gold.PLP.Chemscore.Internal.Correction>
0.7278

> <Gold.Rescore>
     Score         DG    S(hbond)    S(metal)    S(lipo)     H(rot)  DE(clash)    DE(int)     intcor
      8.66     -10.89       2.13        0.00      72.83       3.99       1.45       0.79       ----

> <Gold.Chemscore.Fitness>
8.6567

> <Gold.Chemscore.DG>
-10.8911

> <Gold.Chemscore.ZeroCoef>
-5.4800

> <Gold.Chemscore.Hbond>
2.1273

> <Gold.Chemscore.Metal>
0.0000

> <Gold.Chemscore.Lipo>
72.8261

> <Gold.Chemscore.Internal_Hbond>
0.0000

> <Gold.Chemscore.DEClash>
1.4458

> <Gold.Chemscore.DEInternal>
0.7886

> <Gold.Chemscore.Rot>
3.9902

> <Gold.Chemscore.Internal.Correction>
   9.000000E+99

> <Gold.Chemscore.Hbonds>
donor molecule, donor type, donor heavy atom, donor atom, acceptor molecule, acceptor atom, score
      L1  H    24    48       P1 10747  0.65
      L1  H    26    51       P1 10186  0.01
      P1  H 10785 10796       L1    26  0.01

> <Gold.Chemscore.Hbond.Weighted>
-7.1053

> <Gold.Chemscore.Metal.Weighted>
-0.0000

> <Gold.Chemscore.Lipo.Weighted>
-8.5207

> <Gold.Chemscore.Internal_Hbond.Weighted>
0.0000

> <Gold.Chemscore.DEClash.Weighted>
1.4458

> <Gold.Chemscore.DEInternal.Weighted>
0.7886

> <Gold.Chemscore.Rot.Weighted>
10.2148

> <Gold.Chemscore.Internal.Correction.Weighted>
   9.000000E+99

> <Gold.Protein.RotatedTorsions>
[ 6907 6896 6895 6894 ] final  -44.71 input  -60.11 | X-H torsion
[ 7974 7965 7964 7962 ] final   32.43 input  175.53 | X-H torsion
[ 8008 7997 7996 7995 ] final  -28.75 input   59.86 | X-H torsion
[ 10167 10162 10161 10158 ] final  154.74 input  -65.29 | X-H torsion
[ 10718 10713 10712 10709 ] final  101.93 input   66.30 | X-H torsion
[ 10763 10752 10751 10750 ] final  -54.48 input  -60.55 | X-H torsion
[ 11005 11000 10999 10996 ] final    7.89 input  -57.11 | X-H torsion

> <Gold.Protein.ActiveResidues>
 VAL166  LYS551  ARG553  GLY616  TRP617  ASP618  TYR619  PRO620  LYS621  CYS622 
 ASP623  PHE694  ASN695  SER759  ASP760  ASP761  ALA762  ILE779  LEU786  VAL792 
 PHE793  MET794  SER795  GLU796  ALA797  LYS798  CYS799  TRP800  GLU811  SER814 

> <Gold.Protein.RotatedAtoms>
  150.9298  134.8713  159.7543 H   0  0  0  0  0  0  0  0  0  0  0  0  # atno 6907 bound_to 6896
  152.5032  134.4096  159.9454 H   0  0  0  0  0  0  0  0  0  0  0  0  # atno 6908 bound_to 6896
  151.4123  133.3683  159.2780 H   0  0  0  0  0  0  0  0  0  0  0  0  # atno 6909 bound_to 6896
  146.1487  139.6527  142.9114 H   0  0  0  0  0  0  0  0  0  0  0  0  # atno 7974 bound_to 7965
  154.4319  140.1837  156.1138 H   0  0  0  0  0  0  0  0  0  0  0  0  # atno 8008 bound_to 7997
  156.0197  140.3342  155.7000 H   0  0  0  0  0  0  0  0  0  0  0  0  # atno 8009 bound_to 7997
  155.5994  140.0639  157.2728 H   0  0  0  0  0  0  0  0  0  0  0  0  # atno 8010 bound_to 7997
  139.4822  144.5160  151.7951 H   0  0  0  0  0  0  0  0  0  0  0  0  # atno 10167 bound_to 10162
  157.6816  131.0739  150.5327 H   0  0  0  0  0  0  0  0  0  0  0  0  # atno 10718 bound_to 10713
  154.1755  135.6452  153.5020 H   0  0  0  0  0  0  0  0  0  0  0  0  # atno 10763 bound_to 10752
  153.0073  135.5393  154.6569 H   0  0  0  0  0  0  0  0  0  0  0  0  # atno 10764 bound_to 10752
  154.5919  135.2935  155.0599 H   0  0  0  0  0  0  0  0  0  0  0  0  # atno 10765 bound_to 10752
  140.5432  134.0354  155.7911 H   0  0  0  0  0  0  0  0  0  0  0  0  # atno 11005 bound_to 11000
  145.4876  141.0438  143.2611 LP  0  0  0  0  0  0  0  0  0  0  0  0  # atno 17320 bound_to 7965
  144.7877  139.6393  143.7127 LP  0  0  0  0  0  0  0  0  0  0  0  0  # atno 17321 bound_to 7965
  140.4668  144.1643  150.5913 LP  0  0  0  0  0  0  0  0  0  0  0  0  # atno 17342 bound_to 10162
  140.4425  143.2520  151.9454 LP  0  0  0  0  0  0  0  0  0  0  0  0  # atno 17343 bound_to 10162
  156.5636  130.4262  149.6051 LP  0  0  0  0  0  0  0  0  0  0  0  0  # atno 17370 bound_to 10713
  156.2800  130.7065  151.1887 LP  0  0  0  0  0  0  0  0  0  0  0  0  # atno 17371 bound_to 10713
  141.1215  133.9453  157.2720 LP  0  0  0  0  0  0  0  0  0  0  0  0  # atno 17394 bound_to 11000
  139.9493  135.0178  156.8947 LP  0  0  0  0  0  0  0  0  0  0  0  0  # atno 17395 bound_to 11000

$$$$
