AV-unprocessed.smi:3255|AV-procd|sdf|12460|dock7
  -GOLD-   2272018353D 1   1.00000     0.00000
 Structure written by MMmdl.
 39 40  0  0  0  0  0  0  0  0  2 V2000
  147.8082  140.6649  153.9806 C   0  0  0  0  0  0  0  0  0  0  0  0
  148.4458  139.3003  154.2959 C   0  0  1  0  0  0  0  0  0  0  0  0
  147.8712  138.2757  153.4279 N   0  0  0  0  0  0  0  0  0  0  0  0
  146.6196  137.8046  153.5096 C   0  0  0  0  0  0  0  0  0  0  0  0
  145.7817  138.2014  154.3201 O   0  0  0  0  0  0  0  0  0  0  0  0
  146.3887  136.8444  152.6037 N   0  0  0  0  0  0  0  0  0  0  0  0
  145.1223  136.1399  152.4461 C   0  0  0  0  0  0  0  0  0  0  0  0
  144.9314  135.6363  151.0055 C   0  0  0  0  0  0  0  0  0  0  0  0
  145.2018  134.2028  150.8934 N   0  0  0  0  0  0  0  0  0  0  0  0
  144.2972  133.2070  150.6301 C   0  0  0  0  0  0  0  0  0  0  0  0
  145.0039  132.0321  150.6147 C   0  0  0  0  0  0  0  0  0  0  0  0
  146.3090  132.3613  150.8678 N   0  3  0  0  0  0  0  0  0  0  0  0
  146.4270  133.6824  151.0374 C   0  0  0  0  0  0  0  0  0  0  0  0
  149.9749  139.3148  154.1113 C   0  0  1  0  0  0  0  0  0  0  0  0
  150.7466  140.0591  155.2029 C   0  0  0  0  0  0  0  0  0  0  0  0
  152.1128  139.3895  155.2047 C   0  0  0  0  0  0  0  0  0  0  0  0
  151.9117  138.1250  154.3661 C   0  0  0  0  0  0  0  0  0  0  0  0
  150.5046  138.0022  154.2213 O   0  0  0  0  0  0  0  0  0  0  0  0
  148.1952  141.4451  154.6361 H   0  0  0  0  0  0  0  0  0  0  0  0
  146.7268  140.6369  154.1176 H   0  0  0  0  0  0  0  0  0  0  0  0
  148.0055  140.9665  152.9513 H   0  0  0  0  0  0  0  0  0  0  0  0
  148.2303  139.0462  155.3356 H   0  0  0  0  0  0  0  0  0  0  0  0
  148.4838  137.8811  152.7293 H   0  0  0  0  0  0  0  0  0  0  0  0
  147.1398  136.5848  151.9808 H   0  0  0  0  0  0  0  0  0  0  0  0
  145.0705  135.3093  153.1525 H   0  0  0  0  0  0  0  0  0  0  0  0
  144.3167  136.8248  152.7122 H   0  0  0  0  0  0  0  0  0  0  0  0
  143.9140  135.8229  150.6583 H   0  0  0  0  0  0  0  0  0  0  0  0
  145.6041  136.1519  150.3188 H   0  0  0  0  0  0  0  0  0  0  0  0
  143.2456  133.4042  150.4770 H   0  0  0  0  0  0  0  0  0  0  0  0
  144.6843  131.0141  150.4462 H   0  0  0  0  0  0  0  0  0  0  0  0
  147.3337  134.2218  151.2473 H   0  0  0  0  0  0  0  0  0  0  0  0
  150.2376  139.7181  153.1309 H   0  0  0  0  0  0  0  0  0  0  0  0
  150.8031  141.1325  155.0193 H   0  0  0  0  0  0  0  0  0  0  0  0
  150.2689  139.9096  156.1723 H   0  0  0  0  0  0  0  0  0  0  0  0
  152.8767  140.0295  154.7619 H   0  0  0  0  0  0  0  0  0  0  0  0
  152.4232  139.1502  156.2224 H   0  0  0  0  0  0  0  0  0  0  0  0
  152.3639  138.2427  153.3803 H   0  0  0  0  0  0  0  0  0  0  0  0
  152.3399  137.2378  154.8332 H   0  0  0  0  0  0  0  0  0  0  0  0
  147.0759  131.7025  150.9187 H   0  0  0  0  0  0  0  0  0  0  0  0
  1  2  1  0  0  0  0
  1 19  1  0  0  0  0
  1 20  1  0  0  0  0
  1 21  1  0  0  0  0
  2  3  1  0  0  0  0
  2 14  1  0  0  0  0
  2 22  1  0  0  0  0
  3  4  1  0  0  0  0
  3 23  1  0  0  0  0
  4  5  2  0  0  0  0
  4  6  1  0  0  0  0
  6  7  1  0  0  0  0
  6 24  1  0  0  0  0
  7  8  1  0  0  0  0
  7 25  1  0  0  0  0
  7 26  1  0  0  0  0
  8  9  1  0  0  0  0
  8 27  1  0  0  0  0
  8 28  1  0  0  0  0
  9 13  1  0  0  0  0
  9 10  1  0  0  0  0
 10 11  2  0  0  0  0
 10 29  1  0  0  0  0
 11 12  1  0  0  0  0
 11 30  1  0  0  0  0
 12 13  2  0  0  0  0
 12 39  1  0  0  0  0
 13 31  1  0  0  0  0
 14 18  1  0  0  0  0
 14 15  1  0  0  0  0
 14 32  1  0  0  0  0
 15 16  1  0  0  0  0
 15 33  1  0  0  0  0
 15 34  1  0  0  0  0
 16 17  1  0  0  0  0
 16 35  1  0  0  0  0
 16 36  1  0  0  0  0
 17 18  1  0  0  0  0
 17 37  1  0  0  0  0
 17 38  1  0  0  0  0
M  CHG  1  12   1
M  END
> <s_m_source_file>
AV-unprocessed.smi

> <i_m_source_file_index>
3255

> <i_lp_mmshare_version>
43012

> <i_f3d_flags>
0

> <s_epik_input>
TzFbQ0gyXVtDSDJdW0NIMl1bQ0BIXTFbQ0BIXShbQ0gzXSlbTkhdQyg9TylbTkhdW0NIMl1bQ0gyXW4yW2NIXVtjSF1uW2NIXTI=

> <s_epik_cmdline>
J2VwaWtfcHl0aG9uJywgJy1waCcsICc3LjAnLCAnLXRuJywgJzgnLCAnLW1hJywgJzIwMCcsICctbWV0YWxfYmluZGluZycsICctaW1hZScsICc8aW5maWxlLm1hZT4nLCAnLW9tYWUnLCAnPG91dGZpbGUubWFlPic=

> <r_lp_tautomer_probability>
1

> <r_epik_Ionization_Penalty>
0.256241

> <r_epik_Ionization_Penalty_Charging>
0

> <r_epik_Ionization_Penalty_Neutral>
0.256241

> <r_epik_State_Penalty>
0.247735

> <r_epik_Charging_Adjusted_Penalty>
0.247735

> <i_epik_Tot_Q>
1

> <i_epik_Tot_abs_Q>
1

> <r_epik_Metal_State_Penalty>
0.537184

> <b_epik_Metal_Only>
0

> <s_lp_Force_Field>
OPLS_2005

> <r_lp_Energy>
17.8763

> <b_lp_Chiralities_Consistent>
1

> <s_lp_Variant>
AV-unprocessed.smi:3255-4

> <Gold.Version>
5.8.1

> <Gold.Id.Protein>
6NUR|6NUR_protein|mol2

> <Gold.PLP.Fitness>
45.8313

> <Gold.PLP.PLP>
-35.0668

> <Gold.PLP.part.hbond>
-3.0426

> <Gold.PLP.part.metal>
0.0000

> <Gold.PLP.part.buried>
-3.3516

> <Gold.PLP.part.nonpolar>
-28.4506

> <Gold.PLP.part.repulsive>
0.4821

> <Gold.PLP.ligand.clash>
0.0000

> <Gold.PLP.ligand.torsion>
0.8273

> <Gold.PLP.Chemscore.Hbond>
2.6050

> <Gold.PLP.Chemscore.CHOScore>
1.5113

> <Gold.PLP.Chemscore.Metal>
0.0000

> <Gold.Chemscore.Hbonds>
donor molecule, donor type, donor heavy atom, donor atom, acceptor molecule, acceptor atom, score
      L1  H     3    23       P1  7948  0.88
      L1  H     6    24       P1  7948  0.93
      L1  H    12    39       P1 10747  0.63
      L1  C    10    29       P1 10186  0.76
      L1  C    13    31       P1  7948  0.68

> <Gold.PLP.Chemscore.Internal.Correction>
0.0704

> <Gold.Rescore>
     Score         DG    S(hbond)    S(metal)    S(lipo)     H(rot)  DE(clash)    DE(int)     intcor
     15.67     -16.75       2.60        0.00      71.65       2.26       0.16       0.92       ----

> <Gold.Chemscore.Fitness>
15.6670

> <Gold.Chemscore.DG>
-16.7488

> <Gold.Chemscore.ZeroCoef>
-5.4800

> <Gold.Chemscore.Hbond>
2.5994

> <Gold.Chemscore.Metal>
0.0000

> <Gold.Chemscore.Lipo>
71.6469

> <Gold.Chemscore.Internal_Hbond>
0.0000

> <Gold.Chemscore.DEClash>
0.1584

> <Gold.Chemscore.DEInternal>
0.9234

> <Gold.Chemscore.Rot>
2.2640

> <Gold.Chemscore.Internal.Correction>
   9.000000E+99

> <Gold.Chemscore.Hbonds>
donor molecule, donor type, donor heavy atom, donor atom, acceptor molecule, acceptor atom, score
      L1  H     3    23       P1  7948  0.86
      L1  H     6    24       P1  7948  0.90
      L1  H    12    39       P1 10747  0.61

> <Gold.Chemscore.Hbond.Weighted>
-8.6819

> <Gold.Chemscore.Metal.Weighted>
-0.0000

> <Gold.Chemscore.Lipo.Weighted>
-8.3827

> <Gold.Chemscore.Internal_Hbond.Weighted>
0.0000

> <Gold.Chemscore.DEClash.Weighted>
0.1584

> <Gold.Chemscore.DEInternal.Weighted>
0.9234

> <Gold.Chemscore.Rot.Weighted>
5.7958

> <Gold.Chemscore.Internal.Correction.Weighted>
   9.000000E+99

> <Gold.Protein.RotatedTorsions>
[ 6907 6896 6895 6894 ] final   16.06 input  -60.11 | X-H torsion
[ 7974 7965 7964 7962 ] final   44.64 input  175.53 | X-H torsion
[ 8008 7997 7996 7995 ] final   32.79 input   59.86 | X-H torsion
[ 10167 10162 10161 10158 ] final   -6.78 input  -65.29 | X-H torsion
[ 10718 10713 10712 10709 ] final  108.59 input   66.30 | X-H torsion
[ 10763 10752 10751 10750 ] final  -26.00 input  -60.55 | X-H torsion
[ 11005 11000 10999 10996 ] final  -35.26 input  -57.11 | X-H torsion

> <Gold.Protein.ActiveResidues>
 VAL166  LYS551  ARG553  GLY616  TRP617  ASP618  TYR619  PRO620  LYS621  CYS622 
 ASP623  PHE694  ASN695  SER759  ASP760  ASP761  ALA762  ILE779  LEU786  VAL792 
 PHE793  MET794  SER795  GLU796  ALA797  LYS798  CYS799  TRP800  GLU811  SER814 

> <Gold.Protein.RotatedAtoms>
  151.8280  135.0630  160.0433 H   0  0  0  0  0  0  0  0  0  0  0  0  # atno 6907 bound_to 6896
  152.2902  133.5549  159.5561 H   0  0  0  0  0  0  0  0  0  0  0  0  # atno 6908 bound_to 6896
  150.7226  134.0356  159.3790 H   0  0  0  0  0  0  0  0  0  0  0  0  # atno 6909 bound_to 6896
  146.0550  139.5052  142.9694 H   0  0  0  0  0  0  0  0  0  0  0  0  # atno 7974 bound_to 7965
  155.1282  140.3254  155.4480 H   0  0  0  0  0  0  0  0  0  0  0  0  # atno 8008 bound_to 7997
  156.2642  140.2015  156.6350 H   0  0  0  0  0  0  0  0  0  0  0  0  # atno 8009 bound_to 7997
  154.6633  140.0545  157.0072 H   0  0  0  0  0  0  0  0  0  0  0  0  # atno 8010 bound_to 7997
  140.7008  143.6155  150.8663 H   0  0  0  0  0  0  0  0  0  0  0  0  # atno 10167 bound_to 10162
  157.6579  131.0897  150.6328 H   0  0  0  0  0  0  0  0  0  0  0  0  # atno 10718 bound_to 10713
  153.7088  135.6952  153.5043 H   0  0  0  0  0  0  0  0  0  0  0  0  # atno 10763 bound_to 10752
  153.2288  135.4345  155.0571 H   0  0  0  0  0  0  0  0  0  0  0  0  # atno 10764 bound_to 10752
  154.8321  135.3479  154.6626 H   0  0  0  0  0  0  0  0  0  0  0  0  # atno 10765 bound_to 10752
  140.9782  133.7071  156.1639 H   0  0  0  0  0  0  0  0  0  0  0  0  # atno 11005 bound_to 11000
  145.6658  141.0229  143.1684 LP  0  0  0  0  0  0  0  0  0  0  0  0  # atno 17320 bound_to 7965
  144.7143  139.8254  143.7404 LP  0  0  0  0  0  0  0  0  0  0  0  0  # atno 17321 bound_to 7965
  139.9877  143.5881  152.2921 LP  0  0  0  0  0  0  0  0  0  0  0  0  # atno 17342 bound_to 10162
  139.6525  144.7661  151.2120 LP  0  0  0  0  0  0  0  0  0  0  0  0  # atno 17343 bound_to 10162
  156.6633  130.4518  149.5680 LP  0  0  0  0  0  0  0  0  0  0  0  0  # atno 17370 bound_to 10713
  156.2051  130.6644  151.1209 LP  0  0  0  0  0  0  0  0  0  0  0  0  # atno 17371 bound_to 10713
  140.7226  134.4341  157.5573 LP  0  0  0  0  0  0  0  0  0  0  0  0  # atno 17394 bound_to 11000
  139.8939  134.8719  156.2201 LP  0  0  0  0  0  0  0  0  0  0  0  0  # atno 17395 bound_to 11000

$$$$
