AV-unprocessed.smi:2519|AV-procd|sdf|9904|dock5
  -GOLD-   2272013543D 1   1.00000     0.00000
 Structure written by MMmdl.
 43 44  0  0  0  0  0  0  0  0  1 V2000
  140.0340  137.3401  153.6625 C   0  0  0  0  0  0  0  0  0  0  0  0
  141.2685  136.8520  153.0684 N   0  0  0  0  0  0  0  0  0  0  0  0
  141.5976  135.5547  152.9547 C   0  0  0  0  0  0  0  0  0  0  0  0
  140.8737  134.6416  153.3547 O   0  0  0  0  0  0  0  0  0  0  0  0
  142.9338  135.2659  152.3211 C   0  0  0  0  0  0  0  0  0  0  0  0
  143.2128  133.9774  151.8133 C   0  0  0  0  0  0  0  0  0  0  0  0
  144.4663  133.7404  151.2219 C   0  0  0  0  0  0  0  0  0  0  0  0
  145.3979  134.7929  151.1567 C   0  0  0  0  0  0  0  0  0  0  0  0
  145.0520  136.0551  151.6848 C   0  0  0  0  0  0  0  0  0  0  0  0
  146.0585  137.0503  151.5789 N   0  0  0  0  0  0  0  0  0  0  0  0
  146.3354  138.0546  152.4348 C   0  0  0  0  0  0  0  0  0  0  0  0
  145.7024  138.2947  153.4616 O   0  0  0  0  0  0  0  0  0  0  0  0
  147.3940  138.8068  152.0802 N   0  0  0  0  0  0  0  0  0  0  0  0
  147.9637  139.9644  152.7736 C   0  0  1  0  0  0  0  0  0  0  0  0
  146.8316  140.9312  153.1645 C   0  0  0  0  0  0  0  0  0  0  0  0
  147.3720  142.1393  153.9438 C   0  0  0  0  0  0  0  0  0  0  0  0
  148.1636  141.6936  155.1833 C   0  0  0  0  0  0  0  0  0  0  0  0
  149.3109  140.7316  154.8093 C   0  0  1  0  0  0  0  0  0  0  0  0
  150.1252  140.2915  156.0433 C   0  0  0  0  0  0  0  0  0  0  0  0
  151.0810  139.4284  155.6981 F   0  0  0  0  0  0  0  0  0  0  0  0
  150.6901  141.3530  156.6190 F   0  0  0  0  0  0  0  0  0  0  0  0
  149.3231  139.7126  156.9367 F   0  0  0  0  0  0  0  0  0  0  0  0
  148.7545  139.5243  154.0249 C   0  0  0  0  0  0  0  0  0  0  0  0
  143.8396  136.2715  152.2498 N   0  0  0  0  0  0  0  0  0  0  0  0
  139.9991  138.4282  153.6054 H   0  0  0  0  0  0  0  0  0  0  0  0
  139.9680  137.0508  154.7121 H   0  0  0  0  0  0  0  0  0  0  0  0
  139.1656  136.9429  153.1353 H   0  0  0  0  0  0  0  0  0  0  0  0
  141.9212  137.5384  152.7164 H   0  0  0  0  0  0  0  0  0  0  0  0
  142.4861  133.1801  151.8724 H   0  0  0  0  0  0  0  0  0  0  0  0
  144.7102  132.7662  150.8245 H   0  0  0  0  0  0  0  0  0  0  0  0
  146.3666  134.6276  150.7076 H   0  0  0  0  0  0  0  0  0  0  0  0
  146.6582  136.9759  150.7707 H   0  0  0  0  0  0  0  0  0  0  0  0
  147.8635  138.5383  151.2273 H   0  0  0  0  0  0  0  0  0  0  0  0
  148.6335  140.4962  152.0952 H   0  0  0  0  0  0  0  0  0  0  0  0
  146.3077  141.2754  152.2718 H   0  0  0  0  0  0  0  0  0  0  0  0
  146.0924  140.4101  153.7750 H   0  0  0  0  0  0  0  0  0  0  0  0
  148.0129  142.7370  153.2945 H   0  0  0  0  0  0  0  0  0  0  0  0
  146.5470  142.7864  154.2430 H   0  0  0  0  0  0  0  0  0  0  0  0
  148.5602  142.5717  155.6935 H   0  0  0  0  0  0  0  0  0  0  0  0
  147.4887  141.2072  155.8887 H   0  0  0  0  0  0  0  0  0  0  0  0
  149.9912  141.2702  154.1475 H   0  0  0  0  0  0  0  0  0  0  0  0
  148.1093  138.9323  154.6755 H   0  0  0  0  0  0  0  0  0  0  0  0
  149.5764  138.8695  153.7345 H   0  0  0  0  0  0  0  0  0  0  0  0
  1  2  1  0  0  0  0
  1 25  1  0  0  0  0
  1 26  1  0  0  0  0
  1 27  1  0  0  0  0
  2  3  1  0  0  0  0
  2 28  1  0  0  0  0
  3  4  2  0  0  0  0
  3  5  1  0  0  0  0
  5 24  1  0  0  0  0
  5  6  2  0  0  0  0
  6  7  1  0  0  0  0
  6 29  1  0  0  0  0
  7  8  2  0  0  0  0
  7 30  1  0  0  0  0
  8  9  1  0  0  0  0
  8 31  1  0  0  0  0
  9 10  1  0  0  0  0
  9 24  2  0  0  0  0
 10 11  1  0  0  0  0
 10 32  1  0  0  0  0
 11 12  2  0  0  0  0
 11 13  1  0  0  0  0
 13 14  1  0  0  0  0
 13 33  1  0  0  0  0
 14 23  1  0  0  0  0
 14 15  1  0  0  0  0
 14 34  1  0  0  0  0
 15 16  1  0  0  0  0
 15 35  1  0  0  0  0
 15 36  1  0  0  0  0
 16 17  1  0  0  0  0
 16 37  1  0  0  0  0
 16 38  1  0  0  0  0
 17 18  1  0  0  0  0
 17 39  1  0  0  0  0
 17 40  1  0  0  0  0
 18 19  1  0  0  0  0
 18 23  1  0  0  0  0
 18 41  1  0  0  0  0
 19 20  1  0  0  0  0
 19 21  1  0  0  0  0
 19 22  1  0  0  0  0
 23 42  1  0  0  0  0
 23 43  1  0  0  0  0
M  END
> <s_m_source_file>
AV-unprocessed.smi

> <i_m_source_file_index>
2519

> <i_lp_mmshare_version>
43012

> <i_f3d_flags>
0

> <s_epik_input>
W0NIM11bTkhdQyg9TyljMVtjSF1bY0hdW2NIXWMobjEpW05IXUMoPU8pW05IXVtDQEBIXTJbQ0gyXVtDSDJdW0NIMl1bQ0BASF0oQyhGKShGKUYpW0NIMl0y

> <s_epik_cmdline>
J2VwaWtfcHl0aG9uJywgJy1waCcsICc3LjAnLCAnLXRuJywgJzgnLCAnLW1hJywgJzIwMCcsICctbWV0YWxfYmluZGluZycsICctaW1hZScsICc8aW5maWxlLm1hZT4nLCAnLW9tYWUnLCAnPG91dGZpbGUubWFlPic=

> <r_lp_tautomer_probability>
1

> <r_epik_Ionization_Penalty>
3.74915e-05

> <r_epik_Ionization_Penalty_Charging>
0

> <r_epik_Ionization_Penalty_Neutral>
3.74915e-05

> <r_epik_State_Penalty>
-0

> <r_epik_Charging_Adjusted_Penalty>
0

> <i_epik_Tot_Q>
0

> <i_epik_Tot_abs_Q>
0

> <r_epik_Metal_State_Penalty>
-0

> <b_epik_Metal_Only>
0

> <s_lp_Force_Field>
OPLS_2005

> <r_lp_Energy>
27.1439

> <b_lp_Chiralities_Consistent>
1

> <s_lp_Variant>
AV-unprocessed.smi:2519-2

> <Gold.Version>
5.8.1

> <Gold.Id.Protein>
6NUR|6NUR_protein|mol2

> <Gold.PLP.Fitness>
46.0668

> <Gold.PLP.PLP>
-44.1102

> <Gold.PLP.part.hbond>
-4.7425

> <Gold.PLP.part.metal>
0.0000

> <Gold.PLP.part.buried>
0.9493

> <Gold.PLP.part.nonpolar>
-41.6054

> <Gold.PLP.part.repulsive>
0.6784

> <Gold.PLP.ligand.clash>
0.0000

> <Gold.PLP.ligand.torsion>
0.5745

> <Gold.PLP.Chemscore.Hbond>
1.0270

> <Gold.PLP.Chemscore.CHOScore>
0.0000

> <Gold.PLP.Chemscore.Metal>
0.0000

> <Gold.Chemscore.Hbonds>
donor molecule, donor type, donor heavy atom, donor atom, acceptor molecule, acceptor atom, score
      L1  H    13    33       P1  7957  0.03

> <Gold.PLP.Chemscore.Internal.Correction>
0.0244

> <Gold.Rescore>
     Score         DG    S(hbond)    S(metal)    S(lipo)     H(rot)  DE(clash)    DE(int)     intcor
     12.00     -15.46       1.60        0.00      61.51       1.00       0.11       3.35       ----

> <Gold.Chemscore.Fitness>
11.9988

> <Gold.Chemscore.DG>
-15.4576

> <Gold.Chemscore.ZeroCoef>
-5.4800

> <Gold.Chemscore.Hbond>
1.5991

> <Gold.Chemscore.Metal>
0.0000

> <Gold.Chemscore.Lipo>
61.5082

> <Gold.Chemscore.Internal_Hbond>
0.0000

> <Gold.Chemscore.DEClash>
0.1104

> <Gold.Chemscore.DEInternal>
3.3483

> <Gold.Chemscore.Rot>
1.0000

> <Gold.Chemscore.Internal.Correction>
   9.000000E+99

> <Gold.Chemscore.Hbonds>
donor molecule, donor type, donor heavy atom, donor atom, acceptor molecule, acceptor atom, score
      L1  H    13    33       P1  7957  0.01
      P1  H 11000 11005       L1     4  0.03

> <Gold.Chemscore.Hbond.Weighted>
-5.3411

> <Gold.Chemscore.Metal.Weighted>
-0.0000

> <Gold.Chemscore.Lipo.Weighted>
-7.1965

> <Gold.Chemscore.Internal_Hbond.Weighted>
0.0000

> <Gold.Chemscore.DEClash.Weighted>
0.1104

> <Gold.Chemscore.DEInternal.Weighted>
3.3483

> <Gold.Chemscore.Rot.Weighted>
2.5600

> <Gold.Chemscore.Internal.Correction.Weighted>
   9.000000E+99

> <Gold.Protein.RotatedTorsions>
[ 6907 6896 6895 6894 ] final  -38.61 input  -60.11 | X-H torsion
[ 7974 7965 7964 7962 ] final   60.66 input  175.53 | X-H torsion
[ 8008 7997 7996 7995 ] final -110.40 input   59.86 | X-H torsion
[ 10167 10162 10161 10158 ] final  141.03 input  -65.29 | X-H torsion
[ 10718 10713 10712 10709 ] final  -20.82 input   66.30 | X-H torsion
[ 10763 10752 10751 10750 ] final -121.53 input  -60.55 | X-H torsion
[ 11005 11000 10999 10996 ] final    5.64 input  -57.11 | X-H torsion

> <Gold.Protein.ActiveResidues>
 VAL166  LYS551  ARG553  GLY616  TRP617  ASP618  TYR619  PRO620  LYS621  CYS622 
 ASP623  PHE694  ASN695  SER759  ASP760  ASP761  ALA762  ILE779  LEU786  VAL792 
 PHE793  MET794  SER795  GLU796  ALA797  LYS798  CYS799  TRP800  GLU811  SER814 

> <Gold.Protein.RotatedAtoms>
  151.0004  134.9317  159.7950 H   0  0  0  0  0  0  0  0  0  0  0  0  # atno 6907 bound_to 6896
  152.5276  134.3162  159.9141 H   0  0  0  0  0  0  0  0  0  0  0  0  # atno 6908 bound_to 6896
  151.3168  133.4015  159.2685 H   0  0  0  0  0  0  0  0  0  0  0  0  # atno 6909 bound_to 6896
  145.8935  139.3528  143.0635 H   0  0  0  0  0  0  0  0  0  0  0  0  # atno 7974 bound_to 7965
  154.9739  140.0397  157.2247 H   0  0  0  0  0  0  0  0  0  0  0  0  # atno 8008 bound_to 7997
  154.7776  140.2813  155.6066 H   0  0  0  0  0  0  0  0  0  0  0  0  # atno 8009 bound_to 7997
  156.2931  140.2598  156.2593 H   0  0  0  0  0  0  0  0  0  0  0  0  # atno 8010 bound_to 7997
  139.5032  144.6197  151.6081 H   0  0  0  0  0  0  0  0  0  0  0  0  # atno 10167 bound_to 10162
  156.5266  130.4645  149.6569 H   0  0  0  0  0  0  0  0  0  0  0  0  # atno 10718 bound_to 10713
  154.8670  135.4164  154.2635 H   0  0  0  0  0  0  0  0  0  0  0  0  # atno 10763 bound_to 10752
  153.3559  135.7001  153.6757 H   0  0  0  0  0  0  0  0  0  0  0  0  # atno 10764 bound_to 10752
  153.5678  135.3597  155.2798 H   0  0  0  0  0  0  0  0  0  0  0  0  # atno 10765 bound_to 10752
  140.5685  134.0125  155.7999 H   0  0  0  0  0  0  0  0  0  0  0  0  # atno 11005 bound_to 11000
  145.8879  140.9322  143.0567 LP  0  0  0  0  0  0  0  0  0  0  0  0  # atno 17320 bound_to 7965
  144.6731  140.0867  143.7467 LP  0  0  0  0  0  0  0  0  0  0  0  0  # atno 17321 bound_to 7965
  140.5895  143.9804  150.6316 LP  0  0  0  0  0  0  0  0  0  0  0  0  # atno 17342 bound_to 10162
  140.2980  143.3279  152.0999 LP  0  0  0  0  0  0  0  0  0  0  0  0  # atno 17343 bound_to 10162
  156.3099  130.7223  151.2114 LP  0  0  0  0  0  0  0  0  0  0  0  0  # atno 17370 bound_to 10713
  157.7428  131.0484  150.4993 LP  0  0  0  0  0  0  0  0  0  0  0  0  # atno 17371 bound_to 10713
  141.1071  133.9676  157.2977 LP  0  0  0  0  0  0  0  0  0  0  0  0  # atno 17394 bound_to 11000
  139.9373  135.0195  156.8598 LP  0  0  0  0  0  0  0  0  0  0  0  0  # atno 17395 bound_to 11000

$$$$
