#       Name:                AV-unprocessed.smi:3120
#       Creating user name   scv26
#       Creation time:       Fri Mar 27 17:28:12 2020


#       File generated by GOLD software.
#

@<TRIPOS>MOLECULE
AV-unprocessed.smi:3120
    25    26     1
SMALL
NO_CHARGES


@<TRIPOS>ATOM
      1 ****        -1.0307  -2.0728  -1.2457 O.2            1 S1                 0.0000
      2 ****        -1.4126  -1.0076  -0.7649 C.2            1 S1                 0.0000
      3 ****        -2.4007  -0.2521  -1.2421 N.am           1 S1                 0.0000
      4 ****        -2.6401   0.9470  -0.4626 C.3            1 S1                 0.0000
      5 ****        -1.4528   1.0243   0.5098 C.3            1 S1                 0.0000
      6 ****        -0.8020  -0.3702   0.4786 C.3            1 S1                 0.0000
      7 ****         0.7226  -0.3537   0.4428 C.ar           1 S1                 0.0000
      8 ****         1.4363   0.2634  -0.6093 C.ar           1 S1                 0.0000
      9 ****         2.8438   0.2456  -0.5815 C.ar           1 S1                 0.0000
     10 ****         3.4845  -0.3903   0.5000 C.ar           1 S1                 0.0000
     11 ****         2.8162  -0.9843   1.5116 N.ar           1 S1                 0.0000
     12 ****         1.4664  -0.9633   1.4764 C.ar           1 S1                 0.0000
     13 ****        -2.9440  -0.4849  -2.0610 H              1 S1                 0.0000
     14 ****        -2.7030   1.8273  -1.1029 H              1 S1                 0.0000
     15 ****        -3.5833   0.8432   0.0750 H              1 S1                 0.0000
     16 ****        -0.7569   1.7887   0.1617 H              1 S1                 0.0000
     17 ****        -1.7629   1.3087   1.5157 H              1 S1                 0.0000
     18 ****        -1.1441  -0.9499   1.3371 H              1 S1                 0.0000
     19 ****         0.9161   0.7429  -1.4255 H              1 S1                 0.0000
     20 ****         3.4185   0.7079  -1.3704 H              1 S1                 0.0000
     21 ****         4.5626  -0.4219   0.5546 H              1 S1                 0.0000
     22 ****         0.9657  -1.4479   2.3019 H              1 S1                 0.0000
     23 ****        -0.2777  -2.5730  -0.8180 LP             1 S1                 0.0000
     24 ****        -1.4730  -2.4390  -2.0643 LP             1 S1                 0.0000
     25 ****         3.3055  -1.4261   2.2636 LP             1 S1                 0.0000
@<TRIPOS>BOND
    1    1    2 2     
    2    2    6 1     
    3    2    3 am    
    4    3    4 1     
    5    3   13 1     
    6    4    5 1     
    7    4   14 1     
    8    4   15 1     
    9    5    6 1     
   10    5   16 1     
   11    5   17 1     
   12    6    7 1     
   13    6   18 1     
   14    7   12 ar    
   15    7    8 ar    
   16    8    9 ar    
   17    8   19 1     
   18    9   10 ar    
   19    9   20 1     
   20   10   11 ar    
   21   10   21 1     
   22   11   12 ar    
   23   12   22 1     
   24    1   23 1     
   25    1   24 1     
   26   11   25 1     
@<TRIPOS>SUBSTRUCTURE
      1 S1             1
@<TRIPOS>SET
LONE_PAIRS      STATIC     ATOMS    <user>   **** ""
3 23 24 25
DONOR_HYDROGENS      STATIC     ATOMS    <user>   **** ""
1 13
ATOM$BLUE        STATIC     ATOMS    COLORGROUP SYSTEM
3 23 24 25
ATOM$RED        STATIC     ATOMS    COLORGROUP SYSTEM
1 13
