AV-unprocessed.smi:66|AV-procd|sdf|619|dock1
  -GOLD-   2262016513D 1   1.00000     0.00000
 Structure written by MMmdl.
 28 30  0  0  0  0  0  0  0  0  2 V2000
  152.8916  136.5426  159.1546 O   0  0  0  0  0  0  0  0  0  0  0  0
  152.9009  136.4910  157.9053 C   0  0  0  0  0  0  0  0  0  0  0  0
  153.8579  136.0964  157.2021 O   0  5  0  0  0  0  0  0  0  0  0  0
  151.6293  136.9573  157.1854 C   0  0  2  0  0  0  0  0  0  0  0  0
  150.8995  135.8096  156.4620 C   0  0  0  0  0  0  0  0  0  0  0  0
  150.2511  136.5060  155.2724 C   0  0  2  0  0  0  0  0  0  0  0  0
  149.9423  135.6169  154.2198 O   0  0  0  0  0  0  0  0  0  0  0  0
  151.3207  137.5220  154.8854 C   0  0  0  0  0  0  0  0  0  0  0  0
  151.9194  137.9537  156.1469 N   0  0  0  0  0  0  0  0  0  0  0  0
  151.7037  139.2299  156.5485 C   0  0  0  0  0  0  0  0  0  0  0  0
  152.3692  139.7318  157.6241 N   0  0  0  0  0  0  0  0  0  0  0  0
  152.1770  141.0003  158.0003 C   0  0  0  0  0  0  0  0  0  0  0  0
  151.3852  141.9253  157.4514 N   0  0  0  0  0  0  0  0  0  0  0  0
  150.7241  141.4234  156.3708 C   0  0  0  0  0  0  0  0  0  0  0  0
  149.8276  142.0669  155.5444 N   0  0  0  0  0  0  0  0  0  0  0  0
  149.4423  141.1385  154.6078 C   0  0  0  0  0  0  0  0  0  0  0  0
  149.9927  139.9625  154.7455 N   0  0  0  0  0  0  0  0  0  0  0  0
  150.8217  140.1013  155.8540 C   0  0  0  0  0  0  0  0  0  0  0  0
  149.5507  143.0314  155.6549 H   0  0  0  0  0  0  0  0  0  0  0  0
  150.9483  137.3904  157.9214 H   0  0  0  0  0  0  0  0  0  0  0  0
  151.6051  135.0545  156.1098 H   0  0  0  0  0  0  0  0  0  0  0  0
  150.1707  135.3103  157.1011 H   0  0  0  0  0  0  0  0  0  0  0  0
  149.3452  137.0225  155.5932 H   0  0  0  0  0  0  0  0  0  0  0  0
  149.7135  136.1255  153.4573 H   0  0  0  0  0  0  0  0  0  0  0  0
  152.1081  137.0451  154.2996 H   0  0  0  0  0  0  0  0  0  0  0  0
  150.9185  138.3313  154.2745 H   0  0  0  0  0  0  0  0  0  0  0  0
  152.7410  141.3210  158.8636 H   0  0  0  0  0  0  0  0  0  0  0  0
  148.7383  141.3607  153.8193 H   0  0  0  0  0  0  0  0  0  0  0  0
  1  2  2  0  0  0  0
  2  3  1  0  0  0  0
  2  4  1  0  0  0  0
  4  5  1  0  0  0  0
  4 20  1  0  0  0  0
  4  9  1  0  0  0  0
  5  6  1  0  0  0  0
  5 21  1  0  0  0  0
  5 22  1  0  0  0  0
  6  7  1  0  0  0  0
  6  8  1  0  0  0  0
  6 23  1  0  0  0  0
  7 24  1  0  0  0  0
  8 25  1  0  0  0  0
  8 26  1  0  0  0  0
  8  9  1  0  0  0  0
  9 10  1  0  0  0  0
 10 11  1  0  0  0  0
 10 18  2  0  0  0  0
 11 12  2  0  0  0  0
 12 27  1  0  0  0  0
 12 13  1  0  0  0  0
 13 14  2  0  0  0  0
 14 15  1  0  0  0  0
 14 18  1  0  0  0  0
 15 16  1  0  0  0  0
 15 19  1  0  0  0  0
 16 17  2  0  0  0  0
 16 28  1  0  0  0  0
 17 18  1  0  0  0  0
M  CHG  1   3  -1
M  END
> <s_m_source_file>
AV-unprocessed.smi

> <i_m_source_file_index>
66

> <i_lp_mmshare_version>
43012

> <i_f3d_flags>
0

> <s_epik_input>
Tz1DKFtPSF0pW0NAQEhdMVtDSDJdW0NAQEhdKFtPSF0pW0NIMl1OMWMobltjSF1uMiljKGMyMylbbkhdW2NIXW4z

> <s_epik_cmdline>
J2VwaWtfcHl0aG9uJywgJy1waCcsICc3LjAnLCAnLXRuJywgJzgnLCAnLW1hJywgJzIwMCcsICctbWV0YWxfYmluZGluZycsICctaW1hZScsICc8aW5maWxlLm1hZT4nLCAnLW9tYWUnLCAnPG91dGZpbGUubWFlPic=

> <r_lp_tautomer_probability>
0.955585

> <r_epik_Ionization_Penalty>
0.00455415

> <r_epik_Ionization_Penalty_Charging>
0.000248217

> <r_epik_Ionization_Penalty_Neutral>
0.00430593

> <r_epik_State_Penalty>
0.0207074

> <r_epik_Charging_Adjusted_Penalty>
0.0209557

> <i_epik_Tot_Q>
-1

> <i_epik_Tot_abs_Q>
1

> <r_epik_Metal_State_Penalty>
0.337372

> <b_epik_Metal_Only>
0

> <s_lp_Force_Field>
OPLS_2005

> <r_lp_Energy>
28.2566

> <b_lp_Chiralities_Consistent>
1

> <s_lp_Variant>
AV-unprocessed.smi:66-3

> <Gold.Version>
5.8.1

> <Gold.Id.Protein>
6NUR|6NUR_protein|mol2

> <Gold.PLP.Fitness>
42.2551

> <Gold.PLP.PLP>
-23.0047

> <Gold.PLP.part.hbond>
-5.9129

> <Gold.PLP.part.metal>
0.0000

> <Gold.PLP.part.buried>
-2.6428

> <Gold.PLP.part.nonpolar>
-15.6988

> <Gold.PLP.part.repulsive>
0.2999

> <Gold.PLP.ligand.clash>
0.0000

> <Gold.PLP.ligand.torsion>
0.1735

> <Gold.PLP.Chemscore.Hbond>
6.5003

> <Gold.PLP.Chemscore.CHOScore>
0.0000

> <Gold.PLP.Chemscore.Metal>
0.0000

> <Gold.Chemscore.Hbonds>
donor molecule, donor type, donor heavy atom, donor atom, acceptor molecule, acceptor atom, score
      L1  H     7    24       P1  7948  0.94
      L1  H    15    19       P1  8028  1.00
      P1  H  6896  6908       L1     1  1.92
      P1  H  7989  7998       L1    17  0.03
      P1  H  7997  8010       L1    11  0.34
      P1  H 10752 10765       L1     3  2.00

> <Gold.PLP.Chemscore.Internal.Correction>
0.0966

> <Gold.Rescore>
     Score         DG    S(hbond)    S(metal)    S(lipo)     H(rot)  DE(clash)    DE(int)     intcor
     12.30     -13.92       3.62        0.00      22.85       2.48       0.00       1.61       ----

> <Gold.Chemscore.Fitness>
12.3035

> <Gold.Chemscore.DG>
-13.9191

> <Gold.Chemscore.ZeroCoef>
-5.4800

> <Gold.Chemscore.Hbond>
3.6241

> <Gold.Chemscore.Metal>
0.0000

> <Gold.Chemscore.Lipo>
22.8531

> <Gold.Chemscore.Internal_Hbond>
0.0000

> <Gold.Chemscore.DEClash>
0.0019

> <Gold.Chemscore.DEInternal>
1.6137

> <Gold.Chemscore.Rot>
2.4762

> <Gold.Chemscore.Internal.Correction>
   9.000000E+99

> <Gold.Chemscore.Hbonds>
donor molecule, donor type, donor heavy atom, donor atom, acceptor molecule, acceptor atom, score
      L1  H     7    24       P1  7948  0.20
      L1  H    15    19       P1  8028  1.00
      P1  H  6896  6908       L1     1  0.83
      P1  H  7997  8010       L1    11  0.01
      P1  H 10752 10765       L1     3  0.99

> <Gold.Chemscore.Hbond.Weighted>
-12.1044

> <Gold.Chemscore.Metal.Weighted>
-0.0000

> <Gold.Chemscore.Lipo.Weighted>
-2.6738

> <Gold.Chemscore.Internal_Hbond.Weighted>
0.0000

> <Gold.Chemscore.DEClash.Weighted>
0.0019

> <Gold.Chemscore.DEInternal.Weighted>
1.6137

> <Gold.Chemscore.Rot.Weighted>
6.3391

> <Gold.Chemscore.Internal.Correction.Weighted>
   9.000000E+99

> <Gold.Protein.RotatedTorsions>
[ 6907 6896 6895 6894 ] final  -92.51 input  -60.11 | X-H torsion
[ 7974 7965 7964 7962 ] final   31.70 input  175.53 | X-H torsion
[ 8008 7997 7996 7995 ] final   52.81 input   59.86 | X-H torsion
[ 10167 10162 10161 10158 ] final  -52.27 input  -65.29 | X-H torsion
[ 10718 10713 10712 10709 ] final  159.12 input   66.30 | X-H torsion
[ 10763 10752 10751 10750 ] final  -98.72 input  -60.55 | X-H torsion
[ 11005 11000 10999 10996 ] final -149.74 input  -57.11 | X-H torsion

> <Gold.Protein.ActiveResidues>
 VAL166  LYS551  ARG553  GLY616  TRP617  ASP618  TYR619  PRO620  LYS621  CYS622 
 ASP623  PHE694  ASN695  SER759  ASP760  ASP761  ALA762  ILE779  LEU786  VAL792 
 PHE793  MET794  SER795  GLU796  ALA797  LYS798  CYS799  TRP800  GLU811  SER814 

> <Gold.Protein.RotatedAtoms>
  150.6907  134.2111  159.4359 H   0  0  0  0  0  0  0  0  0  0  0  0  # atno 6907 bound_to 6896
  152.0072  134.9893  160.0576 H   0  0  0  0  0  0  0  0  0  0  0  0  # atno 6908 bound_to 6896
  152.1522  133.4494  159.4856 H   0  0  0  0  0  0  0  0  0  0  0  0  # atno 6909 bound_to 6896
  146.1534  139.6623  142.9083 H   0  0  0  0  0  0  0  0  0  0  0  0  # atno 7974 bound_to 7965
  155.4580  140.3460  155.4309 H   0  0  0  0  0  0  0  0  0  0  0  0  # atno 8008 bound_to 7997
  156.1179  140.1479  156.9276 H   0  0  0  0  0  0  0  0  0  0  0  0  # atno 8009 bound_to 7997
  154.4802  140.0872  156.7338 H   0  0  0  0  0  0  0  0  0  0  0  0  # atno 8010 bound_to 7997
  140.6546  143.2590  151.4623 H   0  0  0  0  0  0  0  0  0  0  0  0  # atno 10167 bound_to 10162
  157.1685  131.0604  151.2195 H   0  0  0  0  0  0  0  0  0  0  0  0  # atno 10718 bound_to 10713
  154.7438  135.4999  153.9168 H   0  0  0  0  0  0  0  0  0  0  0  0  # atno 10763 bound_to 10752
  153.1070  135.6700  153.9576 H   0  0  0  0  0  0  0  0  0  0  0  0  # atno 10764 bound_to 10752
  153.9346  135.3074  155.3424 H   0  0  0  0  0  0  0  0  0  0  0  0  # atno 10765 bound_to 10752
  140.7475  134.3444  157.5133 H   0  0  0  0  0  0  0  0  0  0  0  0  # atno 11005 bound_to 11000
  145.4769  141.0437  143.2668 LP  0  0  0  0  0  0  0  0  0  0  0  0  # atno 17320 bound_to 7965
  144.7932  139.6286  143.7104 LP  0  0  0  0  0  0  0  0  0  0  0  0  # atno 17321 bound_to 7965
  139.5766  144.1804  152.1912 LP  0  0  0  0  0  0  0  0  0  0  0  0  # atno 17342 bound_to 10162
  140.1117  144.5451  150.6921 LP  0  0  0  0  0  0  0  0  0  0  0  0  # atno 17343 bound_to 10162
  157.4066  130.7362  149.6807 LP  0  0  0  0  0  0  0  0  0  0  0  0  # atno 17370 bound_to 10713
  155.9742  130.4106  150.3941 LP  0  0  0  0  0  0  0  0  0  0  0  0  # atno 17371 bound_to 10713
  139.8794  134.9121  156.3052 LP  0  0  0  0  0  0  0  0  0  0  0  0  # atno 17394 bound_to 11000
  140.9780  133.7285  156.0631 LP  0  0  0  0  0  0  0  0  0  0  0  0  # atno 17395 bound_to 11000

$$$$
