AV-unprocessed.smi:2529|AV-procd|sdf|9960|dock10
  -GOLD-   2272014 03D 1   1.00000     0.00000
 Structure written by MMmdl.
 44 46  0  0  0  0  0  0  0  0  1 V2000
  144.4876  141.7934  155.3938 C   0  0  0  0  0  0  0  0  0  0  0  0
  145.9092  141.2624  155.6276 C   0  0  2  0  0  0  0  0  0  0  0  0
  146.7518  142.2503  156.4529 C   0  0  0  0  0  0  0  0  0  0  0  0
  148.1756  141.7199  156.6993 C   0  0  0  0  0  0  0  0  0  0  0  0
  148.9210  141.3469  155.3926 C   0  0  1  0  0  0  0  0  0  0  0  0
  149.1325  142.5213  154.6284 O   0  0  0  0  0  0  0  0  0  0  0  0
  150.3151  140.6885  155.6139 C   0  0  0  0  0  0  0  0  0  0  0  0
  151.0430  141.1547  156.8108 N   0  0  0  0  0  0  0  0  0  0  0  0
  151.1123  142.5503  156.9875 C   0  0  0  0  0  0  0  0  0  0  0  0
  151.7354  143.0836  157.9892 N   0  0  0  0  0  0  0  0  0  0  0  0
  152.3676  142.2643  158.9308 C   0  0  0  0  0  0  0  0  0  0  0  0
  153.0580  142.9454  160.1043 C   0  0  0  0  0  0  0  0  0  0  0  0
  153.4725  142.0277  161.2660 C   0  0  0  0  0  0  0  0  0  0  0  0
  153.0583  143.1546  162.2187 C   0  0  0  0  0  0  0  0  0  0  0  0
  152.1399  143.6682  161.1045 C   0  0  0  0  0  0  0  0  0  0  0  0
  152.3331  140.9165  158.8042 C   0  0  0  0  0  0  0  0  0  0  0  0
  151.6440  140.2861  157.6779 C   0  0  0  0  0  0  0  0  0  0  0  0
  151.6055  139.0648  157.5290 O   0  0  0  0  0  0  0  0  0  0  0  0
  148.0420  140.4083  154.5309 C   0  0  0  0  0  0  0  0  0  0  0  0
  146.6182  140.9462  154.2996 C   0  0  0  0  0  0  0  0  0  0  0  0
  144.5000  142.7259  154.8286 H   0  0  0  0  0  0  0  0  0  0  0  0
  143.9799  141.9847  156.3396 H   0  0  0  0  0  0  0  0  0  0  0  0
  143.8861  141.0742  154.8374 H   0  0  0  0  0  0  0  0  0  0  0  0
  145.8246  140.3343  156.1952 H   0  0  0  0  0  0  0  0  0  0  0  0
  146.8018  143.2116  155.9398 H   0  0  0  0  0  0  0  0  0  0  0  0
  146.2669  142.4415  157.4109 H   0  0  0  0  0  0  0  0  0  0  0  0
  148.7365  142.4664  157.2626 H   0  0  0  0  0  0  0  0  0  0  0  0
  148.1095  140.8388  157.3384 H   0  0  0  0  0  0  0  0  0  0  0  0
  149.1464  143.2632  155.2135 H   0  0  0  0  0  0  0  0  0  0  0  0
  150.1858  139.6071  155.6805 H   0  0  0  0  0  0  0  0  0  0  0  0
  150.9346  140.8137  154.7230 H   0  0  0  0  0  0  0  0  0  0  0  0
  150.6064  143.1434  156.2239 H   0  0  0  0  0  0  0  0  0  0  0  0
  153.8809  143.5823  159.7751 H   0  0  0  0  0  0  0  0  0  0  0  0
  152.8418  141.1426  161.3687 H   0  0  0  0  0  0  0  0  0  0  0  0
  154.5325  141.7737  161.2916 H   0  0  0  0  0  0  0  0  0  0  0  0
  152.5426  142.8259  163.1215 H   0  0  0  0  0  0  0  0  0  0  0  0
  153.8761  143.8410  162.4446 H   0  0  0  0  0  0  0  0  0  0  0  0
  152.1120  144.7527  160.9972 H   0  0  0  0  0  0  0  0  0  0  0  0
  151.1365  143.2422  161.1658 H   0  0  0  0  0  0  0  0  0  0  0  0
  152.8176  140.2908  159.5394 H   0  0  0  0  0  0  0  0  0  0  0  0
  148.5207  140.2171  153.5694 H   0  0  0  0  0  0  0  0  0  0  0  0
  147.9631  139.4381  155.0237 H   0  0  0  0  0  0  0  0  0  0  0  0
  146.0412  140.2113  153.7373 H   0  0  0  0  0  0  0  0  0  0  0  0
  146.6580  141.8418  153.6783 H   0  0  0  0  0  0  0  0  0  0  0  0
  1  2  1  0  0  0  0
  1 21  1  0  0  0  0
  1 22  1  0  0  0  0
  1 23  1  0  0  0  0
  2 20  1  0  0  0  0
  2  3  1  0  0  0  0
  2 24  1  0  0  0  0
  3  4  1  0  0  0  0
  3 25  1  0  0  0  0
  3 26  1  0  0  0  0
  4  5  1  0  0  0  0
  4 27  1  0  0  0  0
  4 28  1  0  0  0  0
  5  6  1  0  0  0  0
  5  7  1  0  0  0  0
  5 19  1  0  0  0  0
  6 29  1  0  0  0  0
  7  8  1  0  0  0  0
  7 30  1  0  0  0  0
  7 31  1  0  0  0  0
  8 17  1  0  0  0  0
  8  9  1  0  0  0  0
  9 10  2  0  0  0  0
  9 32  1  0  0  0  0
 10 11  1  0  0  0  0
 11 12  1  0  0  0  0
 11 16  2  0  0  0  0
 12 15  1  0  0  0  0
 12 13  1  0  0  0  0
 12 33  1  0  0  0  0
 13 14  1  0  0  0  0
 13 34  1  0  0  0  0
 13 35  1  0  0  0  0
 14 15  1  0  0  0  0
 14 36  1  0  0  0  0
 14 37  1  0  0  0  0
 15 38  1  0  0  0  0
 15 39  1  0  0  0  0
 16 17  1  0  0  0  0
 16 40  1  0  0  0  0
 17 18  2  0  0  0  0
 19 20  1  0  0  0  0
 19 41  1  0  0  0  0
 19 42  1  0  0  0  0
 20 43  1  0  0  0  0
 20 44  1  0  0  0  0
M  END
> <s_m_source_file>
AV-unprocessed.smi

> <i_m_source_file_index>
2529

> <i_lp_mmshare_version>
43012

> <i_f3d_flags>
0

> <s_epik_input>
W0NIMl0xW0NIMl1bQ0BIXShbQ0gzXSlbQ0gyXVtDSDJdW0NAQF0xKFtPSF0pW0NIMl1uMltjSF1uYyhbY0hdYzI9TylbQ0hdM1tDSDJdW0NIMl1bQ0gyXTM=

> <s_epik_cmdline>
J2VwaWtfcHl0aG9uJywgJy1waCcsICc3LjAnLCAnLXRuJywgJzgnLCAnLW1hJywgJzIwMCcsICctbWV0YWxfYmluZGluZycsICctaW1hZScsICc8aW5maWxlLm1hZT4nLCAnLW9tYWUnLCAnPG91dGZpbGUubWFlPic=

> <r_lp_tautomer_probability>
1

> <r_epik_Ionization_Penalty>
9.15498e-05

> <r_epik_Ionization_Penalty_Charging>
1.67865e-07

> <r_epik_Ionization_Penalty_Neutral>
9.13819e-05

> <r_epik_State_Penalty>
-0

> <r_epik_Charging_Adjusted_Penalty>
1.67865e-07

> <i_epik_Tot_Q>
0

> <i_epik_Tot_abs_Q>
0

> <r_epik_Metal_State_Penalty>
-0

> <b_epik_Metal_Only>
0

> <s_lp_Force_Field>
OPLS_2005

> <r_lp_Energy>
32.8679

> <b_lp_Chiralities_Consistent>
1

> <s_lp_Variant>
AV-unprocessed.smi:2529-1

> <Gold.Version>
5.8.1

> <Gold.Id.Protein>
6NUR|6NUR_protein|mol2

> <Gold.PLP.Fitness>
45.4766

> <Gold.PLP.PLP>
-40.6819

> <Gold.PLP.part.hbond>
-1.5154

> <Gold.PLP.part.metal>
0.0000

> <Gold.PLP.part.buried>
-4.7309

> <Gold.PLP.part.nonpolar>
-33.9906

> <Gold.PLP.part.repulsive>
0.0428

> <Gold.PLP.ligand.clash>
0.0000

> <Gold.PLP.ligand.torsion>
0.7970

> <Gold.PLP.Chemscore.Hbond>
0.9872

> <Gold.PLP.Chemscore.CHOScore>
1.0000

> <Gold.PLP.Chemscore.Metal>
0.0000

> <Gold.Chemscore.Hbonds>
donor molecule, donor type, donor heavy atom, donor atom, acceptor molecule, acceptor atom, score
      L1  H     6    29       P1  8028  1.00
      P1  H  8011  8017       L1     6  0.01
      L1  C     9    32       P1  8028  1.00

> <Gold.PLP.Chemscore.Internal.Correction>
0.4271

> <Gold.Rescore>
     Score         DG    S(hbond)    S(metal)    S(lipo)     H(rot)  DE(clash)    DE(int)     intcor
     15.16     -16.41       1.13        0.00     100.53       1.80       0.49       0.75       ----

> <Gold.Chemscore.Fitness>
15.1621

> <Gold.Chemscore.DG>
-16.4076

> <Gold.Chemscore.ZeroCoef>
-5.4800

> <Gold.Chemscore.Hbond>
1.1275

> <Gold.Chemscore.Metal>
0.0000

> <Gold.Chemscore.Lipo>
100.5260

> <Gold.Chemscore.Internal_Hbond>
0.0000

> <Gold.Chemscore.DEClash>
0.4907

> <Gold.Chemscore.DEInternal>
0.7548

> <Gold.Chemscore.Rot>
1.7968

> <Gold.Chemscore.Internal.Correction>
   9.000000E+99

> <Gold.Chemscore.Hbonds>
donor molecule, donor type, donor heavy atom, donor atom, acceptor molecule, acceptor atom, score
      L1  H     6    29       P1  8028  0.92
      P1  H  8011  8017       L1     6  0.02

> <Gold.Chemscore.Hbond.Weighted>
-3.7658

> <Gold.Chemscore.Metal.Weighted>
-0.0000

> <Gold.Chemscore.Lipo.Weighted>
-11.7615

> <Gold.Chemscore.Internal_Hbond.Weighted>
0.0000

> <Gold.Chemscore.DEClash.Weighted>
0.4907

> <Gold.Chemscore.DEInternal.Weighted>
0.7548

> <Gold.Chemscore.Rot.Weighted>
4.5997

> <Gold.Chemscore.Internal.Correction.Weighted>
   9.000000E+99

> <Gold.Protein.RotatedTorsions>
[ 6907 6896 6895 6894 ] final   90.45 input  -60.11 | X-H torsion
[ 7974 7965 7964 7962 ] final -136.76 input  175.53 | X-H torsion
[ 8008 7997 7996 7995 ] final   45.91 input   59.86 | X-H torsion
[ 10167 10162 10161 10158 ] final  171.51 input  -65.29 | X-H torsion
[ 10718 10713 10712 10709 ] final -121.09 input   66.30 | X-H torsion
[ 10763 10752 10751 10750 ] final   69.50 input  -60.55 | X-H torsion
[ 11005 11000 10999 10996 ] final  -45.65 input  -57.11 | X-H torsion

> <Gold.Protein.ActiveResidues>
 VAL166  LYS551  ARG553  GLY616  TRP617  ASP618  TYR619  PRO620  LYS621  CYS622 
 ASP623  PHE694  ASN695  SER759  ASP760  ASP761  ALA762  ILE779  LEU786  VAL792 
 PHE793  MET794  SER795  GLU796  ALA797  LYS798  CYS799  TRP800  GLU811  SER814 

> <Gold.Protein.RotatedAtoms>
  152.5444  134.1810  159.8635 H   0  0  0  0  0  0  0  0  0  0  0  0  # atno 6907 bound_to 6896
  151.1812  133.4717  159.2601 H   0  0  0  0  0  0  0  0  0  0  0  0  # atno 6908 bound_to 6896
  151.1176  135.0073  159.8579 H   0  0  0  0  0  0  0  0  0  0  0  0  # atno 6909 bound_to 6896
  144.8899  140.6628  143.5152 H   0  0  0  0  0  0  0  0  0  0  0  0  # atno 7974 bound_to 7965
  155.3438  140.3409  155.4239 H   0  0  0  0  0  0  0  0  0  0  0  0  # atno 8008 bound_to 7997
  156.1799  140.1660  156.8328 H   0  0  0  0  0  0  0  0  0  0  0  0  # atno 8009 bound_to 7997
  154.5323  140.0742  156.8349 H   0  0  0  0  0  0  0  0  0  0  0  0  # atno 8010 bound_to 7997
  139.5049  144.3477  151.9954 H   0  0  0  0  0  0  0  0  0  0  0  0  # atno 10167 bound_to 10162
  156.1310  130.6395  150.9620 H   0  0  0  0  0  0  0  0  0  0  0  0  # atno 10718 bound_to 10713
  153.0290  135.5208  154.7298 H   0  0  0  0  0  0  0  0  0  0  0  0  # atno 10763 bound_to 10752
  154.6329  135.2902  155.0198 H   0  0  0  0  0  0  0  0  0  0  0  0  # atno 10764 bound_to 10752
  154.1143  135.6617  153.4943 H   0  0  0  0  0  0  0  0  0  0  0  0  # atno 10765 bound_to 10752
  141.0529  133.6736  156.3043 H   0  0  0  0  0  0  0  0  0  0  0  0  # atno 11005 bound_to 11000
  145.3801  139.1639  143.4285 LP  0  0  0  0  0  0  0  0  0  0  0  0  # atno 17320 bound_to 7965
  146.3047  140.3881  142.8691 LP  0  0  0  0  0  0  0  0  0  0  0  0  # atno 17321 bound_to 7965
  140.2914  144.3749  150.6087 LP  0  0  0  0  0  0  0  0  0  0  0  0  # atno 17342 bound_to 10162
  140.5943  143.2167  151.7193 LP  0  0  0  0  0  0  0  0  0  0  0  0  # atno 17343 bound_to 10162
  157.6488  131.0900  150.8096 LP  0  0  0  0  0  0  0  0  0  0  0  0  # atno 17370 bound_to 10713
  156.8181  130.4975  149.5346 LP  0  0  0  0  0  0  0  0  0  0  0  0  # atno 17371 bound_to 10713
  140.6020  134.5545  157.5519 LP  0  0  0  0  0  0  0  0  0  0  0  0  # atno 17394 bound_to 11000
  139.9365  134.7865  156.0788 LP  0  0  0  0  0  0  0  0  0  0  0  0  # atno 17395 bound_to 11000

$$$$
