AV-unprocessed.smi:2465|AV-procd|sdf|9723|dock1
  -GOLD-   2272013363D 1   1.00000     0.00000
 Structure written by MMmdl.
 41 42  0  0  0  0  0  0  0  0  2 V2000
  147.3892  133.3021  152.1574 C   0  0  0  0  0  0  0  0  0  0  0  0
  146.0277  133.5108  151.5163 C   0  0  0  0  0  0  0  0  0  0  0  0
  145.2672  132.3879  151.1210 C   0  0  0  0  0  0  0  0  0  0  0  0
  144.0068  132.5810  150.5240 C   0  0  0  0  0  0  0  0  0  0  0  0
  143.5422  133.8327  150.3321 N   0  3  0  0  0  0  0  0  0  0  0  0
  144.2323  134.9356  150.6934 C   0  0  0  0  0  0  0  0  0  0  0  0
  145.5037  134.8133  151.3104 C   0  0  0  0  0  0  0  0  0  0  0  0
  146.2919  135.9325  151.7071 N   0  0  0  0  0  0  0  0  0  0  0  0
  145.9013  137.0930  152.2625 C   0  0  0  0  0  0  0  0  0  0  0  0
  144.7407  137.4007  152.5323 O   0  0  0  0  0  0  0  0  0  0  0  0
  146.9517  137.8902  152.5048 N   0  0  0  0  0  0  0  0  0  0  0  0
  146.8766  139.2217  153.0954 C   0  0  0  0  0  0  0  0  0  0  0  0
  147.9930  139.4545  154.1263 C   0  0  0  0  0  0  0  0  0  0  0  0
  149.2535  138.6308  153.8152 C   0  0  0  0  0  0  0  0  0  0  0  0
  150.4084  139.1030  154.5744 N   0  0  0  0  0  0  0  0  0  0  0  0
  150.3553  140.3650  155.2935 C   0  0  0  0  0  0  0  0  0  0  0  0
  151.6585  140.4182  156.1039 C   0  0  0  0  0  0  0  0  0  0  0  0
  152.5529  139.3143  155.5292 C   0  0  0  0  0  0  0  0  0  0  0  0
  151.6028  138.5057  154.6622 C   0  0  0  0  0  0  0  0  0  0  0  0
  151.9262  137.4466  154.1262 O   0  0  0  0  0  0  0  0  0  0  0  0
  147.6377  132.2427  152.2296 H   0  0  0  0  0  0  0  0  0  0  0  0
  147.4046  133.7211  153.1641 H   0  0  0  0  0  0  0  0  0  0  0  0
  148.1664  133.7896  151.5682 H   0  0  0  0  0  0  0  0  0  0  0  0
  145.6435  131.3862  151.2710 H   0  0  0  0  0  0  0  0  0  0  0  0
  143.3632  131.7791  150.1923 H   0  0  0  0  0  0  0  0  0  0  0  0
  143.7368  135.8654  150.4606 H   0  0  0  0  0  0  0  0  0  0  0  0
  147.2886  135.8145  151.5983 H   0  0  0  0  0  0  0  0  0  0  0  0
  147.8720  137.5573  152.2566 H   0  0  0  0  0  0  0  0  0  0  0  0
  146.9584  139.9518  152.2896 H   0  0  0  0  0  0  0  0  0  0  0  0
  145.8970  139.3720  153.5525 H   0  0  0  0  0  0  0  0  0  0  0  0
  148.2536  140.5135  154.1523 H   0  0  0  0  0  0  0  0  0  0  0  0
  147.6251  139.2026  155.1219 H   0  0  0  0  0  0  0  0  0  0  0  0
  149.0799  137.5771  154.0390 H   0  0  0  0  0  0  0  0  0  0  0  0
  149.4784  138.6847  152.7491 H   0  0  0  0  0  0  0  0  0  0  0  0
  150.3057  141.1865  154.5775 H   0  0  0  0  0  0  0  0  0  0  0  0
  149.4764  140.4181  155.9373 H   0  0  0  0  0  0  0  0  0  0  0  0
  152.1306  141.3993  156.0434 H   0  0  0  0  0  0  0  0  0  0  0  0
  151.4530  140.2181  157.1563 H   0  0  0  0  0  0  0  0  0  0  0  0
  153.3483  139.7280  154.9085 H   0  0  0  0  0  0  0  0  0  0  0  0
  153.0009  138.6991  156.3101 H   0  0  0  0  0  0  0  0  0  0  0  0
  142.6296  133.9524  149.8918 H   0  0  0  0  0  0  0  0  0  0  0  0
  1  2  1  0  0  0  0
  1 21  1  0  0  0  0
  1 22  1  0  0  0  0
  1 23  1  0  0  0  0
  2  7  1  0  0  0  0
  2  3  2  0  0  0  0
  3  4  1  0  0  0  0
  3 24  1  0  0  0  0
  4  5  2  0  0  0  0
  4 25  1  0  0  0  0
  5  6  1  0  0  0  0
  5 41  1  0  0  0  0
  6  7  2  0  0  0  0
  6 26  1  0  0  0  0
  7  8  1  0  0  0  0
  8  9  1  0  0  0  0
  8 27  1  0  0  0  0
  9 10  2  0  0  0  0
  9 11  1  0  0  0  0
 11 12  1  0  0  0  0
 11 28  1  0  0  0  0
 12 13  1  0  0  0  0
 12 29  1  0  0  0  0
 12 30  1  0  0  0  0
 13 14  1  0  0  0  0
 13 31  1  0  0  0  0
 13 32  1  0  0  0  0
 14 15  1  0  0  0  0
 14 33  1  0  0  0  0
 14 34  1  0  0  0  0
 15 19  1  0  0  0  0
 15 16  1  0  0  0  0
 16 17  1  0  0  0  0
 16 35  1  0  0  0  0
 16 36  1  0  0  0  0
 17 18  1  0  0  0  0
 17 37  1  0  0  0  0
 17 38  1  0  0  0  0
 18 19  1  0  0  0  0
 18 39  1  0  0  0  0
 18 40  1  0  0  0  0
 19 20  2  0  0  0  0
M  CHG  1   5   1
M  END
> <s_m_source_file>
AV-unprocessed.smi

> <i_m_source_file_index>
2465

> <i_lp_mmshare_version>
43012

> <i_f3d_flags>
0

> <s_epik_input>
W0NIM11jMVtjSF1bY0hdbltjSF1jMVtOSF1DKD1PKVtOSF1bQ0gyXVtDSDJdW0NIMl1OMltDSDJdW0NIMl1bQ0gyXUMyPU8=

> <s_epik_cmdline>
J2VwaWtfcHl0aG9uJywgJy1waCcsICc3LjAnLCAnLXRuJywgJzgnLCAnLW1hJywgJzIwMCcsICctbWV0YWxfYmluZGluZycsICctaW1hZScsICc8aW5maWxlLm1hZT4nLCAnLW9tYWUnLCAnPG91dGZpbGUubWFlPic=

> <r_epik_Ionization_Penalty>
1.98477

> <r_epik_Ionization_Penalty_Charging>
1.98474

> <r_epik_Ionization_Penalty_Neutral>
2.19328e-05

> <r_epik_State_Penalty>
2.1123

> <r_epik_Charging_Adjusted_Penalty>
4.09705

> <i_epik_Tot_Q>
1

> <i_epik_Tot_abs_Q>
1

> <r_epik_Metal_State_Penalty>
2.13405

> <b_epik_Metal_Only>
0

> <s_lp_Force_Field>
OPLS_2005

> <r_lp_Energy>
26.0932

> <b_lp_Chiralities_Consistent>
1

> <s_lp_Variant>
AV-unprocessed.smi:2465-2

> <Gold.Version>
5.8.1

> <Gold.Id.Protein>
6NUR|6NUR_protein|mol2

> <Gold.PLP.Fitness>
53.0921

> <Gold.PLP.PLP>
-39.6350

> <Gold.PLP.part.hbond>
-4.0000

> <Gold.PLP.part.metal>
0.0000

> <Gold.PLP.part.buried>
-2.5687

> <Gold.PLP.part.nonpolar>
-34.1541

> <Gold.PLP.part.repulsive>
0.9793

> <Gold.PLP.ligand.clash>
0.0000

> <Gold.PLP.ligand.torsion>
0.7718

> <Gold.PLP.Chemscore.Hbond>
4.9675

> <Gold.PLP.Chemscore.CHOScore>
0.0000

> <Gold.PLP.Chemscore.Metal>
0.0000

> <Gold.Chemscore.Hbonds>
donor molecule, donor type, donor heavy atom, donor atom, acceptor molecule, acceptor atom, score
      L1  H     5    41       P1 10186  2.00
      L1  H     8    27       P1  7948  1.00
      L1  H    11    28       P1  7948  1.00
      P1  H 10752 10764       L1    20  0.94

> <Gold.PLP.Chemscore.Internal.Correction>
0.0983

> <Gold.Rescore>
     Score         DG    S(hbond)    S(metal)    S(lipo)     H(rot)  DE(clash)    DE(int)     intcor
     22.14     -22.93       3.91        0.00      76.66       1.78       0.05       0.75       ----

> <Gold.Chemscore.Fitness>
22.1364

> <Gold.Chemscore.DG>
-22.9311

> <Gold.Chemscore.ZeroCoef>
-5.4800

> <Gold.Chemscore.Hbond>
3.9070

> <Gold.Chemscore.Metal>
0.0000

> <Gold.Chemscore.Lipo>
76.6589

> <Gold.Chemscore.Internal_Hbond>
0.0000

> <Gold.Chemscore.DEClash>
0.0485

> <Gold.Chemscore.DEInternal>
0.7462

> <Gold.Chemscore.Rot>
1.7841

> <Gold.Chemscore.Internal.Correction>
   9.000000E+99

> <Gold.Chemscore.Hbonds>
donor molecule, donor type, donor heavy atom, donor atom, acceptor molecule, acceptor atom, score
      L1  H     5    41       P1 10186  1.00
      L1  H     8    27       P1  7948  0.98
      L1  H    11    28       P1  7948  0.95
      P1  H 10752 10764       L1    20  0.84

> <Gold.Chemscore.Hbond.Weighted>
-13.0493

> <Gold.Chemscore.Metal.Weighted>
-0.0000

> <Gold.Chemscore.Lipo.Weighted>
-8.9691

> <Gold.Chemscore.Internal_Hbond.Weighted>
0.0000

> <Gold.Chemscore.DEClash.Weighted>
0.0485

> <Gold.Chemscore.DEInternal.Weighted>
0.7462

> <Gold.Chemscore.Rot.Weighted>
4.5673

> <Gold.Chemscore.Internal.Correction.Weighted>
   9.000000E+99

> <Gold.Protein.RotatedTorsions>
[ 6907 6896 6895 6894 ] final    6.24 input  -60.11 | X-H torsion
[ 7974 7965 7964 7962 ] final   17.68 input  175.53 | X-H torsion
[ 8008 7997 7996 7995 ] final -118.90 input   59.86 | X-H torsion
[ 10167 10162 10161 10158 ] final  133.97 input  -65.29 | X-H torsion
[ 10718 10713 10712 10709 ] final   95.55 input   66.30 | X-H torsion
[ 10763 10752 10751 10750 ] final  -84.35 input  -60.55 | X-H torsion
[ 11005 11000 10999 10996 ] final   68.88 input  -57.11 | X-H torsion

> <Gold.Protein.ActiveResidues>
 VAL166  LYS551  ARG553  GLY616  TRP617  ASP618  TYR619  PRO620  LYS621  CYS622 
 ASP623  PHE694  ASN695  SER759  ASP760  ASP761  ALA762  ILE779  LEU786  VAL792 
 PHE793  MET794  SER795  GLU796  ALA797  LYS798  CYS799  TRP800  GLU811  SER814 

> <Gold.Protein.RotatedAtoms>
  151.6705  135.0976  160.0196 H   0  0  0  0  0  0  0  0  0  0  0  0  # atno 6907 bound_to 6896
  152.3894  133.6653  159.6234 H   0  0  0  0  0  0  0  0  0  0  0  0  # atno 6908 bound_to 6896
  150.7813  133.8896  159.3351 H   0  0  0  0  0  0  0  0  0  0  0  0  # atno 6909 bound_to 6896
  146.2210  139.8567  142.8612 H   0  0  0  0  0  0  0  0  0  0  0  0  # atno 7974 bound_to 7965
  155.1071  140.0397  157.2713 H   0  0  0  0  0  0  0  0  0  0  0  0  # atno 8008 bound_to 7997
  154.6713  140.2613  155.6978 H   0  0  0  0  0  0  0  0  0  0  0  0  # atno 8009 bound_to 7997
  156.2659  140.2797  156.1223 H   0  0  0  0  0  0  0  0  0  0  0  0  # atno 8010 bound_to 7997
  139.5275  144.6590  151.5072 H   0  0  0  0  0  0  0  0  0  0  0  0  # atno 10167 bound_to 10162
  157.6937  131.0549  150.4356 H   0  0  0  0  0  0  0  0  0  0  0  0  # atno 10718 bound_to 10713
  154.5985  135.5523  153.7350 H   0  0  0  0  0  0  0  0  0  0  0  0  # atno 10763 bound_to 10752
  153.0145  135.6360  154.1748 H   0  0  0  0  0  0  0  0  0  0  0  0  # atno 10764 bound_to 10752
  154.1688  135.2893  155.3067 H   0  0  0  0  0  0  0  0  0  0  0  0  # atno 10765 bound_to 10752
  139.9686  134.6939  156.0494 H   0  0  0  0  0  0  0  0  0  0  0  0  # atno 11005 bound_to 11000
  145.2746  141.0119  143.3752 LP  0  0  0  0  0  0  0  0  0  0  0  0  # atno 17320 bound_to 7965
  144.9197  139.4427  143.6547 LP  0  0  0  0  0  0  0  0  0  0  0  0  # atno 17321 bound_to 7965
  140.6429  143.8852  150.6709 LP  0  0  0  0  0  0  0  0  0  0  0  0  # atno 17342 bound_to 10162
  140.2193  143.3822  152.1656 LP  0  0  0  0  0  0  0  0  0  0  0  0  # atno 17343 bound_to 10162
  156.4719  130.4054  149.6513 LP  0  0  0  0  0  0  0  0  0  0  0  0  # atno 17370 bound_to 10713
  156.3590  130.7471  151.2441 LP  0  0  0  0  0  0  0  0  0  0  0  0  # atno 17371 bound_to 10713
  141.1366  133.6574  156.3610 LP  0  0  0  0  0  0  0  0  0  0  0  0  # atno 17394 bound_to 11000
  140.5342  134.6183  157.5360 LP  0  0  0  0  0  0  0  0  0  0  0  0  # atno 17395 bound_to 11000

$$$$
