#       Name:                AV-unprocessed.smi:477
#       Creating user name   scv26
#       Creation time:       Thu Mar 26 23:08:36 2020


#       File generated by GOLD software.
#

@<TRIPOS>MOLECULE
AV-unprocessed.smi:477
    51    52     1
SMALL
NO_CHARGES


@<TRIPOS>ATOM
      1 ****        -3.6381   0.8224  -1.3103 C.3            1 S1                 0.0000
      2 ****        -3.1255  -0.5860  -1.1728 C.2            1 S1                 0.0000
      3 ****        -1.8421  -0.7381  -1.1656 N.2            1 S1                 0.0000
      4 ****        -1.2659  -1.9879  -1.0432 N.am           1 S1                 0.0000
      5 ****         0.2039  -1.9657  -1.0260 C.3            1 S1                 0.0000
      6 ****         0.7923  -1.8352   0.3865 C.2            1 S1                 0.0000
      7 ****         0.1230  -2.1083   1.3840 O.2            1 S1                 0.0000
      8 ****         2.0607  -1.4039   0.4508 N.am           1 S1                 0.0000
      9 ****         2.8027  -1.1616   1.6828 C.3            1 S1                 0.0000
     10 ****         2.4333   0.1737   2.3614 C.3            1 S1                 0.0000
     11 ****         2.6518   1.3956   1.4811 C.2            1 S1                 0.0000
     12 ****         3.8381   2.0325   1.4399 C.2            1 S1                 0.0000
     13 ****         4.1110   3.2779   0.6148 C.3            1 S1                 0.0000
     14 ****         2.8182   3.9475   0.1197 C.3            1 S1                 0.0000
     15 ****         1.8204   2.9069  -0.4032 C.3            1 S1                 0.0000
     16 ****         1.4446   1.8912   0.6901 C.3            1 S1                 0.0000
     17 ****        -1.9617  -3.1558  -0.9284 C.2            1 S1                 0.0000
     18 ****        -1.4071  -4.2507  -0.8223 O.2            1 S1                 0.0000
     19 ****        -3.4152  -2.9760  -0.9384 C.2            1 S1                 0.0000
     20 ****        -4.1817  -4.1744  -0.8208 C.1            1 S1                 0.0000
     21 ****        -4.8196  -5.1364  -0.7324 N.1            1 S1                 0.0000
     22 ****        -3.9927  -1.7536  -1.0504 C.2            1 S1                 0.0000
     23 ****        -5.4964  -1.5146  -1.0634 C.3            1 S1                 0.0000
     24 ****        -4.3296   0.9044  -2.1492 H              1 S1                 0.0000
     25 ****        -2.8295   1.5347  -1.4820 H              1 S1                 0.0000
     26 ****        -4.1638   1.1314  -0.4066 H              1 S1                 0.0000
     27 ****         0.6157  -2.8600  -1.4964 H              1 S1                 0.0000
     28 ****         0.5600  -1.1303  -1.6323 H              1 S1                 0.0000
     29 ****         2.5392  -1.2049  -0.4159 H              1 S1                 0.0000
     30 ****         2.6475  -1.9889   2.3772 H              1 S1                 0.0000
     31 ****         3.8654  -1.1661   1.4390 H              1 S1                 0.0000
     32 ****         1.3979   0.1586   2.7039 H              1 S1                 0.0000
     33 ****         3.0407   0.2844   3.2605 H              1 S1                 0.0000
     34 ****         4.6710   1.6492   2.0116 H              1 S1                 0.0000
     35 ****         4.6894   3.9846   1.2102 H              1 S1                 0.0000
     36 ****         4.7350   2.9911  -0.2321 H              1 S1                 0.0000
     37 ****         2.3589   4.5027   0.9387 H              1 S1                 0.0000
     38 ****         3.0496   4.6774  -0.6564 H              1 S1                 0.0000
     39 ****         0.9222   3.3975  -0.7791 H              1 S1                 0.0000
     40 ****         2.2622   2.3812  -1.2508 H              1 S1                 0.0000
     41 ****         0.9166   1.0554   0.2341 H              1 S1                 0.0000
     42 ****         0.7497   2.3473   1.3958 H              1 S1                 0.0000
     43 ****        -6.0602  -2.4273  -0.8724 H              1 S1                 0.0000
     44 ****        -5.8113  -1.1286  -2.0334 H              1 S1                 0.0000
     45 ****        -5.7794  -0.7925  -0.2968 H              1 S1                 0.0000
     46 ****        -1.2536   0.0659  -1.2505 LP             1 S1                 0.0000
     47 ****        -0.8213  -2.4214   1.2822 LP             1 S1                 0.0000
     48 ****         0.5239  -2.0170   2.2955 LP             1 S1                 0.0000
     49 ****        -0.4087  -4.3072  -0.8181 LP             1 S1                 0.0000
     50 ****        -1.9553  -5.0830  -0.7405 LP             1 S1                 0.0000
     51 ****        -5.3707  -5.9674  -0.6561 LP             1 S1                 0.0000
@<TRIPOS>BOND
    1    1    2 1     
    2    1   24 1     
    3    1   25 1     
    4    1   26 1     
    5    2   22 1     
    6    2    3 2     
    7    3    4 1     
    8    4    5 1     
    9    4   17 am    
   10    5    6 1     
   11    5   27 1     
   12    5   28 1     
   13    6    7 2     
   14    6    8 am    
   15    8    9 1     
   16    8   29 1     
   17    9   10 1     
   18    9   30 1     
   19    9   31 1     
   20   10   11 1     
   21   10   32 1     
   22   10   33 1     
   23   11   16 1     
   24   11   12 2     
   25   12   13 1     
   26   12   34 1     
   27   13   14 1     
   28   13   35 1     
   29   13   36 1     
   30   14   15 1     
   31   14   37 1     
   32   14   38 1     
   33   15   16 1     
   34   15   39 1     
   35   15   40 1     
   36   16   41 1     
   37   16   42 1     
   38   17   18 2     
   39   17   19 1     
   40   19   20 1     
   41   19   22 2     
   42   20   21 3     
   43   22   23 1     
   44   23   43 1     
   45   23   44 1     
   46   23   45 1     
   47    3   46 1     
   48    7   47 1     
   49    7   48 1     
   50   18   49 1     
   51   18   50 1     
   52   21   51 1     
@<TRIPOS>SUBSTRUCTURE
      1 S1             1
@<TRIPOS>SET
LONE_PAIRS      STATIC     ATOMS    <user>   **** ""
6 46 47 48 49 50 51
DONOR_HYDROGENS      STATIC     ATOMS    <user>   **** ""
1 29
ATOM$BLUE        STATIC     ATOMS    COLORGROUP SYSTEM
6 46 47 48 49 50 51
ATOM$RED        STATIC     ATOMS    COLORGROUP SYSTEM
1 29
