AV-unprocessed.smi:930|AV-procd|sdf|4196|dock3
  -GOLD-   22720 2103D 1   1.00000     0.00000
 Structure written by MMmdl.
 32 33  0  0  0  0  0  0  0  0  1 V2000
  155.4429  135.1872  163.4319 C   0  0  0  0  0  0  0  0  0  0  0  0
  155.2209  136.1388  162.3064 C   0  0  0  0  0  0  0  0  0  0  0  0
  155.6861  135.9223  161.0700 N   0  0  0  0  0  0  0  0  0  0  0  0
  155.3529  136.9472  160.1956 N   0  0  0  0  0  0  0  0  0  0  0  0
  154.6448  137.9105  160.8010 C   0  0  0  0  0  0  0  0  0  0  0  0
  154.1743  139.0770  160.1419 N   0  0  0  0  0  0  0  0  0  0  0  0
  154.0975  140.3312  160.6205 C   0  0  0  0  0  0  0  0  0  0  0  0
  154.4358  140.6843  161.7506 O   0  0  0  0  0  0  0  0  0  0  0  0
  153.5969  141.1706  159.7021 N   0  0  0  0  0  0  0  0  0  0  0  0
  153.3863  142.6024  159.8950 C   0  0  0  0  0  0  0  0  0  0  0  0
  152.6658  142.8735  161.2325 C   0  0  0  0  0  0  0  0  0  0  0  0
  152.3688  144.3703  161.4178 C   0  0  0  0  0  0  0  0  0  0  0  0
  151.5626  144.9297  160.2353 C   0  0  0  0  0  0  0  0  0  0  0  0
  152.2791  144.6656  158.9017 C   0  0  0  0  0  0  0  0  0  0  0  0
  152.5757  143.1689  158.7139 C   0  0  0  0  0  0  0  0  0  0  0  0
  154.3246  137.6394  162.5055 S   0  0  0  0  0  0  0  0  0  0  0  0
  155.9431  134.2842  163.0803 H   0  0  0  0  0  0  0  0  0  0  0  0
  154.4878  134.9063  163.8761 H   0  0  0  0  0  0  0  0  0  0  0  0
  156.0622  135.6543  164.1976 H   0  0  0  0  0  0  0  0  0  0  0  0
  153.8596  138.9401  159.1929 H   0  0  0  0  0  0  0  0  0  0  0  0
  153.3445  140.7934  158.8004 H   0  0  0  0  0  0  0  0  0  0  0  0
  154.3563  143.1035  159.9093 H   0  0  0  0  0  0  0  0  0  0  0  0
  151.7304  142.3131  161.2680 H   0  0  0  0  0  0  0  0  0  0  0  0
  153.2705  142.5172  162.0675 H   0  0  0  0  0  0  0  0  0  0  0  0
  151.8226  144.5283  162.3479 H   0  0  0  0  0  0  0  0  0  0  0  0
  153.3067  144.9191  161.5132 H   0  0  0  0  0  0  0  0  0  0  0  0
  150.5734  144.4705  160.2172 H   0  0  0  0  0  0  0  0  0  0  0  0
  151.4044  146.0005  160.3666 H   0  0  0  0  0  0  0  0  0  0  0  0
  151.6706  145.0307  158.0740 H   0  0  0  0  0  0  0  0  0  0  0  0
  153.2128  145.2289  158.8710 H   0  0  0  0  0  0  0  0  0  0  0  0
  153.1195  143.0183  157.7804 H   0  0  0  0  0  0  0  0  0  0  0  0
  151.6351  142.6248  158.6148 H   0  0  0  0  0  0  0  0  0  0  0  0
  1  2  1  0  0  0  0
  1 17  1  0  0  0  0
  1 18  1  0  0  0  0
  1 19  1  0  0  0  0
  2 16  1  0  0  0  0
  2  3  2  0  0  0  0
  3  4  1  0  0  0  0
  4  5  2  0  0  0  0
  5  6  1  0  0  0  0
  5 16  1  0  0  0  0
  6  7  1  0  0  0  0
  6 20  1  0  0  0  0
  7  8  2  0  0  0  0
  7  9  1  0  0  0  0
  9 10  1  0  0  0  0
  9 21  1  0  0  0  0
 10 15  1  0  0  0  0
 10 11  1  0  0  0  0
 10 22  1  0  0  0  0
 11 12  1  0  0  0  0
 11 23  1  0  0  0  0
 11 24  1  0  0  0  0
 12 13  1  0  0  0  0
 12 25  1  0  0  0  0
 12 26  1  0  0  0  0
 13 14  1  0  0  0  0
 13 27  1  0  0  0  0
 13 28  1  0  0  0  0
 14 15  1  0  0  0  0
 14 29  1  0  0  0  0
 14 30  1  0  0  0  0
 15 31  1  0  0  0  0
 15 32  1  0  0  0  0
M  END
> <s_m_source_file>
AV-unprocessed.smi

> <i_m_source_file_index>
930

> <i_lp_mmshare_version>
43012

> <i_f3d_flags>
0

> <s_epik_input>
W0NIM11jMW5uYyhzMSlbTkhdQyg9TylbTkhdW0NIXTJbQ0gyXVtDSDJdW0NIMl1bQ0gyXVtDSDJdMg==

> <s_epik_cmdline>
J2VwaWtfcHl0aG9uJywgJy1waCcsICc3LjAnLCAnLXRuJywgJzgnLCAnLW1hJywgJzIwMCcsICctbWV0YWxfYmluZGluZycsICctaW1hZScsICc8aW5maWxlLm1hZT4nLCAnLW9tYWUnLCAnPG91dGZpbGUubWFlPic=

> <r_lp_tautomer_probability>
1

> <r_epik_Ionization_Penalty>
0.000369052

> <r_epik_Ionization_Penalty_Charging>
0

> <r_epik_Ionization_Penalty_Neutral>
0.000369052

> <r_epik_State_Penalty>
-0

> <r_epik_Charging_Adjusted_Penalty>
0

> <i_epik_Tot_Q>
0

> <i_epik_Tot_abs_Q>
0

> <r_epik_Metal_State_Penalty>
0.185018

> <b_epik_Metal_Only>
0

> <s_lp_Force_Field>
OPLS_2005

> <r_lp_Energy>
7.80656

> <b_lp_Chiralities_Consistent>
1

> <s_lp_Variant>
AV-unprocessed.smi:930-1

> <Gold.Version>
5.8.1

> <Gold.Id.Protein>
6NUR|6NUR_protein|mol2

> <Gold.PLP.Fitness>
34.8847

> <Gold.PLP.PLP>
-35.6629

> <Gold.PLP.part.hbond>
0.0000

> <Gold.PLP.part.metal>
0.0000

> <Gold.PLP.part.buried>
-5.1098

> <Gold.PLP.part.nonpolar>
-30.2372

> <Gold.PLP.part.repulsive>
0.1137

> <Gold.PLP.ligand.clash>
0.0000

> <Gold.PLP.ligand.torsion>
0.3907

> <Gold.PLP.Chemscore.Hbond>
0.0000

> <Gold.PLP.Chemscore.CHOScore>
0.0000

> <Gold.PLP.Chemscore.Metal>
0.0000

> <Gold.PLP.Chemscore.Internal.Correction>
0.0033

> <Gold.Rescore>
     Score         DG    S(hbond)    S(metal)    S(lipo)     H(rot)  DE(clash)    DE(int)     intcor
     12.40     -14.34       0.00        0.00      97.64       1.00       0.02       1.93       ----

> <Gold.Chemscore.Fitness>
12.3958

> <Gold.Chemscore.DG>
-14.3442

> <Gold.Chemscore.ZeroCoef>
-5.4800

> <Gold.Chemscore.Hbond>
0.0000

> <Gold.Chemscore.Metal>
0.0000

> <Gold.Chemscore.Lipo>
97.6431

> <Gold.Chemscore.Internal_Hbond>
0.0000

> <Gold.Chemscore.DEClash>
0.0231

> <Gold.Chemscore.DEInternal>
1.9253

> <Gold.Chemscore.Rot>
1.0000

> <Gold.Chemscore.Internal.Correction>
   9.000000E+99

> <Gold.Chemscore.Hbond.Weighted>
-0.0000

> <Gold.Chemscore.Metal.Weighted>
-0.0000

> <Gold.Chemscore.Lipo.Weighted>
-11.4242

> <Gold.Chemscore.Internal_Hbond.Weighted>
0.0000

> <Gold.Chemscore.DEClash.Weighted>
0.0231

> <Gold.Chemscore.DEInternal.Weighted>
1.9253

> <Gold.Chemscore.Rot.Weighted>
2.5600

> <Gold.Chemscore.Internal.Correction.Weighted>
   9.000000E+99

> <Gold.Protein.RotatedTorsions>
[ 6907 6896 6895 6894 ] final   79.33 input  -60.11 | X-H torsion
[ 7974 7965 7964 7962 ] final   11.45 input  175.53 | X-H torsion
[ 8008 7997 7996 7995 ] final -161.34 input   59.86 | X-H torsion
[ 10167 10162 10161 10158 ] final -123.41 input  -65.29 | X-H torsion
[ 10718 10713 10712 10709 ] final -134.30 input   66.30 | X-H torsion
[ 10763 10752 10751 10750 ] final   21.39 input  -60.55 | X-H torsion
[ 11005 11000 10999 10996 ] final -178.21 input  -57.11 | X-H torsion

> <Gold.Protein.ActiveResidues>
 VAL166  LYS551  ARG553  GLY616  TRP617  ASP618  TYR619  PRO620  LYS621  CYS622 
 ASP623  PHE694  ASN695  SER759  ASP760  ASP761  ALA762  ILE779  LEU786  VAL792 
 PHE793  MET794  SER795  GLU796  ALA797  LYS798  CYS799  TRP800  GLU811  SER814 

> <Gold.Protein.RotatedAtoms>
  152.5194  134.3527  159.9256 H   0  0  0  0  0  0  0  0  0  0  0  0  # atno 6907 bound_to 6896
  151.3478  133.3930  159.2685 H   0  0  0  0  0  0  0  0  0  0  0  0  # atno 6908 bound_to 6896
  150.9751  134.9135  159.7869 H   0  0  0  0  0  0  0  0  0  0  0  0  # atno 6909 bound_to 6896
  146.2371  139.9484  142.8474 H   0  0  0  0  0  0  0  0  0  0  0  0  # atno 7974 bound_to 7965
  155.7908  140.0878  157.2010 H   0  0  0  0  0  0  0  0  0  0  0  0  # atno 8008 bound_to 7997
  154.3985  140.1490  156.3218 H   0  0  0  0  0  0  0  0  0  0  0  0  # atno 8009 bound_to 7997
  155.8561  140.3432  155.5728 H   0  0  0  0  0  0  0  0  0  0  0  0  # atno 8010 bound_to 7997
  140.0038  143.5512  152.2292 H   0  0  0  0  0  0  0  0  0  0  0  0  # atno 10167 bound_to 10162
  156.2540  130.7170  151.1080 H   0  0  0  0  0  0  0  0  0  0  0  0  # atno 10718 bound_to 10713
  153.0999  135.6670  153.9693 H   0  0  0  0  0  0  0  0  0  0  0  0  # atno 10763 bound_to 10752
  153.9266  135.3008  155.3448 H   0  0  0  0  0  0  0  0  0  0  0  0  # atno 10764 bound_to 10752
  154.7419  135.5075  153.9213 H   0  0  0  0  0  0  0  0  0  0  0  0  # atno 10765 bound_to 10752
  140.4323  134.6507  157.4718 H   0  0  0  0  0  0  0  0  0  0  0  0  # atno 11005 bound_to 11000
  145.1885  140.9801  143.4224 LP  0  0  0  0  0  0  0  0  0  0  0  0  # atno 17320 bound_to 7965
  144.9878  139.3719  143.6230 LP  0  0  0  0  0  0  0  0  0  0  0  0  # atno 17321 bound_to 7965
  139.6253  144.7636  151.2653 LP  0  0  0  0  0  0  0  0  0  0  0  0  # atno 17342 bound_to 10162
  140.7408  143.6576  150.8193 LP  0  0  0  0  0  0  0  0  0  0  0  0  # atno 17343 bound_to 10162
  157.7225  131.0672  150.6073 LP  0  0  0  0  0  0  0  0  0  0  0  0  # atno 17370 bound_to 10713
  156.6155  130.4391  149.5842 LP  0  0  0  0  0  0  0  0  0  0  0  0  # atno 17371 bound_to 10713
  140.0126  134.6668  155.9358 LP  0  0  0  0  0  0  0  0  0  0  0  0  # atno 17394 bound_to 11000
  141.1740  133.6539  156.4758 LP  0  0  0  0  0  0  0  0  0  0  0  0  # atno 17395 bound_to 11000

$$$$
