AV-unprocessed.smi:2329|AV-procd|sdf|9302|dock6
  -GOLD-   2272012523D 1   1.00000     0.00000
 Structure written by MMmdl.
 45 48  0  0  0  0  0  0  0  0  1 V2000
  145.5226  129.4160  152.3799 C   0  0  0  0  0  0  0  0  0  0  0  0
  145.5335  130.8363  151.8555 C   0  0  0  0  0  0  0  0  0  0  0  0
  144.7026  131.2211  150.7849 C   0  0  0  0  0  0  0  0  0  0  0  0
  144.7621  132.5560  150.3460 C   0  0  0  0  0  0  0  0  0  0  0  0
  145.6438  133.4445  150.9909 C   0  0  0  0  0  0  0  0  0  0  0  0
  146.4440  132.9770  152.0573 C   0  0  0  0  0  0  0  0  0  0  0  0
  147.2924  133.9522  152.6424 N   0  0  0  0  0  0  0  0  0  0  0  0
  147.5844  134.1362  153.9446 C   0  0  0  0  0  0  0  0  0  0  0  0
  147.2206  133.3970  154.8575 O   0  0  0  0  0  0  0  0  0  0  0  0
  148.3350  135.2248  154.1867 N   0  0  0  0  0  0  0  0  0  0  0  0
  148.8227  135.7070  155.4799 C   0  0  2  0  0  0  0  0  0  0  0  0
  150.1685  136.4213  155.3510 C   0  0  1  0  0  0  0  0  0  0  0  0
  150.6173  137.8305  155.5060 C   0  0  0  0  0  0  0  0  0  0  0  0
  151.8693  137.5621  156.3825 C   0  0  0  0  0  0  0  0  0  0  0  0
  151.7842  136.1724  156.7812 O   0  0  0  0  0  0  0  0  0  0  0  0
  150.3988  135.8950  156.7520 C   0  0  2  0  0  0  0  0  0  0  0  0
  149.6205  134.6356  156.3222 C   0  0  0  0  0  0  0  0  0  0  0  0
  148.8543  133.9008  157.4289 C   0  0  0  0  0  0  0  0  0  0  0  0
  148.8779  132.3945  157.1398 C   0  0  0  0  0  0  0  0  0  0  0  0
  149.5545  132.2351  155.7822 C   0  0  0  0  0  0  0  0  0  0  0  0
  150.3843  133.5043  155.6125 C   0  0  0  0  0  0  0  0  0  0  0  0
  146.3796  131.6880  152.4736 N   0  0  0  0  0  0  0  0  0  0  0  0
  144.7502  128.8200  151.8932 H   0  0  0  0  0  0  0  0  0  0  0  0
  145.3314  129.4083  153.4533 H   0  0  0  0  0  0  0  0  0  0  0  0
  146.4864  128.9396  152.1987 H   0  0  0  0  0  0  0  0  0  0  0  0
  144.0366  130.5151  150.3110 H   0  0  0  0  0  0  0  0  0  0  0  0
  144.1420  132.8935  149.5289 H   0  0  0  0  0  0  0  0  0  0  0  0
  145.7004  134.4738  150.6676 H   0  0  0  0  0  0  0  0  0  0  0  0
  147.6853  134.6253  152.0013 H   0  0  0  0  0  0  0  0  0  0  0  0
  148.6068  135.7721  153.3827 H   0  0  0  0  0  0  0  0  0  0  0  0
  148.0877  136.2808  156.0520 H   0  0  0  0  0  0  0  0  0  0  0  0
  150.7960  135.9200  154.6080 H   0  0  0  0  0  0  0  0  0  0  0  0
  150.8641  138.3039  154.5553 H   0  0  0  0  0  0  0  0  0  0  0  0
  149.8763  138.4390  156.0264 H   0  0  0  0  0  0  0  0  0  0  0  0
  152.7958  137.7269  155.8318 H   0  0  0  0  0  0  0  0  0  0  0  0
  151.8762  138.2107  157.2593 H   0  0  0  0  0  0  0  0  0  0  0  0
  149.8735  136.4583  157.5320 H   0  0  0  0  0  0  0  0  0  0  0  0
  149.3062  134.0907  158.4032 H   0  0  0  0  0  0  0  0  0  0  0  0
  147.8268  134.2564  157.4995 H   0  0  0  0  0  0  0  0  0  0  0  0
  149.4603  131.8833  157.9070 H   0  0  0  0  0  0  0  0  0  0  0  0
  147.8778  131.9601  157.1438 H   0  0  0  0  0  0  0  0  0  0  0  0
  150.1561  131.3283  155.7162 H   0  0  0  0  0  0  0  0  0  0  0  0
  148.7964  132.1846  155.0001 H   0  0  0  0  0  0  0  0  0  0  0  0
  150.5743  133.6971  154.5569 H   0  0  0  0  0  0  0  0  0  0  0  0
  151.3576  133.3645  156.0846 H   0  0  0  0  0  0  0  0  0  0  0  0
  1  2  1  0  0  0  0
  1 23  1  0  0  0  0
  1 24  1  0  0  0  0
  1 25  1  0  0  0  0
  2 22  1  0  0  0  0
  2  3  2  0  0  0  0
  3  4  1  0  0  0  0
  3 26  1  0  0  0  0
  4  5  2  0  0  0  0
  4 27  1  0  0  0  0
  5  6  1  0  0  0  0
  5 28  1  0  0  0  0
  6  7  1  0  0  0  0
  6 22  2  0  0  0  0
  7  8  1  0  0  0  0
  7 29  1  0  0  0  0
  8  9  2  0  0  0  0
  8 10  1  0  0  0  0
 10 11  1  0  0  0  0
 10 30  1  0  0  0  0
 11 17  1  0  0  0  0
 11 12  1  0  0  0  0
 11 31  1  0  0  0  0
 12 16  1  0  0  0  0
 12 13  1  0  0  0  0
 12 32  1  0  0  0  0
 13 14  1  0  0  0  0
 13 33  1  0  0  0  0
 13 34  1  0  0  0  0
 14 15  1  0  0  0  0
 14 35  1  0  0  0  0
 14 36  1  0  0  0  0
 15 16  1  0  0  0  0
 16 17  1  0  0  0  0
 16 37  1  0  0  0  0
 17 21  1  0  0  0  0
 17 18  1  0  0  0  0
 18 19  1  0  0  0  0
 18 38  1  0  0  0  0
 18 39  1  0  0  0  0
 19 20  1  0  0  0  0
 19 40  1  0  0  0  0
 19 41  1  0  0  0  0
 20 21  1  0  0  0  0
 20 42  1  0  0  0  0
 20 43  1  0  0  0  0
 21 44  1  0  0  0  0
 21 45  1  0  0  0  0
M  END
> <s_m_source_file>
AV-unprocessed.smi

> <i_m_source_file_index>
2329

> <i_lp_mmshare_version>
43012

> <i_f3d_flags>
0

> <s_epik_input>
W0NIM11jMVtjSF1bY0hdW2NIXWMobjEpW05IXUMoPU8pW05IXVtDQEBIXTJbQ0BASF0oW0NIMl1bQ0gyXU8zKVtDQEhdM0MyNFtDSDJdW0NIMl1bQ0gyXVtDSDJdNA==

> <s_epik_cmdline>
J2VwaWtfcHl0aG9uJywgJy1waCcsICc3LjAnLCAnLXRuJywgJzgnLCAnLW1hJywgJzIwMCcsICctbWV0YWxfYmluZGluZycsICctaW1hZScsICc8aW5maWxlLm1hZT4nLCAnLW9tYWUnLCAnPG91dGZpbGUubWFlPic=

> <r_lp_tautomer_probability>
1

> <r_epik_Ionization_Penalty>
8.97002e-05

> <r_epik_Ionization_Penalty_Charging>
0

> <r_epik_Ionization_Penalty_Neutral>
8.97002e-05

> <r_epik_State_Penalty>
-0

> <r_epik_Charging_Adjusted_Penalty>
0

> <i_epik_Tot_Q>
0

> <i_epik_Tot_abs_Q>
0

> <r_epik_Metal_State_Penalty>
-0

> <b_epik_Metal_Only>
0

> <s_lp_Force_Field>
OPLS_2005

> <r_lp_Energy>
86.3971

> <b_lp_Chiralities_Consistent>
1

> <s_lp_Variant>
AV-unprocessed.smi:2329-1

> <Gold.Version>
5.8.1

> <Gold.Id.Protein>
6NUR|6NUR_protein|mol2

> <Gold.PLP.Fitness>
38.6183

> <Gold.PLP.PLP>
-30.7224

> <Gold.PLP.part.hbond>
-3.0000

> <Gold.PLP.part.metal>
0.0000

> <Gold.PLP.part.buried>
-5.8585

> <Gold.PLP.part.nonpolar>
-21.5350

> <Gold.PLP.part.repulsive>
0.1711

> <Gold.PLP.ligand.clash>
0.0000

> <Gold.PLP.ligand.torsion>
0.5119

> <Gold.PLP.Chemscore.Hbond>
2.8800

> <Gold.PLP.Chemscore.CHOScore>
0.0000

> <Gold.PLP.Chemscore.Metal>
0.0000

> <Gold.Chemscore.Hbonds>
donor molecule, donor type, donor heavy atom, donor atom, acceptor molecule, acceptor atom, score
      L1  H     7    29       P1  7948  0.90
      L1  H    10    30       P1  7948  1.00
      P1  H 10752 10763       L1    15  0.10

> <Gold.PLP.Chemscore.Internal.Correction>
0.2796

> <Gold.Rescore>
     Score         DG    S(hbond)    S(metal)    S(lipo)     H(rot)  DE(clash)    DE(int)     intcor
     18.47     -20.87       2.46        0.00      83.21       1.00       0.97       1.43       ----

> <Gold.Chemscore.Fitness>
18.4721

> <Gold.Chemscore.DG>
-20.8714

> <Gold.Chemscore.ZeroCoef>
-5.4800

> <Gold.Chemscore.Hbond>
2.4600

> <Gold.Chemscore.Metal>
0.0000

> <Gold.Chemscore.Lipo>
83.2065

> <Gold.Chemscore.Internal_Hbond>
0.0000

> <Gold.Chemscore.DEClash>
0.9733

> <Gold.Chemscore.DEInternal>
1.4260

> <Gold.Chemscore.Rot>
1.0000

> <Gold.Chemscore.Internal.Correction>
   9.000000E+99

> <Gold.Chemscore.Hbonds>
donor molecule, donor type, donor heavy atom, donor atom, acceptor molecule, acceptor atom, score
      L1  H     7    29       P1  7948  0.42
      L1  H    10    30       P1  7948  0.98
      P1  H 10752 10763       L1    15  0.02

> <Gold.Chemscore.Hbond.Weighted>
-8.2162

> <Gold.Chemscore.Metal.Weighted>
-0.0000

> <Gold.Chemscore.Lipo.Weighted>
-9.7352

> <Gold.Chemscore.Internal_Hbond.Weighted>
0.0000

> <Gold.Chemscore.DEClash.Weighted>
0.9733

> <Gold.Chemscore.DEInternal.Weighted>
1.4260

> <Gold.Chemscore.Rot.Weighted>
2.5600

> <Gold.Chemscore.Internal.Correction.Weighted>
   9.000000E+99

> <Gold.Protein.RotatedTorsions>
[ 6907 6896 6895 6894 ] final  -94.70 input  -60.11 | X-H torsion
[ 7974 7965 7964 7962 ] final  158.61 input  175.53 | X-H torsion
[ 8008 7997 7996 7995 ] final  -15.53 input   59.86 | X-H torsion
[ 10167 10162 10161 10158 ] final   74.46 input  -65.29 | X-H torsion
[ 10718 10713 10712 10709 ] final  -56.69 input   66.30 | X-H torsion
[ 10763 10752 10751 10750 ] final  115.54 input  -60.55 | X-H torsion
[ 11005 11000 10999 10996 ] final    6.37 input  -57.11 | X-H torsion

> <Gold.Protein.ActiveResidues>
 VAL166  LYS551  ARG553  GLY616  TRP617  ASP618  TYR619  PRO620  LYS621  CYS622 
 ASP623  PHE694  ASN695  SER759  ASP760  ASP761  ALA762  ILE779  LEU786  VAL792 
 PHE793  MET794  SER795  GLU796  ALA797  LYS798  CYS799  TRP800  GLU811  SER814 

> <Gold.Protein.RotatedAtoms>
  150.6947  134.1772  159.4234 H   0  0  0  0  0  0  0  0  0  0  0  0  # atno 6907 bound_to 6896
  151.9748  135.0056  160.0564 H   0  0  0  0  0  0  0  0  0  0  0  0  # atno 6908 bound_to 6896
  152.1809  133.4671  159.4994 H   0  0  0  0  0  0  0  0  0  0  0  0  # atno 6909 bound_to 6896
  144.7836  139.7503  143.6250 H   0  0  0  0  0  0  0  0  0  0  0  0  # atno 7974 bound_to 7965
  154.5123  140.2194  155.9132 H   0  0  0  0  0  0  0  0  0  0  0  0  # atno 8008 bound_to 7997
  156.1567  140.3150  155.8704 H   0  0  0  0  0  0  0  0  0  0  0  0  # atno 8009 bound_to 7997
  155.3832  140.0473  157.3033 H   0  0  0  0  0  0  0  0  0  0  0  0  # atno 8010 bound_to 7997
  140.0135  144.5596  150.7639 H   0  0  0  0  0  0  0  0  0  0  0  0  # atno 10167 bound_to 10162
  156.1269  130.4162  150.0339 H   0  0  0  0  0  0  0  0  0  0  0  0  # atno 10718 bound_to 10713
  153.5237  135.3592  155.2643 H   0  0  0  0  0  0  0  0  0  0  0  0  # atno 10763 bound_to 10752
  154.8733  135.4051  154.3231 H   0  0  0  0  0  0  0  0  0  0  0  0  # atno 10764 bound_to 10752
  153.3906  135.7071  153.6565 H   0  0  0  0  0  0  0  0  0  0  0  0  # atno 10765 bound_to 10752
  140.5603  134.0199  155.7969 H   0  0  0  0  0  0  0  0  0  0  0  0  # atno 11005 bound_to 11000
  146.2056  139.5379  142.9714 LP  0  0  0  0  0  0  0  0  0  0  0  0  # atno 17320 bound_to 7965
  145.5983  141.0359  143.2032 LP  0  0  0  0  0  0  0  0  0  0  0  0  # atno 17321 bound_to 7965
  140.7372  143.2762  151.3734 LP  0  0  0  0  0  0  0  0  0  0  0  0  # atno 17342 bound_to 10162
  139.6189  144.0947  152.2372 LP  0  0  0  0  0  0  0  0  0  0  0  0  # atno 17343 bound_to 10162
  156.8263  130.9376  151.3639 LP  0  0  0  0  0  0  0  0  0  0  0  0  # atno 17370 bound_to 10713
  157.6449  130.8836  149.9520 LP  0  0  0  0  0  0  0  0  0  0  0  0  # atno 17371 bound_to 10713
  141.1119  133.9603  157.2895 LP  0  0  0  0  0  0  0  0  0  0  0  0  # atno 17394 bound_to 11000
  139.9411  135.0191  156.8711 LP  0  0  0  0  0  0  0  0  0  0  0  0  # atno 17395 bound_to 11000

$$$$
