AV-unprocessed.smi:79|AV-procd|sdf|777|dock6
  -GOLD-   2262017133D 1   1.00000     0.00000
 Structure written by MMmdl.
 56 59  0  0  0  0  0  0  0  0  2 V2000
  144.2872  132.1729  150.1107 C   0  0  0  0  0  0  0  0  0  0  0  0
  143.9887  133.6711  150.2707 C   0  0  2  0  0  0  0  0  0  0  0  0
  143.7588  134.2096  148.9858 O   0  0  0  0  0  0  0  0  0  0  0  0
  145.1485  134.4510  150.9228 C   0  0  0  0  0  0  0  0  0  0  0  0
  145.5229  133.9236  152.2599 N   0  3  2  0  0  0  0  0  0  0  0  0
  145.1750  134.8407  153.3778 C   0  0  0  0  0  0  0  0  0  0  0  0
  145.5069  134.2081  154.7398 C   0  0  0  0  0  0  0  0  0  0  0  0
  146.9004  133.7699  154.7793 N   0  0  0  0  0  0  0  0  0  0  0  0
  147.7833  134.6862  155.2578 C   0  0  0  0  0  0  0  0  0  0  0  0
  149.0163  134.2921  155.6744 N   0  0  0  0  0  0  0  0  0  0  0  0
  149.8938  135.1890  156.1343 C   0  0  0  0  0  0  0  0  0  0  0  0
  149.7471  136.5086  156.2629 N   0  0  0  0  0  0  0  0  0  0  0  0
  148.5104  136.9114  155.8532 C   0  0  0  0  0  0  0  0  0  0  0  0
  147.4791  136.0745  155.3411 C   0  0  0  0  0  0  0  0  0  0  0  0
  146.3593  136.8388  155.0359 N   0  0  0  0  0  0  0  0  0  0  0  0
  146.7109  138.0576  155.3421 C   0  0  0  0  0  0  0  0  0  0  0  0
  147.9835  138.1917  155.8497 N   0  0  0  0  0  0  0  0  0  0  0  0
  148.6275  139.4249  156.2760 C   0  0  0  0  0  0  0  0  0  0  0  0
  149.5098  140.0706  155.1916 C   0  0  0  0  0  0  0  0  0  0  0  0
  148.5960  140.7784  154.1707 C   0  0  0  0  0  0  0  0  0  0  0  0
  149.2937  141.1836  153.0098 O   0  0  0  0  0  0  0  0  0  0  0  0
  150.6979  140.8872  155.7205 C   0  0  0  0  0  0  0  0  0  0  0  0
  151.6343  140.1707  154.8853 O   0  0  0  0  0  0  0  0  0  0  0  0
  150.6172  139.1849  154.6020 C   0  0  0  0  0  0  0  0  0  0  0  0
  147.3106  132.8804  153.6875 C   0  0  1  0  0  0  0  0  0  0  0  0
  146.7171  131.4713  153.8603 C   0  0  0  0  0  0  0  0  0  0  0  0
  146.9451  133.4928  152.3154 C   0  0  0  0  0  0  0  0  0  0  0  0
  144.4403  131.6935  151.0777 H   0  0  0  0  0  0  0  0  0  0  0  0
  145.1826  132.0063  149.5108 H   0  0  0  0  0  0  0  0  0  0  0  0
  143.4593  131.6591  149.6210 H   0  0  0  0  0  0  0  0  0  0  0  0
  143.0677  133.7995  150.8384 H   0  0  0  0  0  0  0  0  0  0  0  0
  144.5909  134.3472  148.5588 H   0  0  0  0  0  0  0  0  0  0  0  0
  146.0128  134.3980  150.2585 H   0  0  0  0  0  0  0  0  0  0  0  0
  144.8982  135.5096  151.0123 H   0  0  0  0  0  0  0  0  0  0  0  0
  145.7222  135.7778  153.2611 H   0  0  0  0  0  0  0  0  0  0  0  0
  144.1149  135.0890  153.3559 H   0  0  0  0  0  0  0  0  0  0  0  0
  145.2835  134.9209  155.5328 H   0  0  0  0  0  0  0  0  0  0  0  0
  144.8614  133.3482  154.9200 H   0  0  0  0  0  0  0  0  0  0  0  0
  150.8504  134.7929  156.4422 H   0  0  0  0  0  0  0  0  0  0  0  0
  146.0439  138.8963  155.2069 H   0  0  0  0  0  0  0  0  0  0  0  0
  147.8570  140.1225  156.6069 H   0  0  0  0  0  0  0  0  0  0  0  0
  149.2181  139.1972  157.1643 H   0  0  0  0  0  0  0  0  0  0  0  0
  147.7862  140.1243  153.8474 H   0  0  0  0  0  0  0  0  0  0  0  0
  148.1327  141.6617  154.6115 H   0  0  0  0  0  0  0  0  0  0  0  0
  149.3643  140.4431  152.4270 H   0  0  0  0  0  0  0  0  0  0  0  0
  150.6542  141.9519  155.4883 H   0  0  0  0  0  0  0  0  0  0  0  0
  150.9053  140.7335  156.7809 H   0  0  0  0  0  0  0  0  0  0  0  0
  150.7931  138.2617  155.1554 H   0  0  0  0  0  0  0  0  0  0  0  0
  150.5095  138.9836  153.5356 H   0  0  0  0  0  0  0  0  0  0  0  0
  148.3935  132.7517  153.7227 H   0  0  0  0  0  0  0  0  0  0  0  0
  147.0940  130.7936  153.0940 H   0  0  0  0  0  0  0  0  0  0  0  0
  145.6293  131.4707  153.7909 H   0  0  0  0  0  0  0  0  0  0  0  0
  146.9890  131.0509  154.8290 H   0  0  0  0  0  0  0  0  0  0  0  0
  147.1483  132.7696  151.5247 H   0  0  0  0  0  0  0  0  0  0  0  0
  147.5785  134.3574  152.1122 H   0  0  0  0  0  0  0  0  0  0  0  0
  144.9783  133.0838  152.3947 H   0  0  0  0  0  0  0  0  0  0  0  0
  1  2  1  0  0  0  0
  1 28  1  0  0  0  0
  1 29  1  0  0  0  0
  1 30  1  0  0  0  0
  2  3  1  0  0  0  0
  2  4  1  0  0  0  0
  2 31  1  0  0  0  0
  3 32  1  0  0  0  0
  4  5  1  0  0  0  0
  4 33  1  0  0  0  0
  4 34  1  0  0  0  0
  5 27  1  0  0  0  0
  5  6  1  0  0  0  0
  5 56  1  0  0  0  0
  6  7  1  0  0  0  0
  6 35  1  0  0  0  0
  6 36  1  0  0  0  0
  7  8  1  0  0  0  0
  7 37  1  0  0  0  0
  7 38  1  0  0  0  0
  8  9  1  0  0  0  0
  8 25  1  0  0  0  0
  9 14  1  0  0  0  0
  9 10  2  0  0  0  0
 10 11  1  0  0  0  0
 11 12  2  0  0  0  0
 11 39  1  0  0  0  0
 12 13  1  0  0  0  0
 13 17  1  0  0  0  0
 13 14  2  0  0  0  0
 14 15  1  0  0  0  0
 15 16  2  0  0  0  0
 16 17  1  0  0  0  0
 16 40  1  0  0  0  0
 17 18  1  0  0  0  0
 18 19  1  0  0  0  0
 18 41  1  0  0  0  0
 18 42  1  0  0  0  0
 19 24  1  0  0  0  0
 19 20  1  0  0  0  0
 19 22  1  0  0  0  0
 20 21  1  0  0  0  0
 20 43  1  0  0  0  0
 20 44  1  0  0  0  0
 21 45  1  0  0  0  0
 22 23  1  0  0  0  0
 22 46  1  0  0  0  0
 22 47  1  0  0  0  0
 23 24  1  0  0  0  0
 24 48  1  0  0  0  0
 24 49  1  0  0  0  0
 25 26  1  0  0  0  0
 25 27  1  0  0  0  0
 25 50  1  0  0  0  0
 26 51  1  0  0  0  0
 26 52  1  0  0  0  0
 26 53  1  0  0  0  0
 27 54  1  0  0  0  0
 27 55  1  0  0  0  0
M  CHG  1   5   1
M  END
> <s_m_source_file>
AV-unprocessed.smi

> <i_m_source_file_index>
79

> <i_lp_mmshare_version>
43012

> <i_f3d_flags>
0

> <s_epik_input>
W0NIM11bQ0BIXShbT0hdKVtDSDJdTjFbQ0gyXVtDSDJdTihbQ0BASF0oW0NIM10pW0NIMl0xKWMobltjSF1uMiljKGMyMyluW2NIXW4zW0NIMl1DNChbQ0gyXVtPSF0pW0NIMl1PW0NIMl00

> <s_epik_cmdline>
J2VwaWtfcHl0aG9uJywgJy1waCcsICc3LjAnLCAnLXRuJywgJzgnLCAnLW1hJywgJzIwMCcsICctbWV0YWxfYmluZGluZycsICctaW1hZScsICc8aW5maWxlLm1hZT4nLCAnLW9tYWUnLCAnPG91dGZpbGUubWFlPic=

> <r_lp_tautomer_probability>
1

> <r_epik_Ionization_Penalty>
0.00515943

> <r_epik_Ionization_Penalty_Charging>
0.00509693

> <r_epik_Ionization_Penalty_Neutral>
6.25007e-05

> <r_epik_State_Penalty>
-0

> <r_epik_Charging_Adjusted_Penalty>
0.00509693

> <i_epik_Tot_Q>
1

> <i_epik_Tot_abs_Q>
1

> <r_epik_Metal_State_Penalty>
-0

> <b_epik_Metal_Only>
0

> <s_lp_Force_Field>
OPLS_2005

> <r_lp_Energy>
51.7042

> <b_lp_Chiralities_Consistent>
1

> <s_lp_Variant>
AV-unprocessed.smi:79-1

> <Gold.Version>
5.8.1

> <Gold.Id.Protein>
6NUR|6NUR_protein|mol2

> <Gold.PLP.Fitness>
46.1400

> <Gold.PLP.PLP>
-37.3893

> <Gold.PLP.part.hbond>
-5.4117

> <Gold.PLP.part.metal>
0.0000

> <Gold.PLP.part.buried>
-7.6400

> <Gold.PLP.part.nonpolar>
-26.4474

> <Gold.PLP.part.repulsive>
0.2833

> <Gold.PLP.ligand.clash>
0.0000

> <Gold.PLP.ligand.torsion>
1.7633

> <Gold.PLP.Chemscore.Hbond>
3.7632

> <Gold.PLP.Chemscore.CHOScore>
0.0000

> <Gold.PLP.Chemscore.Metal>
0.0000

> <Gold.Chemscore.Hbonds>
donor molecule, donor type, donor heavy atom, donor atom, acceptor molecule, acceptor atom, score
      L1  H     3    32       P1  7921  1.00
      L1  H    21    45       P1  7957  0.50
      P1  H  7989  7998       L1    23  0.95
      P1  H  8011  8017       L1    21  0.89

> <Gold.PLP.Chemscore.Internal.Correction>
0.9876

> <Gold.Rescore>
     Score         DG    S(hbond)    S(metal)    S(lipo)     H(rot)  DE(clash)    DE(int)     intcor
      9.79     -14.53       2.92        0.00      75.58       3.72       0.07       4.67       ----

> <Gold.Chemscore.Fitness>
9.7931

> <Gold.Chemscore.DG>
-14.5312

> <Gold.Chemscore.ZeroCoef>
-5.4800

> <Gold.Chemscore.Hbond>
2.9158

> <Gold.Chemscore.Metal>
0.0000

> <Gold.Chemscore.Lipo>
75.5753

> <Gold.Chemscore.Internal_Hbond>
0.0000

> <Gold.Chemscore.DEClash>
0.0703

> <Gold.Chemscore.DEInternal>
4.6678

> <Gold.Chemscore.Rot>
3.7226

> <Gold.Chemscore.Internal.Correction>
   9.000000E+99

> <Gold.Chemscore.Hbonds>
donor molecule, donor type, donor heavy atom, donor atom, acceptor molecule, acceptor atom, score
      L1  H     3    32       P1  7921  1.00
      L1  H    21    45       P1  7957  0.48
      P1  H  7989  7998       L1    23  0.13
      P1  H  8011  8017       L1    21  0.61

> <Gold.Chemscore.Hbond.Weighted>
-9.7386

> <Gold.Chemscore.Metal.Weighted>
-0.0000

> <Gold.Chemscore.Lipo.Weighted>
-8.8423

> <Gold.Chemscore.Internal_Hbond.Weighted>
0.0000

> <Gold.Chemscore.DEClash.Weighted>
0.0703

> <Gold.Chemscore.DEInternal.Weighted>
4.6678

> <Gold.Chemscore.Rot.Weighted>
9.5298

> <Gold.Chemscore.Internal.Correction.Weighted>
   9.000000E+99

> <Gold.Protein.RotatedTorsions>
[ 6907 6896 6895 6894 ] final -143.88 input  -60.11 | X-H torsion
[ 7974 7965 7964 7962 ] final  155.38 input  175.53 | X-H torsion
[ 8008 7997 7996 7995 ] final   19.56 input   59.86 | X-H torsion
[ 10167 10162 10161 10158 ] final  -61.70 input  -65.29 | X-H torsion
[ 10718 10713 10712 10709 ] final -152.83 input   66.30 | X-H torsion
[ 10763 10752 10751 10750 ] final  -78.35 input  -60.55 | X-H torsion
[ 11005 11000 10999 10996 ] final  139.05 input  -57.11 | X-H torsion

> <Gold.Protein.ActiveResidues>
 VAL166  LYS551  ARG553  GLY616  TRP617  ASP618  TYR619  PRO620  LYS621  CYS622 
 ASP623  PHE694  ASN695  SER759  ASP760  ASP761  ALA762  ILE779  LEU786  VAL792 
 PHE793  MET794  SER795  GLU796  ALA797  LYS798  CYS799  TRP800  GLU811  SER814 

> <Gold.Protein.RotatedAtoms>
  151.1064  133.5205  159.2607 H   0  0  0  0  0  0  0  0  0  0  0  0  # atno 6907 bound_to 6896
  151.2016  135.0444  159.8884 H   0  0  0  0  0  0  0  0  0  0  0  0  # atno 6908 bound_to 6896
  152.5447  134.0892  159.8322 H   0  0  0  0  0  0  0  0  0  0  0  0  # atno 6909 bound_to 6896
  144.8028  139.7061  143.6174 H   0  0  0  0  0  0  0  0  0  0  0  0  # atno 7974 bound_to 7965
  154.9225  140.3029  155.5209 H   0  0  0  0  0  0  0  0  0  0  0  0  # atno 8008 bound_to 7997
  156.3009  140.2369  156.4213 H   0  0  0  0  0  0  0  0  0  0  0  0  # atno 8009 bound_to 7997
  154.8317  140.0418  157.1470 H   0  0  0  0  0  0  0  0  0  0  0  0  # atno 8010 bound_to 7997
  140.5988  143.2357  151.5975 H   0  0  0  0  0  0  0  0  0  0  0  0  # atno 10167 bound_to 10162
  156.4777  130.8288  151.2516 H   0  0  0  0  0  0  0  0  0  0  0  0  # atno 10718 bound_to 10713
  154.5248  135.5733  153.6710 H   0  0  0  0  0  0  0  0  0  0  0  0  # atno 10763 bound_to 10752
  152.9925  135.6190  154.2707 H   0  0  0  0  0  0  0  0  0  0  0  0  # atno 10764 bound_to 10752
  154.2630  135.2855  155.2750 H   0  0  0  0  0  0  0  0  0  0  0  0  # atno 10765 bound_to 10752
  140.0227  134.9389  157.0507 H   0  0  0  0  0  0  0  0  0  0  0  0  # atno 11005 bound_to 11000
  146.2313  139.5820  142.9553 LP  0  0  0  0  0  0  0  0  0  0  0  0  # atno 17320 bound_to 7965
  145.5511  141.0413  143.2278 LP  0  0  0  0  0  0  0  0  0  0  0  0  # atno 17321 bound_to 7965
  139.5277  144.3010  152.1073 LP  0  0  0  0  0  0  0  0  0  0  0  0  # atno 17342 bound_to 10162
  140.2187  144.4488  150.6352 LP  0  0  0  0  0  0  0  0  0  0  0  0  # atno 17343 bound_to 10162
  157.7486  131.0055  150.3117 LP  0  0  0  0  0  0  0  0  0  0  0  0  # atno 17370 bound_to 10713
  156.3553  130.3838  149.7295 LP  0  0  0  0  0  0  0  0  0  0  0  0  # atno 17371 bound_to 10713
  140.4359  134.1732  155.7171 LP  0  0  0  0  0  0  0  0  0  0  0  0  # atno 17394 bound_to 11000
  141.1784  133.8466  157.1344 LP  0  0  0  0  0  0  0  0  0  0  0  0  # atno 17395 bound_to 11000

$$$$
