AV-unprocessed.smi:908|AV-procd|sdf|4114|dock8
  -GOLD-   22720 2 13D 1   1.00000     0.00000
 Structure written by MMmdl.
 38 38  0  0  0  0  0  0  0  0  1 V2000
  149.0141  136.0131  160.3125 C   0  0  0  0  0  0  0  0  0  0  0  0
  148.6253  136.3021  158.8589 C   0  0  0  0  0  0  0  0  0  0  0  0
  149.7386  135.9270  157.8673 C   0  0  0  0  0  0  0  0  0  0  0  0
  150.6407  137.0475  157.6278 N   0  0  0  0  0  0  0  0  0  0  0  0
  151.7956  137.2603  158.2763 C   0  0  0  0  0  0  0  0  0  0  0  0
  152.2100  136.5277  159.1761 O   0  0  0  0  0  0  0  0  0  0  0  0
  152.5873  138.5031  157.8523 C   0  0  0  0  0  0  0  0  0  0  0  0
  152.6887  139.4956  158.9184 N   0  0  0  0  0  0  0  0  0  0  0  0
  153.8354  140.0154  159.3870 C   0  0  0  0  0  0  0  0  0  0  0  0
  154.9434  139.7092  158.9472 O   0  0  0  0  0  0  0  0  0  0  0  0
  153.7233  141.0177  160.5402 C   0  0  0  0  0  0  0  0  0  0  0  0
  153.1081  142.2696  160.1217 N   0  0  0  0  0  0  0  0  0  0  0  0
  152.8960  142.4851  158.7979 N   0  0  0  0  0  0  0  0  0  0  0  0
  152.3288  143.6793  158.7207 C   0  0  0  0  0  0  0  0  0  0  0  0
  151.9460  144.2440  157.3836 C   0  0  0  0  0  0  0  0  0  0  0  0
  152.1740  144.2406  160.0147 C   0  0  0  0  0  0  0  0  0  0  0  0
  151.4797  145.7752  160.3940 Cl  0  0  0  0  0  0  0  0  0  0  0  0
  152.6772  143.3337  160.8998 C   0  0  0  0  0  0  0  0  0  0  0  0
  152.7904  143.3651  162.3900 C   0  0  0  0  0  0  0  0  0  0  0  0
  148.2088  136.2916  160.9925 H   0  0  0  0  0  0  0  0  0  0  0  0
  149.9032  136.5740  160.6016 H   0  0  0  0  0  0  0  0  0  0  0  0
  149.2228  134.9530  160.4604 H   0  0  0  0  0  0  0  0  0  0  0  0
  147.7140  135.7529  158.6186 H   0  0  0  0  0  0  0  0  0  0  0  0
  148.3837  137.3607  158.7554 H   0  0  0  0  0  0  0  0  0  0  0  0
  150.3269  135.1000  158.2657 H   0  0  0  0  0  0  0  0  0  0  0  0
  149.3118  135.5788  156.9249 H   0  0  0  0  0  0  0  0  0  0  0  0
  150.3732  137.7022  156.9069 H   0  0  0  0  0  0  0  0  0  0  0  0
  153.5832  138.2183  157.5076 H   0  0  0  0  0  0  0  0  0  0  0  0
  152.0817  138.9630  157.0031 H   0  0  0  0  0  0  0  0  0  0  0  0
  151.8235  139.7966  159.3427 H   0  0  0  0  0  0  0  0  0  0  0  0
  153.1405  140.5771  161.3493 H   0  0  0  0  0  0  0  0  0  0  0  0
  154.7139  141.2297  160.9457 H   0  0  0  0  0  0  0  0  0  0  0  0
  151.8218  145.3257  157.4323 H   0  0  0  0  0  0  0  0  0  0  0  0
  151.0055  143.8172  157.0352 H   0  0  0  0  0  0  0  0  0  0  0  0
  152.7074  144.0337  156.6319 H   0  0  0  0  0  0  0  0  0  0  0  0
  152.3849  144.2918  162.7957 H   0  0  0  0  0  0  0  0  0  0  0  0
  153.8325  143.2935  162.7016 H   0  0  0  0  0  0  0  0  0  0  0  0
  152.2431  142.5372  162.8402 H   0  0  0  0  0  0  0  0  0  0  0  0
  1  2  1  0  0  0  0
  1 20  1  0  0  0  0
  1 21  1  0  0  0  0
  1 22  1  0  0  0  0
  2  3  1  0  0  0  0
  2 23  1  0  0  0  0
  2 24  1  0  0  0  0
  3  4  1  0  0  0  0
  3 25  1  0  0  0  0
  3 26  1  0  0  0  0
  4  5  1  0  0  0  0
  4 27  1  0  0  0  0
  5  6  2  0  0  0  0
  5  7  1  0  0  0  0
  7  8  1  0  0  0  0
  7 28  1  0  0  0  0
  7 29  1  0  0  0  0
  8  9  1  0  0  0  0
  8 30  1  0  0  0  0
  9 10  2  0  0  0  0
  9 11  1  0  0  0  0
 11 12  1  0  0  0  0
 11 31  1  0  0  0  0
 11 32  1  0  0  0  0
 12 18  1  0  0  0  0
 12 13  1  0  0  0  0
 13 14  2  0  0  0  0
 14 15  1  0  0  0  0
 14 16  1  0  0  0  0
 15 33  1  0  0  0  0
 15 34  1  0  0  0  0
 15 35  1  0  0  0  0
 16 17  1  0  0  0  0
 16 18  2  0  0  0  0
 18 19  1  0  0  0  0
 19 36  1  0  0  0  0
 19 37  1  0  0  0  0
 19 38  1  0  0  0  0
M  END
> <s_m_source_file>
AV-unprocessed.smi

> <i_m_source_file_index>
908

> <i_lp_mmshare_version>
43012

> <i_f3d_flags>
0

> <s_epik_input>
W0NIM11bQ0gyXVtDSDJdW05IXUMoPU8pW0NIMl1bTkhdQyg9TylbQ0gyXW4xbmMoW0NIM10pYyhDbCljMVtDSDNd

> <s_epik_cmdline>
J2VwaWtfcHl0aG9uJywgJy1waCcsICc3LjAnLCAnLXRuJywgJzgnLCAnLW1hJywgJzIwMCcsICctbWV0YWxfYmluZGluZycsICctaW1hZScsICc8aW5maWxlLm1hZT4nLCAnLW9tYWUnLCAnPG91dGZpbGUubWFlPic=

> <r_lp_tautomer_probability>
1

> <r_epik_Ionization_Penalty>
3.40177e-06

> <r_epik_Ionization_Penalty_Charging>
0

> <r_epik_Ionization_Penalty_Neutral>
3.40177e-06

> <r_epik_State_Penalty>
-0

> <r_epik_Charging_Adjusted_Penalty>
0

> <i_epik_Tot_Q>
0

> <i_epik_Tot_abs_Q>
0

> <r_epik_Metal_State_Penalty>
-0

> <b_epik_Metal_Only>
0

> <s_lp_Force_Field>
OPLS_2005

> <r_lp_Energy>
0.427377

> <b_lp_Chiralities_Consistent>
1

> <s_lp_Variant>
AV-unprocessed.smi:908-1

> <Gold.Version>
5.8.1

> <Gold.Id.Protein>
6NUR|6NUR_protein|mol2

> <Gold.PLP.Fitness>
46.2854

> <Gold.PLP.PLP>
-41.3452

> <Gold.PLP.part.hbond>
-2.0000

> <Gold.PLP.part.metal>
0.0000

> <Gold.PLP.part.buried>
-3.2429

> <Gold.PLP.part.nonpolar>
-35.6340

> <Gold.PLP.part.repulsive>
0.1665

> <Gold.PLP.ligand.clash>
0.0000

> <Gold.PLP.ligand.torsion>
0.5521

> <Gold.PLP.Chemscore.Hbond>
1.9920

> <Gold.PLP.Chemscore.CHOScore>
0.0000

> <Gold.PLP.Chemscore.Metal>
0.0000

> <Gold.Chemscore.Hbonds>
donor molecule, donor type, donor heavy atom, donor atom, acceptor molecule, acceptor atom, score
      P1  H  6896  6907       L1     6  0.77
      P1  H  7997  8009       L1    10  1.00

> <Gold.PLP.Chemscore.Internal.Correction>
0.0685

> <Gold.Rescore>
     Score         DG    S(hbond)    S(metal)    S(lipo)     H(rot)  DE(clash)    DE(int)     intcor
     17.37     -18.71       1.96        0.00     103.80       2.13       0.53       0.81       ----

> <Gold.Chemscore.Fitness>
17.3664

> <Gold.Chemscore.DG>
-18.7065

> <Gold.Chemscore.ZeroCoef>
-5.4800

> <Gold.Chemscore.Hbond>
1.9561

> <Gold.Chemscore.Metal>
0.0000

> <Gold.Chemscore.Lipo>
103.8028

> <Gold.Chemscore.Internal_Hbond>
0.0000

> <Gold.Chemscore.DEClash>
0.5304

> <Gold.Chemscore.DEInternal>
0.8097

> <Gold.Chemscore.Rot>
2.1297

> <Gold.Chemscore.Internal.Correction>
   9.000000E+99

> <Gold.Chemscore.Hbonds>
donor molecule, donor type, donor heavy atom, donor atom, acceptor molecule, acceptor atom, score
      P1  H  6896  6907       L1     6  0.76
      P1  H  7997  8009       L1    10  0.97

> <Gold.Chemscore.Hbond.Weighted>
-6.5335

> <Gold.Chemscore.Metal.Weighted>
-0.0000

> <Gold.Chemscore.Lipo.Weighted>
-12.1449

> <Gold.Chemscore.Internal_Hbond.Weighted>
0.0000

> <Gold.Chemscore.DEClash.Weighted>
0.5304

> <Gold.Chemscore.DEInternal.Weighted>
0.8097

> <Gold.Chemscore.Rot.Weighted>
5.4520

> <Gold.Chemscore.Internal.Correction.Weighted>
   9.000000E+99

> <Gold.Protein.RotatedTorsions>
[ 6907 6896 6895 6894 ] final   -7.75 input  -60.11 | X-H torsion
[ 7974 7965 7964 7962 ] final  -70.07 input  175.53 | X-H torsion
[ 8008 7997 7996 7995 ] final  107.39 input   59.86 | X-H torsion
[ 10167 10162 10161 10158 ] final  128.93 input  -65.29 | X-H torsion
[ 10718 10713 10712 10709 ] final  123.58 input   66.30 | X-H torsion
[ 10763 10752 10751 10750 ] final   89.71 input  -60.55 | X-H torsion
[ 11005 11000 10999 10996 ] final  -16.67 input  -57.11 | X-H torsion

> <Gold.Protein.ActiveResidues>
 VAL166  LYS551  ARG553  GLY616  TRP617  ASP618  TYR619  PRO620  LYS621  CYS622 
 ASP623  PHE694  ASN695  SER759  ASP760  ASP761  ALA762  ILE779  LEU786  VAL792 
 PHE793  MET794  SER795  GLU796  ALA797  LYS798  CYS799  TRP800  GLU811  SER814 

> <Gold.Protein.RotatedAtoms>
  151.4446  135.1024  159.9679 H   0  0  0  0  0  0  0  0  0  0  0  0  # atno 6907 bound_to 6896
  152.4910  133.8496  159.7205 H   0  0  0  0  0  0  0  0  0  0  0  0  # atno 6908 bound_to 6896
  150.9064  133.6994  159.2893 H   0  0  0  0  0  0  0  0  0  0  0  0  # atno 6909 bound_to 6896
  145.6957  140.9136  143.0758 H   0  0  0  0  0  0  0  0  0  0  0  0  # atno 7974 bound_to 7965
  156.1820  140.3095  155.9167 H   0  0  0  0  0  0  0  0  0  0  0  0  # atno 8008 bound_to 7997
  155.3363  140.0463  157.3061 H   0  0  0  0  0  0  0  0  0  0  0  0  # atno 8009 bound_to 7997
  154.5353  140.2244  155.8743 H   0  0  0  0  0  0  0  0  0  0  0  0  # atno 8010 bound_to 7997
  139.5502  144.6807  151.4346 H   0  0  0  0  0  0  0  0  0  0  0  0  # atno 10167 bound_to 10162
  157.5654  131.1087  150.8464 H   0  0  0  0  0  0  0  0  0  0  0  0  # atno 10718 bound_to 10713
  153.1899  135.4460  155.0136 H   0  0  0  0  0  0  0  0  0  0  0  0  # atno 10763 bound_to 10752
  154.8084  135.3284  154.7373 H   0  0  0  0  0  0  0  0  0  0  0  0  # atno 10764 bound_to 10752
  153.7828  135.6976  153.4940 H   0  0  0  0  0  0  0  0  0  0  0  0  # atno 10765 bound_to 10752
  140.8092  133.8154  155.9546 H   0  0  0  0  0  0  0  0  0  0  0  0  # atno 11005 bound_to 11000
  144.6983  139.8881  143.7451 LP  0  0  0  0  0  0  0  0  0  0  0  0  # atno 17320 bound_to 7965
  146.0842  139.3830  143.0445 LP  0  0  0  0  0  0  0  0  0  0  0  0  # atno 17321 bound_to 7965
  140.6763  143.8183  150.7062 LP  0  0  0  0  0  0  0  0  0  0  0  0  # atno 17342 bound_to 10162
  140.1622  143.4265  152.2059 LP  0  0  0  0  0  0  0  0  0  0  0  0  # atno 17343 bound_to 10162
  156.8950  130.5226  149.5285 LP  0  0  0  0  0  0  0  0  0  0  0  0  # atno 17370 bound_to 10713
  156.0702  130.5737  150.9369 LP  0  0  0  0  0  0  0  0  0  0  0  0  # atno 17371 bound_to 10713
  140.9216  134.2135  157.4923 LP  0  0  0  0  0  0  0  0  0  0  0  0  # atno 17394 bound_to 11000
  139.8715  134.9794  156.5037 LP  0  0  0  0  0  0  0  0  0  0  0  0  # atno 17395 bound_to 11000

$$$$
