AV-unprocessed.smi:1785|AV-procd|sdf|7200|dock9
  -GOLD-   22720 8443D 1   1.00000     0.00000
 Structure written by MMmdl.
 28 29  0  0  0  0  0  0  0  0  1 V2000
  154.1236  140.1078  160.0655 C   0  0  0  0  0  0  0  0  0  0  0  0
  153.3196  141.3606  160.3740 C   0  0  0  0  0  0  0  0  0  0  0  0
  153.5500  142.0481  161.5846 C   0  0  0  0  0  0  0  0  0  0  0  0
  152.8059  143.2060  161.8682 C   0  0  0  0  0  0  0  0  0  0  0  0
  151.8570  143.6303  160.9224 C   0  0  0  0  0  0  0  0  0  0  0  0
  151.6305  142.9800  159.7629 N   0  0  0  0  0  0  0  0  0  0  0  0
  152.3398  141.8599  159.4740 C   0  0  0  0  0  0  0  0  0  0  0  0
  152.1553  141.1211  158.2716 N   0  0  0  0  0  0  0  0  0  0  0  0
  151.3203  141.3699  157.2436 C   0  0  0  0  0  0  0  0  0  0  0  0
  150.5514  142.3318  157.1969 O   0  0  0  0  0  0  0  0  0  0  0  0
  151.4457  140.3562  156.2032 C   0  0  0  0  0  0  0  0  0  0  0  0
  150.4241  140.1596  155.3378 C   0  0  0  0  0  0  0  0  0  0  0  0
  150.4324  139.2034  154.3532 O   0  0  0  0  0  0  0  0  0  0  0  0
  151.4846  138.2520  154.4595 C   0  0  0  0  0  0  0  0  0  0  0  0
  152.7937  138.9457  154.8633 C   0  0  0  0  0  0  0  0  0  0  0  0
  152.6215  139.6460  156.0908 O   0  0  0  0  0  0  0  0  0  0  0  0
  154.8148  139.8699  160.8747 H   0  0  0  0  0  0  0  0  0  0  0  0
  154.7075  140.2443  159.1549 H   0  0  0  0  0  0  0  0  0  0  0  0
  153.4616  139.2521  159.9289 H   0  0  0  0  0  0  0  0  0  0  0  0
  154.2878  141.6946  162.2900 H   0  0  0  0  0  0  0  0  0  0  0  0
  152.9583  143.7539  162.7862 H   0  0  0  0  0  0  0  0  0  0  0  0
  151.2636  144.5149  161.1009 H   0  0  0  0  0  0  0  0  0  0  0  0
  152.7299  140.2963  158.1785 H   0  0  0  0  0  0  0  0  0  0  0  0
  149.4880  140.6994  155.3568 H   0  0  0  0  0  0  0  0  0  0  0  0
  151.2117  137.4960  155.1971 H   0  0  0  0  0  0  0  0  0  0  0  0
  151.6018  137.7409  153.5038 H   0  0  0  0  0  0  0  0  0  0  0  0
  153.5935  138.2142  154.9792 H   0  0  0  0  0  0  0  0  0  0  0  0
  153.1092  139.6474  154.0898 H   0  0  0  0  0  0  0  0  0  0  0  0
  1  2  1  0  0  0  0
  1 17  1  0  0  0  0
  1 18  1  0  0  0  0
  1 19  1  0  0  0  0
  2  7  1  0  0  0  0
  2  3  2  0  0  0  0
  3  4  1  0  0  0  0
  3 20  1  0  0  0  0
  4  5  2  0  0  0  0
  4 21  1  0  0  0  0
  5  6  1  0  0  0  0
  5 22  1  0  0  0  0
  6  7  2  0  0  0  0
  7  8  1  0  0  0  0
  8  9  1  0  0  0  0
  8 23  1  0  0  0  0
  9 10  2  0  0  0  0
  9 11  1  0  0  0  0
 11 16  1  0  0  0  0
 11 12  2  0  0  0  0
 12 13  1  0  0  0  0
 12 24  1  0  0  0  0
 13 14  1  0  0  0  0
 14 15  1  0  0  0  0
 14 25  1  0  0  0  0
 14 26  1  0  0  0  0
 15 16  1  0  0  0  0
 15 27  1  0  0  0  0
 15 28  1  0  0  0  0
M  END
> <s_m_source_file>
AV-unprocessed.smi

> <i_m_source_file_index>
1785

> <i_lp_mmshare_version>
43012

> <i_f3d_flags>
0

> <s_epik_input>
W0NIM11jMVtjSF1bY0hdW2NIXW5jMVtOSF1DKD1PKUMyPVtDSF1PW0NIMl1bQ0gyXU8y

> <s_epik_cmdline>
J2VwaWtfcHl0aG9uJywgJy1waCcsICc3LjAnLCAnLXRuJywgJzgnLCAnLW1hJywgJzIwMCcsICctbWV0YWxfYmluZGluZycsICctaW1hZScsICc8aW5maWxlLm1hZT4nLCAnLW9tYWUnLCAnPG91dGZpbGUubWFlPic=

> <r_lp_tautomer_probability>
1

> <r_epik_Ionization_Penalty>
8.87723e-05

> <r_epik_Ionization_Penalty_Charging>
0

> <r_epik_Ionization_Penalty_Neutral>
8.87723e-05

> <r_epik_State_Penalty>
-0

> <r_epik_Charging_Adjusted_Penalty>
0

> <i_epik_Tot_Q>
0

> <i_epik_Tot_abs_Q>
0

> <r_epik_Metal_State_Penalty>
0.0224094

> <b_epik_Metal_Only>
0

> <s_lp_Force_Field>
OPLS_2005

> <r_lp_Energy>
4.55211

> <b_lp_Chiralities_Consistent>
1

> <s_lp_Variant>
AV-unprocessed.smi:1785-1

> <Gold.Version>
5.8.1

> <Gold.Id.Protein>
6NUR|6NUR_protein|mol2

> <Gold.PLP.Fitness>
39.9319

> <Gold.PLP.PLP>
-37.4046

> <Gold.PLP.part.hbond>
-1.7648

> <Gold.PLP.part.metal>
0.0000

> <Gold.PLP.part.buried>
-5.7195

> <Gold.PLP.part.nonpolar>
-30.4710

> <Gold.PLP.part.repulsive>
0.3715

> <Gold.PLP.ligand.clash>
0.0000

> <Gold.PLP.ligand.torsion>
0.2370

> <Gold.PLP.Chemscore.Hbond>
1.0000

> <Gold.PLP.Chemscore.CHOScore>
0.0000

> <Gold.PLP.Chemscore.Metal>
0.0000

> <Gold.Chemscore.Hbonds>
donor molecule, donor type, donor heavy atom, donor atom, acceptor molecule, acceptor atom, score
      P1  H  7997  8009       L1    16  0.95

> <Gold.PLP.Chemscore.Internal.Correction>
0.0012

> <Gold.Rescore>
     Score         DG    S(hbond)    S(metal)    S(lipo)     H(rot)  DE(clash)    DE(int)     intcor
     16.39     -18.06       0.85        0.00      83.25       0.00       0.02       1.65       ----

> <Gold.Chemscore.Fitness>
16.3863

> <Gold.Chemscore.DG>
-18.0567

> <Gold.Chemscore.ZeroCoef>
-5.4800

> <Gold.Chemscore.Hbond>
0.8492

> <Gold.Chemscore.Metal>
0.0000

> <Gold.Chemscore.Lipo>
83.2519

> <Gold.Chemscore.Internal_Hbond>
0.0000

> <Gold.Chemscore.DEClash>
0.0183

> <Gold.Chemscore.DEInternal>
1.6521

> <Gold.Chemscore.Rot>
0.0000

> <Gold.Chemscore.Internal.Correction>
   9.000000E+99

> <Gold.Chemscore.Hbonds>
donor molecule, donor type, donor heavy atom, donor atom, acceptor molecule, acceptor atom, score
      P1  H  7997  8009       L1    16  0.22

> <Gold.Chemscore.Hbond.Weighted>
-2.8362

> <Gold.Chemscore.Metal.Weighted>
-0.0000

> <Gold.Chemscore.Lipo.Weighted>
-9.7405

> <Gold.Chemscore.Internal_Hbond.Weighted>
0.0000

> <Gold.Chemscore.DEClash.Weighted>
0.0183

> <Gold.Chemscore.DEInternal.Weighted>
1.6521

> <Gold.Chemscore.Rot.Weighted>
0.0000

> <Gold.Chemscore.Internal.Correction.Weighted>
   9.000000E+99

> <Gold.Protein.RotatedTorsions>
[ 6907 6896 6895 6894 ] final  -89.17 input  -60.11 | X-H torsion
[ 7974 7965 7964 7962 ] final  144.11 input  175.53 | X-H torsion
[ 8008 7997 7996 7995 ] final -167.27 input   59.86 | X-H torsion
[ 10167 10162 10161 10158 ] final  -75.71 input  -65.29 | X-H torsion
[ 10718 10713 10712 10709 ] final -141.05 input   66.30 | X-H torsion
[ 10763 10752 10751 10750 ] final  -87.11 input  -60.55 | X-H torsion
[ 11005 11000 10999 10996 ] final -178.16 input  -57.11 | X-H torsion

> <Gold.Protein.ActiveResidues>
 VAL166  LYS551  ARG553  GLY616  TRP617  ASP618  TYR619  PRO620  LYS621  CYS622 
 ASP623  PHE694  ASN695  SER759  ASP760  ASP761  ALA762  ILE779  LEU786  VAL792 
 PHE793  MET794  SER795  GLU796  ALA797  LYS798  CYS799  TRP800  GLU811  SER814 

> <Gold.Protein.RotatedAtoms>
  150.6872  134.2628  159.4556 H   0  0  0  0  0  0  0  0  0  0  0  0  # atno 6907 bound_to 6896
  152.0557  134.9623  160.0584 H   0  0  0  0  0  0  0  0  0  0  0  0  # atno 6908 bound_to 6896
  152.1070  133.4245  159.4650 H   0  0  0  0  0  0  0  0  0  0  0  0  # atno 6909 bound_to 6896
  144.8863  139.5623  143.5819 H   0  0  0  0  0  0  0  0  0  0  0  0  # atno 7974 bound_to 7965
  155.8754  140.1000  157.1522 H   0  0  0  0  0  0  0  0  0  0  0  0  # atno 8008 bound_to 7997
  154.4000  140.1339  156.4193 H   0  0  0  0  0  0  0  0  0  0  0  0  # atno 8009 bound_to 7997
  155.7704  140.3461  155.5246 H   0  0  0  0  0  0  0  0  0  0  0  0  # atno 8010 bound_to 7997
  140.4919  143.2378  151.7893 H   0  0  0  0  0  0  0  0  0  0  0  0  # atno 10167 bound_to 10162
  156.3294  130.7578  151.1693 H   0  0  0  0  0  0  0  0  0  0  0  0  # atno 10718 bound_to 10713
  154.6300  135.5425  153.7670 H   0  0  0  0  0  0  0  0  0  0  0  0  # atno 10763 bound_to 10752
  153.0280  135.6433  154.1315 H   0  0  0  0  0  0  0  0  0  0  0  0  # atno 10764 bound_to 10752
  154.1246  135.2918  155.3180 H   0  0  0  0  0  0  0  0  0  0  0  0  # atno 10765 bound_to 10752
  140.4328  134.6503  157.4720 H   0  0  0  0  0  0  0  0  0  0  0  0  # atno 11005 bound_to 11000
  146.3026  139.7477  142.9080 LP  0  0  0  0  0  0  0  0  0  0  0  0  # atno 17320 bound_to 7965
  145.3862  141.0366  143.3149 LP  0  0  0  0  0  0  0  0  0  0  0  0  # atno 17321 bound_to 7965
  139.4853  144.4638  151.9509 LP  0  0  0  0  0  0  0  0  0  0  0  0  # atno 17342 bound_to 10162
  140.3725  144.2838  150.5918 LP  0  0  0  0  0  0  0  0  0  0  0  0  # atno 17343 bound_to 10162
  157.7427  131.0485  150.5000 LP  0  0  0  0  0  0  0  0  0  0  0  0  # atno 17370 bound_to 10713
  156.5164  130.4151  149.6274 LP  0  0  0  0  0  0  0  0  0  0  0  0  # atno 17371 bound_to 10713
  140.0122  134.6673  155.9363 LP  0  0  0  0  0  0  0  0  0  0  0  0  # atno 17394 bound_to 11000
  141.1738  133.6539  156.4751 LP  0  0  0  0  0  0  0  0  0  0  0  0  # atno 17395 bound_to 11000

$$$$
