AV-unprocessed.smi:2004|AV-procd|sdf|8122|dock10
  -GOLD-   2272010353D 1   1.00000     0.00000
 Structure written by MMmdl.
 39 41  0  0  0  0  0  0  0  0  1 V2000
  149.5322  140.8825  153.4818 O   0  0  0  0  0  0  0  0  0  0  0  0
  148.5745  140.6842  154.5037 C   0  0  1  0  0  0  0  0  0  0  0  0
  148.9483  141.5747  155.6984 C   0  0  0  0  0  0  0  0  0  0  0  0
  149.8630  140.8735  156.5243 O   0  0  0  0  0  0  0  0  0  0  0  0
  151.2080  141.2777  156.3264 C   0  0  0  0  0  0  0  0  0  0  0  0
  151.7761  141.9581  157.5569 C   0  0  0  0  0  0  0  0  0  0  0  0
  151.4579  143.3052  157.8312 C   0  0  0  0  0  0  0  0  0  0  0  0
  151.9959  143.9435  158.9659 C   0  0  0  0  0  0  0  0  0  0  0  0
  152.8582  143.2389  159.8281 C   0  0  0  0  0  0  0  0  0  0  0  0
  153.1849  141.8968  159.5533 C   0  0  0  0  0  0  0  0  0  0  0  0
  152.6473  141.2582  158.4185 C   0  0  0  0  0  0  0  0  0  0  0  0
  147.1761  141.0195  153.9499 C   0  0  0  0  0  0  0  0  0  0  0  0
  146.1873  141.1802  155.0010 N   0  0  0  0  0  0  0  0  0  0  0  0
  146.0372  140.4180  156.1018 C   0  0  0  0  0  0  0  0  0  0  0  0
  145.0592  140.7463  156.9414 N   0  0  0  0  0  0  0  0  0  0  0  0
  144.5101  141.8506  156.3121 C   0  0  0  0  0  0  0  0  0  0  0  0
  143.4273  142.6771  156.6891 C   0  0  0  0  0  0  0  0  0  0  0  0
  143.0406  143.7631  155.8758 C   0  0  0  0  0  0  0  0  0  0  0  0
  143.7286  144.0393  154.6763 C   0  0  0  0  0  0  0  0  0  0  0  0
  144.8105  143.2298  154.2798 C   0  0  0  0  0  0  0  0  0  0  0  0
  145.1931  142.1474  155.0940 C   0  0  0  0  0  0  0  0  0  0  0  0
  149.3216  140.3080  152.7613 H   0  0  0  0  0  0  0  0  0  0  0  0
  148.5942  139.6371  154.8091 H   0  0  0  0  0  0  0  0  0  0  0  0
  149.3593  142.5299  155.3660 H   0  0  0  0  0  0  0  0  0  0  0  0
  148.0559  141.7936  156.2871 H   0  0  0  0  0  0  0  0  0  0  0  0
  151.8179  140.4092  156.0721 H   0  0  0  0  0  0  0  0  0  0  0  0
  151.2696  141.9753  155.4898 H   0  0  0  0  0  0  0  0  0  0  0  0
  150.7996  143.8525  157.1721 H   0  0  0  0  0  0  0  0  0  0  0  0
  151.7476  144.9738  159.1739 H   0  0  0  0  0  0  0  0  0  0  0  0
  153.2711  143.7280  160.6981 H   0  0  0  0  0  0  0  0  0  0  0  0
  153.8490  141.3570  160.2123 H   0  0  0  0  0  0  0  0  0  0  0  0
  152.9054  140.2294  158.2140 H   0  0  0  0  0  0  0  0  0  0  0  0
  147.2098  141.9453  153.3745 H   0  0  0  0  0  0  0  0  0  0  0  0
  146.8381  140.2392  153.2660 H   0  0  0  0  0  0  0  0  0  0  0  0
  146.6849  139.5763  156.2993 H   0  0  0  0  0  0  0  0  0  0  0  0
  142.8936  142.4751  157.6060 H   0  0  0  0  0  0  0  0  0  0  0  0
  142.2118  144.3880  156.1744 H   0  0  0  0  0  0  0  0  0  0  0  0
  143.4253  144.8736  154.0607 H   0  0  0  0  0  0  0  0  0  0  0  0
  145.3405  143.4381  153.3624 H   0  0  0  0  0  0  0  0  0  0  0  0
  1  2  1  0  0  0  0
  1 22  1  0  0  0  0
  2  3  1  0  0  0  0
  2 12  1  0  0  0  0
  2 23  1  0  0  0  0
  3  4  1  0  0  0  0
  3 24  1  0  0  0  0
  3 25  1  0  0  0  0
  4  5  1  0  0  0  0
  5  6  1  0  0  0  0
  5 26  1  0  0  0  0
  5 27  1  0  0  0  0
  6 11  1  0  0  0  0
  6  7  2  0  0  0  0
  7  8  1  0  0  0  0
  7 28  1  0  0  0  0
  8  9  2  0  0  0  0
  8 29  1  0  0  0  0
  9 10  1  0  0  0  0
  9 30  1  0  0  0  0
 10 11  2  0  0  0  0
 10 31  1  0  0  0  0
 11 32  1  0  0  0  0
 12 13  1  0  0  0  0
 12 33  1  0  0  0  0
 12 34  1  0  0  0  0
 13 21  1  0  0  0  0
 13 14  1  0  0  0  0
 14 15  2  0  0  0  0
 14 35  1  0  0  0  0
 15 16  1  0  0  0  0
 16 21  2  0  0  0  0
 16 17  1  0  0  0  0
 17 18  2  0  0  0  0
 17 36  1  0  0  0  0
 18 19  1  0  0  0  0
 18 37  1  0  0  0  0
 19 20  2  0  0  0  0
 19 38  1  0  0  0  0
 20 21  1  0  0  0  0
 20 39  1  0  0  0  0
M  END
> <s_m_source_file>
AV-unprocessed.smi

> <i_m_source_file_index>
2004

> <i_lp_mmshare_version>
43012

> <i_f3d_flags>
0

> <s_epik_input>
W2NIXTFbY0hdW2NIXVtjSF1jKGMxMiluKFtjSF1uMilbQ0gyXVtDQEhdKFtPSF0pW0NIMl1PW0NIMl1jM1tjSF1bY0hdW2NIXVtjSF1bY0hdMw==

> <s_epik_cmdline>
J2VwaWtfcHl0aG9uJywgJy1waCcsICc3LjAnLCAnLXRuJywgJzgnLCAnLW1hJywgJzIwMCcsICctbWV0YWxfYmluZGluZycsICctaW1hZScsICc8aW5maWxlLm1hZT4nLCAnLW9tYWUnLCAnPG91dGZpbGUubWFlPic=

> <r_epik_Ionization_Penalty>
0.0713119

> <r_epik_Ionization_Penalty_Charging>
0

> <r_epik_Ionization_Penalty_Neutral>
0.0713119

> <r_epik_State_Penalty>
0.06259

> <r_epik_Charging_Adjusted_Penalty>
0.06259

> <i_epik_Tot_Q>
0

> <i_epik_Tot_abs_Q>
0

> <r_epik_Metal_State_Penalty>
6.60119e-05

> <b_epik_Metal_Only>
0

> <s_lp_Force_Field>
OPLS_2005

> <r_lp_Energy>
14.5219

> <b_lp_Chiralities_Consistent>
1

> <s_lp_Variant>
AV-unprocessed.smi:2004-2

> <Gold.Version>
5.8.1

> <Gold.Id.Protein>
6NUR|6NUR_protein|mol2

> <Gold.PLP.Fitness>
54.8504

> <Gold.PLP.PLP>
-52.0042

> <Gold.PLP.part.hbond>
-2.8067

> <Gold.PLP.part.metal>
0.0000

> <Gold.PLP.part.buried>
-2.0564

> <Gold.PLP.part.nonpolar>
-46.9514

> <Gold.PLP.part.repulsive>
0.1891

> <Gold.PLP.ligand.clash>
0.0000

> <Gold.PLP.ligand.torsion>
1.5704

> <Gold.PLP.Chemscore.Hbond>
1.9440

> <Gold.PLP.Chemscore.CHOScore>
0.0000

> <Gold.PLP.Chemscore.Metal>
0.0000

> <Gold.Chemscore.Hbonds>
donor molecule, donor type, donor heavy atom, donor atom, acceptor molecule, acceptor atom, score
      L1  H     1    22       P1  7957  0.85
      P1  H  7989  7998       L1     1  0.28
      P1  H  8011  8017       L1     1  0.65

> <Gold.PLP.Chemscore.Internal.Correction>
0.1550

> <Gold.Rescore>
     Score         DG    S(hbond)    S(metal)    S(lipo)     H(rot)  DE(clash)    DE(int)     intcor
     15.53     -18.57       0.99        0.00     134.44       2.33       1.83       1.21       ----

> <Gold.Chemscore.Fitness>
15.5252

> <Gold.Chemscore.DG>
-18.5689

> <Gold.Chemscore.ZeroCoef>
-5.4800

> <Gold.Chemscore.Hbond>
0.9943

> <Gold.Chemscore.Metal>
0.0000

> <Gold.Chemscore.Lipo>
134.4393

> <Gold.Chemscore.Internal_Hbond>
0.0000

> <Gold.Chemscore.DEClash>
1.8337

> <Gold.Chemscore.DEInternal>
1.2099

> <Gold.Chemscore.Rot>
2.3288

> <Gold.Chemscore.Internal.Correction>
   9.000000E+99

> <Gold.Chemscore.Hbonds>
donor molecule, donor type, donor heavy atom, donor atom, acceptor molecule, acceptor atom, score
      L1  H     1    22       P1  7957  0.85
      P1  H  7989  7998       L1     1  0.09
      P1  H  8011  8017       L1     1  0.06

> <Gold.Chemscore.Hbond.Weighted>
-3.3211

> <Gold.Chemscore.Metal.Weighted>
-0.0000

> <Gold.Chemscore.Lipo.Weighted>
-15.7294

> <Gold.Chemscore.Internal_Hbond.Weighted>
0.0000

> <Gold.Chemscore.DEClash.Weighted>
1.8337

> <Gold.Chemscore.DEInternal.Weighted>
1.2099

> <Gold.Chemscore.Rot.Weighted>
5.9616

> <Gold.Chemscore.Internal.Correction.Weighted>
   9.000000E+99

> <Gold.Protein.RotatedTorsions>
[ 6907 6896 6895 6894 ] final -110.43 input  -60.11 | X-H torsion
[ 7974 7965 7964 7962 ] final  104.68 input  175.53 | X-H torsion
[ 8008 7997 7996 7995 ] final   -0.93 input   59.86 | X-H torsion
[ 10167 10162 10161 10158 ] final -112.03 input  -65.29 | X-H torsion
[ 10718 10713 10712 10709 ] final -148.26 input   66.30 | X-H torsion
[ 10763 10752 10751 10750 ] final  -81.71 input  -60.55 | X-H torsion
[ 11005 11000 10999 10996 ] final -107.40 input  -57.11 | X-H torsion

> <Gold.Protein.ActiveResidues>
 VAL166  LYS551  ARG553  GLY616  TRP617  ASP618  TYR619  PRO620  LYS621  CYS622 
 ASP623  PHE694  ASN695  SER759  ASP760  ASP761  ALA762  ILE779  LEU786  VAL792 
 PHE793  MET794  SER795  GLU796  ALA797  LYS798  CYS799  TRP800  GLU811  SER814 

> <Gold.Protein.RotatedAtoms>
  150.7624  133.9383  159.3447 H   0  0  0  0  0  0  0  0  0  0  0  0  # atno 6907 bound_to 6896
  151.7288  135.0877  160.0306 H   0  0  0  0  0  0  0  0  0  0  0  0  # atno 6908 bound_to 6896
  152.3603  133.6251  159.6046 H   0  0  0  0  0  0  0  0  0  0  0  0  # atno 6909 bound_to 6896
  145.3296  139.2490  143.3668 H   0  0  0  0  0  0  0  0  0  0  0  0  # atno 7974 bound_to 7965
  154.6524  140.2572  155.7198 H   0  0  0  0  0  0  0  0  0  0  0  0  # atno 8008 bound_to 7997
  156.2581  140.2865  156.0885 H   0  0  0  0  0  0  0  0  0  0  0  0  # atno 8009 bound_to 7997
  155.1430  140.0380  157.2793 H   0  0  0  0  0  0  0  0  0  0  0  0  # atno 8010 bound_to 7997
  140.1272  143.4392  152.1652 H   0  0  0  0  0  0  0  0  0  0  0  0  # atno 10167 bound_to 10162
  156.4180  130.8015  151.2236 H   0  0  0  0  0  0  0  0  0  0  0  0  # atno 10718 bound_to 10713
  154.5669  135.5617  153.7059 H   0  0  0  0  0  0  0  0  0  0  0  0  # atno 10763 bound_to 10752
  153.0036  135.6287  154.2168 H   0  0  0  0  0  0  0  0  0  0  0  0  # atno 10764 bound_to 10752
  154.2107  135.2874  155.2939 H   0  0  0  0  0  0  0  0  0  0  0  0  # atno 10765 bound_to 10752
  141.0956  133.8977  157.1971 H   0  0  0  0  0  0  0  0  0  0  0  0  # atno 11005 bound_to 11000
  146.3051  140.3871  142.8690 LP  0  0  0  0  0  0  0  0  0  0  0  0  # atno 17320 bound_to 7965
  144.8875  140.7480  143.5948 LP  0  0  0  0  0  0  0  0  0  0  0  0  # atno 17321 bound_to 7965
  139.5538  144.7358  151.4355 LP  0  0  0  0  0  0  0  0  0  0  0  0  # atno 17342 bound_to 10162
  140.6838  143.8021  150.7157 LP  0  0  0  0  0  0  0  0  0  0  0  0  # atno 17343 bound_to 10162
  157.7508  131.0237  150.3844 LP  0  0  0  0  0  0  0  0  0  0  0  0  # atno 17370 bound_to 10713
  156.4156  130.3942  149.6861 LP  0  0  0  0  0  0  0  0  0  0  0  0  # atno 17371 bound_to 10713
  139.9792  135.0104  156.9706 LP  0  0  0  0  0  0  0  0  0  0  0  0  # atno 17394 bound_to 11000
  140.5149  134.0965  155.7278 LP  0  0  0  0  0  0  0  0  0  0  0  0  # atno 17395 bound_to 11000

$$$$
