AV-unprocessed.smi:798|AV-procd|sdf|3782|dock3
  -GOLD-   22720 1213D 1   1.00000     0.00000
 Structure written by MMmdl.
 33 35  0  0  0  0  0  0  0  0  2 V2000
  149.8327  135.7845  158.4895 O   0  0  0  0  0  0  0  0  0  0  0  0
  149.2359  136.8629  158.4567 C   0  0  0  0  0  0  0  0  0  0  0  0
  148.1529  137.2029  159.1921 N   0  5  0  0  0  0  0  0  0  0  0  0
  147.9244  136.6033  160.3722 C   0  0  0  0  0  0  0  0  0  0  0  0
  147.6058  137.2941  161.4786 N   0  0  0  0  0  0  0  0  0  0  0  0
  147.4226  136.4862  162.5928 N   0  0  0  0  0  0  0  0  0  0  0  0
  147.6160  135.2009  162.2983 C   0  0  0  0  0  0  0  0  0  0  0  0
  148.0408  134.8607  160.6342 S   0  0  0  0  0  0  0  0  0  0  0  0
  149.6550  137.8356  157.6353 N   0  0  0  0  0  0  0  0  0  0  0  0
  150.8043  137.7646  156.7350 C   0  0  1  0  0  0  0  0  0  0  0  0
  150.3956  138.1888  155.3072 C   0  0  2  0  0  0  0  0  0  0  0  0
  151.4887  137.7367  154.3218 C   0  0  0  0  0  0  0  0  0  0  0  0
  152.6381  138.7151  154.6275 C   0  0  0  0  0  0  0  0  0  0  0  0
  152.0591  139.5849  155.7644 C   0  0  1  0  0  0  0  0  0  0  0  0
  150.6044  139.7003  155.3277 C   0  0  0  0  0  0  0  0  0  0  0  0
  151.9102  138.7931  157.0880 C   0  0  2  0  0  0  0  0  0  0  0  0
  153.1991  138.1622  157.6505 C   0  0  0  0  0  0  0  0  0  0  0  0
  154.0922  139.1648  158.0875 O   0  0  0  0  0  0  0  0  0  0  0  0
  147.5113  134.4491  163.0659 H   0  0  0  0  0  0  0  0  0  0  0  0
  149.1352  138.7009  157.6414 H   0  0  0  0  0  0  0  0  0  0  0  0
  151.1862  136.7419  156.7254 H   0  0  0  0  0  0  0  0  0  0  0  0
  149.3959  137.8636  155.0165 H   0  0  0  0  0  0  0  0  0  0  0  0
  151.7771  136.6949  154.4665 H   0  0  0  0  0  0  0  0  0  0  0  0
  151.1538  137.8501  153.2900 H   0  0  0  0  0  0  0  0  0  0  0  0
  153.5651  138.2103  154.8954 H   0  0  0  0  0  0  0  0  0  0  0  0
  152.8500  139.3300  153.7520 H   0  0  0  0  0  0  0  0  0  0  0  0
  152.5708  140.5402  155.8853 H   0  0  0  0  0  0  0  0  0  0  0  0
  150.4792  140.1683  154.3497 H   0  0  0  0  0  0  0  0  0  0  0  0
  149.9721  140.2164  156.0523 H   0  0  0  0  0  0  0  0  0  0  0  0
  151.5289  139.4853  157.8419 H   0  0  0  0  0  0  0  0  0  0  0  0
  152.9590  137.5254  158.5019 H   0  0  0  0  0  0  0  0  0  0  0  0
  153.6947  137.5254  156.9186 H   0  0  0  0  0  0  0  0  0  0  0  0
  153.7826  139.5013  158.9144 H   0  0  0  0  0  0  0  0  0  0  0  0
  1  2  2  0  0  0  0
  2  3  1  0  0  0  0
  2  9  1  0  0  0  0
  3  4  1  0  0  0  0
  4  8  1  0  0  0  0
  4  5  2  0  0  0  0
  5  6  1  0  0  0  0
  6  7  2  0  0  0  0
  7  8  1  0  0  0  0
  7 19  1  0  0  0  0
  9 10  1  0  0  0  0
  9 20  1  0  0  0  0
 10 16  1  0  0  0  0
 10 11  1  0  0  0  0
 10 21  1  0  0  0  0
 11 15  1  0  0  0  0
 11 12  1  0  0  0  0
 11 22  1  0  0  0  0
 12 13  1  0  0  0  0
 12 23  1  0  0  0  0
 12 24  1  0  0  0  0
 13 14  1  0  0  0  0
 13 25  1  0  0  0  0
 13 26  1  0  0  0  0
 14 15  1  0  0  0  0
 14 16  1  0  0  0  0
 14 27  1  0  0  0  0
 15 28  1  0  0  0  0
 15 29  1  0  0  0  0
 16 17  1  0  0  0  0
 16 30  1  0  0  0  0
 17 18  1  0  0  0  0
 17 31  1  0  0  0  0
 17 32  1  0  0  0  0
 18 33  1  0  0  0  0
M  CHG  1   3  -1
M  END
> <s_m_source_file>
AV-unprocessed.smi

> <i_m_source_file_index>
798

> <i_lp_mmshare_version>
43012

> <i_f3d_flags>
0

> <s_epik_input>
W0NIMl0xW0NIMl1bQ0BASF0oW0NIMl0yKVtDQEBIXShbQ0gyXVtPSF0pW0NAQEhdKFtDQEhdMTIpW05IXUMoPU8pW05IXWMzbm5bY0hdczM=

> <s_epik_cmdline>
J2VwaWtfcHl0aG9uJywgJy1waCcsICc3LjAnLCAnLXRuJywgJzgnLCAnLW1hJywgJzIwMCcsICctbWV0YWxfYmluZGluZycsICctaW1hZScsICc8aW5maWxlLm1hZT4nLCAnLW9tYWUnLCAnPG91dGZpbGUubWFlPic=

> <r_lp_tautomer_probability>
1

> <r_epik_Ionization_Penalty>
4.53732

> <r_epik_Ionization_Penalty_Charging>
4.48632

> <r_epik_Ionization_Penalty_Neutral>
0.0510007

> <r_epik_State_Penalty>
4.48602

> <r_epik_Charging_Adjusted_Penalty>
8.97234

> <i_epik_Tot_Q>
-1

> <i_epik_Tot_abs_Q>
1

> <r_epik_Metal_State_Penalty>
0.812492

> <b_epik_Metal_Only>
1

> <s_lp_Force_Field>
OPLS_2005

> <r_lp_Energy>
47.3152

> <b_lp_Chiralities_Consistent>
1

> <s_lp_Variant>
AV-unprocessed.smi:798-14

> <Gold.Version>
5.8.1

> <Gold.Id.Protein>
6NUR|6NUR_protein|mol2

> <Gold.PLP.Fitness>
40.0597

> <Gold.PLP.PLP>
-29.7688

> <Gold.PLP.part.hbond>
-4.0000

> <Gold.PLP.part.metal>
0.0000

> <Gold.PLP.part.buried>
-4.9683

> <Gold.PLP.part.nonpolar>
-21.4745

> <Gold.PLP.part.repulsive>
0.0559

> <Gold.PLP.ligand.clash>
0.0000

> <Gold.PLP.ligand.torsion>
0.6035

> <Gold.PLP.Chemscore.Hbond>
3.8240

> <Gold.PLP.Chemscore.CHOScore>
0.0000

> <Gold.PLP.Chemscore.Metal>
0.0000

> <Gold.Chemscore.Hbonds>
donor molecule, donor type, donor heavy atom, donor atom, acceptor molecule, acceptor atom, score
      P1  H  6896  6908       L1     1  1.00
      P1  H  6931  6943       L1     5  0.93
      P1  H  6934  6947       L1     5  0.80
      P1  H  7997  8009       L1    18  0.70

> <Gold.PLP.Chemscore.Internal.Correction>
0.0258

> <Gold.Rescore>
     Score         DG    S(hbond)    S(metal)    S(lipo)     H(rot)  DE(clash)    DE(int)     intcor
     17.58     -18.35       3.13        0.00      62.57       1.92       0.00       0.77       ----

> <Gold.Chemscore.Fitness>
17.5813

> <Gold.Chemscore.DG>
-18.3536

> <Gold.Chemscore.ZeroCoef>
-5.4800

> <Gold.Chemscore.Hbond>
3.1347

> <Gold.Chemscore.Metal>
0.0000

> <Gold.Chemscore.Lipo>
62.5691

> <Gold.Chemscore.Internal_Hbond>
0.0000

> <Gold.Chemscore.DEClash>
0.0009

> <Gold.Chemscore.DEInternal>
0.7714

> <Gold.Chemscore.Rot>
1.9207

> <Gold.Chemscore.Internal.Correction>
   9.000000E+99

> <Gold.Chemscore.Hbonds>
donor molecule, donor type, donor heavy atom, donor atom, acceptor molecule, acceptor atom, score
      P1  H  6896  6908       L1     1  0.99
      P1  H  6931  6943       L1     5  0.21
      P1  H  6934  6947       L1     5  0.48
      P1  H  7997  8009       L1    18  0.69

> <Gold.Chemscore.Hbond.Weighted>
-10.4699

> <Gold.Chemscore.Metal.Weighted>
-0.0000

> <Gold.Chemscore.Lipo.Weighted>
-7.3206

> <Gold.Chemscore.Internal_Hbond.Weighted>
0.0000

> <Gold.Chemscore.DEClash.Weighted>
0.0009

> <Gold.Chemscore.DEInternal.Weighted>
0.7714

> <Gold.Chemscore.Rot.Weighted>
4.9169

> <Gold.Chemscore.Internal.Correction.Weighted>
   9.000000E+99

> <Gold.Protein.RotatedTorsions>
[ 6907 6896 6895 6894 ] final  178.45 input  -60.11 | X-H torsion
[ 7974 7965 7964 7962 ] final  176.76 input  175.53 | X-H torsion
[ 8008 7997 7996 7995 ] final  140.60 input   59.86 | X-H torsion
[ 10167 10162 10161 10158 ] final  -57.38 input  -65.29 | X-H torsion
[ 10718 10713 10712 10709 ] final  146.05 input   66.30 | X-H torsion
[ 10763 10752 10751 10750 ] final   13.33 input  -60.55 | X-H torsion
[ 11005 11000 10999 10996 ] final    0.79 input  -57.11 | X-H torsion

> <Gold.Protein.ActiveResidues>
 VAL166  LYS551  ARG553  GLY616  TRP617  ASP618  TYR619  PRO620  LYS621  CYS622 
 ASP623  PHE694  ASN695  SER759  ASP760  ASP761  ALA762  ILE779  LEU786  VAL792 
 PHE793  MET794  SER795  GLU796  ALA797  LYS798  CYS799  TRP800  GLU811  SER814 

> <Gold.Protein.RotatedAtoms>
  151.6877  133.3311  159.3234 H   0  0  0  0  0  0  0  0  0  0  0  0  # atno 6907 bound_to 6896
  150.7793  134.6726  159.6409 H   0  0  0  0  0  0  0  0  0  0  0  0  # atno 6908 bound_to 6896
  152.3846  134.6541  160.0182 H   0  0  0  0  0  0  0  0  0  0  0  0  # atno 6909 bound_to 6896
  144.7179  140.0146  143.6440 H   0  0  0  0  0  0  0  0  0  0  0  0  # atno 7974 bound_to 7965
  156.2977  140.2337  156.4427 H   0  0  0  0  0  0  0  0  0  0  0  0  # atno 8008 bound_to 7997
  154.8171  140.0440  157.1405 H   0  0  0  0  0  0  0  0  0  0  0  0  # atno 8009 bound_to 7997
  154.9357  140.3022  155.5149 H   0  0  0  0  0  0  0  0  0  0  0  0  # atno 8010 bound_to 7997
  140.6261  143.2439  151.5360 H   0  0  0  0  0  0  0  0  0  0  0  0  # atno 10167 bound_to 10162
  157.3379  131.0931  151.1107 H   0  0  0  0  0  0  0  0  0  0  0  0  # atno 10718 bound_to 10713
  153.1732  135.6815  153.8579 H   0  0  0  0  0  0  0  0  0  0  0  0  # atno 10763 bound_to 10752
  153.7936  135.3165  155.3383 H   0  0  0  0  0  0  0  0  0  0  0  0  # atno 10764 bound_to 10752
  154.8011  135.4777  154.0372 H   0  0  0  0  0  0  0  0  0  0  0  0  # atno 10765 bound_to 10752
  140.6226  133.9647  155.8232 H   0  0  0  0  0  0  0  0  0  0  0  0  # atno 11005 bound_to 11000
  146.0231  139.3268  143.0801 LP  0  0  0  0  0  0  0  0  0  0  0  0  # atno 17320 bound_to 7965
  145.8545  140.9510  143.0732 LP  0  0  0  0  0  0  0  0  0  0  0  0  # atno 17321 bound_to 7965
  139.5481  144.2467  152.1480 LP  0  0  0  0  0  0  0  0  0  0  0  0  # atno 17342 bound_to 10162
  140.1699  144.4946  150.6585 LP  0  0  0  0  0  0  0  0  0  0  0  0  # atno 17343 bound_to 10162
  157.2331  130.6534  149.5858 LP  0  0  0  0  0  0  0  0  0  0  0  0  # atno 17370 bound_to 10713
  155.9704  130.4592  150.6029 LP  0  0  0  0  0  0  0  0  0  0  0  0  # atno 17371 bound_to 10713
  141.0732  134.0175  157.3496 LP  0  0  0  0  0  0  0  0  0  0  0  0  # atno 17394 bound_to 11000
  139.9147  135.0195  156.7835 LP  0  0  0  0  0  0  0  0  0  0  0  0  # atno 17395 bound_to 11000

$$$$
