#       Name:                AV-unprocessed.smi:1289
#       Creating user name   scv26
#       Creation time:       Fri Mar 27 04:53:33 2020


#       File generated by GOLD software.
#

@<TRIPOS>MOLECULE
AV-unprocessed.smi:1289
    43    45     1
SMALL
NO_CHARGES


@<TRIPOS>ATOM
      1 ****        -8.3962   0.9175   0.2952 N.1            1 S1                 0.0000
      2 ****        -7.2559   0.7219   0.2784 C.1            1 S1                 0.0000
      3 ****        -5.8235   0.4764   0.2576 C.ar           1 S1                 0.0000
      4 ****        -4.9217   1.5559   0.1825 C.ar           1 S1                 0.0000
      5 ****        -3.5344   1.3151   0.1659 C.ar           1 S1                 0.0000
      6 ****        -3.0279   0.0006   0.2251 C.ar           1 S1                 0.0000
      7 ****        -1.6572  -0.1418   0.2065 O.3            1 S1                 0.0000
      8 ****        -1.1129  -1.4516   0.3126 C.3            1 S1                 0.0000
      9 ****         0.4228  -1.3884   0.2778 C.3            1 S1                 0.0000
     10 ****         0.9003  -0.9396   1.5309 O.3            1 S1                 0.0000
     11 ****         0.9826  -0.5369  -0.8784 C.3            1 S1                 0.0000
     12 ****         2.4328  -0.5699  -0.9329 N.pl3          1 S1                 0.0000
     13 ****         3.1987  -1.5192  -1.5041 C.2            1 S1                 0.0000
     14 ****         4.5174  -1.3597  -1.4387 N.2            1 S1                 0.0000
     15 ****         4.6202  -0.1657  -0.7457 C.ar           1 S1                 0.0000
     16 ****         5.7608   0.5650  -0.3425 C.ar           1 S1                 0.0000
     17 ****         5.6195   1.7763   0.3662 C.ar           1 S1                 0.0000
     18 ****         4.3388   2.2740   0.6836 C.ar           1 S1                 0.0000
     19 ****         3.1875   1.5628   0.2936 C.ar           1 S1                 0.0000
     20 ****         3.3328   0.3555  -0.4147 C.ar           1 S1                 0.0000
     21 ****        -3.9420  -1.0810   0.2982 C.ar           1 S1                 0.0000
     22 ****        -5.3303  -0.8422   0.3138 C.ar           1 S1                 0.0000
     23 ****        -5.2864   2.5721   0.1383 H              1 S1                 0.0000
     24 ****        -2.8506   2.1494   0.1095 H              1 S1                 0.0000
     25 ****        -1.4505  -1.9456   1.2256 H              1 S1                 0.0000
     26 ****        -1.4570  -2.0478  -0.5339 H              1 S1                 0.0000
     27 ****         0.7907  -2.4088   0.1635 H              1 S1                 0.0000
     28 ****         1.8452  -0.9451   1.5110 H              1 S1                 0.0000
     29 ****         0.5963  -0.8996  -1.8319 H              1 S1                 0.0000
     30 ****         0.6626   0.5018  -0.7875 H              1 S1                 0.0000
     31 ****         2.7623  -2.3778  -1.9932 H              1 S1                 0.0000
     32 ****         6.7466   0.1924  -0.5786 H              1 S1                 0.0000
     33 ****         6.4985   2.3264   0.6690 H              1 S1                 0.0000
     34 ****         4.2403   3.2020   1.2275 H              1 S1                 0.0000
     35 ****         2.2051   1.9397   0.5372 H              1 S1                 0.0000
     36 ****        -3.6039  -2.1049   0.3430 H              1 S1                 0.0000
     37 ****        -6.0127  -1.6784   0.3699 H              1 S1                 0.0000
     38 ****        -9.3817   1.0865   0.3097 LP             1 S1                 0.0000
     39 ****        -1.2938   0.3923   0.9698 LP             1 S1                 0.0000
     40 ****        -1.3312   0.2451  -0.6561 LP             1 S1                 0.0000
     41 ****         0.5746  -1.5488   2.2539 LP             1 S1                 0.0000
     42 ****         0.5719  -0.0111   1.7042 LP             1 S1                 0.0000
     43 ****         5.2434  -1.9474  -1.7960 LP             1 S1                 0.0000
@<TRIPOS>BOND
    1    1    2 3     
    2    2    3 1     
    3    3   22 ar    
    4    3    4 ar    
    5    4    5 ar    
    6    4   23 1     
    7    5    6 ar    
    8    5   24 1     
    9    6    7 1     
   10    6   21 ar    
   11    7    8 1     
   12    8    9 1     
   13    8   25 1     
   14    8   26 1     
   15    9   10 1     
   16    9   11 1     
   17    9   27 1     
   18   10   28 1     
   19   11   12 1     
   20   11   29 1     
   21   11   30 1     
   22   12   20 1     
   23   12   13 1     
   24   13   14 2     
   25   13   31 1     
   26   14   15 1     
   27   15   20 ar    
   28   15   16 ar    
   29   16   17 ar    
   30   16   32 1     
   31   17   18 ar    
   32   17   33 1     
   33   18   19 ar    
   34   18   34 1     
   35   19   20 ar    
   36   19   35 1     
   37   21   22 ar    
   38   21   36 1     
   39   22   37 1     
   40    1   38 1     
   41    7   39 1     
   42    7   40 1     
   43   10   41 1     
   44   10   42 1     
   45   14   43 1     
@<TRIPOS>SUBSTRUCTURE
      1 S1             1
@<TRIPOS>SET
LONE_PAIRS      STATIC     ATOMS    <user>   **** ""
6 38 39 40 41 42 43
DONOR_HYDROGENS      STATIC     ATOMS    <user>   **** ""
1 28
ATOM$BLUE        STATIC     ATOMS    COLORGROUP SYSTEM
6 38 39 40 41 42 43
ATOM$RED        STATIC     ATOMS    COLORGROUP SYSTEM
1 28
