AV-unprocessed.smi:246|AV-procd|sdf|1886|dock2
  -GOLD-   2262020543D 1   1.00000     0.00000
 Structure written by MMmdl.
 57 60  0  0  0  0  0  0  0  0  1 V2000
  147.8207  134.4612  161.2511 C   0  0  0  0  0  0  0  0  0  0  0  0
  148.1363  133.1205  160.5745 C   0  0  0  0  0  0  0  0  0  0  0  0
  148.7430  133.3088  159.3042 O   0  0  0  0  0  0  0  0  0  0  0  0
  148.7665  132.1445  158.4915 C   0  0  0  0  0  0  0  0  0  0  0  0
  149.5593  132.4521  157.2186 C   0  0  0  0  0  0  0  0  0  0  0  0
  149.0743  133.6657  156.6657 O   0  0  0  0  0  0  0  0  0  0  0  0
  149.4809  133.8916  155.3230 C   0  0  1  0  0  0  0  0  0  0  0  0
  148.4867  134.8090  154.6021 C   0  0  0  0  0  0  0  0  0  0  0  0
  148.9525  136.2071  154.9972 C   0  0  0  0  0  0  0  0  0  0  0  0
  150.4001  136.0968  155.1033 N   0  0  0  0  0  0  0  0  0  0  0  0
  151.1487  137.1186  155.5956 C   0  0  0  0  0  0  0  0  0  0  0  0
  152.4207  136.8622  156.0026 N   0  0  0  0  0  0  0  0  0  0  0  0
  153.1896  137.8405  156.4882 C   0  0  0  0  0  0  0  0  0  0  0  0
  152.8918  139.1294  156.6567 N   0  0  0  0  0  0  0  0  0  0  0  0
  151.6144  139.3962  156.2617 C   0  0  0  0  0  0  0  0  0  0  0  0
  150.6797  138.4591  155.7332 C   0  0  0  0  0  0  0  0  0  0  0  0
  149.4727  139.1010  155.4750 N   0  0  0  0  0  0  0  0  0  0  0  0
  149.6860  140.3412  155.8176 C   0  0  0  0  0  0  0  0  0  0  0  0
  150.9514  140.6110  156.2857 N   0  0  0  0  0  0  0  0  0  0  0  0
  151.4587  141.8997  156.7299 C   0  0  0  0  0  0  0  0  0  0  0  0
  151.8484  141.9556  158.2255 C   0  0  1  0  0  0  0  0  0  0  0  0
  152.7828  140.9446  158.5508 O   0  0  0  0  0  0  0  0  0  0  0  0
  152.3447  143.3308  158.7287 C   0  0  1  0  0  0  0  0  0  0  0  0
  151.4530  144.5281  158.3859 C   0  0  0  0  0  0  0  0  0  0  0  0
  151.8547  145.5194  159.4552 C   0  0  0  0  0  0  0  0  0  0  0  0
  152.0451  144.6068  160.6627 C   0  0  0  0  0  0  0  0  0  0  0  0
  152.5339  143.3752  160.1413 O   0  0  0  0  0  0  0  0  0  0  0  0
  150.7772  134.7131  155.3637 C   0  0  0  0  0  0  0  0  0  0  0  0
  149.6350  132.9456  154.8006 H   0  0  0  0  0  0  0  0  0  0  0  0
  147.2796  134.3031  162.1840 H   0  0  0  0  0  0  0  0  0  0  0  0
  147.1995  135.0849  160.6078 H   0  0  0  0  0  0  0  0  0  0  0  0
  148.7250  135.0206  161.4883 H   0  0  0  0  0  0  0  0  0  0  0  0
  148.7533  132.4897  161.2163 H   0  0  0  0  0  0  0  0  0  0  0  0
  147.2030  132.5801  160.4148 H   0  0  0  0  0  0  0  0  0  0  0  0
  149.2063  131.2934  159.0121 H   0  0  0  0  0  0  0  0  0  0  0  0
  147.7434  131.8740  158.2270 H   0  0  0  0  0  0  0  0  0  0  0  0
  150.6151  132.5745  157.4640 H   0  0  0  0  0  0  0  0  0  0  0  0
  149.4817  131.6230  156.5144 H   0  0  0  0  0  0  0  0  0  0  0  0
  148.5929  134.6829  153.5239 H   0  0  0  0  0  0  0  0  0  0  0  0
  147.4437  134.6234  154.8576 H   0  0  0  0  0  0  0  0  0  0  0  0
  148.6572  136.9540  154.2595 H   0  0  0  0  0  0  0  0  0  0  0  0
  148.5316  136.4880  155.9639 H   0  0  0  0  0  0  0  0  0  0  0  0
  154.1869  137.5483  156.7821 H   0  0  0  0  0  0  0  0  0  0  0  0
  148.9247  141.1021  155.7248 H   0  0  0  0  0  0  0  0  0  0  0  0
  152.3203  142.1600  156.1140 H   0  0  0  0  0  0  0  0  0  0  0  0
  150.6982  142.6522  156.5177 H   0  0  0  0  0  0  0  0  0  0  0  0
  150.9480  141.7169  158.7925 H   0  0  0  0  0  0  0  0  0  0  0  0
  153.5276  141.0263  157.9748 H   0  0  0  0  0  0  0  0  0  0  0  0
  153.3274  143.5174  158.2924 H   0  0  0  0  0  0  0  0  0  0  0  0
  151.6133  144.9015  157.3742 H   0  0  0  0  0  0  0  0  0  0  0  0
  150.3958  144.2838  158.4948 H   0  0  0  0  0  0  0  0  0  0  0  0
  152.7987  145.9971  159.1898 H   0  0  0  0  0  0  0  0  0  0  0  0
  151.1100  146.2982  159.6219 H   0  0  0  0  0  0  0  0  0  0  0  0
  152.7265  145.0265  161.4030 H   0  0  0  0  0  0  0  0  0  0  0  0
  151.0879  144.4192  161.1510 H   0  0  0  0  0  0  0  0  0  0  0  0
  151.2901  134.5964  156.3193 H   0  0  0  0  0  0  0  0  0  0  0  0
  151.4548  134.3874  154.5740 H   0  0  0  0  0  0  0  0  0  0  0  0
  1  2  1  0  0  0  0
  1 30  1  0  0  0  0
  1 31  1  0  0  0  0
  1 32  1  0  0  0  0
  2  3  1  0  0  0  0
  2 33  1  0  0  0  0
  2 34  1  0  0  0  0
  3  4  1  0  0  0  0
  4  5  1  0  0  0  0
  4 35  1  0  0  0  0
  4 36  1  0  0  0  0
  5  6  1  0  0  0  0
  5 37  1  0  0  0  0
  5 38  1  0  0  0  0
  6  7  1  0  0  0  0
  7 29  1  0  0  0  0
  7 28  1  0  0  0  0
  7  8  1  0  0  0  0
  8  9  1  0  0  0  0
  8 39  1  0  0  0  0
  8 40  1  0  0  0  0
  9 10  1  0  0  0  0
  9 41  1  0  0  0  0
  9 42  1  0  0  0  0
 10 11  1  0  0  0  0
 10 28  1  0  0  0  0
 11 16  1  0  0  0  0
 11 12  2  0  0  0  0
 12 13  1  0  0  0  0
 13 14  2  0  0  0  0
 13 43  1  0  0  0  0
 14 15  1  0  0  0  0
 15 19  1  0  0  0  0
 15 16  2  0  0  0  0
 16 17  1  0  0  0  0
 17 18  2  0  0  0  0
 18 19  1  0  0  0  0
 18 44  1  0  0  0  0
 19 20  1  0  0  0  0
 20 21  1  0  0  0  0
 20 45  1  0  0  0  0
 20 46  1  0  0  0  0
 21 22  1  0  0  0  0
 21 23  1  0  0  0  0
 21 47  1  0  0  0  0
 22 48  1  0  0  0  0
 23 27  1  0  0  0  0
 23 24  1  0  0  0  0
 23 49  1  0  0  0  0
 24 25  1  0  0  0  0
 24 50  1  0  0  0  0
 24 51  1  0  0  0  0
 25 26  1  0  0  0  0
 25 52  1  0  0  0  0
 25 53  1  0  0  0  0
 26 27  1  0  0  0  0
 26 54  1  0  0  0  0
 26 55  1  0  0  0  0
 28 56  1  0  0  0  0
 28 57  1  0  0  0  0
M  END
> <s_m_source_file>
AV-unprocessed.smi

> <i_m_source_file_index>
246

> <i_lp_mmshare_version>
43012

> <i_f3d_flags>
0

> <s_epik_input>
W0NIM11bQ0gyXU9bQ0gyXVtDSDJdT1tDQEhdMVtDSDJdW0NIMl1OKFtDSDJdMSljKG5bY0hdbjIpYyhjMjMpbltjSF1uM1tDSDJdW0NASF0oW09IXSlbQ0BASF00W0NIMl1bQ0gyXVtDSDJdTzQ=

> <s_epik_cmdline>
J2VwaWtfcHl0aG9uJywgJy1waCcsICc3LjAnLCAnLXRuJywgJzgnLCAnLW1hJywgJzIwMCcsICctbWV0YWxfYmluZGluZycsICctaW1hZScsICc8aW5maWxlLm1hZT4nLCAnLW9tYWUnLCAnPG91dGZpbGUubWFlPic=

> <r_lp_tautomer_probability>
1

> <r_epik_Ionization_Penalty>
0.0024631

> <r_epik_Ionization_Penalty_Charging>
0

> <r_epik_Ionization_Penalty_Neutral>
0.0024631

> <r_epik_State_Penalty>
0.00162428

> <r_epik_Charging_Adjusted_Penalty>
0.00162428

> <i_epik_Tot_Q>
0

> <i_epik_Tot_abs_Q>
0

> <r_epik_Metal_State_Penalty>
-0

> <b_epik_Metal_Only>
0

> <s_lp_Force_Field>
OPLS_2005

> <r_lp_Energy>
53.5717

> <b_lp_Chiralities_Consistent>
1

> <s_lp_Variant>
AV-unprocessed.smi:246-7

> <Gold.Version>
5.8.1

> <Gold.Id.Protein>
6NUR|6NUR_protein|mol2

> <Gold.PLP.Fitness>
48.3388

> <Gold.PLP.PLP>
-41.4108

> <Gold.PLP.part.hbond>
-3.0633

> <Gold.PLP.part.metal>
0.0000

> <Gold.PLP.part.buried>
-3.9452

> <Gold.PLP.part.nonpolar>
-33.1631

> <Gold.PLP.part.repulsive>
0.0614

> <Gold.PLP.ligand.clash>
0.0000

> <Gold.PLP.ligand.torsion>
0.6895

> <Gold.PLP.Chemscore.Hbond>
2.4990

> <Gold.PLP.Chemscore.CHOScore>
0.0000

> <Gold.PLP.Chemscore.Metal>
0.0000

> <Gold.Chemscore.Hbonds>
donor molecule, donor type, donor heavy atom, donor atom, acceptor molecule, acceptor atom, score
      P1  H  6896  6909       L1     3  0.76
      P1  H  7997  8008       L1    14  1.00
      P1  H 10752 10765       L1    12  0.94

> <Gold.PLP.Chemscore.Internal.Correction>
0.8099

> <Gold.Rescore>
     Score         DG    S(hbond)    S(metal)    S(lipo)     H(rot)  DE(clash)    DE(int)     intcor
     13.94     -17.09       2.23        0.00     103.43       3.10       0.40       2.75       ----

> <Gold.Chemscore.Fitness>
13.9355

> <Gold.Chemscore.DG>
-17.0856

> <Gold.Chemscore.ZeroCoef>
-5.4800

> <Gold.Chemscore.Hbond>
2.2296

> <Gold.Chemscore.Metal>
0.0000

> <Gold.Chemscore.Lipo>
103.4318

> <Gold.Chemscore.Internal_Hbond>
0.0000

> <Gold.Chemscore.DEClash>
0.4003

> <Gold.Chemscore.DEInternal>
2.7498

> <Gold.Chemscore.Rot>
3.1026

> <Gold.Chemscore.Internal.Correction>
   9.000000E+99

> <Gold.Chemscore.Hbonds>
donor molecule, donor type, donor heavy atom, donor atom, acceptor molecule, acceptor atom, score
      P1  H  6896  6909       L1     3  0.20
      P1  H  7997  8008       L1    14  0.70
      P1  H 10752 10765       L1    12  0.63

> <Gold.Chemscore.Hbond.Weighted>
-7.4467

> <Gold.Chemscore.Metal.Weighted>
-0.0000

> <Gold.Chemscore.Lipo.Weighted>
-12.1015

> <Gold.Chemscore.Internal_Hbond.Weighted>
0.0000

> <Gold.Chemscore.DEClash.Weighted>
0.4003

> <Gold.Chemscore.DEInternal.Weighted>
2.7498

> <Gold.Chemscore.Rot.Weighted>
7.9426

> <Gold.Chemscore.Internal.Correction.Weighted>
   9.000000E+99

> <Gold.Protein.RotatedTorsions>
[ 6907 6896 6895 6894 ] final    3.16 input  -60.11 | X-H torsion
[ 7974 7965 7964 7962 ] final  -56.05 input  175.53 | X-H torsion
[ 8008 7997 7996 7995 ] final  -55.56 input   59.86 | X-H torsion
[ 10167 10162 10161 10158 ] final  134.05 input  -65.29 | X-H torsion
[ 10718 10713 10712 10709 ] final   49.94 input   66.30 | X-H torsion
[ 10763 10752 10751 10750 ] final -156.53 input  -60.55 | X-H torsion
[ 11005 11000 10999 10996 ] final   49.44 input  -57.11 | X-H torsion

> <Gold.Protein.ActiveResidues>
 VAL166  LYS551  ARG553  GLY616  TRP617  ASP618  TYR619  PRO620  LYS621  CYS622 
 ASP623  PHE694  ASN695  SER759  ASP760  ASP761  ALA762  ILE779  LEU786  VAL792 
 PHE793  MET794  SER795  GLU796  ALA797  LYS798  CYS799  TRP800  GLU811  SER814 

> <Gold.Protein.RotatedAtoms>
  151.6206  135.1032  160.0100 H   0  0  0  0  0  0  0  0  0  0  0  0  # atno 6907 bound_to 6896
  152.4160  133.7034  159.6448 H   0  0  0  0  0  0  0  0  0  0  0  0  # atno 6908 bound_to 6896
  150.8048  133.8457  159.3232 H   0  0  0  0  0  0  0  0  0  0  0  0  # atno 6909 bound_to 6896
  145.8671  140.8243  142.9907 H   0  0  0  0  0  0  0  0  0  0  0  0  # atno 7974 bound_to 7965
  154.4199  140.1150  156.5496 H   0  0  0  0  0  0  0  0  0  0  0  0  # atno 8008 bound_to 7997
  155.6424  140.3496  155.4700 H   0  0  0  0  0  0  0  0  0  0  0  0  # atno 8009 bound_to 7997
  155.9860  140.1170  157.0672 H   0  0  0  0  0  0  0  0  0  0  0  0  # atno 8010 bound_to 7997
  139.5272  144.6586  151.5084 H   0  0  0  0  0  0  0  0  0  0  0  0  # atno 10167 bound_to 10162
  157.4836  130.8330  149.8121 H   0  0  0  0  0  0  0  0  0  0  0  0  # atno 10718 bound_to 10713
  154.7706  135.3144  154.8198 H   0  0  0  0  0  0  0  0  0  0  0  0  # atno 10763 bound_to 10752
  153.8934  135.6823  153.4763 H   0  0  0  0  0  0  0  0  0  0  0  0  # atno 10764 bound_to 10752
  153.1319  135.4776  154.9296 H   0  0  0  0  0  0  0  0  0  0  0  0  # atno 10765 bound_to 10752
  140.1103  134.4964  155.8684 H   0  0  0  0  0  0  0  0  0  0  0  0  # atno 11005 bound_to 11000
  144.6726  140.1183  143.7451 LP  0  0  0  0  0  0  0  0  0  0  0  0  # atno 17320 bound_to 7965
  145.9180  139.2528  143.1398 LP  0  0  0  0  0  0  0  0  0  0  0  0  # atno 17321 bound_to 7965
  140.6423  143.8864  150.6704 LP  0  0  0  0  0  0  0  0  0  0  0  0  # atno 17342 bound_to 10162
  140.2202  143.3815  152.1649 LP  0  0  0  0  0  0  0  0  0  0  0  0  # atno 17343 bound_to 10162
  156.0134  130.3823  150.2188 LP  0  0  0  0  0  0  0  0  0  0  0  0  # atno 17370 bound_to 10713
  157.0375  131.0025  151.3294 LP  0  0  0  0  0  0  0  0  0  0  0  0  # atno 17371 bound_to 10713
  141.2128  133.6725  156.6692 LP  0  0  0  0  0  0  0  0  0  0  0  0  # atno 17394 bound_to 11000
  140.3100  134.8094  157.4168 LP  0  0  0  0  0  0  0  0  0  0  0  0  # atno 17395 bound_to 11000

$$$$
