#       Name:                AV-unprocessed.smi:887
#       Creating user name   scv26
#       Creation time:       Fri Mar 27 01:54:03 2020


#       File generated by GOLD software.
#

@<TRIPOS>MOLECULE
AV-unprocessed.smi:887
    37    38     1
SMALL
NO_CHARGES


@<TRIPOS>ATOM
      1 ****        -4.6822  -1.7804   2.8741 C.3            1 S1                 0.0000
      2 ****        -3.2436  -1.9605   2.7526 N.am           1 S1                 0.0000
      3 ****        -2.3668  -0.9564   2.6047 C.2            1 S1                 0.0000
      4 ****        -2.6987   0.2282   2.5560 O.2            1 S1                 0.0000
      5 ****        -0.8902  -1.3447   2.4973 C.3            1 S1                 0.0000
      6 ****        -0.3991  -1.1833   1.0941 C.2            1 S1                 0.0000
      7 ****        -0.6026  -2.1236   0.1784 N.2            1 S1                 0.0000
      8 ****         0.0162  -1.6004  -0.9657 O.3            1 S1                 0.0000
      9 ****         0.4960  -0.3846  -0.6073 C.2            1 S1                 0.0000
     10 ****         1.2992   0.3931  -1.6028 C.3            1 S1                 0.0000
     11 ****         2.8157   0.1703  -1.4158 C.3            1 S1                 0.0000
     12 ****         3.6554   1.1620  -2.2023 C.2            1 S1                 0.0000
     13 ****         3.1553   2.2677  -2.7797 C.2            1 S1                 0.0000
     14 ****         1.6918   2.6613  -2.7036 C.3            1 S1                 0.0000
     15 ****         0.9400   1.8918  -1.6021 C.3            1 S1                 0.0000
     16 ****         0.3031  -0.0934   0.6780 N.2            1 S1                 0.0000
     17 ****        -5.1723  -2.7504   2.9574 H              1 S1                 0.0000
     18 ****        -5.0860  -1.2684   1.9997 H              1 S1                 0.0000
     19 ****        -4.9262  -1.1973   3.7629 H              1 S1                 0.0000
     20 ****        -2.8921  -2.9069   2.7825 H              1 S1                 0.0000
     21 ****        -0.3041  -0.7133   3.1661 H              1 S1                 0.0000
     22 ****        -0.7389  -2.3751   2.8227 H              1 S1                 0.0000
     23 ****         1.0337   0.0082  -2.5887 H              1 S1                 0.0000
     24 ****         3.0871   0.2828  -0.3656 H              1 S1                 0.0000
     25 ****         3.0838  -0.8461  -1.7053 H              1 S1                 0.0000
     26 ****         4.7109   0.9468  -2.2830 H              1 S1                 0.0000
     27 ****         3.8064   2.9207  -3.3421 H              1 S1                 0.0000
     28 ****         1.6159   3.7340  -2.5237 H              1 S1                 0.0000
     29 ****         1.2384   2.4689  -3.6765 H              1 S1                 0.0000
     30 ****        -0.1344   2.0259  -1.7334 H              1 S1                 0.0000
     31 ****         1.1873   2.3219  -0.6303 H              1 S1                 0.0000
     32 ****        -3.6636   0.4805   2.6280 LP             1 S1                 0.0000
     33 ****        -2.0033   0.9382   2.4445 LP             1 S1                 0.0000
     34 ****        -1.0819  -2.9952   0.2805 LP             1 S1                 0.0000
     35 ****        -0.6474  -1.5071  -1.7079 LP             1 S1                 0.0000
     36 ****         0.7637  -2.1961  -1.2597 LP             1 S1                 0.0000
     37 ****         0.5953   0.7096   1.1976 LP             1 S1                 0.0000
@<TRIPOS>BOND
    1    1    2 1     
    2    1   17 1     
    3    1   18 1     
    4    1   19 1     
    5    2    3 am    
    6    2   20 1     
    7    3    4 2     
    8    3    5 1     
    9    5    6 1     
   10    5   21 1     
   11    5   22 1     
   12    6   16 1     
   13    6    7 2     
   14    7    8 1     
   15    8    9 1     
   16    9   10 1     
   17    9   16 2     
   18   10   15 1     
   19   10   11 1     
   20   10   23 1     
   21   11   12 1     
   22   11   24 1     
   23   11   25 1     
   24   12   13 2     
   25   12   26 1     
   26   13   14 1     
   27   13   27 1     
   28   14   15 1     
   29   14   28 1     
   30   14   29 1     
   31   15   30 1     
   32   15   31 1     
   33    4   32 1     
   34    4   33 1     
   35    7   34 1     
   36    8   35 1     
   37    8   36 1     
   38   16   37 1     
@<TRIPOS>SUBSTRUCTURE
      1 S1             1
@<TRIPOS>SET
LONE_PAIRS      STATIC     ATOMS    <user>   **** ""
6 32 33 34 35 36 37
DONOR_HYDROGENS      STATIC     ATOMS    <user>   **** ""
1 20
ATOM$BLUE        STATIC     ATOMS    COLORGROUP SYSTEM
6 32 33 34 35 36 37
ATOM$RED        STATIC     ATOMS    COLORGROUP SYSTEM
1 20
