AV-unprocessed.smi:2591|AV-procd|sdf|10158|dock10
  -GOLD-   2272014173D 1   1.00000     0.00000
 Structure written by MMmdl.
 34 35  0  0  0  0  0  0  0  0  1 V2000
  151.9003  137.9898  154.2847 C   0  0  0  0  0  0  0  0  0  0  0  0
  151.1067  138.5137  155.3859 N   0  0  0  0  0  0  0  0  0  0  0  0
  151.8143  139.5604  156.1104 C   0  0  0  0  0  0  0  0  0  0  0  0
  150.9736  140.1084  157.2757 C   0  0  0  0  0  0  0  0  0  0  0  0
  150.6031  139.0402  158.1423 O   0  0  0  0  0  0  0  0  0  0  0  0
  149.8665  138.0089  157.4829 C   0  0  2  0  0  0  0  0  0  0  0  0
  149.4939  136.9302  158.5105 C   0  0  0  0  0  0  0  0  0  0  0  0
  149.8695  135.7679  158.3499 O   0  0  0  0  0  0  0  0  0  0  0  0
  148.7357  137.3468  159.5428 N   0  0  0  0  0  0  0  0  0  0  0  0
  148.2308  136.5864  160.6306 C   0  0  0  0  0  0  0  0  0  0  0  0
  147.8694  135.2577  160.3148 C   0  0  0  0  0  0  0  0  0  0  0  0
  147.3647  134.4104  161.3250 C   0  0  0  0  0  0  0  0  0  0  0  0
  146.9642  132.9767  161.0133 C   0  0  0  0  0  0  0  0  0  0  0  0
  147.0948  132.7199  159.7114 F   0  0  0  0  0  0  0  0  0  0  0  0
  147.7478  132.1432  161.6963 F   0  0  0  0  0  0  0  0  0  0  0  0
  145.6954  132.7536  161.3579 F   0  0  0  0  0  0  0  0  0  0  0  0
  147.2250  134.9331  162.6267 C   0  0  0  0  0  0  0  0  0  0  0  0
  147.6049  136.2679  162.8550 C   0  0  0  0  0  0  0  0  0  0  0  0
  148.0950  137.0718  161.8892 N   0  0  0  0  0  0  0  0  0  0  0  0
  150.7114  137.4591  156.3106 C   0  0  0  0  0  0  0  0  0  0  0  0
  152.1614  138.7838  153.5843 H   0  0  0  0  0  0  0  0  0  0  0  0
  151.3424  137.2317  153.7341 H   0  0  0  0  0  0  0  0  0  0  0  0
  152.8245  137.5363  154.6455 H   0  0  0  0  0  0  0  0  0  0  0  0
  152.7569  139.1703  156.4979 H   0  0  0  0  0  0  0  0  0  0  0  0
  152.0686  140.3746  155.4310 H   0  0  0  0  0  0  0  0  0  0  0  0
  151.5437  140.8453  157.8412 H   0  0  0  0  0  0  0  0  0  0  0  0
  150.0794  140.6109  156.9040 H   0  0  0  0  0  0  0  0  0  0  0  0
  148.9365  138.4302  157.0966 H   0  0  0  0  0  0  0  0  0  0  0  0
  148.4948  138.3272  159.5470 H   0  0  0  0  0  0  0  0  0  0  0  0
  147.9797  134.8902  159.3047 H   0  0  0  0  0  0  0  0  0  0  0  0
  146.8346  134.3305  163.4336 H   0  0  0  0  0  0  0  0  0  0  0  0
  147.5115  136.7027  163.8391 H   0  0  0  0  0  0  0  0  0  0  0  0
  150.1416  136.7007  155.7718 H   0  0  0  0  0  0  0  0  0  0  0  0
  151.6006  136.9613  156.7021 H   0  0  0  0  0  0  0  0  0  0  0  0
  1  2  1  0  0  0  0
  1 21  1  0  0  0  0
  1 22  1  0  0  0  0
  1 23  1  0  0  0  0
  2 20  1  0  0  0  0
  2  3  1  0  0  0  0
  3  4  1  0  0  0  0
  3 24  1  0  0  0  0
  3 25  1  0  0  0  0
  4  5  1  0  0  0  0
  4 26  1  0  0  0  0
  4 27  1  0  0  0  0
  5  6  1  0  0  0  0
  6  7  1  0  0  0  0
  6 20  1  0  0  0  0
  6 28  1  0  0  0  0
  7  8  2  0  0  0  0
  7  9  1  0  0  0  0
  9 10  1  0  0  0  0
  9 29  1  0  0  0  0
 10 19  1  0  0  0  0
 10 11  2  0  0  0  0
 11 12  1  0  0  0  0
 11 30  1  0  0  0  0
 12 13  1  0  0  0  0
 12 17  2  0  0  0  0
 13 14  1  0  0  0  0
 13 15  1  0  0  0  0
 13 16  1  0  0  0  0
 17 18  1  0  0  0  0
 17 31  1  0  0  0  0
 18 19  2  0  0  0  0
 18 32  1  0  0  0  0
 20 33  1  0  0  0  0
 20 34  1  0  0  0  0
M  END
> <s_m_source_file>
AV-unprocessed.smi

> <i_m_source_file_index>
2591

> <i_lp_mmshare_version>
43012

> <i_f3d_flags>
0

> <s_epik_input>
W0NIM11OMVtDSDJdW0NIMl1PW0NASF0oW0NIMl0xKUMoPU8pW05IXWMyW2NIXWMoQyhGKShGKUYpW2NIXVtjSF1uMg==

> <s_epik_cmdline>
J2VwaWtfcHl0aG9uJywgJy1waCcsICc3LjAnLCAnLXRuJywgJzgnLCAnLW1hJywgJzIwMCcsICctbWV0YWxfYmluZGluZycsICctaW1hZScsICc8aW5maWxlLm1hZT4nLCAnLW9tYWUnLCAnPG91dGZpbGUubWFlPic=

> <r_epik_Ionization_Penalty>
0.526245

> <r_epik_Ionization_Penalty_Charging>
0

> <r_epik_Ionization_Penalty_Neutral>
0.526245

> <r_epik_State_Penalty>
0.534659

> <r_epik_Charging_Adjusted_Penalty>
0.534659

> <i_epik_Tot_Q>
0

> <i_epik_Tot_abs_Q>
0

> <r_epik_Metal_State_Penalty>
0.534657

> <b_epik_Metal_Only>
0

> <s_lp_Force_Field>
OPLS_2005

> <r_lp_Energy>
21.9247

> <b_lp_Chiralities_Consistent>
1

> <s_lp_Variant>
AV-unprocessed.smi:2591-6

> <Gold.Version>
5.8.1

> <Gold.Id.Protein>
6NUR|6NUR_protein|mol2

> <Gold.PLP.Fitness>
41.7355

> <Gold.PLP.PLP>
-35.0508

> <Gold.PLP.part.hbond>
-3.0000

> <Gold.PLP.part.metal>
0.0000

> <Gold.PLP.part.buried>
-4.4814

> <Gold.PLP.part.nonpolar>
-27.3771

> <Gold.PLP.part.repulsive>
0.2688

> <Gold.PLP.ligand.clash>
1.0478

> <Gold.PLP.ligand.torsion>
0.2944

> <Gold.PLP.Chemscore.Hbond>
2.4106

> <Gold.PLP.Chemscore.CHOScore>
0.0000

> <Gold.PLP.Chemscore.Metal>
0.0000

> <Gold.Chemscore.Hbonds>
donor molecule, donor type, donor heavy atom, donor atom, acceptor molecule, acceptor atom, score
      P1  H  6896  6909       L1     8  1.00
      P1  H  6931  6943       L1    19  0.93
      P1  H  6934  6947       L1    19  0.05

> <Gold.PLP.Chemscore.Internal.Correction>
1.0896

> <Gold.Rescore>
     Score         DG    S(hbond)    S(metal)    S(lipo)     H(rot)  DE(clash)    DE(int)     intcor
     14.86     -16.48       1.82        0.00      63.83       1.00       0.04       1.57       ----

> <Gold.Chemscore.Fitness>
14.8619

> <Gold.Chemscore.DG>
-16.4760

> <Gold.Chemscore.ZeroCoef>
-5.4800

> <Gold.Chemscore.Hbond>
1.8227

> <Gold.Chemscore.Metal>
0.0000

> <Gold.Chemscore.Lipo>
63.8303

> <Gold.Chemscore.Internal_Hbond>
0.0000

> <Gold.Chemscore.DEClash>
0.0402

> <Gold.Chemscore.DEInternal>
1.5739

> <Gold.Chemscore.Rot>
1.0000

> <Gold.Chemscore.Internal.Correction>
   9.000000E+99

> <Gold.Chemscore.Hbonds>
donor molecule, donor type, donor heavy atom, donor atom, acceptor molecule, acceptor atom, score
      P1  H  6896  6909       L1     8  0.97
      P1  H  6931  6943       L1    19  0.40

> <Gold.Chemscore.Hbond.Weighted>
-6.0879

> <Gold.Chemscore.Metal.Weighted>
-0.0000

> <Gold.Chemscore.Lipo.Weighted>
-7.4681

> <Gold.Chemscore.Internal_Hbond.Weighted>
0.0000

> <Gold.Chemscore.DEClash.Weighted>
0.0402

> <Gold.Chemscore.DEInternal.Weighted>
1.5739

> <Gold.Chemscore.Rot.Weighted>
2.5600

> <Gold.Chemscore.Internal.Correction.Weighted>
   9.000000E+99

> <Gold.Protein.RotatedTorsions>
[ 6907 6896 6895 6894 ] final   59.20 input  -60.11 | X-H torsion
[ 7974 7965 7964 7962 ] final -140.94 input  175.53 | X-H torsion
[ 8008 7997 7996 7995 ] final    3.69 input   59.86 | X-H torsion
[ 10167 10162 10161 10158 ] final   73.43 input  -65.29 | X-H torsion
[ 10718 10713 10712 10709 ] final  129.66 input   66.30 | X-H torsion
[ 10763 10752 10751 10750 ] final -114.33 input  -60.55 | X-H torsion
[ 11005 11000 10999 10996 ] final   61.04 input  -57.11 | X-H torsion

> <Gold.Protein.ActiveResidues>
 VAL166  LYS551  ARG553  GLY616  TRP617  ASP618  TYR619  PRO620  LYS621  CYS622 
 ASP623  PHE694  ASN695  SER759  ASP760  ASP761  ALA762  ILE779  LEU786  VAL792 
 PHE793  MET794  SER795  GLU796  ALA797  LYS798  CYS799  TRP800  GLU811  SER814 

> <Gold.Protein.RotatedAtoms>
  152.3894  134.6466  160.0113 H   0  0  0  0  0  0  0  0  0  0  0  0  # atno 6907 bound_to 6896
  151.6705  133.3308  159.3203 H   0  0  0  0  0  0  0  0  0  0  0  0  # atno 6908 bound_to 6896
  150.7813  134.6803  159.6485 H   0  0  0  0  0  0  0  0  0  0  0  0  # atno 6909 bound_to 6896
  144.8558  140.6140  143.5360 H   0  0  0  0  0  0  0  0  0  0  0  0  # atno 7974 bound_to 7965
  154.7067  140.2684  155.6668 H   0  0  0  0  0  0  0  0  0  0  0  0  # atno 8008 bound_to 7997
  156.2782  140.2761  156.1619 H   0  0  0  0  0  0  0  0  0  0  0  0  # atno 8009 bound_to 7997
  155.0690  140.0372  157.2592 H   0  0  0  0  0  0  0  0  0  0  0  0  # atno 8010 bound_to 7997
  140.0245  144.5514  150.7555 H   0  0  0  0  0  0  0  0  0  0  0  0  # atno 10167 bound_to 10162
  157.5133  131.1097  150.9260 H   0  0  0  0  0  0  0  0  0  0  0  0  # atno 10718 bound_to 10713
  154.8435  135.4421  154.1490 H   0  0  0  0  0  0  0  0  0  0  0  0  # atno 10763 bound_to 10752
  153.2655  135.6940  153.7540 H   0  0  0  0  0  0  0  0  0  0  0  0  # atno 10764 bound_to 10752
  153.6800  135.3404  155.3151 H   0  0  0  0  0  0  0  0  0  0  0  0  # atno 10765 bound_to 10752
  140.0189  134.6183  155.9669 H   0  0  0  0  0  0  0  0  0  0  0  0  # atno 11005 bound_to 11000
  145.4409  139.1536  143.3971 LP  0  0  0  0  0  0  0  0  0  0  0  0  # atno 17320 bound_to 7965
  146.2822  140.4530  142.8772 LP  0  0  0  0  0  0  0  0  0  0  0  0  # atno 17321 bound_to 7965
  140.7328  143.2710  151.3889 LP  0  0  0  0  0  0  0  0  0  0  0  0  # atno 17342 bound_to 10162
  139.6117  144.1085  152.2305 LP  0  0  0  0  0  0  0  0  0  0  0  0  # atno 17343 bound_to 10162
  156.9894  130.5557  149.5302 LP  0  0  0  0  0  0  0  0  0  0  0  0  # atno 17370 bound_to 10713
  156.0304  130.5395  150.8518 LP  0  0  0  0  0  0  0  0  0  0  0  0  # atno 17371 bound_to 10713
  141.1761  133.6540  156.4834 LP  0  0  0  0  0  0  0  0  0  0  0  0  # atno 17394 bound_to 11000
  140.4422  134.7005  157.4997 LP  0  0  0  0  0  0  0  0  0  0  0  0  # atno 17395 bound_to 11000

$$$$
