#       Name:                AV-unprocessed.smi:2061
#       Creating user name   scv26
#       Creation time:       Fri Mar 27 11:06:20 2020


#       File generated by GOLD software.
#

@<TRIPOS>MOLECULE
AV-unprocessed.smi:2061
    53    54     1
SMALL
NO_CHARGES


@<TRIPOS>ATOM
      1 ****        -3.0672   6.3176  -3.3101 C.3            1 S1                 0.0000
      2 ****        -3.2338   5.2432  -2.2910 C.2            1 S1                 0.0000
      3 ****        -2.3773   4.6746  -1.3913 C.2            1 S1                 0.0000
      4 ****        -3.1894   3.7097  -0.7349 C.2            1 S1                 0.0000
      5 ****        -2.7992   2.8921   0.2552 N.pl3          1 S1                -1.0000
      6 ****        -2.1866   1.7209  -0.0300 C.2            1 S1                 0.0000
      7 ****        -1.9169   1.2888  -1.1532 O.2            1 S1                 0.0000
      8 ****        -1.8590   1.0061   1.0558 N.am           1 S1                 0.0000
      9 ****        -1.1746  -0.2830   1.0485 C.3            1 S1                 0.0000
     10 ****         0.3476  -0.1569   0.7814 C.3            1 S1                 0.0000
     11 ****         1.0039   0.7520   1.8487 C.3            1 S1                 0.0000
     12 ****         0.9596  -1.5218   0.6876 N.4            1 S1                 1.0000
     13 ****         0.7125  -2.1593  -0.6336 C.3            1 S1                 0.0000
     14 ****         1.2289  -3.6095  -0.6722 C.3            1 S1                 0.0000
     15 ****         0.3685  -4.5927   0.1417 C.3            1 S1                 0.0000
     16 ****         2.6041  -3.6474  -0.2981 O.3            1 S1                 0.0000
     17 ****         2.8867  -3.0790   0.9760 C.3            1 S1                 0.0000
     18 ****         4.3963  -3.1945   1.2157 C.3            1 S1                 0.0000
     19 ****         2.4071  -1.6159   1.0169 C.3            1 S1                 0.0000
     20 ****        -4.4328   3.7046  -1.1855 N.2            1 S1                 0.0000
     21 ****        -4.4681   4.6816  -2.1876 O.3            1 S1                 0.0000
     22 ****        -3.4018   7.2774  -2.9162 H              1 S1                 0.0000
     23 ****        -3.6479   6.0975  -4.2063 H              1 S1                 0.0000
     24 ****        -2.0214   6.4168  -3.6018 H              1 S1                 0.0000
     25 ****        -1.3358   4.9085  -1.2296 H              1 S1                 0.0000
     26 ****        -2.1009   1.3937   1.9561 H              1 S1                 0.0000
     27 ****        -1.3390  -0.7516   2.0193 H              1 S1                 0.0000
     28 ****        -1.6668  -0.9268   0.3201 H              1 S1                 0.0000
     29 ****         0.4992   0.3366  -0.1801 H              1 S1                 0.0000
     30 ****         0.5208   1.7278   1.8965 H              1 S1                 0.0000
     31 ****         2.0517   0.9534   1.6261 H              1 S1                 0.0000
     32 ****         0.9419   0.3099   2.8435 H              1 S1                 0.0000
     33 ****        -0.3459  -2.1509  -0.8895 H              1 S1                 0.0000
     34 ****         1.2184  -1.5766  -1.4054 H              1 S1                 0.0000
     35 ****         1.1921  -3.9455  -1.7090 H              1 S1                 0.0000
     36 ****        -0.6459  -4.6374  -0.2558 H              1 S1                 0.0000
     37 ****         0.2908  -4.3072   1.1903 H              1 S1                 0.0000
     38 ****         0.7832  -5.6000   0.0979 H              1 S1                 0.0000
     39 ****         2.3793  -3.6507   1.7532 H              1 S1                 0.0000
     40 ****         4.6737  -2.7828   2.1864 H              1 S1                 0.0000
     41 ****         4.9600  -2.6589   0.4512 H              1 S1                 0.0000
     42 ****         4.7149  -4.2370   1.1947 H              1 S1                 0.0000
     43 ****         2.9812  -1.0044   0.3186 H              1 S1                 0.0000
     44 ****         2.6017  -1.2394   2.0206 H              1 S1                 0.0000
     45 ****         0.4853  -2.0842   1.3795 H              1 S1                 0.0000
     46 ****        -2.9621   3.1500   1.2075 LP             1 S1                 0.0000
     47 ****        -2.1555   1.8222  -1.9647 LP             1 S1                 0.0000
     48 ****        -1.4596   0.4050  -1.2524 LP             1 S1                 0.0000
     49 ****         3.1287  -3.1465  -0.9865 LP             1 S1                 0.0000
     50 ****         2.8979  -4.6032  -0.2855 LP             1 S1                 0.0000
     51 ****        -5.1874   3.1259  -0.8762 LP             1 S1                 0.0000
     52 ****        -4.7208   4.2612  -3.0590 LP             1 S1                 0.0000
     53 ****        -5.1388   5.3841  -1.9495 LP             1 S1                 0.0000
@<TRIPOS>BOND
    1    1    2 1     
    2    1   22 1     
    3    1   23 1     
    4    1   24 1     
    5    2   21 1     
    6    2    3 2     
    7    3    4 1     
    8    3   25 1     
    9    4    5 1     
   10    4   20 2     
   11    5    6 1     
   12    6    7 2     
   13    6    8 am    
   14    8    9 1     
   15    8   26 1     
   16    9   10 1     
   17    9   27 1     
   18    9   28 1     
   19   10   11 1     
   20   10   12 1     
   21   10   29 1     
   22   11   30 1     
   23   11   31 1     
   24   11   32 1     
   25   12   19 1     
   26   12   13 1     
   27   12   45 1     
   28   13   14 1     
   29   13   33 1     
   30   13   34 1     
   31   14   15 1     
   32   14   16 1     
   33   14   35 1     
   34   15   36 1     
   35   15   37 1     
   36   15   38 1     
   37   16   17 1     
   38   17   18 1     
   39   17   19 1     
   40   17   39 1     
   41   18   40 1     
   42   18   41 1     
   43   18   42 1     
   44   19   43 1     
   45   19   44 1     
   46   20   21 1     
   47    5   46 1     
   48    7   47 1     
   49    7   48 1     
   50   16   49 1     
   51   16   50 1     
   52   20   51 1     
   53   21   52 1     
   54   21   53 1     
@<TRIPOS>SUBSTRUCTURE
      1 S1             1
@<TRIPOS>SET
LONE_PAIRS      STATIC     ATOMS    <user>   **** ""
8 46 47 48 49 50 51 52 53
DONOR_HYDROGENS      STATIC     ATOMS    <user>   **** ""
2 26 45
ATOM$BLUE        STATIC     ATOMS    COLORGROUP SYSTEM
8 46 47 48 49 50 51 52 53
ATOM$RED        STATIC     ATOMS    COLORGROUP SYSTEM
2 26 45
