AV-unprocessed.smi:2321|AV-procd|sdf|9281|dock7
  -GOLD-   2272012503D 1   1.00000     0.00000
 Structure written by MMmdl.
 36 37  0  0  0  0  0  0  0  0  1 V2000
  147.5362  132.6680  154.2503 O   0  0  0  0  0  0  0  0  0  0  0  0
  147.8437  133.5901  153.4981 C   0  0  0  0  0  0  0  0  0  0  0  0
  147.2467  133.8530  152.3191 N   0  0  0  0  0  0  0  0  0  0  0  0
  146.1630  133.1795  151.6942 C   0  0  0  0  0  0  0  0  0  0  0  0
  145.9439  131.7828  151.7702 C   0  0  0  0  0  0  0  0  0  0  0  0
  144.8388  131.2360  151.0873 C   0  0  0  0  0  0  0  0  0  0  0  0
  143.9767  131.9733  150.3555 N   0  0  0  0  0  0  0  0  0  0  0  0
  144.1969  133.3027  150.2749 C   0  0  0  0  0  0  0  0  0  0  0  0
  145.2717  133.9491  150.9170 C   0  0  0  0  0  0  0  0  0  0  0  0
  145.4385  135.2880  150.7907 F   0  0  0  0  0  0  0  0  0  0  0  0
  148.8230  134.4536  153.8244 N   0  0  0  0  0  0  0  0  0  0  0  0
  149.6719  134.4662  155.0210 C   0  0  2  0  0  0  0  0  0  0  0  0
  148.7988  134.4827  156.2904 C   0  0  0  0  0  0  0  0  0  0  0  0
  148.0907  135.8330  156.4921 C   0  0  0  0  0  0  0  0  0  0  0  0
  149.0945  136.9962  156.4960 C   0  0  0  0  0  0  0  0  0  0  0  0
  149.9434  137.0201  155.2076 C   0  0  1  0  0  0  0  0  0  0  0  0
  150.9409  138.1968  155.1937 C   0  0  0  0  0  0  0  0  0  0  0  0
  150.2996  139.3619  155.0987 F   0  0  0  0  0  0  0  0  0  0  0  0
  151.6648  138.1933  156.3130 F   0  0  0  0  0  0  0  0  0  0  0  0
  151.7737  138.0778  154.1598 F   0  0  0  0  0  0  0  0  0  0  0  0
  150.6531  135.6606  155.0151 C   0  0  0  0  0  0  0  0  0  0  0  0
  147.5589  134.6891  151.8474 H   0  0  0  0  0  0  0  0  0  0  0  0
  146.5988  131.1253  152.3205 H   0  0  0  0  0  0  0  0  0  0  0  0
  144.6455  130.1743  151.1257 H   0  0  0  0  0  0  0  0  0  0  0  0
  143.4962  133.8684  149.6788 H   0  0  0  0  0  0  0  0  0  0  0  0
  148.9879  135.2045  153.1695 H   0  0  0  0  0  0  0  0  0  0  0  0
  150.2485  133.5398  155.0418 H   0  0  0  0  0  0  0  0  0  0  0  0
  148.0650  133.6763  156.2568 H   0  0  0  0  0  0  0  0  0  0  0  0
  149.4287  134.2815  157.1580 H   0  0  0  0  0  0  0  0  0  0  0  0
  147.3547  135.9877  155.7024 H   0  0  0  0  0  0  0  0  0  0  0  0
  147.5352  135.8214  157.4302 H   0  0  0  0  0  0  0  0  0  0  0  0
  148.5545  137.9369  156.6073 H   0  0  0  0  0  0  0  0  0  0  0  0
  149.7454  136.9108  157.3670 H   0  0  0  0  0  0  0  0  0  0  0  0
  149.2636  137.1655  154.3666 H   0  0  0  0  0  0  0  0  0  0  0  0
  151.3785  135.5203  155.8173 H   0  0  0  0  0  0  0  0  0  0  0  0
  151.2327  135.6686  154.0919 H   0  0  0  0  0  0  0  0  0  0  0  0
  1  2  2  0  0  0  0
  2  3  1  0  0  0  0
  2 11  1  0  0  0  0
  3  4  1  0  0  0  0
  3 22  1  0  0  0  0
  4  9  1  0  0  0  0
  4  5  2  0  0  0  0
  5  6  1  0  0  0  0
  5 23  1  0  0  0  0
  6  7  2  0  0  0  0
  6 24  1  0  0  0  0
  7  8  1  0  0  0  0
  8  9  2  0  0  0  0
  8 25  1  0  0  0  0
  9 10  1  0  0  0  0
 11 12  1  0  0  0  0
 11 26  1  0  0  0  0
 12 21  1  0  0  0  0
 12 13  1  0  0  0  0
 12 27  1  0  0  0  0
 13 14  1  0  0  0  0
 13 28  1  0  0  0  0
 13 29  1  0  0  0  0
 14 15  1  0  0  0  0
 14 30  1  0  0  0  0
 14 31  1  0  0  0  0
 15 16  1  0  0  0  0
 15 32  1  0  0  0  0
 15 33  1  0  0  0  0
 16 17  1  0  0  0  0
 16 21  1  0  0  0  0
 16 34  1  0  0  0  0
 17 18  1  0  0  0  0
 17 19  1  0  0  0  0
 17 20  1  0  0  0  0
 21 35  1  0  0  0  0
 21 36  1  0  0  0  0
M  END
> <s_m_source_file>
AV-unprocessed.smi

> <i_m_source_file_index>
2321

> <i_lp_mmshare_version>
43012

> <i_f3d_flags>
0

> <s_epik_input>
RkMoRikoRilbQ0BASF0oW0NIMl0xKVtDSDJdW0NIMl1bQ0gyXVtDQEhdMVtOSF1DKD1PKVtOSF1jMltjSF1bY0hdbltjSF1jMkY=

> <s_epik_cmdline>
J2VwaWtfcHl0aG9uJywgJy1waCcsICc3LjAnLCAnLXRuJywgJzgnLCAnLW1hJywgJzIwMCcsICctbWV0YWxfYmluZGluZycsICctaW1hZScsICc8aW5maWxlLm1hZT4nLCAnLW9tYWUnLCAnPG91dGZpbGUubWFlPic=

> <r_epik_Ionization_Penalty>
0.00319438

> <r_epik_Ionization_Penalty_Charging>
0

> <r_epik_Ionization_Penalty_Neutral>
0.00319438

> <r_epik_State_Penalty>
0.00222511

> <r_epik_Charging_Adjusted_Penalty>
0.00222511

> <i_epik_Tot_Q>
0

> <i_epik_Tot_abs_Q>
0

> <r_epik_Metal_State_Penalty>
-0

> <b_epik_Metal_Only>
0

> <s_lp_Force_Field>
OPLS_2005

> <r_lp_Energy>
25.9848

> <b_lp_Chiralities_Consistent>
1

> <s_lp_Variant>
AV-unprocessed.smi:2321-1

> <Gold.Version>
5.8.1

> <Gold.Id.Protein>
6NUR|6NUR_protein|mol2

> <Gold.PLP.Fitness>
40.8693

> <Gold.PLP.PLP>
-32.9292

> <Gold.PLP.part.hbond>
-2.0000

> <Gold.PLP.part.metal>
0.0000

> <Gold.PLP.part.buried>
-5.4138

> <Gold.PLP.part.nonpolar>
-25.3878

> <Gold.PLP.part.repulsive>
0.2410

> <Gold.PLP.ligand.clash>
0.0000

> <Gold.PLP.ligand.torsion>
0.4089

> <Gold.PLP.Chemscore.Hbond>
1.9120

> <Gold.PLP.Chemscore.CHOScore>
1.0000

> <Gold.PLP.Chemscore.Metal>
0.0000

> <Gold.Chemscore.Hbonds>
donor molecule, donor type, donor heavy atom, donor atom, acceptor molecule, acceptor atom, score
      L1  H     3    22       P1  7948  0.91
      L1  H    11    26       P1  7948  1.00
      L1  C     8    25       P1 10186  0.95

> <Gold.PLP.Chemscore.Internal.Correction>
0.0219

> <Gold.Rescore>
     Score         DG    S(hbond)    S(metal)    S(lipo)     H(rot)  DE(clash)    DE(int)     intcor
     14.13     -15.18       1.50        0.00      62.03       1.00       0.01       1.04       ----

> <Gold.Chemscore.Fitness>
14.1314

> <Gold.Chemscore.DG>
-15.1824

> <Gold.Chemscore.ZeroCoef>
-5.4800

> <Gold.Chemscore.Hbond>
1.4985

> <Gold.Chemscore.Metal>
0.0000

> <Gold.Chemscore.Lipo>
62.0296

> <Gold.Chemscore.Internal_Hbond>
0.0000

> <Gold.Chemscore.DEClash>
0.0098

> <Gold.Chemscore.DEInternal>
1.0412

> <Gold.Chemscore.Rot>
1.0000

> <Gold.Chemscore.Internal.Correction>
   9.000000E+99

> <Gold.Chemscore.Hbonds>
donor molecule, donor type, donor heavy atom, donor atom, acceptor molecule, acceptor atom, score
      L1  H     3    22       P1  7948  0.45
      L1  H    11    26       P1  7948  0.34

> <Gold.Chemscore.Hbond.Weighted>
-5.0049

> <Gold.Chemscore.Metal.Weighted>
-0.0000

> <Gold.Chemscore.Lipo.Weighted>
-7.2575

> <Gold.Chemscore.Internal_Hbond.Weighted>
0.0000

> <Gold.Chemscore.DEClash.Weighted>
0.0098

> <Gold.Chemscore.DEInternal.Weighted>
1.0412

> <Gold.Chemscore.Rot.Weighted>
2.5600

> <Gold.Chemscore.Internal.Correction.Weighted>
   9.000000E+99

> <Gold.Protein.RotatedTorsions>
[ 6907 6896 6895 6894 ] final   65.19 input  -60.11 | X-H torsion
[ 7974 7965 7964 7962 ] final  177.92 input  175.53 | X-H torsion
[ 8008 7997 7996 7995 ] final   93.70 input   59.86 | X-H torsion
[ 10167 10162 10161 10158 ] final  167.20 input  -65.29 | X-H torsion
[ 10718 10713 10712 10709 ] final -150.85 input   66.30 | X-H torsion
[ 10763 10752 10751 10750 ] final -101.88 input  -60.55 | X-H torsion
[ 11005 11000 10999 10996 ] final -124.96 input  -57.11 | X-H torsion

> <Gold.Protein.ActiveResidues>
 VAL166  LYS551  ARG553  GLY616  TRP617  ASP618  TYR619  PRO620  LYS621  CYS622 
 ASP623  PHE694  ASN695  SER759  ASP760  ASP761  ALA762  ILE779  LEU786  VAL792 
 PHE793  MET794  SER795  GLU796  ALA797  LYS798  CYS799  TRP800  GLU811  SER814 

> <Gold.Protein.RotatedAtoms>
  152.4388  134.5632  159.9899 H   0  0  0  0  0  0  0  0  0  0  0  0  # atno 6907 bound_to 6896
  151.5735  133.3381  159.3002 H   0  0  0  0  0  0  0  0  0  0  0  0  # atno 6908 bound_to 6896
  150.8291  134.7570  159.6902 H   0  0  0  0  0  0  0  0  0  0  0  0  # atno 6909 bound_to 6896
  144.7162  140.0320  143.6439 H   0  0  0  0  0  0  0  0  0  0  0  0  # atno 7974 bound_to 7965
  156.0497  140.3309  155.7337 H   0  0  0  0  0  0  0  0  0  0  0  0  # atno 8008 bound_to 7997
  155.5619  140.0620  157.2844 H   0  0  0  0  0  0  0  0  0  0  0  0  # atno 8009 bound_to 7997
  154.4430  140.1876  156.0780 H   0  0  0  0  0  0  0  0  0  0  0  0  # atno 8010 bound_to 7997
  139.4940  144.3947  151.9478 H   0  0  0  0  0  0  0  0  0  0  0  0  # atno 10167 bound_to 10162
  156.4515  130.8170  151.2401 H   0  0  0  0  0  0  0  0  0  0  0  0  # atno 10718 bound_to 10713
  154.7692  135.4881  153.9614 H   0  0  0  0  0  0  0  0  0  0  0  0  # atno 10763 bound_to 10752
  153.1346  135.6760  153.9131 H   0  0  0  0  0  0  0  0  0  0  0  0  # atno 10764 bound_to 10752
  153.8824  135.3130  155.3424 H   0  0  0  0  0  0  0  0  0  0  0  0  # atno 10765 bound_to 10752
  140.9800  134.0687  157.3776 H   0  0  0  0  0  0  0  0  0  0  0  0  # atno 11005 bound_to 11000
  146.0095  139.3158  143.0879 LP  0  0  0  0  0  0  0  0  0  0  0  0  # atno 17320 bound_to 7965
  145.8699  140.9426  143.0656 LP  0  0  0  0  0  0  0  0  0  0  0  0  # atno 17321 bound_to 7965
  140.3385  144.3232  150.5972 LP  0  0  0  0  0  0  0  0  0  0  0  0  # atno 17342 bound_to 10162
  140.5586  143.2195  151.7804 LP  0  0  0  0  0  0  0  0  0  0  0  0  # atno 17343 bound_to 10162
  157.7502  131.0136  150.3431 LP  0  0  0  0  0  0  0  0  0  0  0  0  # atno 17370 bound_to 10713
  156.3811  130.3880  149.7101 LP  0  0  0  0  0  0  0  0  0  0  0  0  # atno 17371 bound_to 10713
  139.8946  135.0137  156.6960 LP  0  0  0  0  0  0  0  0  0  0  0  0  # atno 17394 bound_to 11000
  140.7201  133.9148  155.8141 LP  0  0  0  0  0  0  0  0  0  0  0  0  # atno 17395 bound_to 11000

$$$$
