#       Name:                AV-unprocessed.smi:278
#       Creating user name   scv26
#       Creation time:       Thu Mar 26 21:36:55 2020


#       File generated by GOLD software.
#

@<TRIPOS>MOLECULE
AV-unprocessed.smi:278
    58    62     1
SMALL
NO_CHARGES


@<TRIPOS>ATOM
      1 ****        -0.6253   3.2966  -2.6694 O.2            1 S1                 0.0000
      2 ****        -0.9413   4.6711  -2.2512 S.o2           1 S1                 0.0000
      3 ****        -0.0045   5.7764  -2.5027 O.2            1 S1                 0.0000
      4 ****        -2.6029   5.1108  -2.8590 C.3            1 S1                 0.0000
      5 ****        -3.5737   4.3953  -1.9083 C.3            1 S1                 0.0000
      6 ****        -2.9444   4.2714  -0.4954 C.3            1 S1                 0.0000
      7 ****        -2.9228   2.8428   0.0583 C.3            1 S1                 0.0000
      8 ****        -1.7736   2.7963   0.9480 N.3            1 S1                 0.0000
      9 ****        -1.3785   1.5592   1.3162 C.ar           1 S1                 0.0000
     10 ****        -1.4435   1.2639   2.6372 N.ar           1 S1                 0.0000
     11 ****        -1.0610   0.0593   3.0722 C.ar           1 S1                 0.0000
     12 ****        -0.5913  -0.9729   2.3679 N.ar           1 S1                 0.0000
     13 ****        -0.5265  -0.6778   1.0379 C.ar           1 S1                 0.0000
     14 ****        -0.8971   0.5540   0.4294 C.ar           1 S1                 0.0000
     15 ****        -0.6899   0.4843  -0.9433 N.2            1 S1                 0.0000
     16 ****        -0.2218  -0.7185  -1.1354 C.2            1 S1                 0.0000
     17 ****        -0.0895  -1.4832   0.0012 N.pl3          1 S1                 0.0000
     18 ****         0.4089  -2.8451   0.0770 C.3            1 S1                 0.0000
     19 ****         1.9487  -2.9061   0.0798 C.3            1 S1                 0.0000
     20 ****         2.4762  -2.1657   1.1645 O.3            1 S1                 0.0000
     21 ****         2.4888  -4.3512   0.0914 C.3            1 S1                 0.0000
     22 ****         4.0109  -4.5117   0.1641 C.3            1 S1                 0.0000
     23 ****         4.1368  -5.8892   0.7762 C.3            1 S1                 0.0000
     24 ****         2.9832  -5.8880   1.7753 C.3            1 S1                 0.0000
     25 ****         1.9516  -5.1141   1.1703 O.3            1 S1                 0.0000
     26 ****        -0.7325   3.6314   0.3649 C.3            1 S1                 0.0000
     27 ****        -1.4616   4.6721  -0.4962 C.3            1 S1                 0.0000
     28 ****        -3.4735   4.9171   0.2072 H              1 S1                 0.0000
     29 ****        -1.3379   5.6826  -0.1053 H              1 S1                 0.0000
     30 ****        -2.7134   6.1926  -2.7818 H              1 S1                 0.0000
     31 ****        -2.7180   4.8160  -3.9021 H              1 S1                 0.0000
     32 ****        -4.5333   4.9112  -1.8696 H              1 S1                 0.0000
     33 ****        -3.7782   3.4027  -2.3106 H              1 S1                 0.0000
     34 ****        -3.8432   2.6066   0.5929 H              1 S1                 0.0000
     35 ****        -2.8068   2.1166  -0.7465 H              1 S1                 0.0000
     36 ****        -1.1411  -0.1003   4.1374 H              1 S1                 0.0000
     37 ****         0.0452  -1.0819  -2.1171 H              1 S1                 0.0000
     38 ****         0.0032  -3.3161   0.9732 H              1 S1                 0.0000
     39 ****         0.0116  -3.4010  -0.7730 H              1 S1                 0.0000
     40 ****         2.3128  -2.4225  -0.8275 H              1 S1                 0.0000
     41 ****         2.1274  -1.2883   1.1261 H              1 S1                 0.0000
     42 ****         2.1480  -4.8490  -0.8178 H              1 S1                 0.0000
     43 ****         4.4938  -4.4298  -0.8098 H              1 S1                 0.0000
     44 ****         4.4639  -3.7768   0.8304 H              1 S1                 0.0000
     45 ****         3.9773  -6.6552   0.0162 H              1 S1                 0.0000
     46 ****         5.1061  -6.0649   1.2434 H              1 S1                 0.0000
     47 ****         2.6388  -6.8927   2.0213 H              1 S1                 0.0000
     48 ****         3.2852  -5.3974   2.7015 H              1 S1                 0.0000
     49 ****        -0.1709   4.1197   1.1619 H              1 S1                 0.0000
     50 ****        -0.0216   3.0489  -0.2210 H              1 S1                 0.0000
     51 ****        -2.0349   3.1707   1.8377 LP             1 S1                 0.0000
     52 ****        -1.7776   1.9472   3.2865 LP             1 S1                 0.0000
     53 ****        -0.3215  -1.8502   2.7647 LP             1 S1                 0.0000
     54 ****        -0.8605   1.1937  -1.6272 LP             1 S1                 0.0000
     55 ****         3.4736  -2.1354   1.0990 LP             1 S1                 0.0000
     56 ****         2.2118  -2.5964   2.0273 LP             1 S1                 0.0000
     57 ****         1.2393  -5.7241   0.8231 LP             1 S1                 0.0000
     58 ****         1.5583  -4.4956   1.8506 LP             1 S1                 0.0000
@<TRIPOS>BOND
    1    1    2 2     
    2    2   27 1     
    3    2    3 2     
    4    2    4 1     
    5    4    5 1     
    6    4   30 1     
    7    4   31 1     
    8    5    6 1     
    9    5   32 1     
   10    5   33 1     
   11    6   28 1     
   12    6   27 1     
   13    6    7 1     
   14    7    8 1     
   15    7   34 1     
   16    7   35 1     
   17    8    9 1     
   18    8   26 1     
   19    9   14 ar    
   20    9   10 ar    
   21   10   11 ar    
   22   11   12 ar    
   23   11   36 1     
   24   12   13 ar    
   25   13   17 1     
   26   13   14 ar    
   27   14   15 1     
   28   15   16 2     
   29   16   17 1     
   30   16   37 1     
   31   17   18 1     
   32   18   19 1     
   33   18   38 1     
   34   18   39 1     
   35   19   20 1     
   36   19   21 1     
   37   19   40 1     
   38   20   41 1     
   39   21   25 1     
   40   21   22 1     
   41   21   42 1     
   42   22   23 1     
   43   22   43 1     
   44   22   44 1     
   45   23   24 1     
   46   23   45 1     
   47   23   46 1     
   48   24   25 1     
   49   24   47 1     
   50   24   48 1     
   51   26   27 1     
   52   26   49 1     
   53   26   50 1     
   54   27   29 1     
   55    8   51 1     
   56   10   52 1     
   57   12   53 1     
   58   15   54 1     
   59   20   55 1     
   60   20   56 1     
   61   25   57 1     
   62   25   58 1     
@<TRIPOS>SUBSTRUCTURE
      1 S1             1
@<TRIPOS>SET
LONE_PAIRS      STATIC     ATOMS    <user>   **** ""
10 1 3 51 52 53 54 55 56 57 58
DONOR_HYDROGENS      STATIC     ATOMS    <user>   **** ""
1 41
ATOM$BLUE        STATIC     ATOMS    COLORGROUP SYSTEM
10 1 3 51 52 53 54 55 56 57 58
ATOM$RED        STATIC     ATOMS    COLORGROUP SYSTEM
1 41
