AV-unprocessed.smi:578|AV-procd|sdf|2985|dock1
  -GOLD-   2262023493D 1   1.00000     0.00000
 Structure written by MMmdl.
 32 33  0  0  0  0  0  0  0  0  2 V2000
  153.5246  142.2437  160.9763 C   0  0  0  0  0  0  0  0  0  0  0  0
  152.6864  142.8468  159.8441 C   0  0  1  0  0  0  0  0  0  0  0  0
  152.3111  141.7982  158.7798 C   0  0  0  0  0  0  0  0  0  0  0  0
  151.4392  142.3945  157.7765 N   0  0  0  0  0  0  0  0  0  0  0  0
  151.1463  141.5281  156.7142 C   0  0  0  0  0  0  0  0  0  0  0  0
  150.0049  141.7623  155.9235 C   0  0  0  0  0  0  0  0  0  0  0  0
  149.7315  140.8797  154.8617 C   0  0  0  0  0  0  0  0  0  0  0  0
  150.5083  139.8186  154.5613 N   0  0  0  0  0  0  0  0  0  0  0  0
  151.6092  139.5849  155.3160 C   0  0  0  0  0  0  0  0  0  0  0  0
  152.4596  138.3947  154.9602 C   0  0  0  0  0  0  0  0  0  0  0  0
  151.9252  137.4223  154.3805 O   0  0  0  0  0  0  0  0  0  0  0  0
  153.6766  138.4098  155.2532 O   0  5  0  0  0  0  0  0  0  0  0  0
  151.9635  140.4186  156.4034 C   0  0  0  0  0  0  0  0  0  0  0  0
  150.2558  143.0079  158.3649 C   0  0  0  0  0  0  0  0  0  0  0  0
  150.6705  144.0342  159.4364 C   0  0  1  0  0  0  0  0  0  0  0  0
  149.4596  144.6392  160.1541 C   0  0  0  0  0  0  0  0  0  0  0  0
  151.4924  143.3878  160.4070 O   0  0  0  0  0  0  0  0  0  0  0  0
  154.4561  141.8258  160.5936 H   0  0  0  0  0  0  0  0  0  0  0  0
  152.9839  141.4459  161.4861 H   0  0  0  0  0  0  0  0  0  0  0  0
  153.7803  143.0008  161.7178 H   0  0  0  0  0  0  0  0  0  0  0  0
  153.2585  143.6522  159.3799 H   0  0  0  0  0  0  0  0  0  0  0  0
  153.2109  141.4106  158.3001 H   0  0  0  0  0  0  0  0  0  0  0  0
  151.8072  140.9532  159.2514 H   0  0  0  0  0  0  0  0  0  0  0  0
  149.3514  142.5986  156.1237 H   0  0  0  0  0  0  0  0  0  0  0  0
  148.8645  141.0301  154.2356 H   0  0  0  0  0  0  0  0  0  0  0  0
  152.8469  140.2135  156.9908 H   0  0  0  0  0  0  0  0  0  0  0  0
  149.6688  143.4948  157.5850 H   0  0  0  0  0  0  0  0  0  0  0  0
  149.6241  142.2389  158.8120 H   0  0  0  0  0  0  0  0  0  0  0  0
  151.2373  144.8424  158.9706 H   0  0  0  0  0  0  0  0  0  0  0  0
  148.8056  145.1557  159.4511 H   0  0  0  0  0  0  0  0  0  0  0  0
  149.7739  145.3621  160.9074 H   0  0  0  0  0  0  0  0  0  0  0  0
  148.8718  143.8693  160.6548 H   0  0  0  0  0  0  0  0  0  0  0  0
  1  2  1  0  0  0  0
  1 18  1  0  0  0  0
  1 19  1  0  0  0  0
  1 20  1  0  0  0  0
  2 17  1  0  0  0  0
  2  3  1  0  0  0  0
  2 21  1  0  0  0  0
  3  4  1  0  0  0  0
  3 22  1  0  0  0  0
  3 23  1  0  0  0  0
  4  5  1  0  0  0  0
  4 14  1  0  0  0  0
  5 13  1  0  0  0  0
  5  6  2  0  0  0  0
  6  7  1  0  0  0  0
  6 24  1  0  0  0  0
  7  8  2  0  0  0  0
  7 25  1  0  0  0  0
  8  9  1  0  0  0  0
  9 10  1  0  0  0  0
  9 13  2  0  0  0  0
 10 11  2  0  0  0  0
 10 12  1  0  0  0  0
 13 26  1  0  0  0  0
 14 15  1  0  0  0  0
 14 27  1  0  0  0  0
 14 28  1  0  0  0  0
 15 16  1  0  0  0  0
 15 17  1  0  0  0  0
 15 29  1  0  0  0  0
 16 30  1  0  0  0  0
 16 31  1  0  0  0  0
 16 32  1  0  0  0  0
M  CHG  1  12  -1
M  END
> <s_m_source_file>
AV-unprocessed.smi

> <i_m_source_file_index>
578

> <i_lp_mmshare_version>
43012

> <i_f3d_flags>
0

> <s_epik_input>
W0NIM11bQ0BASF0xW0NIMl1OKFtDSDJdW0NASF0oTzEpW0NIM10pYzJbY0hdW2NIXW5jKFtjSF0yKUMoPU8pW09IXQ==

> <s_epik_cmdline>
J2VwaWtfcHl0aG9uJywgJy1waCcsICc3LjAnLCAnLXRuJywgJzgnLCAnLW1hJywgJzIwMCcsICctbWV0YWxfYmluZGluZycsICctaW1hZScsICc8aW5maWxlLm1hZT4nLCAnLW9tYWUnLCAnPG91dGZpbGUubWFlPic=

> <r_epik_Ionization_Penalty>
2.00764

> <r_epik_Ionization_Penalty_Charging>
0.000210348

> <r_epik_Ionization_Penalty_Neutral>
2.00743

> <r_epik_State_Penalty>
2.13668

> <r_epik_Charging_Adjusted_Penalty>
2.13689

> <i_epik_Tot_Q>
-1

> <i_epik_Tot_abs_Q>
1

> <r_epik_Metal_State_Penalty>
0.0208571

> <b_epik_Metal_Only>
0

> <s_lp_Force_Field>
OPLS_2005

> <r_lp_Energy>
21.1915

> <b_lp_Chiralities_Consistent>
1

> <s_lp_Variant>
AV-unprocessed.smi:578-5

> <Gold.Version>
5.8.1

> <Gold.Id.Protein>
6NUR|6NUR_protein|mol2

> <Gold.PLP.Fitness>
45.5651

> <Gold.PLP.PLP>
-36.7105

> <Gold.PLP.part.hbond>
-3.3418

> <Gold.PLP.part.metal>
0.0000

> <Gold.PLP.part.buried>
-4.5993

> <Gold.PLP.part.nonpolar>
-28.2224

> <Gold.PLP.part.repulsive>
0.3677

> <Gold.PLP.ligand.clash>
0.0000

> <Gold.PLP.ligand.torsion>
0.9770

> <Gold.PLP.Chemscore.Hbond>
3.5720

> <Gold.PLP.Chemscore.CHOScore>
0.0000

> <Gold.PLP.Chemscore.Metal>
0.0000

> <Gold.Chemscore.Hbonds>
donor molecule, donor type, donor heavy atom, donor atom, acceptor molecule, acceptor atom, score
      P1  H  7989  7998       L1     8  0.18
      P1  H  7997  8010       L1    12  1.54
      P1  H 10752 10764       L1    11  1.86

> <Gold.PLP.Chemscore.Internal.Correction>
0.0927

> <Gold.Rescore>
     Score         DG    S(hbond)    S(metal)    S(lipo)     H(rot)  DE(clash)    DE(int)     intcor
     17.57     -18.73       1.57        0.00      90.28       1.00       0.13       1.02       ----

> <Gold.Chemscore.Fitness>
17.5743

> <Gold.Chemscore.DG>
-18.7287

> <Gold.Chemscore.ZeroCoef>
-5.4800

> <Gold.Chemscore.Hbond>
1.5706

> <Gold.Chemscore.Metal>
0.0000

> <Gold.Chemscore.Lipo>
90.2798

> <Gold.Chemscore.Internal_Hbond>
0.0000

> <Gold.Chemscore.DEClash>
0.1344

> <Gold.Chemscore.DEInternal>
1.0200

> <Gold.Chemscore.Rot>
1.0000

> <Gold.Chemscore.Internal.Correction>
   9.000000E+99

> <Gold.Chemscore.Hbonds>
donor molecule, donor type, donor heavy atom, donor atom, acceptor molecule, acceptor atom, score
      P1  H  7997  8010       L1    12  0.68
      P1  H 10752 10764       L1    11  0.81

> <Gold.Chemscore.Hbond.Weighted>
-5.2460

> <Gold.Chemscore.Metal.Weighted>
-0.0000

> <Gold.Chemscore.Lipo.Weighted>
-10.5627

> <Gold.Chemscore.Internal_Hbond.Weighted>
0.0000

> <Gold.Chemscore.DEClash.Weighted>
0.1344

> <Gold.Chemscore.DEInternal.Weighted>
1.0200

> <Gold.Chemscore.Rot.Weighted>
2.5600

> <Gold.Chemscore.Internal.Correction.Weighted>
   9.000000E+99

> <Gold.Protein.RotatedTorsions>
[ 6907 6896 6895 6894 ] final  -85.55 input  -60.11 | X-H torsion
[ 7974 7965 7964 7962 ] final  -82.31 input  175.53 | X-H torsion
[ 8008 7997 7996 7995 ] final  104.95 input   59.86 | X-H torsion
[ 10167 10162 10161 10158 ] final  -22.66 input  -65.29 | X-H torsion
[ 10718 10713 10712 10709 ] final   57.02 input   66.30 | X-H torsion
[ 10763 10752 10751 10750 ] final  -82.43 input  -60.55 | X-H torsion
[ 11005 11000 10999 10996 ] final  -70.80 input  -57.11 | X-H torsion

> <Gold.Protein.ActiveResidues>
 VAL166  LYS551  ARG553  GLY616  TRP617  ASP618  TYR619  PRO620  LYS621  CYS622 
 ASP623  PHE694  ASN695  SER759  ASP760  ASP761  ALA762  ILE779  LEU786  VAL792 
 PHE793  MET794  SER795  GLU796  ALA797  LYS798  CYS799  TRP800  GLU811  SER814 

> <Gold.Protein.RotatedAtoms>
  150.6870  134.3187  159.4777 H   0  0  0  0  0  0  0  0  0  0  0  0  # atno 6907 bound_to 6896
  152.1065  134.9302  160.0577 H   0  0  0  0  0  0  0  0  0  0  0  0  # atno 6908 bound_to 6896
  152.0561  133.4006  159.4434 H   0  0  0  0  0  0  0  0  0  0  0  0  # atno 6909 bound_to 6896
  145.5350  140.9517  143.1582 H   0  0  0  0  0  0  0  0  0  0  0  0  # atno 7974 bound_to 7965
  156.1617  140.3139  155.8818 H   0  0  0  0  0  0  0  0  0  0  0  0  # atno 8008 bound_to 7997
  155.3769  140.0485  157.3061 H   0  0  0  0  0  0  0  0  0  0  0  0  # atno 8009 bound_to 7997
  154.5153  140.2179  155.9089 H   0  0  0  0  0  0  0  0  0  0  0  0  # atno 8010 bound_to 7997
  140.7286  143.4514  151.0511 H   0  0  0  0  0  0  0  0  0  0  0  0  # atno 10167 bound_to 10162
  157.5480  130.8745  149.8920 H   0  0  0  0  0  0  0  0  0  0  0  0  # atno 10718 bound_to 10713
  154.5756  135.5591  153.7136 H   0  0  0  0  0  0  0  0  0  0  0  0  # atno 10763 bound_to 10752
  153.0063  135.6307  154.2053 H   0  0  0  0  0  0  0  0  0  0  0  0  # atno 10764 bound_to 10752
  154.1994  135.2878  155.2976 H   0  0  0  0  0  0  0  0  0  0  0  0  # atno 10765 bound_to 10752
  141.1581  133.6800  156.6809 H   0  0  0  0  0  0  0  0  0  0  0  0  # atno 11005 bound_to 11000
  144.7606  139.6966  143.7236 LP  0  0  0  0  0  0  0  0  0  0  0  0  # atno 17320 bound_to 7965
  146.2019  139.5319  142.9738 LP  0  0  0  0  0  0  0  0  0  0  0  0  # atno 17321 bound_to 7965
  139.8190  143.7846  152.3176 LP  0  0  0  0  0  0  0  0  0  0  0  0  # atno 17342 bound_to 10162
  139.7922  144.7406  150.9940 LP  0  0  0  0  0  0  0  0  0  0  0  0  # atno 17343 bound_to 10162
  156.0552  130.3710  150.1108 LP  0  0  0  0  0  0  0  0  0  0  0  0  # atno 17370 bound_to 10713
  156.9283  130.9705  151.3537 LP  0  0  0  0  0  0  0  0  0  0  0  0  # atno 17371 bound_to 10713
  140.3103  134.8091  157.4171 LP  0  0  0  0  0  0  0  0  0  0  0  0  # atno 17394 bound_to 11000
  140.1184  134.5252  155.8205 LP  0  0  0  0  0  0  0  0  0  0  0  0  # atno 17395 bound_to 11000

$$$$
