AV-unprocessed.smi:28|AV-procd|sdf|190|dock5
  -GOLD-   2262015453D 1   1.00000     0.00000
 Structure written by MMmdl.
 41 44  0  0  0  0  0  0  0  0  1 V2000
  150.4577  139.2589  154.2262 O   0  0  0  0  0  0  0  0  0  0  0  0
  150.6441  139.8972  155.2633 C   0  0  0  0  0  0  0  0  0  0  0  0
  149.9538  141.1455  155.5698 C   0  0  0  0  0  0  0  0  0  0  0  0
  149.0549  141.6380  154.7007 F   0  0  0  0  0  0  0  0  0  0  0  0
  150.2079  141.8218  156.7108 C   0  0  0  0  0  0  0  0  0  0  0  0
  151.1228  141.3906  157.6574 N   0  0  0  0  0  0  0  0  0  0  0  0
  151.4013  142.1876  158.9143 C   0  0  1  0  0  0  0  0  0  0  0  0
  152.8559  142.6696  158.9243 C   0  0  0  0  0  0  0  0  0  0  0  0
  152.7370  144.0132  158.2391 C   0  0  0  0  0  0  0  0  0  0  0  0
  151.3834  144.5002  158.7464 C   0  0  0  0  0  0  0  0  0  0  0  0
  150.5908  143.3276  158.9290 O   0  0  0  0  0  0  0  0  0  0  0  0
  151.8392  140.1931  157.4428 C   0  0  0  0  0  0  0  0  0  0  0  0
  152.6784  139.8055  158.2596 O   0  0  0  0  0  0  0  0  0  0  0  0
  151.5669  139.4771  156.2531 N   0  0  0  0  0  0  0  0  0  0  0  0
  152.3388  138.2723  155.9973 C   0  0  0  0  0  0  0  0  0  0  0  0
  151.5925  137.0686  156.4807 C   0  0  0  0  0  0  0  0  0  0  0  0
  151.4400  136.6586  157.7409 N   0  0  0  0  0  0  0  0  0  0  0  0
  150.6515  135.5329  157.6735 N   0  0  0  0  0  0  0  0  0  0  0  0
  150.3961  135.3334  156.3760 C   0  0  0  0  0  0  0  0  0  0  0  0
  149.5807  134.2996  155.7433 C   0  0  0  0  0  0  0  0  0  0  0  0
  148.6945  134.6800  154.7101 C   0  0  0  0  0  0  0  0  0  0  0  0
  147.8891  133.7219  154.0662 C   0  0  0  0  0  0  0  0  0  0  0  0
  147.9665  132.3701  154.4466 C   0  0  0  0  0  0  0  0  0  0  0  0
  148.8540  131.9791  155.4662 C   0  0  0  0  0  0  0  0  0  0  0  0
  149.6655  132.9325  156.1141 C   0  0  0  0  0  0  0  0  0  0  0  0
  150.8752  132.3149  157.4538 Br  0  0  0  0  0  0  0  0  0  0  0  0
  150.9606  136.2776  155.5764 O   0  0  0  0  0  0  0  0  0  0  0  0
  149.6690  142.7432  156.8724 H   0  0  0  0  0  0  0  0  0  0  0  0
  151.1400  141.5334  159.7476 H   0  0  0  0  0  0  0  0  0  0  0  0
  153.1742  142.7943  159.9599 H   0  0  0  0  0  0  0  0  0  0  0  0
  153.5331  141.9739  158.4275 H   0  0  0  0  0  0  0  0  0  0  0  0
  153.5537  144.6931  158.4823 H   0  0  0  0  0  0  0  0  0  0  0  0
  152.7124  143.8835  157.1563 H   0  0  0  0  0  0  0  0  0  0  0  0
  151.4975  144.9954  159.7116 H   0  0  0  0  0  0  0  0  0  0  0  0
  150.9070  145.2009  158.0604 H   0  0  0  0  0  0  0  0  0  0  0  0
  152.5414  138.2098  154.9268 H   0  0  0  0  0  0  0  0  0  0  0  0
  153.3089  138.3581  156.4886 H   0  0  0  0  0  0  0  0  0  0  0  0
  148.6221  135.7152  154.4094 H   0  0  0  0  0  0  0  0  0  0  0  0
  147.2122  134.0245  153.2808 H   0  0  0  0  0  0  0  0  0  0  0  0
  147.3503  131.6328  153.9533 H   0  0  0  0  0  0  0  0  0  0  0  0
  148.9179  130.9386  155.7486 H   0  0  0  0  0  0  0  0  0  0  0  0
  1  2  2  0  0  0  0
  2 14  1  0  0  0  0
  2  3  1  0  0  0  0
  3  4  1  0  0  0  0
  3  5  2  0  0  0  0
  5  6  1  0  0  0  0
  5 28  1  0  0  0  0
  6  7  1  0  0  0  0
  6 12  1  0  0  0  0
  7 11  1  0  0  0  0
  7  8  1  0  0  0  0
  7 29  1  0  0  0  0
  8  9  1  0  0  0  0
  8 30  1  0  0  0  0
  8 31  1  0  0  0  0
  9 10  1  0  0  0  0
  9 32  1  0  0  0  0
  9 33  1  0  0  0  0
 10 11  1  0  0  0  0
 10 34  1  0  0  0  0
 10 35  1  0  0  0  0
 12 13  2  0  0  0  0
 12 14  1  0  0  0  0
 14 15  1  0  0  0  0
 15 16  1  0  0  0  0
 15 36  1  0  0  0  0
 15 37  1  0  0  0  0
 16 27  1  0  0  0  0
 16 17  2  0  0  0  0
 17 18  1  0  0  0  0
 18 19  2  0  0  0  0
 19 20  1  0  0  0  0
 19 27  1  0  0  0  0
 20 25  1  0  0  0  0
 20 21  2  0  0  0  0
 21 22  1  0  0  0  0
 21 38  1  0  0  0  0
 22 23  2  0  0  0  0
 22 39  1  0  0  0  0
 23 24  1  0  0  0  0
 23 40  1  0  0  0  0
 24 25  2  0  0  0  0
 24 41  1  0  0  0  0
 25 26  1  0  0  0  0
M  END
> <s_m_source_file>
AV-unprocessed.smi

> <i_m_source_file_index>
28

> <i_lp_mmshare_version>
43012

> <i_f3d_flags>
0

> <s_epik_input>
TzFbQ0gyXVtDSDJdW0NIMl1bQ0BIXTFuKFtjSF1jKEYpYzI9TyljKD1PKW4yW0NIMl1jM25uYyhvMyktYzRbY0hdW2NIXVtjSF1bY0hdYzRCcg==

> <s_epik_cmdline>
J2VwaWtfcHl0aG9uJywgJy1waCcsICc3LjAnLCAnLXRuJywgJzgnLCAnLW1hJywgJzIwMCcsICctbWV0YWxfYmluZGluZycsICctaW1hZScsICc8aW5maWxlLm1hZT4nLCAnLW9tYWUnLCAnPG91dGZpbGUubWFlPic=

> <r_lp_tautomer_probability>
1

> <r_epik_Ionization_Penalty>
2.5628e-09

> <r_epik_Ionization_Penalty_Charging>
2.54231e-09

> <r_epik_Ionization_Penalty_Neutral>
2.0492e-11

> <r_epik_State_Penalty>
-0

> <r_epik_Charging_Adjusted_Penalty>
2.54231e-09

> <i_epik_Tot_Q>
0

> <i_epik_Tot_abs_Q>
0

> <r_epik_Metal_State_Penalty>
-0

> <b_epik_Metal_Only>
0

> <s_epik_Chemistry_Notes>
This compound contains an acetal/aminal-like group ( X-CH(R)-Y where X, Y are N, S, or O) that may be acid/base labile, releasing an aldehyde.

> <s_lp_Force_Field>
OPLS_2005

> <r_lp_Energy>
35.5142

> <b_lp_Chiralities_Consistent>
1

> <s_lp_Variant>
AV-unprocessed.smi:28-2

> <Gold.Version>
5.8.1

> <Gold.Id.Protein>
6NUR|6NUR_protein|mol2

> <Gold.PLP.Fitness>
58.9502

> <Gold.PLP.PLP>
-52.0578

> <Gold.PLP.part.hbond>
-4.0000

> <Gold.PLP.part.metal>
0.0000

> <Gold.PLP.part.buried>
-0.4156

> <Gold.PLP.part.nonpolar>
-47.5216

> <Gold.PLP.part.repulsive>
0.3682

> <Gold.PLP.ligand.clash>
0.0000

> <Gold.PLP.ligand.torsion>
1.3033

> <Gold.PLP.Chemscore.Hbond>
2.1570

> <Gold.PLP.Chemscore.CHOScore>
0.9981

> <Gold.PLP.Chemscore.Metal>
0.0000

> <Gold.Chemscore.Hbonds>
donor molecule, donor type, donor heavy atom, donor atom, acceptor molecule, acceptor atom, score
      P1  H  6896  6909       L1    18  0.29
      P1  H  7997  8008       L1    13  0.36
      P1  H 10752 10765       L1    27  0.12
      L1  C     5    28       P1  8028  1.00

> <Gold.PLP.Chemscore.Internal.Correction>
0.0334

> <Gold.Rescore>
     Score         DG    S(hbond)    S(metal)    S(lipo)     H(rot)  DE(clash)    DE(int)     intcor
     12.30     -14.80       0.89        0.00      91.33       1.70       0.03       2.47       ----

> <Gold.Chemscore.Fitness>
12.3009

> <Gold.Chemscore.DG>
-14.7997

> <Gold.Chemscore.ZeroCoef>
-5.4800

> <Gold.Chemscore.Hbond>
0.8926

> <Gold.Chemscore.Metal>
0.0000

> <Gold.Chemscore.Lipo>
91.3270

> <Gold.Chemscore.Internal_Hbond>
0.0000

> <Gold.Chemscore.DEClash>
0.0308

> <Gold.Chemscore.DEInternal>
2.4679

> <Gold.Chemscore.Rot>
1.6980

> <Gold.Chemscore.Internal.Correction>
   9.000000E+99

> <Gold.Chemscore.Hbonds>
donor molecule, donor type, donor heavy atom, donor atom, acceptor molecule, acceptor atom, score
      P1  H  6896  6909       L1    18  0.06
      P1  H  7997  8008       L1    13  0.08
      P1  H 10752 10765       L1    27  0.02

> <Gold.Chemscore.Hbond.Weighted>
-2.9813

> <Gold.Chemscore.Metal.Weighted>
-0.0000

> <Gold.Chemscore.Lipo.Weighted>
-10.6853

> <Gold.Chemscore.Internal_Hbond.Weighted>
0.0000

> <Gold.Chemscore.DEClash.Weighted>
0.0308

> <Gold.Chemscore.DEInternal.Weighted>
2.4679

> <Gold.Chemscore.Rot.Weighted>
4.3469

> <Gold.Chemscore.Internal.Correction.Weighted>
   9.000000E+99

> <Gold.Protein.RotatedTorsions>
[ 6907 6896 6895 6894 ] final   72.37 input  -60.11 | X-H torsion
[ 7974 7965 7964 7962 ] final -156.44 input  175.53 | X-H torsion
[ 8008 7997 7996 7995 ] final  -83.86 input   59.86 | X-H torsion
[ 10167 10162 10161 10158 ] final  -54.21 input  -65.29 | X-H torsion
[ 10718 10713 10712 10709 ] final  158.36 input   66.30 | X-H torsion
[ 10763 10752 10751 10750 ] final  168.05 input  -60.55 | X-H torsion
[ 11005 11000 10999 10996 ] final  -37.49 input  -57.11 | X-H torsion

> <Gold.Protein.ActiveResidues>
 VAL166  LYS551  ARG553  GLY616  TRP617  ASP618  TYR619  PRO620  LYS621  CYS622 
 ASP623  PHE694  ASN695  SER759  ASP760  ASP761  ALA762  ILE779  LEU786  VAL792 
 PHE793  MET794  SER795  GLU796  ALA797  LYS798  CYS799  TRP800  GLU811  SER814 

> <Gold.Protein.RotatedAtoms>
  152.4864  134.4582  159.9596 H   0  0  0  0  0  0  0  0  0  0  0  0  # atno 6907 bound_to 6896
  151.4577  133.3595  159.2812 H   0  0  0  0  0  0  0  0  0  0  0  0  # atno 6908 bound_to 6896
  150.8978  134.8412  159.7399 H   0  0  0  0  0  0  0  0  0  0  0  0  # atno 6909 bound_to 6896
  144.7593  140.4109  143.5989 H   0  0  0  0  0  0  0  0  0  0  0  0  # atno 7974 bound_to 7965
  154.6236  140.0613  156.9645 H   0  0  0  0  0  0  0  0  0  0  0  0  # atno 8008 bound_to 7997
  155.1778  140.3296  155.4362 H   0  0  0  0  0  0  0  0  0  0  0  0  # atno 8009 bound_to 7997
  156.2445  140.1903  156.6876 H   0  0  0  0  0  0  0  0  0  0  0  0  # atno 8010 bound_to 7997
  140.6443  143.2526  151.4904 H   0  0  0  0  0  0  0  0  0  0  0  0  # atno 10167 bound_to 10162
  157.1790  131.0628  151.2142 H   0  0  0  0  0  0  0  0  0  0  0  0  # atno 10718 bound_to 10713
  154.3629  135.2753  155.2310 H   0  0  0  0  0  0  0  0  0  0  0  0  # atno 10763 bound_to 10752
  154.4490  135.5935  153.6183 H   0  0  0  0  0  0  0  0  0  0  0  0  # atno 10764 bound_to 10752
  152.9842  135.6037  154.3851 H   0  0  0  0  0  0  0  0  0  0  0  0  # atno 10765 bound_to 10752
  140.9956  133.6982  156.1929 H   0  0  0  0  0  0  0  0  0  0  0  0  # atno 11005 bound_to 11000
  145.6674  139.1592  143.2774 LP  0  0  0  0  0  0  0  0  0  0  0  0  # atno 17320 bound_to 7965
  146.1638  140.6748  142.9265 LP  0  0  0  0  0  0  0  0  0  0  0  0  # atno 17321 bound_to 7965
  139.5652  144.2058  152.1754 LP  0  0  0  0  0  0  0  0  0  0  0  0  # atno 17342 bound_to 10162
  140.1338  144.5264  150.6786 LP  0  0  0  0  0  0  0  0  0  0  0  0  # atno 17343 bound_to 10162
  157.3971  130.7313  149.6739 LP  0  0  0  0  0  0  0  0  0  0  0  0  # atno 17370 bound_to 10713
  155.9727  130.4131  150.4064 LP  0  0  0  0  0  0  0  0  0  0  0  0  # atno 17371 bound_to 10713
  140.6971  134.4604  157.5587 LP  0  0  0  0  0  0  0  0  0  0  0  0  # atno 17394 bound_to 11000
  139.9013  134.8549  156.1884 LP  0  0  0  0  0  0  0  0  0  0  0  0  # atno 17395 bound_to 11000

$$$$
