AV-unprocessed.smi:157|AV-procd|sdf|1302|dock4
  -GOLD-   2262018593D 1   1.00000     0.00000
 Structure written by MMmdl.
 35 37  0  0  0  0  0  0  0  0  1 V2000
  149.5759  133.8154  157.7521 O   0  0  0  0  0  0  0  0  0  0  0  0
  149.2257  135.1398  157.4092 C   0  0  0  0  0  0  0  0  0  0  0  0
  149.2126  135.3107  155.8827 C   0  0  2  0  0  0  0  0  0  0  0  0
  148.2699  134.3948  155.3316 O   0  0  0  0  0  0  0  0  0  0  0  0
  148.7365  134.0083  154.0835 C   0  0  2  0  0  0  0  0  0  0  0  0
  148.0916  132.7147  153.6983 N   0  0  0  0  0  0  0  0  0  0  0  0
  148.2276  131.5397  154.3271 C   0  0  0  0  0  0  0  0  0  0  0  0
  147.5496  130.5435  153.7822 N   0  0  0  0  0  0  0  0  0  0  0  0
  146.9196  131.1270  152.6842 C   0  0  0  0  0  0  0  0  0  0  0  0
  147.2520  132.4720  152.6077 C   0  0  0  0  0  0  0  0  0  0  0  0
  146.9503  133.5268  151.7677 N   0  0  0  0  0  0  0  0  0  0  0  0
  146.4745  133.2537  150.5939 C   0  0  0  0  0  0  0  0  0  0  0  0
  146.1111  132.0367  150.0350 N   0  0  0  0  0  0  0  0  0  0  0  0
  145.2789  131.0606  150.7170 C   0  0  0  0  0  0  0  0  0  0  0  0
  146.0143  130.2941  151.8234 C   0  0  1  0  0  0  0  0  0  0  0  0
  146.8114  129.2831  151.2408 O   0  0  0  0  0  0  0  0  0  0  0  0
  150.2367  133.8353  154.2600 C   0  0  0  0  0  0  0  0  0  0  0  0
  150.5609  134.9860  155.1996 C   0  0  1  0  0  0  0  0  0  0  0  0
  151.0181  136.1014  154.4605 O   0  0  0  0  0  0  0  0  0  0  0  0
  148.8772  136.3171  155.6243 H   0  0  0  0  0  0  0  0  0  0  0  0
  148.4571  134.7384  153.3225 H   0  0  0  0  0  0  0  0  0  0  0  0
  145.2731  129.7915  152.4453 H   0  0  0  0  0  0  0  0  0  0  0  0
  151.3339  134.6980  155.9131 H   0  0  0  0  0  0  0  0  0  0  0  0
  149.6640  133.3128  156.9566 H   0  0  0  0  0  0  0  0  0  0  0  0
  148.2546  135.3879  157.8386 H   0  0  0  0  0  0  0  0  0  0  0  0
  149.9582  135.8129  157.8554 H   0  0  0  0  0  0  0  0  0  0  0  0
  148.8370  131.4106  155.2095 H   0  0  0  0  0  0  0  0  0  0  0  0
  146.3082  134.0777  149.8986 H   0  0  0  0  0  0  0  0  0  0  0  0
  145.9870  131.9867  149.0340 H   0  0  0  0  0  0  0  0  0  0  0  0
  144.4431  131.6029  151.1618 H   0  0  0  0  0  0  0  0  0  0  0  0
  144.8436  130.3723  149.9919 H   0  0  0  0  0  0  0  0  0  0  0  0
  147.5891  129.6881  150.8880 H   0  0  0  0  0  0  0  0  0  0  0  0
  150.4329  132.8812  154.7518 H   0  0  0  0  0  0  0  0  0  0  0  0
  150.7596  133.8599  153.3030 H   0  0  0  0  0  0  0  0  0  0  0  0
  151.0008  136.8601  155.0239 H   0  0  0  0  0  0  0  0  0  0  0  0
  1  2  1  0  0  0  0
  1 24  1  0  0  0  0
  2  3  1  0  0  0  0
  2 25  1  0  0  0  0
  2 26  1  0  0  0  0
  3 20  1  0  0  0  0
  3 18  1  0  0  0  0
  3  4  1  0  0  0  0
  4  5  1  0  0  0  0
  5 21  1  0  0  0  0
  5  6  1  0  0  0  0
  5 17  1  0  0  0  0
  6 10  1  0  0  0  0
  6  7  1  0  0  0  0
  7  8  2  0  0  0  0
  7 27  1  0  0  0  0
  8  9  1  0  0  0  0
  9 15  1  0  0  0  0
  9 10  2  0  0  0  0
 10 11  1  0  0  0  0
 11 12  2  0  0  0  0
 12 13  1  0  0  0  0
 12 28  1  0  0  0  0
 13 14  1  0  0  0  0
 13 29  1  0  0  0  0
 14 15  1  0  0  0  0
 14 30  1  0  0  0  0
 14 31  1  0  0  0  0
 15 22  1  0  0  0  0
 15 16  1  0  0  0  0
 16 32  1  0  0  0  0
 17 18  1  0  0  0  0
 17 33  1  0  0  0  0
 17 34  1  0  0  0  0
 18 23  1  0  0  0  0
 18 19  1  0  0  0  0
 19 35  1  0  0  0  0
M  END
> <s_m_source_file>
AV-unprocessed.smi

> <i_m_source_file_index>
157

> <i_lp_mmshare_version>
43012

> <i_f3d_flags>
0

> <s_epik_input>
W09IXVtDSDJdW0NASF0xT1tDQEhdKFtDSDJdW0NAQEhdMVtPSF0pbihbY0hdbjIpYyhjMjMpTj1bQ0hdW05IXVtDSDJdW0NASF0zW09IXQ==

> <s_epik_cmdline>
J2VwaWtfcHl0aG9uJywgJy1waCcsICc3LjAnLCAnLXRuJywgJzgnLCAnLW1hJywgJzIwMCcsICctbWV0YWxfYmluZGluZycsICctaW1hZScsICc8aW5maWxlLm1hZT4nLCAnLW9tYWUnLCAnPG91dGZpbGUubWFlPic=

> <r_lp_tautomer_probability>
1

> <r_epik_Ionization_Penalty>
0.0357149

> <r_epik_Ionization_Penalty_Charging>
0.0355056

> <r_epik_Ionization_Penalty_Neutral>
0.000209255

> <r_epik_State_Penalty>
0.0296046

> <r_epik_Charging_Adjusted_Penalty>
0.0651102

> <i_epik_Tot_Q>
0

> <i_epik_Tot_abs_Q>
0

> <r_epik_Metal_State_Penalty>
3.03559e-05

> <b_epik_Metal_Only>
0

> <s_epik_Chemistry_Notes>
This compound has an imine and may undergo hydrolysis. This compound contains an acetal/aminal-like group ( X-CH(R)-Y where X, Y are N, S, or O) that may be acid/base labile, releasing an aldehyde.

> <s_lp_Force_Field>
OPLS_2005

> <r_lp_Energy>
43.7304

> <b_lp_Chiralities_Consistent>
1

> <s_lp_Variant>
AV-unprocessed.smi:157-12

> <Gold.Version>
5.8.1

> <Gold.Id.Protein>
6NUR|6NUR_protein|mol2

> <Gold.PLP.Fitness>
37.6689

> <Gold.PLP.PLP>
-26.4432

> <Gold.PLP.part.hbond>
-4.6718

> <Gold.PLP.part.metal>
0.0000

> <Gold.PLP.part.buried>
-4.9839

> <Gold.PLP.part.nonpolar>
-18.0396

> <Gold.PLP.part.repulsive>
0.4517

> <Gold.PLP.ligand.clash>
0.0000

> <Gold.PLP.ligand.torsion>
0.0685

> <Gold.PLP.Chemscore.Hbond>
3.0000

> <Gold.PLP.Chemscore.CHOScore>
0.7787

> <Gold.PLP.Chemscore.Metal>
0.0000

> <Gold.Chemscore.Hbonds>
donor molecule, donor type, donor heavy atom, donor atom, acceptor molecule, acceptor atom, score
      L1  H    16    32       P1 10747  1.00
      P1  H  6896  6907       L1     1  1.00
      P1  H 10752 10765       L1    19  0.95
      L1  C    12    28       P1  7921  0.70

> <Gold.PLP.Chemscore.Internal.Correction>
0.0267

> <Gold.Rescore>
     Score         DG    S(hbond)    S(metal)    S(lipo)     H(rot)  DE(clash)    DE(int)     intcor
      7.33      -7.46       1.96        0.00      40.38       3.64       0.10       0.02       ----

> <Gold.Chemscore.Fitness>
7.3333

> <Gold.Chemscore.DG>
-7.4573

> <Gold.Chemscore.ZeroCoef>
-5.4800

> <Gold.Chemscore.Hbond>
1.9646

> <Gold.Chemscore.Metal>
0.0000

> <Gold.Chemscore.Lipo>
40.3788

> <Gold.Chemscore.Internal_Hbond>
0.0000

> <Gold.Chemscore.DEClash>
0.1013

> <Gold.Chemscore.DEInternal>
0.0228

> <Gold.Chemscore.Rot>
3.6362

> <Gold.Chemscore.Internal.Correction>
   9.000000E+99

> <Gold.Chemscore.Hbonds>
donor molecule, donor type, donor heavy atom, donor atom, acceptor molecule, acceptor atom, score
      L1  H    16    32       P1 10747  0.98
      P1  H  6896  6907       L1     1  0.60
      P1  H 10752 10765       L1    19  0.11

> <Gold.Chemscore.Hbond.Weighted>
-6.5617

> <Gold.Chemscore.Metal.Weighted>
-0.0000

> <Gold.Chemscore.Lipo.Weighted>
-4.7243

> <Gold.Chemscore.Internal_Hbond.Weighted>
0.0000

> <Gold.Chemscore.DEClash.Weighted>
0.1013

> <Gold.Chemscore.DEInternal.Weighted>
0.0228

> <Gold.Chemscore.Rot.Weighted>
9.3087

> <Gold.Chemscore.Internal.Correction.Weighted>
   9.000000E+99

> <Gold.Protein.RotatedTorsions>
[ 6907 6896 6895 6894 ] final -112.16 input  -60.11 | X-H torsion
[ 7974 7965 7964 7962 ] final  174.33 input  175.53 | X-H torsion
[ 8008 7997 7996 7995 ] final  168.39 input   59.86 | X-H torsion
[ 10167 10162 10161 10158 ] final    5.40 input  -65.29 | X-H torsion
[ 10718 10713 10712 10709 ] final   87.66 input   66.30 | X-H torsion
[ 10763 10752 10751 10750 ] final  163.37 input  -60.55 | X-H torsion
[ 11005 11000 10999 10996 ] final -176.11 input  -57.11 | X-H torsion

> <Gold.Protein.ActiveResidues>
 VAL166  LYS551  ARG553  GLY616  TRP617  ASP618  TYR619  PRO620  LYS621  CYS622 
 ASP623  PHE694  ASN695  SER759  ASP760  ASP761  ALA762  ILE779  LEU786  VAL792 
 PHE793  MET794  SER795  GLU796  ALA797  LYS798  CYS799  TRP800  GLU811  SER814 

> <Gold.Protein.RotatedAtoms>
  150.7739  133.9129  159.3374 H   0  0  0  0  0  0  0  0  0  0  0  0  # atno 6907 bound_to 6896
  151.7009  135.0928  160.0260 H   0  0  0  0  0  0  0  0  0  0  0  0  # atno 6908 bound_to 6896
  152.3768  133.6454  159.6165 H   0  0  0  0  0  0  0  0  0  0  0  0  # atno 6909 bound_to 6896
  144.7224  139.9782  143.6438 H   0  0  0  0  0  0  0  0  0  0  0  0  # atno 7974 bound_to 7965
  156.1551  140.1592  156.8706 H   0  0  0  0  0  0  0  0  0  0  0  0  # atno 8008 bound_to 7997
  154.5107  140.0802  156.8020 H   0  0  0  0  0  0  0  0  0  0  0  0  # atno 8009 bound_to 7997
  155.3819  140.3405  155.4249 H   0  0  0  0  0  0  0  0  0  0  0  0  # atno 8010 bound_to 7997
  140.6484  143.7605  150.7535 H   0  0  0  0  0  0  0  0  0  0  0  0  # atno 10167 bound_to 10162
  157.6942  131.0264  150.3156 H   0  0  0  0  0  0  0  0  0  0  0  0  # atno 10718 bound_to 10713
  154.2927  135.2760  155.2647 H   0  0  0  0  0  0  0  0  0  0  0  0  # atno 10763 bound_to 10752
  154.5119  135.5780  153.6615 H   0  0  0  0  0  0  0  0  0  0  0  0  # atno 10764 bound_to 10752
  152.9912  135.6183  154.3093 H   0  0  0  0  0  0  0  0  0  0  0  0  # atno 10765 bound_to 10752
  140.4557  134.6301  157.4821 H   0  0  0  0  0  0  0  0  0  0  0  0  # atno 11005 bound_to 11000
  146.0509  139.3510  143.0640 LP  0  0  0  0  0  0  0  0  0  0  0  0  # atno 17320 bound_to 7965
  145.8216  140.9676  143.0896 LP  0  0  0  0  0  0  0  0  0  0  0  0  # atno 17321 bound_to 7965
  140.1251  143.4576  152.2289 LP  0  0  0  0  0  0  0  0  0  0  0  0  # atno 17342 bound_to 10162
  139.5697  144.7455  151.3926 LP  0  0  0  0  0  0  0  0  0  0  0  0  # atno 17343 bound_to 10162
  156.3651  130.3853  149.7220 LP  0  0  0  0  0  0  0  0  0  0  0  0  # atno 17370 bound_to 10713
  156.4653  130.7971  151.2990 LP  0  0  0  0  0  0  0  0  0  0  0  0  # atno 17371 bound_to 10713
  139.9978  134.6884  155.9581 LP  0  0  0  0  0  0  0  0  0  0  0  0  # atno 17394 bound_to 11000
  141.1644  133.6537  156.4428 LP  0  0  0  0  0  0  0  0  0  0  0  0  # atno 17395 bound_to 11000

$$$$
