#       Name:                AV-unprocessed.smi:1602
#       Creating user name   scv26
#       Creation time:       Fri Mar 27 07:08:49 2020


#       File generated by GOLD software.
#

@<TRIPOS>MOLECULE
AV-unprocessed.smi:1602
    41    42     1
SMALL
NO_CHARGES


@<TRIPOS>ATOM
      1 ****        -2.1269  -2.2879  -1.8637 C.3            1 S1                 0.0000
      2 ****        -1.9867  -1.1980  -0.7936 C.3            1 S1                 0.0000
      3 ****        -2.4762  -1.6732   0.5883 C.3            1 S1                 0.0000
      4 ****        -2.4841  -0.6071   1.5738 N.pl3          1 S1                 0.0000
      5 ****        -1.5708  -0.3600   2.5773 C.2            1 S1                 0.0000
      6 ****        -1.9907   0.7563   3.2422 C.2            1 S1                 0.0000
      7 ****        -3.1867   1.1235   2.5639 C.2            1 S1                 0.0000
      8 ****        -3.4813   0.3035   1.5679 N.2            1 S1                 0.0000
      9 ****        -0.5847  -0.7798  -0.7181 N.3            1 S1                 0.0000
     10 ****        -0.1641   0.8616  -1.0377 S.o2           1 S1                 0.0000
     11 ****        -0.3278   1.1143  -2.4774 O.2            1 S1                 0.0000
     12 ****        -0.8361   1.7099  -0.0417 O.2            1 S1                 0.0000
     13 ****         1.5261   0.7986  -0.6712 N.3            1 S1                 0.0000
     14 ****         2.3683  -0.0898  -1.4924 C.3            1 S1                 0.0000
     15 ****         3.7799  -0.2190  -0.8978 C.3            1 S1                 0.0000
     16 ****         4.3521   1.0667  -0.7149 O.3            1 S1                 0.0000
     17 ****         3.6005   1.8417   0.2064 C.3            1 S1                 0.0000
     18 ****         2.1791   2.0731  -0.3315 C.3            1 S1                 0.0000
     19 ****        -3.1663  -2.5989  -1.9716 H              1 S1                 0.0000
     20 ****        -1.5392  -3.1712  -1.6114 H              1 S1                 0.0000
     21 ****        -1.7888  -1.9282  -2.8362 H              1 S1                 0.0000
     22 ****        -2.5899  -0.3446  -1.1079 H              1 S1                 0.0000
     23 ****        -3.4893  -2.0705   0.5113 H              1 S1                 0.0000
     24 ****        -1.8513  -2.4874   0.9582 H              1 S1                 0.0000
     25 ****        -0.7056  -0.9883   2.7291 H              1 S1                 0.0000
     26 ****        -1.5153   1.2388   4.0831 H              1 S1                 0.0000
     27 ****        -3.8452   1.9555   2.7647 H              1 S1                 0.0000
     28 ****        -0.0764  -1.1761   0.0717 H              1 S1                 0.0000
     29 ****         1.9109  -1.0757  -1.5708 H              1 S1                 0.0000
     30 ****         2.4259   0.3157  -2.5032 H              1 S1                 0.0000
     31 ****         3.7530  -0.7572   0.0511 H              1 S1                 0.0000
     32 ****         4.4161  -0.7955  -1.5697 H              1 S1                 0.0000
     33 ****         3.5710   1.3455   1.1778 H              1 S1                 0.0000
     34 ****         4.1030   2.7975   0.3557 H              1 S1                 0.0000
     35 ****         2.2119   2.7003  -1.2232 H              1 S1                 0.0000
     36 ****         1.5862   2.6047   0.4128 H              1 S1                 0.0000
     37 ****        -4.2661   0.3482   0.9497 LP             1 S1                 0.0000
     38 ****        -0.2508  -1.2122  -1.5557 LP             1 S1                 0.0000
     39 ****         1.4639   0.3130   0.2007 LP             1 S1                 0.0000
     40 ****         4.3759   1.5405  -1.5953 LP             1 S1                 0.0000
     41 ****         5.2839   0.9617  -0.3676 LP             1 S1                 0.0000
@<TRIPOS>BOND
    1    1    2 1     
    2    1   19 1     
    3    1   20 1     
    4    1   21 1     
    5    2    3 1     
    6    2    9 1     
    7    2   22 1     
    8    3    4 1     
    9    3   23 1     
   10    3   24 1     
   11    4    8 1     
   12    4    5 1     
   13    5    6 2     
   14    5   25 1     
   15    6    7 1     
   16    6   26 1     
   17    7    8 2     
   18    7   27 1     
   19    9   10 1     
   20    9   28 1     
   21   10   11 2     
   22   10   12 2     
   23   10   13 1     
   24   13   18 1     
   25   13   14 1     
   26   14   15 1     
   27   14   29 1     
   28   14   30 1     
   29   15   16 1     
   30   15   31 1     
   31   15   32 1     
   32   16   17 1     
   33   17   18 1     
   34   17   33 1     
   35   17   34 1     
   36   18   35 1     
   37   18   36 1     
   38    8   37 1     
   39    9   38 1     
   40   13   39 1     
   41   16   40 1     
   42   16   41 1     
@<TRIPOS>SUBSTRUCTURE
      1 S1             1
@<TRIPOS>SET
LONE_PAIRS      STATIC     ATOMS    <user>   **** ""
7 37 38 11 12 39 40 41
DONOR_HYDROGENS      STATIC     ATOMS    <user>   **** ""
1 28
ATOM$BLUE        STATIC     ATOMS    COLORGROUP SYSTEM
7 37 38 11 12 39 40 41
ATOM$RED        STATIC     ATOMS    COLORGROUP SYSTEM
1 28
