#       Name:                AV-unprocessed.smi:102
#       Creating user name   scv26
#       Creation time:       Thu Mar 26 17:48:18 2020


#       File generated by GOLD software.
#

@<TRIPOS>MOLECULE
AV-unprocessed.smi:102
    56    57     1
SMALL
NO_CHARGES


@<TRIPOS>ATOM
      1 ****        -4.2247   2.6982   1.5281 C.3            1 S1                 0.0000
      2 ****        -3.7825   1.5741   0.6000 C.2            1 S1                 0.0000
      3 ****        -3.9251   1.6606  -0.6193 O.2            1 S1                 0.0000
      4 ****        -3.2461   0.5361   1.2669 O.3            1 S1                 0.0000
      5 ****        -2.7550  -0.6016   0.5702 C.3            1 S1                 0.0000
      6 ****        -1.2243  -0.5367   0.4311 C.3            1 S1                 0.0000
      7 ****        -0.6788  -1.8127   0.1232 O.3            1 S1                 0.0000
      8 ****         0.5941  -1.6569  -0.4338 C.3            1 S1                 0.0000
      9 ****         1.6537  -2.0882   0.5632 N.am           1 S1                 0.0000
     10 ****         1.3972  -2.2117   1.9237 C.2            1 S1                 0.0000
     11 ****         2.3423  -2.5836   2.8194 C.2            1 S1                 0.0000
     12 ****         2.0209  -2.6810   4.1206 F              1 S1                 0.0000
     13 ****         3.7051  -2.8795   2.3872 C.2            1 S1                 0.0000
     14 ****         4.6281  -3.2222   3.1235 O.2            1 S1                 0.0000
     15 ****         3.9164  -2.7434   1.0124 N.am           1 S1                 0.0000
     16 ****         2.9525  -2.3605   0.0789 C.2            1 S1                 0.0000
     17 ****         3.2503  -2.2615  -1.1107 O.2            1 S1                 0.0000
     18 ****         0.7373  -0.1760  -0.8634 C.3            1 S1                 0.0000
     19 ****         1.6521   0.5415  -0.0383 O.3            1 S1                 0.0000
     20 ****         2.3691   1.5600  -0.5391 C.2            1 S1                 0.0000
     21 ****         3.3086   2.1658   0.4946 C.3            1 S1                 0.0000
     22 ****         2.3146   1.9909  -1.6906 O.2            1 S1                 0.0000
     23 ****        -0.6694   0.3745  -0.6646 C.3            1 S1                 0.0000
     24 ****        -1.4161   0.2585  -1.8707 O.3            1 S1                 0.0000
     25 ****        -1.3781   1.2391  -2.7905 C.2            1 S1                 0.0000
     26 ****        -2.2588   0.9374  -3.9952 C.3            1 S1                 0.0000
     27 ****        -0.7262   2.2802  -2.7143 O.2            1 S1                 0.0000
     28 ****         4.8453  -2.9359   0.6664 H              1 S1                 0.0000
     29 ****        -3.5208   3.5286   1.4748 H              1 S1                 0.0000
     30 ****        -4.2760   2.3535   2.5613 H              1 S1                 0.0000
     31 ****        -5.2108   3.0614   1.2380 H              1 S1                 0.0000
     32 ****        -3.0129  -1.4715   1.1743 H              1 S1                 0.0000
     33 ****        -3.2454  -0.7478  -0.3932 H              1 S1                 0.0000
     34 ****        -0.7982  -0.2283   1.3869 H              1 S1                 0.0000
     35 ****         0.6733  -2.3554  -1.2688 H              1 S1                 0.0000
     36 ****         0.4104  -2.0089   2.3102 H              1 S1                 0.0000
     37 ****         1.0490  -0.1454  -1.9087 H              1 S1                 0.0000
     38 ****         4.0375   1.4240   0.8220 H              1 S1                 0.0000
     39 ****         2.7465   2.5076   1.3639 H              1 S1                 0.0000
     40 ****         3.8455   3.0159   0.0734 H              1 S1                 0.0000
     41 ****        -0.6647   1.4131  -0.3292 H              1 S1                 0.0000
     42 ****        -3.2943   0.8038  -3.6816 H              1 S1                 0.0000
     43 ****        -1.9246   0.0256  -4.4904 H              1 S1                 0.0000
     44 ****        -2.2186   1.7562  -4.7139 H              1 S1                 0.0000
     45 ****        -4.3377   2.4798  -1.0175 LP             1 S1                 0.0000
     46 ****        -3.6283   0.9117  -1.2117 LP             1 S1                 0.0000
     47 ****        -1.2735  -2.2797  -0.5311 LP             1 S1                 0.0000
     48 ****        -0.6117  -2.3565   0.9597 LP             1 S1                 0.0000
     49 ****         4.4741  -3.3179   4.1070 LP             1 S1                 0.0000
     50 ****         5.5329  -3.4051   2.7390 LP             1 S1                 0.0000
     51 ****         2.5604  -1.9786  -1.7769 LP             1 S1                 0.0000
     52 ****         4.1823  -2.4639  -1.4113 LP             1 S1                 0.0000
     53 ****         1.6910   1.5737  -2.3516 LP             1 S1                 0.0000
     54 ****         2.8940   2.7584  -1.9652 LP             1 S1                 0.0000
     55 ****        -0.1570   2.4561  -1.9111 LP             1 S1                 0.0000
     56 ****        -0.7657   2.9503  -3.4555 LP             1 S1                 0.0000
@<TRIPOS>BOND
    1    1    2 1     
    2    1   29 1     
    3    1   30 1     
    4    1   31 1     
    5    2    3 2     
    6    2    4 1     
    7    4    5 1     
    8    5    6 1     
    9    5   32 1     
   10    5   33 1     
   11    6   23 1     
   12    6    7 1     
   13    6   34 1     
   14    7    8 1     
   15    8    9 1     
   16    8   18 1     
   17    8   35 1     
   18    9   16 1     
   19    9   10 1     
   20   10   11 2     
   21   10   36 1     
   22   11   12 1     
   23   11   13 1     
   24   13   14 2     
   25   13   15 1     
   26   15   28 1     
   27   15   16 1     
   28   16   17 2     
   29   18   19 1     
   30   18   23 1     
   31   18   37 1     
   32   19   20 1     
   33   20   21 1     
   34   20   22 2     
   35   21   38 1     
   36   21   39 1     
   37   21   40 1     
   38   23   24 1     
   39   23   41 1     
   40   24   25 1     
   41   25   26 1     
   42   25   27 2     
   43   26   42 1     
   44   26   43 1     
   45   26   44 1     
   46    3   45 1     
   47    3   46 1     
   48    7   47 1     
   49    7   48 1     
   50   14   49 1     
   51   14   50 1     
   52   17   51 1     
   53   17   52 1     
   54   22   53 1     
   55   22   54 1     
   56   27   55 1     
   57   27   56 1     
@<TRIPOS>SUBSTRUCTURE
      1 S1             1
@<TRIPOS>SET
LONE_PAIRS      STATIC     ATOMS    <user>   **** ""
12 45 46 47 48 49 50 51 52 53 54 55 56
DONOR_HYDROGENS      STATIC     ATOMS    <user>   **** ""
1 28
ATOM$BLUE        STATIC     ATOMS    COLORGROUP SYSTEM
12 45 46 47 48 49 50 51 52 53 54 55 56
ATOM$RED        STATIC     ATOMS    COLORGROUP SYSTEM
1 28
