AV-unprocessed.smi:2567|AV-procd|sdf|10086|dock1
  -GOLD-   2272014113D 1   1.00000     0.00000
 Structure written by MMmdl.
 32 33  0  0  0  0  0  0  0  0  2 V2000
  150.5915  144.0395  159.5191 C   0  0  0  0  0  0  0  0  0  0  0  0
  152.0214  143.5757  159.1763 C   0  0  0  0  0  0  0  0  0  0  0  0
  152.6676  144.6781  158.3132 C   0  0  0  0  0  0  0  0  0  0  0  0
  152.8319  143.3749  160.4682 C   0  0  0  0  0  0  0  0  0  0  0  0
  151.9716  142.2658  158.3961 C   0  0  0  0  0  0  0  0  0  0  0  0
  152.7640  141.1949  158.5984 N   0  5  0  0  0  0  0  0  0  0  0  0
  152.5422  140.2835  157.6741 N   0  0  0  0  0  0  0  0  0  0  0  0
  151.6147  140.8166  156.8658 C   0  0  0  0  0  0  0  0  0  0  0  0
  151.0769  140.1464  155.6171 C   0  0  2  0  0  0  0  0  0  0  0  0
  149.9177  140.9617  155.0094 C   0  0  0  0  0  0  0  0  0  0  0  0
  149.3934  140.3037  153.8125 N   0  0  0  0  0  0  0  0  0  0  0  0
  149.0057  138.9234  154.0944 C   0  0  0  0  0  0  0  0  0  0  0  0
  150.1850  138.1557  154.7152 C   0  0  0  0  0  0  0  0  0  0  0  0
  150.6175  138.8247  155.8941 O   0  0  0  0  0  0  0  0  0  0  0  0
  151.2810  142.0477  157.2789 N   0  0  0  0  0  0  0  0  0  0  0  0
  150.5990  144.9883  160.0565 H   0  0  0  0  0  0  0  0  0  0  0  0
  150.0767  143.3146  160.1506 H   0  0  0  0  0  0  0  0  0  0  0  0
  149.9919  144.1751  158.6181 H   0  0  0  0  0  0  0  0  0  0  0  0
  152.1168  144.8273  157.3838 H   0  0  0  0  0  0  0  0  0  0  0  0
  153.6958  144.4283  158.0488 H   0  0  0  0  0  0  0  0  0  0  0  0
  152.6919  145.6327  158.8396 H   0  0  0  0  0  0  0  0  0  0  0  0
  152.8915  144.2964  161.0482 H   0  0  0  0  0  0  0  0  0  0  0  0
  153.8513  143.0553  160.2486 H   0  0  0  0  0  0  0  0  0  0  0  0
  152.3786  142.6131  161.1033 H   0  0  0  0  0  0  0  0  0  0  0  0
  151.8997  140.0890  154.9017 H   0  0  0  0  0  0  0  0  0  0  0  0
  149.1229  141.0740  155.7479 H   0  0  0  0  0  0  0  0  0  0  0  0
  150.2576  141.9673  154.7611 H   0  0  0  0  0  0  0  0  0  0  0  0
  148.1579  138.9085  154.7802 H   0  0  0  0  0  0  0  0  0  0  0  0
  148.6780  138.4318  153.1785 H   0  0  0  0  0  0  0  0  0  0  0  0
  149.8762  137.1441  154.9779 H   0  0  0  0  0  0  0  0  0  0  0  0
  151.0103  138.0629  154.0075 H   0  0  0  0  0  0  0  0  0  0  0  0
  148.5894  140.8189  153.4689 H   0  0  0  0  0  0  0  0  0  0  0  0
  1  2  1  0  0  0  0
  1 16  1  0  0  0  0
  1 17  1  0  0  0  0
  1 18  1  0  0  0  0
  2  3  1  0  0  0  0
  2  4  1  0  0  0  0
  2  5  1  0  0  0  0
  3 19  1  0  0  0  0
  3 20  1  0  0  0  0
  3 21  1  0  0  0  0
  4 22  1  0  0  0  0
  4 23  1  0  0  0  0
  4 24  1  0  0  0  0
  5 15  2  0  0  0  0
  5  6  1  0  0  0  0
  6  7  1  0  0  0  0
  7  8  2  0  0  0  0
  8  9  1  0  0  0  0
  8 15  1  0  0  0  0
  9 14  1  0  0  0  0
  9 10  1  0  0  0  0
  9 25  1  0  0  0  0
 10 11  1  0  0  0  0
 10 26  1  0  0  0  0
 10 27  1  0  0  0  0
 11 12  1  0  0  0  0
 11 32  1  0  0  0  0
 12 13  1  0  0  0  0
 12 28  1  0  0  0  0
 12 29  1  0  0  0  0
 13 14  1  0  0  0  0
 13 30  1  0  0  0  0
 13 31  1  0  0  0  0
M  CHG  1   6  -1
M  END
> <s_m_source_file>
AV-unprocessed.smi

> <i_m_source_file_index>
2567

> <i_lp_mmshare_version>
43012

> <i_f3d_flags>
0

> <s_epik_input>
W0NIM11DKFtDSDNdKShbQ0gzXSljMW5bbkhdYyhuMSlbQ0BASF0yW0NIMl1bTkhdW0NIMl1bQ0gyXU8y

> <s_epik_cmdline>
J2VwaWtfcHl0aG9uJywgJy1waCcsICc3LjAnLCAnLXRuJywgJzgnLCAnLW1hJywgJzIwMCcsICctbWV0YWxfYmluZGluZycsICctaW1hZScsICc8aW5maWxlLm1hZT4nLCAnLW9tYWUnLCAnPG91dGZpbGUubWFlPic=

> <r_lp_tautomer_probability>
0.948284

> <r_epik_Ionization_Penalty>
17.5852

> <r_epik_Ionization_Penalty_Charging>
16.0119

> <r_epik_Ionization_Penalty_Neutral>
1.5733

> <r_epik_State_Penalty>
6.64574

> <r_epik_Charging_Adjusted_Penalty>
22.6576

> <i_epik_Tot_Q>
-1

> <i_epik_Tot_abs_Q>
1

> <r_epik_Metal_State_Penalty>
2.89273

> <b_epik_Metal_Only>
1

> <s_lp_Force_Field>
OPLS_2005

> <r_lp_Energy>
12.7078

> <b_lp_Chiralities_Consistent>
1

> <s_lp_Variant>
AV-unprocessed.smi:2567-11

> <Gold.Version>
5.8.1

> <Gold.Id.Protein>
6NUR|6NUR_protein|mol2

> <Gold.PLP.Fitness>
33.0020

> <Gold.PLP.PLP>
-31.1463

> <Gold.PLP.part.hbond>
-2.8315

> <Gold.PLP.part.metal>
0.0000

> <Gold.PLP.part.buried>
-0.9712

> <Gold.PLP.part.nonpolar>
-25.5794

> <Gold.PLP.part.repulsive>
0.0560

> <Gold.PLP.ligand.clash>
0.0000

> <Gold.PLP.ligand.torsion>
0.4725

> <Gold.PLP.Chemscore.Hbond>
0.8723

> <Gold.PLP.Chemscore.CHOScore>
0.0000

> <Gold.PLP.Chemscore.Metal>
0.0000

> <Gold.Chemscore.Hbonds>
donor molecule, donor type, donor heavy atom, donor atom, acceptor molecule, acceptor atom, score
      P1  H  7997  8010       L1     7  0.82

> <Gold.PLP.Chemscore.Internal.Correction>
0.1839

> <Gold.Rescore>
     Score         DG    S(hbond)    S(metal)    S(lipo)     H(rot)  DE(clash)    DE(int)     intcor
     12.51     -12.99       0.64        0.00      72.92       1.23       0.20       0.28       ----

> <Gold.Chemscore.Fitness>
12.5140

> <Gold.Chemscore.DG>
-12.9913

> <Gold.Chemscore.ZeroCoef>
-5.4800

> <Gold.Chemscore.Hbond>
0.6361

> <Gold.Chemscore.Metal>
0.0000

> <Gold.Chemscore.Lipo>
72.9169

> <Gold.Chemscore.Internal_Hbond>
0.0000

> <Gold.Chemscore.DEClash>
0.1985

> <Gold.Chemscore.DEInternal>
0.2788

> <Gold.Chemscore.Rot>
1.2283

> <Gold.Chemscore.Internal.Correction>
   9.000000E+99

> <Gold.Chemscore.Hbonds>
donor molecule, donor type, donor heavy atom, donor atom, acceptor molecule, acceptor atom, score
      P1  H  7997  8010       L1     7  0.26

> <Gold.Chemscore.Hbond.Weighted>
-2.1244

> <Gold.Chemscore.Metal.Weighted>
-0.0000

> <Gold.Chemscore.Lipo.Weighted>
-8.5313

> <Gold.Chemscore.Internal_Hbond.Weighted>
0.0000

> <Gold.Chemscore.DEClash.Weighted>
0.1985

> <Gold.Chemscore.DEInternal.Weighted>
0.2788

> <Gold.Chemscore.Rot.Weighted>
3.1444

> <Gold.Chemscore.Internal.Correction.Weighted>
   9.000000E+99

> <Gold.Protein.RotatedTorsions>
[ 6907 6896 6895 6894 ] final   46.81 input  -60.11 | X-H torsion
[ 7974 7965 7964 7962 ] final  149.54 input  175.53 | X-H torsion
[ 8008 7997 7996 7995 ] final   53.94 input   59.86 | X-H torsion
[ 10167 10162 10161 10158 ] final   84.52 input  -65.29 | X-H torsion
[ 10718 10713 10712 10709 ] final  124.85 input   66.30 | X-H torsion
[ 10763 10752 10751 10750 ] final  -80.86 input  -60.55 | X-H torsion
[ 11005 11000 10999 10996 ] final  -32.22 input  -57.11 | X-H torsion

> <Gold.Protein.ActiveResidues>
 VAL166  LYS551  ARG553  GLY616  TRP617  ASP618  TYR619  PRO620  LYS621  CYS622 
 ASP623  PHE694  ASN695  SER759  ASP760  ASP761  ALA762  ILE779  LEU786  VAL792 
 PHE793  MET794  SER795  GLU796  ALA797  LYS798  CYS799  TRP800  GLU811  SER814 

> <Gold.Protein.RotatedAtoms>
  152.2608  134.8036  160.0430 H   0  0  0  0  0  0  0  0  0  0  0  0  # atno 6907 bound_to 6896
  151.8683  133.3465  159.3734 H   0  0  0  0  0  0  0  0  0  0  0  0  # atno 6908 bound_to 6896
  150.7116  134.5065  159.5631 H   0  0  0  0  0  0  0  0  0  0  0  0  # atno 6909 bound_to 6896
  144.8431  139.6293  143.6008 H   0  0  0  0  0  0  0  0  0  0  0  0  # atno 7974 bound_to 7965
  155.4765  140.3467  155.4333 H   0  0  0  0  0  0  0  0  0  0  0  0  # atno 8008 bound_to 7997
  156.1067  140.1450  156.9423 H   0  0  0  0  0  0  0  0  0  0  0  0  # atno 8009 bound_to 7997
  154.4729  140.0895  156.7168 H   0  0  0  0  0  0  0  0  0  0  0  0  # atno 8010 bound_to 7997
  139.9071  144.6294  150.8576 H   0  0  0  0  0  0  0  0  0  0  0  0  # atno 10167 bound_to 10162
  157.5551  131.1092  150.8635 H   0  0  0  0  0  0  0  0  0  0  0  0  # atno 10718 bound_to 10713
  154.5564  135.5646  153.6968 H   0  0  0  0  0  0  0  0  0  0  0  0  # atno 10763 bound_to 10752
  153.0005  135.6263  154.2304 H   0  0  0  0  0  0  0  0  0  0  0  0  # atno 10764 bound_to 10752
  154.2241  135.2868  155.2894 H   0  0  0  0  0  0  0  0  0  0  0  0  # atno 10765 bound_to 10752
  140.9534  133.7207  156.1255 H   0  0  0  0  0  0  0  0  0  0  0  0  # atno 11005 bound_to 11000
  146.2720  139.6658  142.9289 LP  0  0  0  0  0  0  0  0  0  0  0  0  # atno 17320 bound_to 7965
  145.4654  141.0434  143.2728 LP  0  0  0  0  0  0  0  0  0  0  0  0  # atno 17321 bound_to 7965
  140.7694  143.3393  151.2242 LP  0  0  0  0  0  0  0  0  0  0  0  0  # atno 17342 bound_to 10162
  139.6974  143.9589  152.2889 LP  0  0  0  0  0  0  0  0  0  0  0  0  # atno 17343 bound_to 10162
  156.9149  130.5294  149.5280 LP  0  0  0  0  0  0  0  0  0  0  0  0  # atno 17370 bound_to 10713
  156.0611  130.5664  150.9195 LP  0  0  0  0  0  0  0  0  0  0  0  0  # atno 17371 bound_to 10713
  140.7570  134.3981  157.5532 LP  0  0  0  0  0  0  0  0  0  0  0  0  # atno 17394 bound_to 11000
  139.8854  134.8937  156.2643 LP  0  0  0  0  0  0  0  0  0  0  0  0  # atno 17395 bound_to 11000

$$$$
