AV-unprocessed.smi:148|AV-procd|sdf|1224|dock7
  -GOLD-   2262018423D 1   1.00000     0.00000
 Structure written by MMmdl.
 63 67  0  0  0  0  0  0  0  0  1 V2000
  147.7135  138.3777  151.7266 O   0  0  0  0  0  0  0  0  0  0  0  0
  146.4816  138.5194  152.4017 C   0  0  0  0  0  0  0  0  0  0  0  0
  146.6414  139.2757  153.7465 C   0  0  2  0  0  0  0  0  0  0  0  0
  147.3881  140.6215  153.5532 C   0  0  0  0  0  0  0  0  0  0  0  0
  148.4520  140.8439  154.5173 N   0  0  0  0  0  0  0  0  0  0  0  0
  149.7775  140.4964  154.3781 C   0  0  0  0  0  0  0  0  0  0  0  0
  150.5431  140.8027  155.3899 N   0  0  0  0  0  0  0  0  0  0  0  0
  149.6760  141.3978  156.2964 C   0  0  0  0  0  0  0  0  0  0  0  0
  149.8338  141.9496  157.5939 C   0  0  0  0  0  0  0  0  0  0  0  0
  151.0340  141.9823  158.2125 N   0  0  0  0  0  0  0  0  0  0  0  0
  151.1358  143.1776  159.0527 C   0  0  0  0  0  0  0  0  0  0  0  0
  152.5763  143.4123  159.5169 C   0  0  0  0  0  0  0  0  0  0  0  0
  153.0934  142.1694  160.2424 C   0  0  0  0  0  0  0  0  0  0  0  0
  152.9632  140.9414  159.3322 C   0  0  0  0  0  0  0  0  0  0  0  0
  151.5137  140.7228  158.8183 C   0  0  2  0  0  0  0  0  0  0  0  0
  151.4561  139.4895  157.8489 C   0  0  1  0  0  0  0  0  0  0  0  0
  152.3850  138.3177  158.2212 C   0  0  0  0  0  0  0  0  0  0  0  0
  151.8716  137.0939  157.4538 C   0  0  0  0  0  0  0  0  0  0  0  0
  150.4430  137.4335  157.0153 C   0  0  0  0  0  0  0  0  0  0  0  0
  150.0980  138.7675  157.6857 C   0  0  1  0  0  0  0  0  0  0  0  0
  149.5003  138.5055  158.9417 O   0  0  0  0  0  0  0  0  0  0  0  0
  148.7350  142.4612  158.2094 N   0  0  0  0  0  0  0  0  0  0  0  0
  147.5492  142.4209  157.5934 C   0  0  0  0  0  0  0  0  0  0  0  0
  147.2497  141.9304  156.3878 N   0  0  0  0  0  0  0  0  0  0  0  0
  148.3559  141.4267  155.7683 C   0  0  0  0  0  0  0  0  0  0  0  0
  147.3570  138.4137  154.8239 C   0  0  1  0  0  0  0  0  0  0  0  0
  146.9661  138.7282  156.2589 C   0  0  0  0  0  0  0  0  0  0  0  0
  147.4411  137.4897  157.0104 C   0  0  0  0  0  0  0  0  0  0  0  0
  147.3217  136.4112  156.0910 O   0  0  0  0  0  0  0  0  0  0  0  0
  147.0439  136.9132  154.7881 C   0  0  0  0  0  0  0  0  0  0  0  0
  148.1917  137.6632  152.1190 H   0  0  0  0  0  0  0  0  0  0  0  0
  145.7659  139.0267  151.7543 H   0  0  0  0  0  0  0  0  0  0  0  0
  146.1067  137.5080  152.5507 H   0  0  0  0  0  0  0  0  0  0  0  0
  145.6421  139.5156  154.1125 H   0  0  0  0  0  0  0  0  0  0  0  0
  147.8402  140.6745  152.5629 H   0  0  0  0  0  0  0  0  0  0  0  0
  146.6844  141.4525  153.6175 H   0  0  0  0  0  0  0  0  0  0  0  0
  150.1630  140.0117  153.4931 H   0  0  0  0  0  0  0  0  0  0  0  0
  150.7860  144.0530  158.5027 H   0  0  0  0  0  0  0  0  0  0  0  0
  150.4864  143.0678  159.9226 H   0  0  0  0  0  0  0  0  0  0  0  0
  153.2112  143.6336  158.6579 H   0  0  0  0  0  0  0  0  0  0  0  0
  152.6227  144.2804  160.1746 H   0  0  0  0  0  0  0  0  0  0  0  0
  154.1334  142.3114  160.5378 H   0  0  0  0  0  0  0  0  0  0  0  0
  152.5244  142.0119  161.1596 H   0  0  0  0  0  0  0  0  0  0  0  0
  153.6388  141.0525  158.4826 H   0  0  0  0  0  0  0  0  0  0  0  0
  153.3120  140.0752  159.8934 H   0  0  0  0  0  0  0  0  0  0  0  0
  150.8908  140.5180  159.6896 H   0  0  0  0  0  0  0  0  0  0  0  0
  151.7706  139.8296  156.8604 H   0  0  0  0  0  0  0  0  0  0  0  0
  153.4307  138.5232  157.9900 H   0  0  0  0  0  0  0  0  0  0  0  0
  152.3181  138.1180  159.2916 H   0  0  0  0  0  0  0  0  0  0  0  0
  152.4949  136.8932  156.5815 H   0  0  0  0  0  0  0  0  0  0  0  0
  151.8960  136.2045  158.0840 H   0  0  0  0  0  0  0  0  0  0  0  0
  150.4260  137.5617  155.9322 H   0  0  0  0  0  0  0  0  0  0  0  0
  149.7310  136.6418  157.2539 H   0  0  0  0  0  0  0  0  0  0  0  0
  149.3884  139.3154  157.0697 H   0  0  0  0  0  0  0  0  0  0  0  0
  148.6260  138.1782  158.7952 H   0  0  0  0  0  0  0  0  0  0  0  0
  146.7224  142.8411  158.1466 H   0  0  0  0  0  0  0  0  0  0  0  0
  148.4365  138.5430  154.7291 H   0  0  0  0  0  0  0  0  0  0  0  0
  147.4227  139.6409  156.6428 H   0  0  0  0  0  0  0  0  0  0  0  0
  145.8828  138.8256  156.3453 H   0  0  0  0  0  0  0  0  0  0  0  0
  148.4906  137.5927  157.2888 H   0  0  0  0  0  0  0  0  0  0  0  0
  146.8654  137.3069  157.9179 H   0  0  0  0  0  0  0  0  0  0  0  0
  145.9871  136.7436  154.5766 H   0  0  0  0  0  0  0  0  0  0  0  0
  147.6296  136.3809  154.0383 H   0  0  0  0  0  0  0  0  0  0  0  0
  1  2  1  0  0  0  0
  1 31  1  0  0  0  0
  2  3  1  0  0  0  0
  2 32  1  0  0  0  0
  2 33  1  0  0  0  0
  3  4  1  0  0  0  0
  3 26  1  0  0  0  0
  3 34  1  0  0  0  0
  4  5  1  0  0  0  0
  4 35  1  0  0  0  0
  4 36  1  0  0  0  0
  5 25  1  0  0  0  0
  5  6  1  0  0  0  0
  6  7  2  0  0  0  0
  6 37  1  0  0  0  0
  7  8  1  0  0  0  0
  8 25  2  0  0  0  0
  8  9  1  0  0  0  0
  9 10  1  0  0  0  0
  9 22  2  0  0  0  0
 10 15  1  0  0  0  0
 10 11  1  0  0  0  0
 11 12  1  0  0  0  0
 11 38  1  0  0  0  0
 11 39  1  0  0  0  0
 12 13  1  0  0  0  0
 12 40  1  0  0  0  0
 12 41  1  0  0  0  0
 13 14  1  0  0  0  0
 13 42  1  0  0  0  0
 13 43  1  0  0  0  0
 14 15  1  0  0  0  0
 14 44  1  0  0  0  0
 14 45  1  0  0  0  0
 15 16  1  0  0  0  0
 15 46  1  0  0  0  0
 16 20  1  0  0  0  0
 16 17  1  0  0  0  0
 16 47  1  0  0  0  0
 17 18  1  0  0  0  0
 17 48  1  0  0  0  0
 17 49  1  0  0  0  0
 18 19  1  0  0  0  0
 18 50  1  0  0  0  0
 18 51  1  0  0  0  0
 19 20  1  0  0  0  0
 19 52  1  0  0  0  0
 19 53  1  0  0  0  0
 20 21  1  0  0  0  0
 20 54  1  0  0  0  0
 21 55  1  0  0  0  0
 22 23  1  0  0  0  0
 23 24  2  0  0  0  0
 23 56  1  0  0  0  0
 24 25  1  0  0  0  0
 26 30  1  0  0  0  0
 26 27  1  0  0  0  0
 26 57  1  0  0  0  0
 27 28  1  0  0  0  0
 27 58  1  0  0  0  0
 27 59  1  0  0  0  0
 28 29  1  0  0  0  0
 28 60  1  0  0  0  0
 28 61  1  0  0  0  0
 29 30  1  0  0  0  0
 30 62  1  0  0  0  0
 30 63  1  0  0  0  0
M  END
> <s_m_source_file>
AV-unprocessed.smi

> <i_m_source_file_index>
148

> <i_lp_mmshare_version>
43012

> <i_f3d_flags>
0

> <s_epik_input>
W0NIMl0xT1tDSDJdW0NIMl1bQ0BIXTFbQ0BIXShbQ0gyXVtPSF0pW0NIMl1uKFtjSF1uMiljKGMyMyluW2NIXW5jM040W0NIMl1bQ0gyXVtDSDJdW0NIMl1bQ0BIXTRbQ0BASF01W0NIMl1bQ0gyXVtDSDJdW0NASF01W09IXQ==

> <s_epik_cmdline>
J2VwaWtfcHl0aG9uJywgJy1waCcsICc3LjAnLCAnLXRuJywgJzgnLCAnLW1hJywgJzIwMCcsICctbWV0YWxfYmluZGluZycsICctaW1hZScsICc8aW5maWxlLm1hZT4nLCAnLW9tYWUnLCAnPG91dGZpbGUubWFlPic=

> <r_lp_tautomer_probability>
1

> <r_epik_Ionization_Penalty>
0.00556303

> <r_epik_Ionization_Penalty_Charging>
0

> <r_epik_Ionization_Penalty_Neutral>
0.00556303

> <r_epik_State_Penalty>
0.00401767

> <r_epik_Charging_Adjusted_Penalty>
0.00401767

> <i_epik_Tot_Q>
0

> <i_epik_Tot_abs_Q>
0

> <r_epik_Metal_State_Penalty>
-0

> <b_epik_Metal_Only>
0

> <s_lp_Force_Field>
OPLS_2005

> <r_lp_Energy>
70.7604

> <b_lp_Chiralities_Consistent>
1

> <s_lp_Variant>
AV-unprocessed.smi:148-23

> <Gold.Version>
5.8.1

> <Gold.Id.Protein>
6NUR|6NUR_protein|mol2

> <Gold.PLP.Fitness>
43.8225

> <Gold.PLP.PLP>
-40.7701

> <Gold.PLP.part.hbond>
-4.7988

> <Gold.PLP.part.metal>
0.0000

> <Gold.PLP.part.buried>
-3.0969

> <Gold.PLP.part.nonpolar>
-33.3987

> <Gold.PLP.part.repulsive>
0.4239

> <Gold.PLP.ligand.clash>
0.0000

> <Gold.PLP.ligand.torsion>
2.7335

> <Gold.PLP.Chemscore.Hbond>
1.6120

> <Gold.PLP.Chemscore.CHOScore>
1.0000

> <Gold.PLP.Chemscore.Metal>
0.0000

> <Gold.Chemscore.Hbonds>
donor molecule, donor type, donor heavy atom, donor atom, acceptor molecule, acceptor atom, score
      L1  H     1    31       P1  7948  0.90
      P1  H  7954  7966       L1     1  0.70
      L1  C     6    37       P1  7957  1.00

> <Gold.PLP.Chemscore.Internal.Correction>
0.6834

> <Gold.Rescore>
     Score         DG    S(hbond)    S(metal)    S(lipo)     H(rot)  DE(clash)    DE(int)     intcor
      7.41     -11.23       0.96        0.00      94.52       3.32       0.51       3.31       ----

> <Gold.Chemscore.Fitness>
7.4133

> <Gold.Chemscore.DG>
-11.2329

> <Gold.Chemscore.ZeroCoef>
-5.4800

> <Gold.Chemscore.Hbond>
0.9563

> <Gold.Chemscore.Metal>
0.0000

> <Gold.Chemscore.Lipo>
94.5211

> <Gold.Chemscore.Internal_Hbond>
0.0000

> <Gold.Chemscore.DEClash>
0.5114

> <Gold.Chemscore.DEInternal>
3.3081

> <Gold.Chemscore.Rot>
3.3203

> <Gold.Chemscore.Internal.Correction>
   9.000000E+99

> <Gold.Chemscore.Hbonds>
donor molecule, donor type, donor heavy atom, donor atom, acceptor molecule, acceptor atom, score
      L1  H     1    31       P1  7948  0.87
      P1  H  7954  7966       L1     1  0.07

> <Gold.Chemscore.Hbond.Weighted>
-3.1939

> <Gold.Chemscore.Metal.Weighted>
-0.0000

> <Gold.Chemscore.Lipo.Weighted>
-11.0590

> <Gold.Chemscore.Internal_Hbond.Weighted>
0.0000

> <Gold.Chemscore.DEClash.Weighted>
0.5114

> <Gold.Chemscore.DEInternal.Weighted>
3.3081

> <Gold.Chemscore.Rot.Weighted>
8.5000

> <Gold.Chemscore.Internal.Correction.Weighted>
   9.000000E+99

> <Gold.Protein.RotatedTorsions>
[ 6907 6896 6895 6894 ] final   11.01 input  -60.11 | X-H torsion
[ 7974 7965 7964 7962 ] final   49.85 input  175.53 | X-H torsion
[ 8008 7997 7996 7995 ] final  -73.21 input   59.86 | X-H torsion
[ 10167 10162 10161 10158 ] final   68.04 input  -65.29 | X-H torsion
[ 10718 10713 10712 10709 ] final  104.12 input   66.30 | X-H torsion
[ 10763 10752 10751 10750 ] final   89.56 input  -60.55 | X-H torsion
[ 11005 11000 10999 10996 ] final   55.37 input  -57.11 | X-H torsion

> <Gold.Protein.ActiveResidues>
 VAL166  LYS551  ARG553  GLY616  TRP617  ASP618  TYR619  PRO620  LYS621  CYS622 
 ASP623  PHE694  ASN695  SER759  ASP760  ASP761  ALA762  ILE779  LEU786  VAL792 
 PHE793  MET794  SER795  GLU796  ALA797  LYS798  CYS799  TRP800  GLU811  SER814 

> <Gold.Protein.RotatedAtoms>
  151.7474  135.0840  160.0325 H   0  0  0  0  0  0  0  0  0  0  0  0  # atno 6907 bound_to 6896
  152.3439  133.6095  159.5904 H   0  0  0  0  0  0  0  0  0  0  0  0  # atno 6908 bound_to 6896
  150.7496  133.9595  159.3553 H   0  0  0  0  0  0  0  0  0  0  0  0  # atno 6909 bound_to 6896
  146.0068  139.4499  142.9980 H   0  0  0  0  0  0  0  0  0  0  0  0  # atno 7974 bound_to 7965
  154.5228  140.0783  156.8204 H   0  0  0  0  0  0  0  0  0  0  0  0  # atno 8008 bound_to 7997
  155.3539  140.3414  155.4221 H   0  0  0  0  0  0  0  0  0  0  0  0  # atno 8009 bound_to 7997
  156.1700  140.1616  156.8451 H   0  0  0  0  0  0  0  0  0  0  0  0  # atno 8010 bound_to 7997
  140.0830  144.5054  150.7149 H   0  0  0  0  0  0  0  0  0  0  0  0  # atno 10167 bound_to 10162
  157.6750  131.0796  150.5658 H   0  0  0  0  0  0  0  0  0  0  0  0  # atno 10718 bound_to 10713
  153.1884  135.4466  155.0118 H   0  0  0  0  0  0  0  0  0  0  0  0  # atno 10763 bound_to 10752
  154.8075  135.3280  154.7396 H   0  0  0  0  0  0  0  0  0  0  0  0  # atno 10764 bound_to 10752
  153.7852  135.6974  153.4936 H   0  0  0  0  0  0  0  0  0  0  0  0  # atno 10765 bound_to 10752
  140.0612  134.5599  155.9149 H   0  0  0  0  0  0  0  0  0  0  0  0  # atno 11005 bound_to 11000
  145.7403  141.0010  143.1305 LP  0  0  0  0  0  0  0  0  0  0  0  0  # atno 17320 bound_to 7965
  144.6939  139.9090  143.7462 LP  0  0  0  0  0  0  0  0  0  0  0  0  # atno 17321 bound_to 7965
  140.7068  143.2474  151.4702 LP  0  0  0  0  0  0  0  0  0  0  0  0  # atno 17342 bound_to 10162
  139.5768  144.1800  152.1914 LP  0  0  0  0  0  0  0  0  0  0  0  0  # atno 17343 bound_to 10162
  156.5960  130.4342  149.5916 LP  0  0  0  0  0  0  0  0  0  0  0  0  # atno 17370 bound_to 10713
  156.2544  130.6926  151.1675 LP  0  0  0  0  0  0  0  0  0  0  0  0  # atno 17371 bound_to 10713
  141.1974  133.6596  156.5739 LP  0  0  0  0  0  0  0  0  0  0  0  0  # atno 17394 bound_to 11000
  140.3767  134.7559  157.4634 LP  0  0  0  0  0  0  0  0  0  0  0  0  # atno 17395 bound_to 11000

$$$$
