#       Name:                AV-unprocessed.smi:1207
#       Creating user name   scv26
#       Creation time:       Fri Mar 27 04:09:43 2020


#       File generated by GOLD software.
#

@<TRIPOS>MOLECULE
AV-unprocessed.smi:1207
    58    60     1
SMALL
NO_CHARGES


@<TRIPOS>ATOM
      1 ****        -4.8774   0.4893  -2.8224 C.3            1 S1                 0.0000
      2 ****        -3.8374   1.0090  -1.8444 C.ar           1 S1                 0.0000
      3 ****        -3.1205   2.1793  -2.1816 C.ar           1 S1                 0.0000
      4 ****        -2.1763   2.6302  -1.2671 C.ar           1 S1                 0.0000
      5 ****        -1.3247   3.7367  -1.3008 N.pl3          1 S1                 1.0000
      6 ****        -0.5736   3.7673  -0.1653 C.2            1 S1                 0.0000
      7 ****        -0.9240   2.6884   0.5874 N.pl3          1 S1                 0.0000
      8 ****        -0.4305   2.2499   1.8990 C.3            1 S1                 0.0000
      9 ****         0.4829   1.0088   1.8264 C.3            1 S1                 0.0000
     10 ****         0.9124   0.7134   3.1394 O.3            1 S1                 0.0000
     11 ****         1.7237   1.1950   0.9255 C.3            1 S1                 0.0000
     12 ****         2.4812  -0.0718   0.7630 N.4            1 S1                 1.0000
     13 ****         3.9302   0.1620   0.5621 C.3            1 S1                 0.0000
     14 ****         1.8985  -0.9726  -0.2652 C.3            1 S1                 0.0000
     15 ****         2.2718  -2.4078  -0.0025 C.2            1 S1                 0.0000
     16 ****         3.2811  -3.1977  -0.6274 C.2            1 S1                 0.0000
     17 ****         4.2451  -2.8177  -1.7147 C.3            1 S1                 0.0000
     18 ****         3.3199  -4.4243  -0.1360 N.2            1 S1                 0.0000
     19 ****         2.3182  -4.4817   0.8374 O.3            1 S1                 0.0000
     20 ****         1.7082  -3.2715   0.8958 C.2            1 S1                 0.0000
     21 ****         0.5968  -3.1253   1.8800 C.3            1 S1                 0.0000
     22 ****        -1.9316   1.9590  -0.0535 C.ar           1 S1                 0.0000
     23 ****        -2.6337   0.8087   0.2977 C.ar           1 S1                 0.0000
     24 ****        -3.5976   0.3331  -0.6200 C.ar           1 S1                 0.0000
     25 ****        -4.3759  -0.9230  -0.2671 C.3            1 S1                 0.0000
     26 ****        -4.9435   1.1215  -3.7083 H              1 S1                 0.0000
     27 ****        -5.8628   0.4663  -2.3564 H              1 S1                 0.0000
     28 ****        -4.6251  -0.5194  -3.1509 H              1 S1                 0.0000
     29 ****        -3.3012   2.7012  -3.1101 H              1 S1                 0.0000
     30 ****         0.1667   4.5122   0.0897 H              1 S1                 0.0000
     31 ****         0.1088   3.0902   2.3388 H              1 S1                 0.0000
     32 ****        -1.2936   2.0638   2.5403 H              1 S1                 0.0000
     33 ****        -0.1052   0.1598   1.4814 H              1 S1                 0.0000
     34 ****         1.3531   1.4708   3.4946 H              1 S1                 0.0000
     35 ****         1.4468   1.5643  -0.0627 H              1 S1                 0.0000
     36 ****         2.3597   1.9642   1.3668 H              1 S1                 0.0000
     37 ****         4.1157   0.6842  -0.3774 H              1 S1                 0.0000
     38 ****         4.4814  -0.7780   0.5460 H              1 S1                 0.0000
     39 ****         4.3415   0.7622   1.3743 H              1 S1                 0.0000
     40 ****         0.8127  -0.8798  -0.2678 H              1 S1                 0.0000
     41 ****         2.2122  -0.6447  -1.2570 H              1 S1                 0.0000
     42 ****         4.2483  -1.7428  -1.8927 H              1 S1                 0.0000
     43 ****         3.9867  -3.3075  -2.6537 H              1 S1                 0.0000
     44 ****         5.2637  -3.1092  -1.4569 H              1 S1                 0.0000
     45 ****         0.7366  -2.2339   2.4915 H              1 S1                 0.0000
     46 ****         0.5456  -3.9859   2.5476 H              1 S1                 0.0000
     47 ****        -0.3616  -3.0375   1.3685 H              1 S1                 0.0000
     48 ****        -2.4559   0.2968   1.2319 H              1 S1                 0.0000
     49 ****        -4.0888  -1.3093   0.7113 H              1 S1                 0.0000
     50 ****        -4.1907  -1.7067  -1.0022 H              1 S1                 0.0000
     51 ****        -5.4461  -0.7171  -0.2418 H              1 S1                 0.0000
     52 ****         2.3961  -0.5500   1.6490 H              1 S1                 0.0000
     53 ****        -1.2656   4.4270  -2.0388 H              1 S1                 0.0000
     54 ****         1.5421  -0.0632   3.1200 LP             1 S1                 0.0000
     55 ****         0.1218   0.4873   3.7085 LP             1 S1                 0.0000
     56 ****         3.9397  -5.1612  -0.4057 LP             1 S1                 0.0000
     57 ****         2.7225  -4.6993   1.7257 LP             1 S1                 0.0000
     58 ****         1.6504  -5.1851   0.5938 LP             1 S1                 0.0000
@<TRIPOS>BOND
    1    1    2 1     
    2    1   26 1     
    3    1   27 1     
    4    1   28 1     
    5    2   24 ar    
    6    2    3 ar    
    7    3    4 ar    
    8    3   29 1     
    9    4   22 ar    
   10    4    5 1     
   11    5    6 2     
   12    5   53 1     
   13    6    7 1     
   14    6   30 1     
   15    7    8 1     
   16    7   22 1     
   17    8    9 1     
   18    8   31 1     
   19    8   32 1     
   20    9   10 1     
   21    9   11 1     
   22    9   33 1     
   23   10   34 1     
   24   11   12 1     
   25   11   35 1     
   26   11   36 1     
   27   12   13 1     
   28   12   14 1     
   29   12   52 1     
   30   13   37 1     
   31   13   38 1     
   32   13   39 1     
   33   14   15 1     
   34   14   40 1     
   35   14   41 1     
   36   15   20 2     
   37   15   16 1     
   38   16   17 1     
   39   16   18 2     
   40   17   42 1     
   41   17   43 1     
   42   17   44 1     
   43   18   19 1     
   44   19   20 1     
   45   20   21 1     
   46   21   45 1     
   47   21   46 1     
   48   21   47 1     
   49   22   23 ar    
   50   23   24 ar    
   51   23   48 1     
   52   24   25 1     
   53   25   49 1     
   54   25   50 1     
   55   25   51 1     
   56   10   54 1     
   57   10   55 1     
   58   18   56 1     
   59   19   57 1     
   60   19   58 1     
@<TRIPOS>SUBSTRUCTURE
      1 S1             1
@<TRIPOS>SET
LONE_PAIRS      STATIC     ATOMS    <user>   **** ""
5 54 55 56 57 58
DONOR_HYDROGENS      STATIC     ATOMS    <user>   **** ""
3 53 34 52
ATOM$BLUE        STATIC     ATOMS    COLORGROUP SYSTEM
5 54 55 56 57 58
ATOM$RED        STATIC     ATOMS    COLORGROUP SYSTEM
3 53 34 52
