AV-unprocessed.smi:2467|AV-procd|sdf|9725|dock5
  -GOLD-   2272013363D 1   1.00000     0.00000
 Structure written by MMmdl.
 46 47  0  0  0  0  0  0  0  0  1 V2000
  151.4455  138.0017  154.3100 C   0  0  0  0  0  0  0  0  0  0  0  0
  150.9523  139.2877  154.9917 C   0  0  0  0  0  0  0  0  0  0  0  0
  149.8205  140.0309  154.2382 C   0  0  0  0  0  0  0  0  0  0  0  0
  149.5535  141.4248  154.8610 C   0  0  0  0  0  0  0  0  0  0  0  0
  150.5622  141.8437  155.9416 C   0  0  0  0  0  0  0  0  0  0  0  0
  148.5332  139.1693  154.1550 C   0  0  2  0  0  0  0  0  0  0  0  0
  147.4475  139.7246  153.2027 C   0  0  0  0  0  0  0  0  0  0  0  0
  146.2136  138.8084  153.1756 C   0  0  1  0  0  0  0  0  0  0  0  0
  146.5310  137.5651  152.4782 N   0  0  0  0  0  0  0  0  0  0  0  0
  145.6603  136.6164  152.1011 C   0  0  0  0  0  0  0  0  0  0  0  0
  144.4497  136.7084  152.2973 O   0  0  0  0  0  0  0  0  0  0  0  0
  146.1900  135.5341  151.4908 N   0  0  0  0  0  0  0  0  0  0  0  0
  145.5845  134.3531  150.9649 C   0  0  0  0  0  0  0  0  0  0  0  0
  146.5017  133.3513  150.5741 C   0  0  0  0  0  0  0  0  0  0  0  0
  146.0242  132.1384  150.0408 C   0  0  0  0  0  0  0  0  0  0  0  0
  144.6362  131.9548  149.9114 C   0  0  0  0  0  0  0  0  0  0  0  0
  143.7890  132.9993  150.3230 C   0  0  0  0  0  0  0  0  0  0  0  0
  144.2461  134.1623  150.8334 N   0  0  0  0  0  0  0  0  0  0  0  0
  145.7475  138.5439  154.6190 C   0  0  0  0  0  0  0  0  0  0  0  0
  146.9109  138.0650  155.5054 C   0  0  0  0  0  0  0  0  0  0  0  0
  147.9835  139.0009  155.4602 O   0  0  0  0  0  0  0  0  0  0  0  0
  152.3310  137.6176  154.8165 H   0  0  0  0  0  0  0  0  0  0  0  0
  151.7139  138.1831  153.2690 H   0  0  0  0  0  0  0  0  0  0  0  0
  150.6973  137.2105  154.3349 H   0  0  0  0  0  0  0  0  0  0  0  0
  150.6359  139.0616  156.0107 H   0  0  0  0  0  0  0  0  0  0  0  0
  151.8172  139.9418  155.0895 H   0  0  0  0  0  0  0  0  0  0  0  0
  150.1645  140.1915  153.2153 H   0  0  0  0  0  0  0  0  0  0  0  0
  149.5850  142.1923  154.0904 H   0  0  0  0  0  0  0  0  0  0  0  0
  148.5441  141.4612  155.2721 H   0  0  0  0  0  0  0  0  0  0  0  0
  150.3770  142.8698  156.2598 H   0  0  0  0  0  0  0  0  0  0  0  0
  151.5846  141.7955  155.5662 H   0  0  0  0  0  0  0  0  0  0  0  0
  150.4980  141.2169  156.8301 H   0  0  0  0  0  0  0  0  0  0  0  0
  148.8115  138.1871  153.7760 H   0  0  0  0  0  0  0  0  0  0  0  0
  147.1266  140.7142  153.5241 H   0  0  0  0  0  0  0  0  0  0  0  0
  147.8504  139.8449  152.1961 H   0  0  0  0  0  0  0  0  0  0  0  0
  145.4172  139.3145  152.6272 H   0  0  0  0  0  0  0  0  0  0  0  0
  147.5070  137.4017  152.2731 H   0  0  0  0  0  0  0  0  0  0  0  0
  147.1920  135.5729  151.3744 H   0  0  0  0  0  0  0  0  0  0  0  0
  147.5659  133.5062  150.6801 H   0  0  0  0  0  0  0  0  0  0  0  0
  146.7123  131.3632  149.7375 H   0  0  0  0  0  0  0  0  0  0  0  0
  144.2318  131.0382  149.5079 H   0  0  0  0  0  0  0  0  0  0  0  0
  142.7167  132.8991  150.2418 H   0  0  0  0  0  0  0  0  0  0  0  0
  145.3426  139.4661  155.0375 H   0  0  0  0  0  0  0  0  0  0  0  0
  144.9333  137.8187  154.6379 H   0  0  0  0  0  0  0  0  0  0  0  0
  146.5761  137.9663  156.5381 H   0  0  0  0  0  0  0  0  0  0  0  0
  147.2609  137.0800  155.1928 H   0  0  0  0  0  0  0  0  0  0  0  0
  1  2  1  0  0  0  0
  1 22  1  0  0  0  0
  1 23  1  0  0  0  0
  1 24  1  0  0  0  0
  2  3  1  0  0  0  0
  2 25  1  0  0  0  0
  2 26  1  0  0  0  0
  3  4  1  0  0  0  0
  3  6  1  0  0  0  0
  3 27  1  0  0  0  0
  4  5  1  0  0  0  0
  4 28  1  0  0  0  0
  4 29  1  0  0  0  0
  5 30  1  0  0  0  0
  5 31  1  0  0  0  0
  5 32  1  0  0  0  0
  6 21  1  0  0  0  0
  6  7  1  0  0  0  0
  6 33  1  0  0  0  0
  7  8  1  0  0  0  0
  7 34  1  0  0  0  0
  7 35  1  0  0  0  0
  8  9  1  0  0  0  0
  8 19  1  0  0  0  0
  8 36  1  0  0  0  0
  9 10  1  0  0  0  0
  9 37  1  0  0  0  0
 10 11  2  0  0  0  0
 10 12  1  0  0  0  0
 12 13  1  0  0  0  0
 12 38  1  0  0  0  0
 13 18  1  0  0  0  0
 13 14  2  0  0  0  0
 14 15  1  0  0  0  0
 14 39  1  0  0  0  0
 15 16  2  0  0  0  0
 15 40  1  0  0  0  0
 16 17  1  0  0  0  0
 16 41  1  0  0  0  0
 17 18  2  0  0  0  0
 17 42  1  0  0  0  0
 19 20  1  0  0  0  0
 19 43  1  0  0  0  0
 19 44  1  0  0  0  0
 20 21  1  0  0  0  0
 20 45  1  0  0  0  0
 20 46  1  0  0  0  0
M  END
> <s_m_source_file>
AV-unprocessed.smi

> <i_m_source_file_index>
2467

> <i_lp_mmshare_version>
43012

> <i_f3d_flags>
0

> <s_epik_input>
W0NIM11bQ0gyXVtDSF0oW0NIMl1bQ0gzXSlbQ0BASF0xW0NIMl1bQ0BIXShbQ0gyXVtDSDJdTzEpW05IXUMoPU8pW05IXWMyW2NIXVtjSF1bY0hdW2NIXW4y

> <s_epik_cmdline>
J2VwaWtfcHl0aG9uJywgJy1waCcsICc3LjAnLCAnLXRuJywgJzgnLCAnLW1hJywgJzIwMCcsICctbWV0YWxfYmluZGluZycsICctaW1hZScsICc8aW5maWxlLm1hZT4nLCAnLW9tYWUnLCAnPG91dGZpbGUubWFlPic=

> <r_lp_tautomer_probability>
1

> <r_epik_Ionization_Penalty>
4.80427e-05

> <r_epik_Ionization_Penalty_Charging>
0

> <r_epik_Ionization_Penalty_Neutral>
4.80427e-05

> <r_epik_State_Penalty>
-0

> <r_epik_Charging_Adjusted_Penalty>
0

> <i_epik_Tot_Q>
0

> <i_epik_Tot_abs_Q>
0

> <r_epik_Metal_State_Penalty>
-0

> <b_epik_Metal_Only>
0

> <s_lp_Force_Field>
OPLS_2005

> <r_lp_Energy>
18.1019

> <b_lp_Chiralities_Consistent>
1

> <s_lp_Variant>
AV-unprocessed.smi:2467-1

> <Gold.Version>
5.8.1

> <Gold.Id.Protein>
6NUR|6NUR_protein|mol2

> <Gold.PLP.Fitness>
44.2855

> <Gold.PLP.PLP>
-36.8946

> <Gold.PLP.part.hbond>
-2.0000

> <Gold.PLP.part.metal>
0.0000

> <Gold.PLP.part.buried>
-2.6568

> <Gold.PLP.part.nonpolar>
-32.7851

> <Gold.PLP.part.repulsive>
0.4486

> <Gold.PLP.ligand.clash>
0.0000

> <Gold.PLP.ligand.torsion>
0.8665

> <Gold.PLP.Chemscore.Hbond>
2.0000

> <Gold.PLP.Chemscore.CHOScore>
0.9974

> <Gold.PLP.Chemscore.Metal>
0.0000

> <Gold.Chemscore.Hbonds>
donor molecule, donor type, donor heavy atom, donor atom, acceptor molecule, acceptor atom, score
      L1  H     9    37       P1  7948  1.00
      L1  H    12    38       P1  7948  1.00
      L1  C    17    42       P1 10186  1.00

> <Gold.PLP.Chemscore.Internal.Correction>
0.1318

> <Gold.Rescore>
     Score         DG    S(hbond)    S(metal)    S(lipo)     H(rot)  DE(clash)    DE(int)     intcor
     16.75     -19.06       1.95        0.00      92.92       1.49       0.16       2.15       ----

> <Gold.Chemscore.Fitness>
16.7456

> <Gold.Chemscore.DG>
-19.0575

> <Gold.Chemscore.ZeroCoef>
-5.4800

> <Gold.Chemscore.Hbond>
1.9489

> <Gold.Chemscore.Metal>
0.0000

> <Gold.Chemscore.Lipo>
92.9177

> <Gold.Chemscore.Internal_Hbond>
0.0000

> <Gold.Chemscore.DEClash>
0.1592

> <Gold.Chemscore.DEInternal>
2.1527

> <Gold.Chemscore.Rot>
1.4856

> <Gold.Chemscore.Internal.Correction>
   9.000000E+99

> <Gold.Chemscore.Hbonds>
donor molecule, donor type, donor heavy atom, donor atom, acceptor molecule, acceptor atom, score
      L1  H     9    37       P1  7948  0.96
      L1  H    12    38       P1  7948  0.93

> <Gold.Chemscore.Hbond.Weighted>
-6.5092

> <Gold.Chemscore.Metal.Weighted>
-0.0000

> <Gold.Chemscore.Lipo.Weighted>
-10.8714

> <Gold.Chemscore.Internal_Hbond.Weighted>
0.0000

> <Gold.Chemscore.DEClash.Weighted>
0.1592

> <Gold.Chemscore.DEInternal.Weighted>
2.1527

> <Gold.Chemscore.Rot.Weighted>
3.8031

> <Gold.Chemscore.Internal.Correction.Weighted>
   9.000000E+99

> <Gold.Protein.RotatedTorsions>
[ 6907 6896 6895 6894 ] final   37.82 input  -60.11 | X-H torsion
[ 7974 7965 7964 7962 ] final   98.53 input  175.53 | X-H torsion
[ 8008 7997 7996 7995 ] final -115.33 input   59.86 | X-H torsion
[ 10167 10162 10161 10158 ] final   48.88 input  -65.29 | X-H torsion
[ 10718 10713 10712 10709 ] final   10.01 input   66.30 | X-H torsion
[ 10763 10752 10751 10750 ] final    1.27 input  -60.55 | X-H torsion
[ 11005 11000 10999 10996 ] final  113.42 input  -57.11 | X-H torsion

> <Gold.Protein.ActiveResidues>
 VAL166  LYS551  ARG553  GLY616  TRP617  ASP618  TYR619  PRO620  LYS621  CYS622 
 ASP623  PHE694  ASN695  SER759  ASP760  ASP761  ALA762  ILE779  LEU786  VAL792 
 PHE793  MET794  SER795  GLU796  ALA797  LYS798  CYS799  TRP800  GLU811  SER814 

> <Gold.Protein.RotatedAtoms>
  152.1483  134.9009  160.0549 H   0  0  0  0  0  0  0  0  0  0  0  0  # atno 6907 bound_to 6896
  152.0050  133.3835  159.4205 H   0  0  0  0  0  0  0  0  0  0  0  0  # atno 6908 bound_to 6896
  150.6872  134.3714  159.5037 H   0  0  0  0  0  0  0  0  0  0  0  0  # atno 6909 bound_to 6896
  145.4109  139.2334  143.3248 H   0  0  0  0  0  0  0  0  0  0  0  0  # atno 7974 bound_to 7965
  155.0503  140.0393  157.2541 H   0  0  0  0  0  0  0  0  0  0  0  0  # atno 8008 bound_to 7997
  154.7143  140.2699  155.6576 H   0  0  0  0  0  0  0  0  0  0  0  0  # atno 8009 bound_to 7997
  156.2798  140.2715  156.1795 H   0  0  0  0  0  0  0  0  0  0  0  0  # atno 8010 bound_to 7997
  140.2887  144.3071  150.6246 H   0  0  0  0  0  0  0  0  0  0  0  0  # atno 10167 bound_to 10162
  156.9747  130.5982  149.5671 H   0  0  0  0  0  0  0  0  0  0  0  0  # atno 10718 bound_to 10713
  153.3101  135.6962  153.7123 H   0  0  0  0  0  0  0  0  0  0  0  0  # atno 10763 bound_to 10752
  153.6003  135.3463  155.2944 H   0  0  0  0  0  0  0  0  0  0  0  0  # atno 10764 bound_to 10752
  154.8573  135.4339  154.2237 H   0  0  0  0  0  0  0  0  0  0  0  0  # atno 10765 bound_to 10752
  139.8952  134.9549  156.6736 H   0  0  0  0  0  0  0  0  0  0  0  0  # atno 11005 bound_to 11000
  146.2705  140.4820  142.8816 LP  0  0  0  0  0  0  0  0  0  0  0  0  # atno 17320 bound_to 7965
  144.8309  140.6706  143.6291 LP  0  0  0  0  0  0  0  0  0  0  0  0  # atno 17321 bound_to 7965
  140.5750  143.2177  151.7530 LP  0  0  0  0  0  0  0  0  0  0  0  0  # atno 17342 bound_to 10162
  139.4943  144.4162  152.0027 LP  0  0  0  0  0  0  0  0  0  0  0  0  # atno 17343 bound_to 10162
  156.0268  130.5362  150.8429 LP  0  0  0  0  0  0  0  0  0  0  0  0  # atno 17370 bound_to 10713
  157.5568  131.0945  150.9617 LP  0  0  0  0  0  0  0  0  0  0  0  0  # atno 17371 bound_to 10713
  140.7354  133.9023  155.8240 LP  0  0  0  0  0  0  0  0  0  0  0  0  # atno 17394 bound_to 11000
  141.0120  134.1007  157.4211 LP  0  0  0  0  0  0  0  0  0  0  0  0  # atno 17395 bound_to 11000

$$$$
