AV-unprocessed.smi:569|AV-procd|sdf|2960|dock2
  -GOLD-   2262023463D 1   1.00000     0.00000
 Structure written by MMmdl.
 37 38  0  0  0  0  0  0  0  0  1 V2000
  152.8616  143.1926  160.7818 C   0  0  0  0  0  0  0  0  0  0  0  0
  152.2465  142.9569  159.4451 C   0  0  0  0  0  0  0  0  0  0  0  0
  151.8832  141.7505  159.0031 N   0  0  0  0  0  0  0  0  0  0  0  0
  151.3294  141.7897  157.7193 C   0  0  0  0  0  0  0  0  0  0  0  0
  150.8470  140.5233  157.0707 C   0  0  0  0  0  0  0  0  0  0  0  0
  150.1656  140.8457  155.7401 C   0  0  0  0  0  0  0  0  0  0  0  0
  150.6359  140.4230  154.6842 O   0  0  0  0  0  0  0  0  0  0  0  0
  149.0469  141.5833  155.8115 N   0  0  0  0  0  0  0  0  0  0  0  0
  148.1675  141.9164  154.6939 C   0  0  2  0  0  0  0  0  0  0  0  0
  146.7779  142.3199  155.2222 C   0  0  0  0  0  0  0  0  0  0  0  0
  146.0228  141.1281  155.8398 C   0  0  0  0  0  0  0  0  0  0  0  0
  145.9069  139.9505  154.8523 C   0  0  2  0  0  0  0  0  0  0  0  0
  145.1730  138.7598  155.4851 C   0  0  0  0  0  0  0  0  0  0  0  0
  147.2975  139.5395  154.3307 C   0  0  0  0  0  0  0  0  0  0  0  0
  148.0464  140.7328  153.7105 C   0  0  0  0  0  0  0  0  0  0  0  0
  151.2912  143.0560  157.1876 C   0  0  0  0  0  0  0  0  0  0  0  0
  151.9311  144.2442  158.2884 S   0  0  0  0  0  0  0  0  0  0  0  0
  152.6235  142.3741  161.4617 H   0  0  0  0  0  0  0  0  0  0  0  0
  152.4841  144.1214  161.2098 H   0  0  0  0  0  0  0  0  0  0  0  0
  153.9449  143.2651  160.6854 H   0  0  0  0  0  0  0  0  0  0  0  0
  151.6782  139.8399  156.8930 H   0  0  0  0  0  0  0  0  0  0  0  0
  150.1463  139.9950  157.7192 H   0  0  0  0  0  0  0  0  0  0  0  0
  148.7472  141.8906  156.7251 H   0  0  0  0  0  0  0  0  0  0  0  0
  148.5933  142.7723  154.1670 H   0  0  0  0  0  0  0  0  0  0  0  0
  146.8716  143.1225  155.9548 H   0  0  0  0  0  0  0  0  0  0  0  0
  146.1879  142.7279  154.4005 H   0  0  0  0  0  0  0  0  0  0  0  0
  146.5331  140.7999  156.7463 H   0  0  0  0  0  0  0  0  0  0  0  0
  145.0288  141.4511  156.1508 H   0  0  0  0  0  0  0  0  0  0  0  0
  145.3151  140.2858  153.9994 H   0  0  0  0  0  0  0  0  0  0  0  0
  145.7158  138.3732  156.3483 H   0  0  0  0  0  0  0  0  0  0  0  0
  145.0597  137.9441  154.7704 H   0  0  0  0  0  0  0  0  0  0  0  0
  144.1753  139.0456  155.8192 H   0  0  0  0  0  0  0  0  0  0  0  0
  147.8892  139.1173  155.1444 H   0  0  0  0  0  0  0  0  0  0  0  0
  147.1966  138.7491  153.5862 H   0  0  0  0  0  0  0  0  0  0  0  0
  147.5126  141.0631  152.8186 H   0  0  0  0  0  0  0  0  0  0  0  0
  149.0324  140.4157  153.3689 H   0  0  0  0  0  0  0  0  0  0  0  0
  150.9154  143.3620  156.2227 H   0  0  0  0  0  0  0  0  0  0  0  0
  1  2  1  0  0  0  0
  1 18  1  0  0  0  0
  1 19  1  0  0  0  0
  1 20  1  0  0  0  0
  2 17  1  0  0  0  0
  2  3  2  0  0  0  0
  3  4  1  0  0  0  0
  4  5  1  0  0  0  0
  4 16  2  0  0  0  0
  5  6  1  0  0  0  0
  5 21  1  0  0  0  0
  5 22  1  0  0  0  0
  6  7  2  0  0  0  0
  6  8  1  0  0  0  0
  8  9  1  0  0  0  0
  8 23  1  0  0  0  0
  9 15  1  0  0  0  0
  9 10  1  0  0  0  0
  9 24  1  0  0  0  0
 10 11  1  0  0  0  0
 10 25  1  0  0  0  0
 10 26  1  0  0  0  0
 11 12  1  0  0  0  0
 11 27  1  0  0  0  0
 11 28  1  0  0  0  0
 12 13  1  0  0  0  0
 12 14  1  0  0  0  0
 12 29  1  0  0  0  0
 13 30  1  0  0  0  0
 13 31  1  0  0  0  0
 13 32  1  0  0  0  0
 14 15  1  0  0  0  0
 14 33  1  0  0  0  0
 14 34  1  0  0  0  0
 15 35  1  0  0  0  0
 15 36  1  0  0  0  0
 16 17  1  0  0  0  0
 16 37  1  0  0  0  0
M  END
> <s_m_source_file>
AV-unprocessed.smi

> <i_m_source_file_index>
569

> <i_lp_mmshare_version>
43012

> <i_f3d_flags>
0

> <s_epik_input>
W0NIM11jMW5jKFtjSF1zMSlbQ0gyXUMoPU8pW05IXVtDQEBIXTJbQ0gyXVtDSDJdW0NAQEhdKFtDSDNdKVtDSDJdW0NIMl0y

> <s_epik_cmdline>
J2VwaWtfcHl0aG9uJywgJy1waCcsICc3LjAnLCAnLXRuJywgJzgnLCAnLW1hJywgJzIwMCcsICctbWV0YWxfYmluZGluZycsICctaW1hZScsICc8aW5maWxlLm1hZT4nLCAnLW9tYWUnLCAnPG91dGZpbGUubWFlPic=

> <r_lp_tautomer_probability>
1

> <r_epik_Ionization_Penalty>
6.63234e-05

> <r_epik_Ionization_Penalty_Charging>
0

> <r_epik_Ionization_Penalty_Neutral>
6.63234e-05

> <r_epik_State_Penalty>
-0

> <r_epik_Charging_Adjusted_Penalty>
0

> <i_epik_Tot_Q>
0

> <i_epik_Tot_abs_Q>
0

> <r_epik_Metal_State_Penalty>
-0

> <b_epik_Metal_Only>
0

> <s_lp_Force_Field>
OPLS_2005

> <r_lp_Energy>
5.61603

> <b_lp_Chiralities_Consistent>
1

> <s_lp_Variant>
AV-unprocessed.smi:569-2

> <Gold.Version>
5.8.1

> <Gold.Id.Protein>
6NUR|6NUR_protein|mol2

> <Gold.PLP.Fitness>
35.8773

> <Gold.PLP.PLP>
-30.5651

> <Gold.PLP.part.hbond>
-1.5991

> <Gold.PLP.part.metal>
0.0000

> <Gold.PLP.part.buried>
-1.1216

> <Gold.PLP.part.nonpolar>
-27.8346

> <Gold.PLP.part.repulsive>
0.1722

> <Gold.PLP.ligand.clash>
0.0000

> <Gold.PLP.ligand.torsion>
0.3460

> <Gold.PLP.Chemscore.Hbond>
1.0000

> <Gold.PLP.Chemscore.CHOScore>
1.0000

> <Gold.PLP.Chemscore.Metal>
0.0000

> <Gold.Chemscore.Hbonds>
donor molecule, donor type, donor heavy atom, donor atom, acceptor molecule, acceptor atom, score
      P1  H  7989  7998       L1     7  1.00
      L1  C    16    37       P1  8028  0.99

> <Gold.PLP.Chemscore.Internal.Correction>
0.0042

> <Gold.Rescore>
     Score         DG    S(hbond)    S(metal)    S(lipo)     H(rot)  DE(clash)    DE(int)     intcor
     14.11     -15.31       0.99        0.00      83.45       1.26       0.10       1.10       ----

> <Gold.Chemscore.Fitness>
14.1137

> <Gold.Chemscore.DG>
-15.3147

> <Gold.Chemscore.ZeroCoef>
-5.4800

> <Gold.Chemscore.Hbond>
0.9886

> <Gold.Chemscore.Metal>
0.0000

> <Gold.Chemscore.Lipo>
83.4478

> <Gold.Chemscore.Internal_Hbond>
0.0000

> <Gold.Chemscore.DEClash>
0.0985

> <Gold.Chemscore.DEInternal>
1.1025

> <Gold.Chemscore.Rot>
1.2620

> <Gold.Chemscore.Internal.Correction>
   9.000000E+99

> <Gold.Chemscore.Hbonds>
donor molecule, donor type, donor heavy atom, donor atom, acceptor molecule, acceptor atom, score
      P1  H  7989  7998       L1     7  0.97

> <Gold.Chemscore.Hbond.Weighted>
-3.3019

> <Gold.Chemscore.Metal.Weighted>
-0.0000

> <Gold.Chemscore.Lipo.Weighted>
-9.7634

> <Gold.Chemscore.Internal_Hbond.Weighted>
0.0000

> <Gold.Chemscore.DEClash.Weighted>
0.0985

> <Gold.Chemscore.DEInternal.Weighted>
1.1025

> <Gold.Chemscore.Rot.Weighted>
3.2306

> <Gold.Chemscore.Internal.Correction.Weighted>
   9.000000E+99

> <Gold.Protein.RotatedTorsions>
[ 6907 6896 6895 6894 ] final  157.20 input  -60.11 | X-H torsion
[ 7974 7965 7964 7962 ] final  -71.93 input  175.53 | X-H torsion
[ 8008 7997 7996 7995 ] final  -50.91 input   59.86 | X-H torsion
[ 10167 10162 10161 10158 ] final  -96.81 input  -65.29 | X-H torsion
[ 10718 10713 10712 10709 ] final -135.78 input   66.30 | X-H torsion
[ 10763 10752 10751 10750 ] final  -66.23 input  -60.55 | X-H torsion
[ 11005 11000 10999 10996 ] final  -33.68 input  -57.11 | X-H torsion

> <Gold.Protein.ActiveResidues>
 VAL166  LYS551  ARG553  GLY616  TRP617  ASP618  TYR619  PRO620  LYS621  CYS622 
 ASP623  PHE694  ASN695  SER759  ASP760  ASP761  ALA762  ILE779  LEU786  VAL792 
 PHE793  MET794  SER795  GLU796  ALA797  LYS798  CYS799  TRP800  GLU811  SER814 

> <Gold.Protein.RotatedAtoms>
  152.0186  133.3889  159.4248 H   0  0  0  0  0  0  0  0  0  0  0  0  # atno 6907 bound_to 6896
  150.6892  134.3651  159.4977 H   0  0  0  0  0  0  0  0  0  0  0  0  # atno 6908 bound_to 6896
  152.1422  134.9053  160.0604 H   0  0  0  0  0  0  0  0  0  0  0  0  # atno 6909 bound_to 6896
  145.6717  140.9218  143.0879 H   0  0  0  0  0  0  0  0  0  0  0  0  # atno 7974 bound_to 7965
  154.4071  140.1261  156.4742 H   0  0  0  0  0  0  0  0  0  0  0  0  # atno 8008 bound_to 7997
  155.7149  140.3493  155.4970 H   0  0  0  0  0  0  0  0  0  0  0  0  # atno 8009 bound_to 7997
  155.9267  140.1062  157.1155 H   0  0  0  0  0  0  0  0  0  0  0  0  # atno 8010 bound_to 7997
  140.2899  143.3228  152.0356 H   0  0  0  0  0  0  0  0  0  0  0  0  # atno 10167 bound_to 10162
  156.2698  130.7259  151.1222 H   0  0  0  0  0  0  0  0  0  0  0  0  # atno 10718 bound_to 10713
  154.3568  135.6124  153.5670 H   0  0  0  0  0  0  0  0  0  0  0  0  # atno 10763 bound_to 10752
  152.9795  135.5805  154.4680 H   0  0  0  0  0  0  0  0  0  0  0  0  # atno 10764 bound_to 10752
  154.4410  135.2850  155.1825 H   0  0  0  0  0  0  0  0  0  0  0  0  # atno 10765 bound_to 10752
  140.9655  133.7140  156.1437 H   0  0  0  0  0  0  0  0  0  0  0  0  # atno 11005 bound_to 11000
  144.7054  139.8581  143.7431 LP  0  0  0  0  0  0  0  0  0  0  0  0  # atno 17320 bound_to 7965
  146.1039  139.4037  143.0329 LP  0  0  0  0  0  0  0  0  0  0  0  0  # atno 17321 bound_to 7965
  139.4940  144.6532  151.6629 LP  0  0  0  0  0  0  0  0  0  0  0  0  # atno 17342 bound_to 10162
  140.5741  144.0059  150.6232 LP  0  0  0  0  0  0  0  0  0  0  0  0  # atno 17343 bound_to 10162
  157.7280  131.0635  150.5840 LP  0  0  0  0  0  0  0  0  0  0  0  0  # atno 17370 bound_to 10713
  156.5935  130.4335  149.5926 LP  0  0  0  0  0  0  0  0  0  0  0  0  # atno 17371 bound_to 10713
  140.7406  134.4154  157.5555 LP  0  0  0  0  0  0  0  0  0  0  0  0  # atno 17394 bound_to 11000
  139.8893  134.8834  156.2429 LP  0  0  0  0  0  0  0  0  0  0  0  0  # atno 17395 bound_to 11000

$$$$
