AV-unprocessed.smi:697|AV-procd|sdf|3396|dock10
  -GOLD-   22720 0373D 1   1.00000     0.00000
 Structure written by MMmdl.
 43 44  0  0  0  0  0  0  0  0  2 V2000
  149.7311  141.3552  155.3623 C   0  0  0  0  0  0  0  0  0  0  0  0
  150.6472  140.5256  154.6594 O   0  0  0  0  0  0  0  0  0  0  0  0
  151.1558  139.3973  155.3729 C   0  0  2  0  0  0  0  0  0  0  0  0
  151.9275  139.8655  156.6165 C   0  0  0  0  0  0  0  0  0  0  0  0
  151.8409  138.3824  154.4397 C   0  0  0  0  0  0  0  0  0  0  0  0
  151.1050  137.2975  155.2225 C   0  0  2  0  0  0  0  0  0  0  0  0
  150.6657  136.1935  154.3760 N   0  0  0  0  0  0  0  0  0  0  0  0
  150.0079  135.1141  154.8194 C   0  0  0  0  0  0  0  0  0  0  0  0
  149.7327  134.9366  156.0059 O   0  0  0  0  0  0  0  0  0  0  0  0
  149.7100  134.2862  153.8016 N   0  0  0  0  0  0  0  0  0  0  0  0
  148.9956  133.0755  153.8056 C   0  0  0  0  0  0  0  0  0  0  0  0
  149.5318  131.8509  154.0667 C   0  0  0  0  0  0  0  0  0  0  0  0
  148.7317  130.6329  154.0697 C   0  0  0  0  0  0  0  0  0  0  0  0
  149.3140  129.2439  154.2634 C   0  0  0  0  0  0  0  0  0  0  0  0
  148.8276  128.6677  155.3628 F   0  0  0  0  0  0  0  0  0  0  0  0
  149.0380  128.4607  153.2206 F   0  0  0  0  0  0  0  0  0  0  0  0
  150.6382  129.3209  154.3858 F   0  0  0  0  0  0  0  0  0  0  0  0
  147.4053  130.8760  153.7704 C   0  0  0  0  0  0  0  0  0  0  0  0
  146.7908  132.0538  153.5253 N   0  5  0  0  0  0  0  0  0  0  0  0
  147.5480  133.1870  153.5286 C   0  0  0  0  0  0  0  0  0  0  0  0
  147.0521  134.2926  153.3086 O   0  0  0  0  0  0  0  0  0  0  0  0
  150.0104  138.3472  155.5446 C   0  0  0  0  0  0  0  0  0  0  0  0
  149.3731  138.2408  156.9340 C   0  0  0  0  0  0  0  0  0  0  0  0
  148.8358  138.4552  154.5507 C   0  0  0  0  0  0  0  0  0  0  0  0
  149.5046  142.2305  154.7538 H   0  0  0  0  0  0  0  0  0  0  0  0
  150.1421  141.7093  156.3078 H   0  0  0  0  0  0  0  0  0  0  0  0
  148.7886  140.8449  155.5577 H   0  0  0  0  0  0  0  0  0  0  0  0
  152.2066  139.0312  157.2595 H   0  0  0  0  0  0  0  0  0  0  0  0
  151.3324  140.5548  157.2159 H   0  0  0  0  0  0  0  0  0  0  0  0
  152.8556  140.3715  156.3521 H   0  0  0  0  0  0  0  0  0  0  0  0
  151.5260  138.4621  153.3974 H   0  0  0  0  0  0  0  0  0  0  0  0
  152.9270  138.3426  154.5261 H   0  0  0  0  0  0  0  0  0  0  0  0
  151.6680  136.9816  156.1037 H   0  0  0  0  0  0  0  0  0  0  0  0
  150.8601  136.2650  153.3880 H   0  0  0  0  0  0  0  0  0  0  0  0
  150.0554  134.5558  152.8920 H   0  0  0  0  0  0  0  0  0  0  0  0
  150.5769  131.7385  154.3012 H   0  0  0  0  0  0  0  0  0  0  0  0
  146.7373  129.9901  153.7170 H   0  0  0  0  0  0  0  0  0  0  0  0
  148.6292  137.4442  156.9744 H   0  0  0  0  0  0  0  0  0  0  0  0
  148.8770  139.1694  157.2172 H   0  0  0  0  0  0  0  0  0  0  0  0
  150.1097  138.0165  157.7049 H   0  0  0  0  0  0  0  0  0  0  0  0
  148.1810  137.5849  154.6046 H   0  0  0  0  0  0  0  0  0  0  0  0
  149.1735  138.5359  153.5175 H   0  0  0  0  0  0  0  0  0  0  0  0
  148.2211  139.3324  154.7549 H   0  0  0  0  0  0  0  0  0  0  0  0
  1  2  1  0  0  0  0
  1 25  1  0  0  0  0
  1 26  1  0  0  0  0
  1 27  1  0  0  0  0
  2  3  1  0  0  0  0
  3 22  1  0  0  0  0
  3  4  1  0  0  0  0
  3  5  1  0  0  0  0
  4 28  1  0  0  0  0
  4 29  1  0  0  0  0
  4 30  1  0  0  0  0
  5  6  1  0  0  0  0
  5 31  1  0  0  0  0
  5 32  1  0  0  0  0
  6  7  1  0  0  0  0
  6 22  1  0  0  0  0
  6 33  1  0  0  0  0
  7  8  1  0  0  0  0
  7 34  1  0  0  0  0
  8  9  2  0  0  0  0
  8 10  1  0  0  0  0
 10 11  1  0  0  0  0
 10 35  1  0  0  0  0
 11 20  1  0  0  0  0
 11 12  2  0  0  0  0
 12 13  1  0  0  0  0
 12 36  1  0  0  0  0
 13 14  1  0  0  0  0
 13 18  2  0  0  0  0
 14 15  1  0  0  0  0
 14 16  1  0  0  0  0
 14 17  1  0  0  0  0
 18 19  1  0  0  0  0
 18 37  1  0  0  0  0
 19 20  1  0  0  0  0
 20 21  2  0  0  0  0
 22 23  1  0  0  0  0
 22 24  1  0  0  0  0
 23 38  1  0  0  0  0
 23 39  1  0  0  0  0
 23 40  1  0  0  0  0
 24 41  1  0  0  0  0
 24 42  1  0  0  0  0
 24 43  1  0  0  0  0
M  CHG  1  19  -1
M  END
> <s_m_source_file>
AV-unprocessed.smi

> <i_m_source_file_index>
697

> <i_lp_mmshare_version>
43012

> <i_f3d_flags>
0

> <s_epik_input>
W0NIM11PW0NAQF0xKFtDSDNdKVtDSDJdW0NASF0oQzEoW0NIM10pW0NIM10pW05IXUMoPU8pW05IXWMyW2NIXWMoQyhGKShGKUYpW2NIXVtuSF1jMj1P

> <s_epik_cmdline>
J2VwaWtfcHl0aG9uJywgJy1waCcsICc3LjAnLCAnLXRuJywgJzgnLCAnLW1hJywgJzIwMCcsICctbWV0YWxfYmluZGluZycsICctaW1hZScsICc8aW5maWxlLm1hZT4nLCAnLW9tYWUnLCAnPG91dGZpbGUubWFlPic=

> <r_lp_tautomer_probability>
1

> <r_epik_Ionization_Penalty>
3.20094

> <r_epik_Ionization_Penalty_Charging>
0.180017

> <r_epik_Ionization_Penalty_Neutral>
3.02092

> <r_epik_State_Penalty>
3.01726

> <r_epik_Charging_Adjusted_Penalty>
3.19727

> <i_epik_Tot_Q>
-1

> <i_epik_Tot_abs_Q>
1

> <r_epik_Metal_State_Penalty>
0.455096

> <b_epik_Metal_Only>
1

> <s_lp_Force_Field>
OPLS_2005

> <r_lp_Energy>
36.1222

> <b_lp_Chiralities_Consistent>
1

> <s_lp_Variant>
AV-unprocessed.smi:697-8

> <Gold.Version>
5.8.1

> <Gold.Id.Protein>
6NUR|6NUR_protein|mol2

> <Gold.PLP.Fitness>
40.5551

> <Gold.PLP.PLP>
-36.7157

> <Gold.PLP.part.hbond>
-4.3423

> <Gold.PLP.part.metal>
0.0000

> <Gold.PLP.part.buried>
-2.7804

> <Gold.PLP.part.nonpolar>
-30.6180

> <Gold.PLP.part.repulsive>
1.3722

> <Gold.PLP.ligand.clash>
0.0000

> <Gold.PLP.ligand.torsion>
1.0647

> <Gold.PLP.Chemscore.Hbond>
1.8500

> <Gold.PLP.Chemscore.CHOScore>
0.0000

> <Gold.PLP.Chemscore.Metal>
0.0000

> <Gold.Chemscore.Hbonds>
donor molecule, donor type, donor heavy atom, donor atom, acceptor molecule, acceptor atom, score
      L1  H     7    34       P1  7949  0.75
      P1  H  7989  7998       L1     2  1.00

> <Gold.PLP.Chemscore.Internal.Correction>
0.4188

> <Gold.Rescore>
     Score         DG    S(hbond)    S(metal)    S(lipo)     H(rot)  DE(clash)    DE(int)     intcor
     12.10     -13.08       0.96        0.00      65.89       1.30       0.01       0.97       ----

> <Gold.Chemscore.Fitness>
12.1007

> <Gold.Chemscore.DG>
-13.0789

> <Gold.Chemscore.ZeroCoef>
-5.4800

> <Gold.Chemscore.Hbond>
0.9612

> <Gold.Chemscore.Metal>
0.0000

> <Gold.Chemscore.Lipo>
65.8920

> <Gold.Chemscore.Internal_Hbond>
0.0000

> <Gold.Chemscore.DEClash>
0.0067

> <Gold.Chemscore.DEInternal>
0.9715

> <Gold.Chemscore.Rot>
1.2973

> <Gold.Chemscore.Internal.Correction>
   9.000000E+99

> <Gold.Chemscore.Hbonds>
donor molecule, donor type, donor heavy atom, donor atom, acceptor molecule, acceptor atom, score
      L1  H     7    34       P1  7949  0.09
      P1  H  7989  7998       L1     2  0.65

> <Gold.Chemscore.Hbond.Weighted>
-3.2105

> <Gold.Chemscore.Metal.Weighted>
-0.0000

> <Gold.Chemscore.Lipo.Weighted>
-7.7094

> <Gold.Chemscore.Internal_Hbond.Weighted>
0.0000

> <Gold.Chemscore.DEClash.Weighted>
0.0067

> <Gold.Chemscore.DEInternal.Weighted>
0.9715

> <Gold.Chemscore.Rot.Weighted>
3.3210

> <Gold.Chemscore.Internal.Correction.Weighted>
   9.000000E+99

> <Gold.Protein.RotatedTorsions>
[ 6907 6896 6895 6894 ] final   -3.79 input  -60.11 | X-H torsion
[ 7974 7965 7964 7962 ] final -138.52 input  175.53 | X-H torsion
[ 8008 7997 7996 7995 ] final  179.31 input   59.86 | X-H torsion
[ 10167 10162 10161 10158 ] final   21.52 input  -65.29 | X-H torsion
[ 10718 10713 10712 10709 ] final  -11.39 input   66.30 | X-H torsion
[ 10763 10752 10751 10750 ] final   62.42 input  -60.55 | X-H torsion
[ 11005 11000 10999 10996 ] final  -78.53 input  -57.11 | X-H torsion

> <Gold.Protein.ActiveResidues>
 VAL166  LYS551  ARG553  GLY616  TRP617  ASP618  TYR619  PRO620  LYS621  CYS622 
 ASP623  PHE694  ASN695  SER759  ASP760  ASP761  ALA762  ILE779  LEU786  VAL792 
 PHE793  MET794  SER795  GLU796  ALA797  LYS798  CYS799  TRP800  GLU811  SER814 

> <Gold.Protein.RotatedAtoms>
  151.5082  135.1064  159.9846 H   0  0  0  0  0  0  0  0  0  0  0  0  # atno 6907 bound_to 6896
  152.4673  133.7947  159.6931 H   0  0  0  0  0  0  0  0  0  0  0  0  # atno 6908 bound_to 6896
  150.8663  133.7506  159.3001 H   0  0  0  0  0  0  0  0  0  0  0  0  # atno 6909 bound_to 6896
  144.8751  140.6425  143.5242 H   0  0  0  0  0  0  0  0  0  0  0  0  # atno 7974 bound_to 7965
  156.0449  140.1312  157.0115 H   0  0  0  0  0  0  0  0  0  0  0  0  # atno 8008 bound_to 7997
  154.4407  140.1023  156.6361 H   0  0  0  0  0  0  0  0  0  0  0  0  # atno 8009 bound_to 7997
  155.5612  140.3465  155.4494 H   0  0  0  0  0  0  0  0  0  0  0  0  # atno 8010 bound_to 7997
  140.5420  143.9661  150.6525 H   0  0  0  0  0  0  0  0  0  0  0  0  # atno 10167 bound_to 10162
  156.6597  130.4978  149.6034 H   0  0  0  0  0  0  0  0  0  0  0  0  # atno 10718 bound_to 10713
  152.9982  135.5466  154.6190 H   0  0  0  0  0  0  0  0  0  0  0  0  # atno 10763 bound_to 10752
  154.5493  135.2825  155.1025 H   0  0  0  0  0  0  0  0  0  0  0  0  # atno 10764 bound_to 10752
  154.2271  135.6440  153.5216 H   0  0  0  0  0  0  0  0  0  0  0  0  # atno 10765 bound_to 10752
  141.1665  133.7067  156.7986 H   0  0  0  0  0  0  0  0  0  0  0  0  # atno 11005 bound_to 11000
  145.4057  139.1589  143.4153 LP  0  0  0  0  0  0  0  0  0  0  0  0  # atno 17320 bound_to 7965
  146.2957  140.4157  142.8722 LP  0  0  0  0  0  0  0  0  0  0  0  0  # atno 17321 bound_to 7965
  140.3064  143.3227  152.0922 LP  0  0  0  0  0  0  0  0  0  0  0  0  # atno 17342 bound_to 10162
  139.4992  144.6664  151.6345 LP  0  0  0  0  0  0  0  0  0  0  0  0  # atno 17343 bound_to 10162
  156.2020  130.6626  151.1178 LP  0  0  0  0  0  0  0  0  0  0  0  0  # atno 17370 bound_to 10713
  157.7113  131.0732  150.6488 LP  0  0  0  0  0  0  0  0  0  0  0  0  # atno 17371 bound_to 10713
  140.2273  134.8712  157.3439 LP  0  0  0  0  0  0  0  0  0  0  0  0  # atno 17394 bound_to 11000
  140.1927  134.4352  155.7706 LP  0  0  0  0  0  0  0  0  0  0  0  0  # atno 17395 bound_to 11000

$$$$
