AV-unprocessed.smi:3140|AV-procd|sdf|11961|dock2
  -GOLD-   2272017363D 1   1.00000     0.00000
 Structure written by MMmdl.
 37 38  0  0  0  0  0  0  0  0  1 V2000
  150.9124  141.5211  156.0061 C   0  0  0  0  0  0  0  0  0  0  0  0
  150.6769  142.2134  157.3602 C   0  0  1  0  0  0  0  0  0  0  0  0
  151.6630  143.3822  157.5596 C   0  0  0  0  0  0  0  0  0  0  0  0
  151.8922  143.6832  158.9625 N   0  0  0  0  0  0  0  0  0  0  0  0
  151.7003  144.8791  159.6219 C   0  0  0  0  0  0  0  0  0  0  0  0
  152.0490  144.6846  160.9277 C   0  0  0  0  0  0  0  0  0  0  0  0
  152.4432  143.3181  160.9716 C   0  0  0  0  0  0  0  0  0  0  0  0
  152.3454  142.7204  159.7950 N   0  0  0  0  0  0  0  0  0  0  0  0
  149.3127  142.7272  157.4298 N   0  0  0  0  0  0  0  0  0  0  0  0
  148.3414  141.6890  157.7381 C   0  0  0  0  0  0  0  0  0  0  0  0
  148.0108  140.9058  156.4590 C   0  0  0  0  0  0  0  0  0  0  0  0
  147.2298  141.7148  155.5283 N   0  0  0  0  0  0  0  0  0  0  0  0
  145.9357  142.2504  155.9159 C   0  0  0  0  0  0  0  0  0  0  0  0
  145.3534  142.8536  154.6294 C   0  0  0  0  0  0  0  0  0  0  0  0
  146.5228  142.9380  153.6421 C   0  0  0  0  0  0  0  0  0  0  0  0
  147.5968  142.0847  154.2956 C   0  0  0  0  0  0  0  0  0  0  0  0
  148.6521  141.7945  153.7339 O   0  0  0  0  0  0  0  0  0  0  0  0
  151.9427  141.1746  155.9227 H   0  0  0  0  0  0  0  0  0  0  0  0
  150.7259  142.2007  155.1737 H   0  0  0  0  0  0  0  0  0  0  0  0
  150.2729  140.6486  155.8751 H   0  0  0  0  0  0  0  0  0  0  0  0
  150.8341  141.4917  158.1631 H   0  0  0  0  0  0  0  0  0  0  0  0
  152.6281  143.1329  157.1171 H   0  0  0  0  0  0  0  0  0  0  0  0
  151.3119  144.2803  157.0478 H   0  0  0  0  0  0  0  0  0  0  0  0
  151.3378  145.7588  159.1110 H   0  0  0  0  0  0  0  0  0  0  0  0
  152.0255  145.4079  161.7292 H   0  0  0  0  0  0  0  0  0  0  0  0
  152.7933  142.7461  161.8183 H   0  0  0  0  0  0  0  0  0  0  0  0
  149.0715  143.1984  156.5696 H   0  0  0  0  0  0  0  0  0  0  0  0
  148.7378  141.0145  158.4963 H   0  0  0  0  0  0  0  0  0  0  0  0
  147.4358  142.1431  158.1421 H   0  0  0  0  0  0  0  0  0  0  0  0
  148.9307  140.5807  155.9702 H   0  0  0  0  0  0  0  0  0  0  0  0
  147.4531  139.9994  156.7017 H   0  0  0  0  0  0  0  0  0  0  0  0
  145.2904  141.4731  156.3273 H   0  0  0  0  0  0  0  0  0  0  0  0
  146.0778  143.0172  156.6784 H   0  0  0  0  0  0  0  0  0  0  0  0
  144.5772  142.2009  154.2279 H   0  0  0  0  0  0  0  0  0  0  0  0
  144.9002  143.8288  154.8102 H   0  0  0  0  0  0  0  0  0  0  0  0
  146.2575  142.5584  152.6550 H   0  0  0  0  0  0  0  0  0  0  0  0
  146.8847  143.9615  153.5396 H   0  0  0  0  0  0  0  0  0  0  0  0
  1  2  1  0  0  0  0
  1 18  1  0  0  0  0
  1 19  1  0  0  0  0
  1 20  1  0  0  0  0
  2  3  1  0  0  0  0
  2  9  1  0  0  0  0
  2 21  1  0  0  0  0
  3  4  1  0  0  0  0
  3 22  1  0  0  0  0
  3 23  1  0  0  0  0
  4  8  1  0  0  0  0
  4  5  1  0  0  0  0
  5  6  2  0  0  0  0
  5 24  1  0  0  0  0
  6  7  1  0  0  0  0
  6 25  1  0  0  0  0
  7  8  2  0  0  0  0
  7 26  1  0  0  0  0
  9 10  1  0  0  0  0
  9 27  1  0  0  0  0
 10 11  1  0  0  0  0
 10 28  1  0  0  0  0
 10 29  1  0  0  0  0
 11 12  1  0  0  0  0
 11 30  1  0  0  0  0
 11 31  1  0  0  0  0
 12 16  1  0  0  0  0
 12 13  1  0  0  0  0
 13 14  1  0  0  0  0
 13 32  1  0  0  0  0
 13 33  1  0  0  0  0
 14 15  1  0  0  0  0
 14 34  1  0  0  0  0
 14 35  1  0  0  0  0
 15 16  1  0  0  0  0
 15 36  1  0  0  0  0
 15 37  1  0  0  0  0
 16 17  2  0  0  0  0
M  END
> <s_m_source_file>
AV-unprocessed.smi

> <i_m_source_file_index>
3140

> <i_lp_mmshare_version>
43012

> <i_f3d_flags>
0

> <s_epik_input>
bjFbY0hdW2NIXVtjSF1uMVtDSDJdW0NAQEhdKFtDSDNdKVtOSF1bQ0gyXVtDSDJdTjJbQ0gyXVtDSDJdW0NIMl1DMj1P

> <s_epik_cmdline>
J2VwaWtfcHl0aG9uJywgJy1waCcsICc3LjAnLCAnLXRuJywgJzgnLCAnLW1hJywgJzIwMCcsICctbWV0YWxfYmluZGluZycsICctaW1hZScsICc8aW5maWxlLm1hZT4nLCAnLW9tYWUnLCAnPG91dGZpbGUubWFlPic=

> <r_lp_tautomer_probability>
1

> <r_epik_Ionization_Penalty>
2.53587

> <r_epik_Ionization_Penalty_Charging>
0

> <r_epik_Ionization_Penalty_Neutral>
2.53587

> <r_epik_State_Penalty>
2.70334

> <r_epik_Charging_Adjusted_Penalty>
2.70334

> <i_epik_Tot_Q>
0

> <i_epik_Tot_abs_Q>
0

> <r_epik_Metal_State_Penalty>
2.7033

> <b_epik_Metal_Only>
0

> <s_lp_Force_Field>
OPLS_2005

> <r_lp_Energy>
20.5339

> <b_lp_Chiralities_Consistent>
1

> <s_lp_Variant>
AV-unprocessed.smi:3140-4

> <Gold.Version>
5.8.1

> <Gold.Id.Protein>
6NUR|6NUR_protein|mol2

> <Gold.PLP.Fitness>
43.1348

> <Gold.PLP.PLP>
-39.6283

> <Gold.PLP.part.hbond>
-2.0000

> <Gold.PLP.part.metal>
0.0000

> <Gold.PLP.part.buried>
-7.2964

> <Gold.PLP.part.nonpolar>
-30.0700

> <Gold.PLP.part.repulsive>
0.1819

> <Gold.PLP.ligand.clash>
0.0000

> <Gold.PLP.ligand.torsion>
0.5912

> <Gold.PLP.Chemscore.Hbond>
1.5147

> <Gold.PLP.Chemscore.CHOScore>
0.0000

> <Gold.PLP.Chemscore.Metal>
0.0000

> <Gold.Chemscore.Hbonds>
donor molecule, donor type, donor heavy atom, donor atom, acceptor molecule, acceptor atom, score
      L1  H     9    27       P1  8028  0.98
      P1  H  8011  8017       L1    17  0.56

> <Gold.PLP.Chemscore.Internal.Correction>
0.1448

> <Gold.Rescore>
     Score         DG    S(hbond)    S(metal)    S(lipo)     H(rot)  DE(clash)    DE(int)     intcor
     14.15     -14.91       1.46        0.00      81.97       1.97       0.05       0.71       ----

> <Gold.Chemscore.Fitness>
14.1530

> <Gold.Chemscore.DG>
-14.9146

> <Gold.Chemscore.ZeroCoef>
-5.4800

> <Gold.Chemscore.Hbond>
1.4650

> <Gold.Chemscore.Metal>
0.0000

> <Gold.Chemscore.Lipo>
81.9686

> <Gold.Chemscore.Internal_Hbond>
0.0000

> <Gold.Chemscore.DEClash>
0.0517

> <Gold.Chemscore.DEInternal>
0.7099

> <Gold.Chemscore.Rot>
1.9722

> <Gold.Chemscore.Internal.Correction>
   9.000000E+99

> <Gold.Chemscore.Hbonds>
donor molecule, donor type, donor heavy atom, donor atom, acceptor molecule, acceptor atom, score
      L1  H     9    27       P1  8028  0.92
      P1  H  8011  8017       L1    17  0.56

> <Gold.Chemscore.Hbond.Weighted>
-4.8931

> <Gold.Chemscore.Metal.Weighted>
-0.0000

> <Gold.Chemscore.Lipo.Weighted>
-9.5903

> <Gold.Chemscore.Internal_Hbond.Weighted>
0.0000

> <Gold.Chemscore.DEClash.Weighted>
0.0517

> <Gold.Chemscore.DEInternal.Weighted>
0.7099

> <Gold.Chemscore.Rot.Weighted>
5.0487

> <Gold.Chemscore.Internal.Correction.Weighted>
   9.000000E+99

> <Gold.Protein.RotatedTorsions>
[ 6907 6896 6895 6894 ] final   -0.37 input  -60.11 | X-H torsion
[ 7974 7965 7964 7962 ] final   48.61 input  175.53 | X-H torsion
[ 8008 7997 7996 7995 ] final -146.83 input   59.86 | X-H torsion
[ 10167 10162 10161 10158 ] final   82.82 input  -65.29 | X-H torsion
[ 10718 10713 10712 10709 ] final -118.91 input   66.30 | X-H torsion
[ 10763 10752 10751 10750 ] final  112.11 input  -60.55 | X-H torsion
[ 11005 11000 10999 10996 ] final   89.41 input  -57.11 | X-H torsion

> <Gold.Protein.ActiveResidues>
 VAL166  LYS551  ARG553  GLY616  TRP617  ASP618  TYR619  PRO620  LYS621  CYS622 
 ASP623  PHE694  ASN695  SER759  ASP760  ASP761  ALA762  ILE779  LEU786  VAL792 
 PHE793  MET794  SER795  GLU796  ALA797  LYS798  CYS799  TRP800  GLU811  SER814 

> <Gold.Protein.RotatedAtoms>
  151.5633  135.1065  159.9977 H   0  0  0  0  0  0  0  0  0  0  0  0  # atno 6907 bound_to 6896
  152.4436  133.7490  159.6694 H   0  0  0  0  0  0  0  0  0  0  0  0  # atno 6908 bound_to 6896
  150.8346  133.7966  159.3108 H   0  0  0  0  0  0  0  0  0  0  0  0  # atno 6909 bound_to 6896
  146.0188  139.4627  142.9910 H   0  0  0  0  0  0  0  0  0  0  0  0  # atno 7974 bound_to 7965
  155.5657  140.0629  157.2818 H   0  0  0  0  0  0  0  0  0  0  0  0  # atno 8008 bound_to 7997
  154.4376  140.1878  156.0873 H   0  0  0  0  0  0  0  0  0  0  0  0  # atno 8009 bound_to 7997
  156.0414  140.3295  155.7251 H   0  0  0  0  0  0  0  0  0  0  0  0  # atno 8010 bound_to 7997
  139.9248  144.6189  150.8403 H   0  0  0  0  0  0  0  0  0  0  0  0  # atno 10167 bound_to 10162
  156.1141  130.6272  150.9350 H   0  0  0  0  0  0  0  0  0  0  0  0  # atno 10718 bound_to 10713
  153.4731  135.3696  155.2402 H   0  0  0  0  0  0  0  0  0  0  0  0  # atno 10763 bound_to 10752
  154.8756  135.3936  154.3788 H   0  0  0  0  0  0  0  0  0  0  0  0  # atno 10764 bound_to 10752
  153.4380  135.7083  153.6252 H   0  0  0  0  0  0  0  0  0  0  0  0  # atno 10765 bound_to 10752
  139.8876  134.8550  156.3138 H   0  0  0  0  0  0  0  0  0  0  0  0  # atno 11005 bound_to 11000
  145.7226  141.0069  143.1394 LP  0  0  0  0  0  0  0  0  0  0  0  0  # atno 17320 bound_to 7965
  144.6981  139.8889  143.7452 LP  0  0  0  0  0  0  0  0  0  0  0  0  # atno 17321 bound_to 7965
  140.7653  143.3271  151.2491 LP  0  0  0  0  0  0  0  0  0  0  0  0  # atno 17342 bound_to 10162
  139.6831  143.9820  152.2819 LP  0  0  0  0  0  0  0  0  0  0  0  0  # atno 17343 bound_to 10162
  157.6324  131.0919  150.8415 LP  0  0  0  0  0  0  0  0  0  0  0  0  # atno 17370 bound_to 10713
  156.8521  130.5084  149.5311 LP  0  0  0  0  0  0  0  0  0  0  0  0  # atno 17371 bound_to 10713
  140.9832  133.7254  156.0703 LP  0  0  0  0  0  0  0  0  0  0  0  0  # atno 17394 bound_to 11000
  140.7722  134.3820  157.5505 LP  0  0  0  0  0  0  0  0  0  0  0  0  # atno 17395 bound_to 11000

$$$$
