AV-unprocessed.smi:165|AV-procd|sdf|1387|dock10
  -GOLD-   2262019123D 1   1.00000     0.00000
 Structure written by MMmdl.
 55 59  0  0  0  0  0  0  0  0  1 V2000
  146.6240  130.7554  150.9270 O   0  0  0  0  0  0  0  0  0  0  0  0
  145.8491  131.3670  149.9164 C   0  0  0  0  0  0  0  0  0  0  0  0
  145.2416  132.7024  150.3810 C   0  0  0  0  0  0  0  0  0  0  0  0
  144.1157  133.1181  149.4108 C   0  0  0  0  0  0  0  0  0  0  0  0
  143.0852  132.1544  149.3386 O   0  0  0  0  0  0  0  0  0  0  0  0
  144.8192  132.7233  151.8683 C   0  0  0  0  0  0  0  0  0  0  0  0
  145.3858  134.1377  152.0018 C   0  0  0  0  0  0  0  0  0  0  0  0
  145.9679  134.5965  153.2324 N   0  0  0  0  0  0  0  0  0  0  0  0
  145.5568  135.6820  153.9739 C   0  0  0  0  0  0  0  0  0  0  0  0
  146.2390  135.9050  155.0633 N   0  0  0  0  0  0  0  0  0  0  0  0
  147.1917  134.8935  155.0800 C   0  0  0  0  0  0  0  0  0  0  0  0
  148.2460  134.5442  155.9702 C   0  0  0  0  0  0  0  0  0  0  0  0
  148.4967  135.2362  157.1096 N   0  0  0  0  0  0  0  0  0  0  0  0
  149.7596  135.9567  157.2192 C   0  0  0  0  0  0  0  0  0  0  0  0
  149.7022  136.9279  158.4067 C   0  0  0  0  0  0  0  0  0  0  0  0
  149.3278  136.2316  159.5944 O   0  0  0  0  0  0  0  0  0  0  0  0
  148.0828  135.5211  159.5360 C   0  0  1  0  0  0  0  0  0  0  0  0
  147.9680  134.7234  160.8484 C   0  0  0  0  0  0  0  0  0  0  0  0
  147.7596  135.6587  162.0453 C   0  0  0  0  0  0  0  0  0  0  0  0
  146.5718  136.5959  161.7896 C   0  0  0  0  0  0  0  0  0  0  0  0
  146.7819  137.3202  160.5839 O   0  0  0  0  0  0  0  0  0  0  0  0
  146.8709  136.4851  159.4334 C   0  0  0  0  0  0  0  0  0  0  0  0
  148.1314  134.5435  158.3403 C   0  0  0  0  0  0  0  0  0  0  0  0
  149.0126  133.4698  155.6428 N   0  0  0  0  0  0  0  0  0  0  0  0
  148.7589  132.7758  154.5296 C   0  0  0  0  0  0  0  0  0  0  0  0
  147.8073  132.9810  153.6175 N   0  0  0  0  0  0  0  0  0  0  0  0
  147.0403  134.0646  153.9323 C   0  0  0  0  0  0  0  0  0  0  0  0
  146.2469  133.8075  150.7819 C   0  0  0  0  0  0  0  0  0  0  0  0
  147.5132  130.6759  150.6174 H   0  0  0  0  0  0  0  0  0  0  0  0
  146.4664  131.4996  149.0273 H   0  0  0  0  0  0  0  0  0  0  0  0
  145.0644  130.6615  149.6410 H   0  0  0  0  0  0  0  0  0  0  0  0
  143.6801  134.0745  149.7021 H   0  0  0  0  0  0  0  0  0  0  0  0
  144.5009  133.2581  148.4005 H   0  0  0  0  0  0  0  0  0  0  0  0
  142.2598  132.6032  149.2394 H   0  0  0  0  0  0  0  0  0  0  0  0
  143.7449  132.6519  152.0411 H   0  0  0  0  0  0  0  0  0  0  0  0
  145.3557  131.9950  152.4779 H   0  0  0  0  0  0  0  0  0  0  0  0
  144.6245  134.8702  151.7271 H   0  0  0  0  0  0  0  0  0  0  0  0
  144.7284  136.3108  153.6813 H   0  0  0  0  0  0  0  0  0  0  0  0
  150.5725  135.2432  157.3604 H   0  0  0  0  0  0  0  0  0  0  0  0
  149.9641  136.5097  156.3014 H   0  0  0  0  0  0  0  0  0  0  0  0
  150.6817  137.3795  158.5632 H   0  0  0  0  0  0  0  0  0  0  0  0
  149.0160  137.7502  158.2064 H   0  0  0  0  0  0  0  0  0  0  0  0
  147.1244  134.0346  160.7861 H   0  0  0  0  0  0  0  0  0  0  0  0
  148.8565  134.1097  161.0018 H   0  0  0  0  0  0  0  0  0  0  0  0
  147.5902  135.0763  162.9511 H   0  0  0  0  0  0  0  0  0  0  0  0
  148.6609  136.2486  162.2166 H   0  0  0  0  0  0  0  0  0  0  0  0
  145.6375  136.0353  161.7319 H   0  0  0  0  0  0  0  0  0  0  0  0
  146.4687  137.3034  162.6124 H   0  0  0  0  0  0  0  0  0  0  0  0
  146.9238  137.1127  158.5450 H   0  0  0  0  0  0  0  0  0  0  0  0
  145.9454  135.9154  159.3356 H   0  0  0  0  0  0  0  0  0  0  0  0
  147.1742  134.0317  158.2447 H   0  0  0  0  0  0  0  0  0  0  0  0
  148.8768  133.7685  158.5248 H   0  0  0  0  0  0  0  0  0  0  0  0
  149.4112  131.9353  154.3440 H   0  0  0  0  0  0  0  0  0  0  0  0
  147.2277  133.4085  151.0446 H   0  0  0  0  0  0  0  0  0  0  0  0
  146.3430  134.6251  150.0671 H   0  0  0  0  0  0  0  0  0  0  0  0
  1  2  1  0  0  0  0
  1 29  1  0  0  0  0
  2  3  1  0  0  0  0
  2 30  1  0  0  0  0
  2 31  1  0  0  0  0
  3 28  1  0  0  0  0
  3  4  1  0  0  0  0
  3  6  1  0  0  0  0
  4  5  1  0  0  0  0
  4 32  1  0  0  0  0
  4 33  1  0  0  0  0
  5 34  1  0  0  0  0
  6  7  1  0  0  0  0
  6 35  1  0  0  0  0
  6 36  1  0  0  0  0
  7  8  1  0  0  0  0
  7 28  1  0  0  0  0
  7 37  1  0  0  0  0
  8 27  1  0  0  0  0
  8  9  1  0  0  0  0
  9 10  2  0  0  0  0
  9 38  1  0  0  0  0
 10 11  1  0  0  0  0
 11 27  2  0  0  0  0
 11 12  1  0  0  0  0
 12 13  1  0  0  0  0
 12 24  2  0  0  0  0
 13 23  1  0  0  0  0
 13 14  1  0  0  0  0
 14 15  1  0  0  0  0
 14 39  1  0  0  0  0
 14 40  1  0  0  0  0
 15 16  1  0  0  0  0
 15 41  1  0  0  0  0
 15 42  1  0  0  0  0
 16 17  1  0  0  0  0
 17 22  1  0  0  0  0
 17 18  1  0  0  0  0
 17 23  1  0  0  0  0
 18 19  1  0  0  0  0
 18 43  1  0  0  0  0
 18 44  1  0  0  0  0
 19 20  1  0  0  0  0
 19 45  1  0  0  0  0
 19 46  1  0  0  0  0
 20 21  1  0  0  0  0
 20 47  1  0  0  0  0
 20 48  1  0  0  0  0
 21 22  1  0  0  0  0
 22 49  1  0  0  0  0
 22 50  1  0  0  0  0
 23 51  1  0  0  0  0
 23 52  1  0  0  0  0
 24 25  1  0  0  0  0
 25 26  2  0  0  0  0
 25 53  1  0  0  0  0
 26 27  1  0  0  0  0
 28 54  1  0  0  0  0
 28 55  1  0  0  0  0
M  END
> <s_m_source_file>
AV-unprocessed.smi

> <i_m_source_file_index>
165

> <i_lp_mmshare_version>
43012

> <i_f3d_flags>
0

> <s_epik_input>
W09IXVtDSDJdQzEoW0NIMl1bT0hdKVtDSDJdW0NIXShbQ0gyXTEpbihbY0hdbjIpYyhjMjMpbltjSF1uYzNOKFtDSDJdNClbQ0gyXVtDSDJdT1tDQEBdNDVbQ0gyXVtDSDJdW0NIMl1PW0NIMl01

> <s_epik_cmdline>
J2VwaWtfcHl0aG9uJywgJy1waCcsICc3LjAnLCAnLXRuJywgJzgnLCAnLW1hJywgJzIwMCcsICctbWV0YWxfYmluZGluZycsICctaW1hZScsICc8aW5maWxlLm1hZT4nLCAnLW9tYWUnLCAnPG91dGZpbGUubWFlPic=

> <r_lp_tautomer_probability>
1

> <r_epik_Ionization_Penalty>
0.00466923

> <r_epik_Ionization_Penalty_Charging>
0

> <r_epik_Ionization_Penalty_Neutral>
0.00466923

> <r_epik_State_Penalty>
0.0032353

> <r_epik_Charging_Adjusted_Penalty>
0.0032353

> <i_epik_Tot_Q>
0

> <i_epik_Tot_abs_Q>
0

> <r_epik_Metal_State_Penalty>
-0

> <b_epik_Metal_Only>
0

> <s_lp_Force_Field>
OPLS_2005

> <r_lp_Energy>
53.1571

> <b_lp_Chiralities_Consistent>
1

> <s_lp_Variant>
AV-unprocessed.smi:165-2

> <Gold.Version>
5.8.1

> <Gold.Id.Protein>
6NUR|6NUR_protein|mol2

> <Gold.PLP.Fitness>
49.2814

> <Gold.PLP.PLP>
-36.4542

> <Gold.PLP.part.hbond>
-5.5616

> <Gold.PLP.part.metal>
0.0000

> <Gold.PLP.part.buried>
-7.4410

> <Gold.PLP.part.nonpolar>
-24.6966

> <Gold.PLP.part.repulsive>
0.1595

> <Gold.PLP.ligand.clash>
0.0000

> <Gold.PLP.ligand.torsion>
0.5491

> <Gold.PLP.Chemscore.Hbond>
4.3975

> <Gold.PLP.Chemscore.CHOScore>
0.0000

> <Gold.PLP.Chemscore.Metal>
0.0000

> <Gold.Chemscore.Hbonds>
donor molecule, donor type, donor heavy atom, donor atom, acceptor molecule, acceptor atom, score
      L1  H     1    29       P1 10747  0.93
      L1  H     5    34       P1 10186  0.54
      P1  H  6896  6908       L1    16  0.98
      P1  H  6934  6947       L1    21  1.00
      P1  H 10785 10796       L1     5  0.83

> <Gold.PLP.Chemscore.Internal.Correction>
0.7329

> <Gold.Rescore>
     Score         DG    S(hbond)    S(metal)    S(lipo)     H(rot)  DE(clash)    DE(int)     intcor
     19.00     -19.61       3.57        0.00      87.48       3.14       0.07       0.55       ----

> <Gold.Chemscore.Fitness>
18.9953

> <Gold.Chemscore.DG>
-19.6097

> <Gold.Chemscore.ZeroCoef>
-5.4800

> <Gold.Chemscore.Hbond>
3.5689

> <Gold.Chemscore.Metal>
0.0000

> <Gold.Chemscore.Lipo>
87.4833

> <Gold.Chemscore.Internal_Hbond>
0.0000

> <Gold.Chemscore.DEClash>
0.0650

> <Gold.Chemscore.DEInternal>
0.5494

> <Gold.Chemscore.Rot>
3.1351

> <Gold.Chemscore.Internal.Correction>
   9.000000E+99

> <Gold.Chemscore.Hbonds>
donor molecule, donor type, donor heavy atom, donor atom, acceptor molecule, acceptor atom, score
      L1  H     1    29       P1 10747  0.89
      L1  H     5    34       P1 10186  0.52
      P1  H  6896  6908       L1    16  0.15
      P1  H  6934  6947       L1    21  0.78
      P1  H 10785 10796       L1     5  0.77

> <Gold.Chemscore.Hbond.Weighted>
-11.9201

> <Gold.Chemscore.Metal.Weighted>
-0.0000

> <Gold.Chemscore.Lipo.Weighted>
-10.2355

> <Gold.Chemscore.Internal_Hbond.Weighted>
0.0000

> <Gold.Chemscore.DEClash.Weighted>
0.0650

> <Gold.Chemscore.DEInternal.Weighted>
0.5494

> <Gold.Chemscore.Rot.Weighted>
8.0260

> <Gold.Chemscore.Internal.Correction.Weighted>
   9.000000E+99

> <Gold.Protein.RotatedTorsions>
[ 6907 6896 6895 6894 ] final -175.14 input  -60.11 | X-H torsion
[ 7974 7965 7964 7962 ] final  145.36 input  175.53 | X-H torsion
[ 8008 7997 7996 7995 ] final  145.52 input   59.86 | X-H torsion
[ 10167 10162 10161 10158 ] final  137.44 input  -65.29 | X-H torsion
[ 10718 10713 10712 10709 ] final   55.57 input   66.30 | X-H torsion
[ 10763 10752 10751 10750 ] final  155.77 input  -60.55 | X-H torsion
[ 11005 11000 10999 10996 ] final   73.98 input  -57.11 | X-H torsion

> <Gold.Protein.ActiveResidues>
 VAL166  LYS551  ARG553  GLY616  TRP617  ASP618  TYR619  PRO620  LYS621  CYS622 
 ASP623  PHE694  ASN695  SER759  ASP760  ASP761  ALA762  ILE779  LEU786  VAL792 
 PHE793  MET794  SER795  GLU796  ALA797  LYS798  CYS799  TRP800  GLU811  SER814 

> <Gold.Protein.RotatedAtoms>
  151.5837  133.3374  159.3013 H   0  0  0  0  0  0  0  0  0  0  0  0  # atno 6907 bound_to 6896
  150.8299  134.7550  159.6856 H   0  0  0  0  0  0  0  0  0  0  0  0  # atno 6908 bound_to 6896
  152.4383  134.5647  159.9956 H   0  0  0  0  0  0  0  0  0  0  0  0  # atno 6909 bound_to 6896
  144.8759  139.5773  143.5865 H   0  0  0  0  0  0  0  0  0  0  0  0  # atno 7974 bound_to 7965
  156.2881  140.2207  156.5228 H   0  0  0  0  0  0  0  0  0  0  0  0  # atno 8008 bound_to 7997
  154.7514  140.0480  157.0918 H   0  0  0  0  0  0  0  0  0  0  0  0  # atno 8009 bound_to 7997
  155.0105  140.3112  155.4835 H   0  0  0  0  0  0  0  0  0  0  0  0  # atno 8010 bound_to 7997
  139.5144  144.6409  151.5570 H   0  0  0  0  0  0  0  0  0  0  0  0  # atno 10167 bound_to 10162
  157.5357  130.8661  149.8749 H   0  0  0  0  0  0  0  0  0  0  0  0  # atno 10718 bound_to 10713
  154.1736  135.2803  155.3073 H   0  0  0  0  0  0  0  0  0  0  0  0  # atno 10763 bound_to 10752
  154.6056  135.5515  153.7423 H   0  0  0  0  0  0  0  0  0  0  0  0  # atno 10764 bound_to 10752
  153.0157  135.6402  154.1876 H   0  0  0  0  0  0  0  0  0  0  0  0  # atno 10765 bound_to 10752
  139.9413  134.7394  156.1093 H   0  0  0  0  0  0  0  0  0  0  0  0  # atno 11005 bound_to 11000
  146.2962  139.7286  142.9125 LP  0  0  0  0  0  0  0  0  0  0  0  0  # atno 17320 bound_to 7965
  145.4044  141.0389  143.3052 LP  0  0  0  0  0  0  0  0  0  0  0  0  # atno 17321 bound_to 7965
  140.6176  143.9319  150.6500 LP  0  0  0  0  0  0  0  0  0  0  0  0  # atno 17342 bound_to 10162
  140.2582  143.3543  152.1346 LP  0  0  0  0  0  0  0  0  0  0  0  0  # atno 17343 bound_to 10162
  156.0456  130.3728  150.1325 LP  0  0  0  0  0  0  0  0  0  0  0  0  # atno 17370 bound_to 10713
  156.9507  130.9774  151.3498 LP  0  0  0  0  0  0  0  0  0  0  0  0  # atno 17371 bound_to 10713
  141.1048  133.6664  156.2839 LP  0  0  0  0  0  0  0  0  0  0  0  0  # atno 17394 bound_to 11000
  140.5945  134.5617  157.5506 LP  0  0  0  0  0  0  0  0  0  0  0  0  # atno 17395 bound_to 11000

$$$$
