AV-unprocessed.smi:1060|AV-procd|sdf|4656|dock6
  -GOLD-   22720 3163D 1   1.00000     0.00000
 Structure written by MMmdl.
 37 38  0  0  0  0  0  0  0  0  1 V2000
  150.2424  138.4995  157.9594 O   0  0  0  0  0  0  0  0  0  0  0  0
  150.9620  139.4940  157.8675 C   0  0  0  0  0  0  0  0  0  0  0  0
  152.2024  139.6230  158.7538 C   0  0  0  0  0  0  0  0  0  0  0  0
  152.9213  140.7955  158.4034 O   0  0  0  0  0  0  0  0  0  0  0  0
  153.6321  141.3506  159.4966 C   0  0  0  0  0  0  0  0  0  0  0  0
  152.6674  142.1976  160.3354 C   0  0  2  0  0  0  0  0  0  0  0  0
  152.3739  143.5711  159.7388 C   0  0  0  0  0  0  0  0  0  0  0  0
  151.9218  144.3777  160.9439 C   0  0  0  0  0  0  0  0  0  0  0  0
  152.5056  143.6158  162.1380 C   0  0  0  0  0  0  0  0  0  0  0  0
  153.2544  142.5428  161.5801 O   0  0  0  0  0  0  0  0  0  0  0  0
  150.7658  140.5219  157.0186 N   0  0  0  0  0  0  0  0  0  0  0  0
  149.7335  140.7377  156.0889 C   0  0  0  0  0  0  0  0  0  0  0  0
  148.5605  141.3711  156.3543 C   0  0  0  0  0  0  0  0  0  0  0  0
  147.5412  141.5667  155.3371 C   0  0  0  0  0  0  0  0  0  0  0  0
  146.1996  142.2025  155.6680 C   0  0  0  0  0  0  0  0  0  0  0  0
  145.2318  141.2918  155.5744 F   0  0  0  0  0  0  0  0  0  0  0  0
  146.1884  142.6949  156.9072 F   0  0  0  0  0  0  0  0  0  0  0  0
  145.9193  143.1933  154.8218 F   0  0  0  0  0  0  0  0  0  0  0  0
  147.8141  141.0806  154.1123 C   0  0  0  0  0  0  0  0  0  0  0  0
  149.0252  140.4474  153.8252 N   0  0  0  0  0  0  0  0  0  0  0  0
  150.0078  140.2406  154.7301 C   0  0  0  0  0  0  0  0  0  0  0  0
  151.0470  139.6710  154.3981 O   0  0  0  0  0  0  0  0  0  0  0  0
  149.1607  140.1244  152.8781 H   0  0  0  0  0  0  0  0  0  0  0  0
  151.8968  139.6679  159.8006 H   0  0  0  0  0  0  0  0  0  0  0  0
  152.8288  138.7395  158.6224 H   0  0  0  0  0  0  0  0  0  0  0  0
  154.0870  140.5683  160.1063 H   0  0  0  0  0  0  0  0  0  0  0  0
  154.4368  141.9802  159.1139 H   0  0  0  0  0  0  0  0  0  0  0  0
  151.7317  141.6616  160.5059 H   0  0  0  0  0  0  0  0  0  0  0  0
  153.2865  144.0058  159.3286 H   0  0  0  0  0  0  0  0  0  0  0  0
  151.6283  143.5383  158.9438 H   0  0  0  0  0  0  0  0  0  0  0  0
  152.2795  145.4065  160.8945 H   0  0  0  0  0  0  0  0  0  0  0  0
  150.8335  144.4026  161.0094 H   0  0  0  0  0  0  0  0  0  0  0  0
  153.1432  144.2438  162.7604 H   0  0  0  0  0  0  0  0  0  0  0  0
  151.7079  143.2149  162.7644 H   0  0  0  0  0  0  0  0  0  0  0  0
  151.4763  141.2398  157.0242 H   0  0  0  0  0  0  0  0  0  0  0  0
  148.3496  141.7705  157.3321 H   0  0  0  0  0  0  0  0  0  0  0  0
  147.1365  141.1308  153.2727 H   0  0  0  0  0  0  0  0  0  0  0  0
  1  2  2  0  0  0  0
  2  3  1  0  0  0  0
  2 11  1  0  0  0  0
  3  4  1  0  0  0  0
  3 24  1  0  0  0  0
  3 25  1  0  0  0  0
  4  5  1  0  0  0  0
  5  6  1  0  0  0  0
  5 26  1  0  0  0  0
  5 27  1  0  0  0  0
  6 10  1  0  0  0  0
  6  7  1  0  0  0  0
  6 28  1  0  0  0  0
  7  8  1  0  0  0  0
  7 29  1  0  0  0  0
  7 30  1  0  0  0  0
  8  9  1  0  0  0  0
  8 31  1  0  0  0  0
  8 32  1  0  0  0  0
  9 10  1  0  0  0  0
  9 33  1  0  0  0  0
  9 34  1  0  0  0  0
 11 12  1  0  0  0  0
 11 35  1  0  0  0  0
 12 21  1  0  0  0  0
 12 13  2  0  0  0  0
 13 14  1  0  0  0  0
 13 36  1  0  0  0  0
 14 15  1  0  0  0  0
 14 19  2  0  0  0  0
 15 16  1  0  0  0  0
 15 17  1  0  0  0  0
 15 18  1  0  0  0  0
 19 20  1  0  0  0  0
 19 37  1  0  0  0  0
 20 23  1  0  0  0  0
 20 21  1  0  0  0  0
 21 22  2  0  0  0  0
M  END
> <s_m_source_file>
AV-unprocessed.smi

> <i_m_source_file_index>
1060

> <i_lp_mmshare_version>
43012

> <i_f3d_flags>
0

> <s_epik_input>
Tz1jMVtuSF1bY0hdYyhDKEYpKEYpRilbY0hdYzFbTkhdQyg9TylbQ0gyXU9bQ0gyXVtDQEBIXTJbQ0gyXVtDSDJdW0NIMl1PMg==

> <s_epik_cmdline>
J2VwaWtfcHl0aG9uJywgJy1waCcsICc3LjAnLCAnLXRuJywgJzgnLCAnLW1hJywgJzIwMCcsICctbWV0YWxfYmluZGluZycsICctaW1hZScsICc8aW5maWxlLm1hZT4nLCAnLW9tYWUnLCAnPG91dGZpbGUubWFlPic=

> <r_lp_tautomer_probability>
0.999

> <r_epik_Ionization_Penalty>
0.00950091

> <r_epik_Ionization_Penalty_Charging>
0.00950081

> <r_epik_Ionization_Penalty_Neutral>
1.00143e-07

> <r_epik_State_Penalty>
0.00721819

> <r_epik_Charging_Adjusted_Penalty>
0.016719

> <i_epik_Tot_Q>
0

> <i_epik_Tot_abs_Q>
0

> <r_epik_Metal_State_Penalty>
0.323303

> <b_epik_Metal_Only>
0

> <s_lp_Force_Field>
OPLS_2005

> <r_lp_Energy>
32.1997

> <b_lp_Chiralities_Consistent>
1

> <s_lp_Variant>
AV-unprocessed.smi:1060-1

> <Gold.Version>
5.8.1

> <Gold.Id.Protein>
6NUR|6NUR_protein|mol2

> <Gold.PLP.Fitness>
44.5427

> <Gold.PLP.PLP>
-40.5435

> <Gold.PLP.part.hbond>
-2.8638

> <Gold.PLP.part.metal>
0.0000

> <Gold.PLP.part.buried>
-4.7595

> <Gold.PLP.part.nonpolar>
-32.7414

> <Gold.PLP.part.repulsive>
0.3707

> <Gold.PLP.ligand.clash>
0.0000

> <Gold.PLP.ligand.torsion>
1.3206

> <Gold.PLP.Chemscore.Hbond>
2.1571

> <Gold.PLP.Chemscore.CHOScore>
0.0000

> <Gold.PLP.Chemscore.Metal>
0.0000

> <Gold.Chemscore.Hbonds>
donor molecule, donor type, donor heavy atom, donor atom, acceptor molecule, acceptor atom, score
      L1  H    20    23       P1  7957  1.00
      P1  H  7989  7998       L1    22  0.85
      P1  H  7997  8008       L1     4  0.27

> <Gold.PLP.Chemscore.Internal.Correction>
0.1690

> <Gold.Rescore>
     Score         DG    S(hbond)    S(metal)    S(lipo)     H(rot)  DE(clash)    DE(int)     intcor
     14.92     -16.23       1.77        0.00      84.21       1.95       0.03       1.28       ----

> <Gold.Chemscore.Fitness>
14.9188

> <Gold.Chemscore.DG>
-16.2345

> <Gold.Chemscore.ZeroCoef>
-5.4800

> <Gold.Chemscore.Hbond>
1.7668

> <Gold.Chemscore.Metal>
0.0000

> <Gold.Chemscore.Lipo>
84.2073

> <Gold.Chemscore.Internal_Hbond>
0.0000

> <Gold.Chemscore.DEClash>
0.0323

> <Gold.Chemscore.DEInternal>
1.2834

> <Gold.Chemscore.Rot>
1.9527

> <Gold.Chemscore.Internal.Correction>
   9.000000E+99

> <Gold.Chemscore.Hbonds>
donor molecule, donor type, donor heavy atom, donor atom, acceptor molecule, acceptor atom, score
      L1  H    20    23       P1  7957  1.00
      P1  H  7989  7998       L1    22  0.14
      P1  H  7997  8008       L1     4  0.06

> <Gold.Chemscore.Hbond.Weighted>
-5.9012

> <Gold.Chemscore.Metal.Weighted>
-0.0000

> <Gold.Chemscore.Lipo.Weighted>
-9.8522

> <Gold.Chemscore.Internal_Hbond.Weighted>
0.0000

> <Gold.Chemscore.DEClash.Weighted>
0.0323

> <Gold.Chemscore.DEInternal.Weighted>
1.2834

> <Gold.Chemscore.Rot.Weighted>
4.9990

> <Gold.Chemscore.Internal.Correction.Weighted>
   9.000000E+99

> <Gold.Protein.RotatedTorsions>
[ 6907 6896 6895 6894 ] final   49.61 input  -60.11 | X-H torsion
[ 7974 7965 7964 7962 ] final   77.00 input  175.53 | X-H torsion
[ 8008 7997 7996 7995 ] final  -83.28 input   59.86 | X-H torsion
[ 10167 10162 10161 10158 ] final   24.48 input  -65.29 | X-H torsion
[ 10718 10713 10712 10709 ] final   11.35 input   66.30 | X-H torsion
[ 10763 10752 10751 10750 ] final -134.53 input  -60.55 | X-H torsion
[ 11005 11000 10999 10996 ] final  115.95 input  -57.11 | X-H torsion

> <Gold.Protein.ActiveResidues>
 VAL166  LYS551  ARG553  GLY616  TRP617  ASP618  TYR619  PRO620  LYS621  CYS622 
 ASP623  PHE694  ASN695  SER759  ASP760  ASP761  ALA762  ILE779  LEU786  VAL792 
 PHE793  MET794  SER795  GLU796  ALA797  LYS798  CYS799  TRP800  GLU811  SER814 

> <Gold.Protein.RotatedAtoms>
  152.2926  134.7703  160.0374 H   0  0  0  0  0  0  0  0  0  0  0  0  # atno 6907 bound_to 6896
  151.8244  133.3394  159.3602 H   0  0  0  0  0  0  0  0  0  0  0  0  # atno 6908 bound_to 6896
  150.7237  134.5472  159.5821 H   0  0  0  0  0  0  0  0  0  0  0  0  # atno 6909 bound_to 6896
  145.6957  139.2566  143.1734 H   0  0  0  0  0  0  0  0  0  0  0  0  # atno 7974 bound_to 7965
  154.6174  140.0621  156.9572 H   0  0  0  0  0  0  0  0  0  0  0  0  # atno 8008 bound_to 7997
  155.1873  140.3304  155.4346 H   0  0  0  0  0  0  0  0  0  0  0  0  # atno 8009 bound_to 7997
  156.2412  140.1887  156.6965 H   0  0  0  0  0  0  0  0  0  0  0  0  # atno 8010 bound_to 7997
  140.5185  144.0042  150.6405 H   0  0  0  0  0  0  0  0  0  0  0  0  # atno 10167 bound_to 10162
  156.9944  130.6055  149.5689 H   0  0  0  0  0  0  0  0  0  0  0  0  # atno 10718 bound_to 10713
  154.8718  135.3732  154.4750 H   0  0  0  0  0  0  0  0  0  0  0  0  # atno 10763 bound_to 10752
  153.5408  135.7026  153.5643 H   0  0  0  0  0  0  0  0  0  0  0  0  # atno 10764 bound_to 10752
  153.3805  135.3998  155.1818 H   0  0  0  0  0  0  0  0  0  0  0  0  # atno 10765 bound_to 10752
  139.9026  134.9591  156.7124 H   0  0  0  0  0  0  0  0  0  0  0  0  # atno 11005 bound_to 11000
  146.0843  140.7729  142.9626 LP  0  0  0  0  0  0  0  0  0  0  0  0  # atno 17320 bound_to 7965
  144.6983  140.3537  143.7177 LP  0  0  0  0  0  0  0  0  0  0  0  0  # atno 17321 bound_to 7965
  140.3385  143.3034  152.0613 LP  0  0  0  0  0  0  0  0  0  0  0  0  # atno 17342 bound_to 10162
  139.4916  144.6459  151.6779 LP  0  0  0  0  0  0  0  0  0  0  0  0  # atno 17343 bound_to 10162
  156.0195  130.5290  150.8233 LP  0  0  0  0  0  0  0  0  0  0  0  0  # atno 17370 bound_to 10713
  157.5436  131.0941  150.9794 LP  0  0  0  0  0  0  0  0  0  0  0  0  # atno 17371 bound_to 10713
  140.7065  133.9261  155.8057 LP  0  0  0  0  0  0  0  0  0  0  0  0  # atno 17394 bound_to 11000
  141.0332  134.0726  157.3989 LP  0  0  0  0  0  0  0  0  0  0  0  0  # atno 17395 bound_to 11000

$$$$
