#       Name:                AV-unprocessed.smi:54
#       Creating user name   scv26
#       Creation time:       Thu Mar 26 16:45:20 2020


#       File generated by GOLD software.
#

@<TRIPOS>MOLECULE
AV-unprocessed.smi:54
    58    60     1
SMALL
NO_CHARGES


@<TRIPOS>ATOM
      1 ****         0.2917   4.3832  -0.6068 C.3            1 S1                 0.0000
      2 ****        -0.7747   3.9887   0.4283 C.3            1 S1                 0.0000
      3 ****        -0.5556   4.7245   1.7609 C.3            1 S1                 0.0000
      4 ****        -0.7826   2.4684   0.6384 C.2            1 S1                 0.0000
      5 ****         0.2094   1.9245   1.1284 O.2            1 S1                 0.0000
      6 ****        -1.9158   1.8330   0.2685 N.am           1 S1                 0.0000
      7 ****        -2.1950   0.4643   0.3253 C.2            1 S1                 0.0000
      8 ****        -1.2119  -0.4058   0.2613 N.2            1 S1                 0.0000
      9 ****        -1.6588  -1.7131   0.3132 C.2            1 S1                 0.0000
     10 ****        -2.9529  -2.1480   0.4127 C.2            1 S1                 0.0000
     11 ****        -3.0254  -3.5355   0.4335 N.2            1 S1                 0.0000
     12 ****        -1.7433  -3.8816   0.3371 C.2            1 S1                 0.0000
     13 ****        -0.8686  -2.8600   0.2574 N.pl3          1 S1                 0.0000
     14 ****         0.6170  -2.9865   0.1185 C.3            1 S1                 0.0000
     15 ****         1.2388  -1.8982   0.7214 O.3            1 S1                 0.0000
     16 ****         2.4824  -1.6440   0.0735 C.3            1 S1                 0.0000
     17 ****         2.6560  -0.1248  -0.1086 C.3            1 S1                 0.0000
     18 ****         1.8441   0.3836  -1.1479 O.3            1 S1                 0.0000
     19 ****         2.5045  -2.4808  -1.2225 C.3            1 S1                 0.0000
     20 ****         3.4066  -3.5603  -1.0675 O.3            1 S1                 0.0000
     21 ****         1.0815  -3.0104  -1.3432 C.3            1 S1                 0.0000
     22 ****         0.3026  -2.1882  -2.1918 O.3            1 S1                 0.0000
     23 ****        -4.0088  -1.1088   0.4657 C.2            1 S1                 0.0000
     24 ****        -5.1853  -1.4552   0.5529 O.2            1 S1                 0.0000
     25 ****        -3.5669   0.1834   0.4078 N.pl3          1 S1                -1.0000
     26 ****         0.8801  -3.8972   0.6586 H              1 S1                 0.0000
     27 ****         3.2632  -1.9862   0.7551 H              1 S1                 0.0000
     28 ****         2.8152  -1.9102  -2.0990 H              1 S1                 0.0000
     29 ****         1.0374  -4.0301  -1.7287 H              1 S1                 0.0000
     30 ****         0.1385   3.8608  -1.5520 H              1 S1                 0.0000
     31 ****         1.2977   4.1488  -0.2561 H              1 S1                 0.0000
     32 ****         0.2554   5.4529  -0.8148 H              1 S1                 0.0000
     33 ****        -1.7486   4.2883   0.0372 H              1 S1                 0.0000
     34 ****        -1.3023   4.4349   2.5014 H              1 S1                 0.0000
     35 ****        -0.6305   5.8039   1.6263 H              1 S1                 0.0000
     36 ****         0.4289   4.5127   2.1801 H              1 S1                 0.0000
     37 ****        -2.6748   2.4329  -0.0188 H              1 S1                 0.0000
     38 ****        -1.4286  -4.9145   0.3151 H              1 S1                 0.0000
     39 ****         2.4345   0.3979   0.8217 H              1 S1                 0.0000
     40 ****         3.6929   0.1001  -0.3590 H              1 S1                 0.0000
     41 ****         1.9104   1.3264  -1.1463 H              1 S1                 0.0000
     42 ****         3.1462  -4.0589  -0.3084 H              1 S1                 0.0000
     43 ****         0.2952  -1.3136  -1.8307 H              1 S1                 0.0000
     44 ****         1.0056   2.4731   1.3835 LP             1 S1                 0.0000
     45 ****         0.2178   0.9347   1.2709 LP             1 S1                 0.0000
     46 ****        -0.2481  -0.1507   0.1838 LP             1 S1                 0.0000
     47 ****        -3.8320  -4.1225   0.5030 LP             1 S1                 0.0000
     48 ****         1.4011  -2.0998   1.6874 LP             1 S1                 0.0000
     49 ****         0.6512  -1.0929   0.6431 LP             1 S1                 0.0000
     50 ****         0.8936   0.1120  -0.9969 LP             1 S1                 0.0000
     51 ****         2.1577   0.0248  -2.0271 LP             1 S1                 0.0000
     52 ****         4.3344  -3.2097  -0.9395 LP             1 S1                 0.0000
     53 ****         3.3795  -4.1427  -1.8799 LP             1 S1                 0.0000
     54 ****        -0.6315  -2.5418  -2.2415 LP             1 S1                 0.0000
     55 ****         0.7024  -2.1727  -3.1082 LP             1 S1                 0.0000
     56 ****        -5.4192  -2.4269   0.5872 LP             1 S1                 0.0000
     57 ****        -5.9082  -0.7653   0.5896 LP             1 S1                 0.0000
     58 ****        -4.2269   0.9345   0.4244 LP             1 S1                 0.0000
@<TRIPOS>BOND
    1    1    2 1     
    2    1   30 1     
    3    1   31 1     
    4    1   32 1     
    5    2    3 1     
    6    2    4 1     
    7    2   33 1     
    8    3   34 1     
    9    3   35 1     
   10    3   36 1     
   11    4    5 2     
   12    4    6 am    
   13    6   37 1     
   14    6    7 1     
   15    7   25 1     
   16    7    8 2     
   17    8    9 1     
   18    9   13 1     
   19    9   10 2     
   20   10   11 1     
   21   10   23 1     
   22   11   12 2     
   23   12   13 1     
   24   12   38 1     
   25   13   14 1     
   26   14   26 1     
   27   14   21 1     
   28   14   15 1     
   29   15   16 1     
   30   16   27 1     
   31   16   17 1     
   32   16   19 1     
   33   17   18 1     
   34   17   39 1     
   35   17   40 1     
   36   18   41 1     
   37   19   28 1     
   38   19   20 1     
   39   19   21 1     
   40   20   42 1     
   41   21   29 1     
   42   21   22 1     
   43   22   43 1     
   44   23   24 2     
   45   23   25 1     
   46    5   44 1     
   47    5   45 1     
   48    8   46 1     
   49   11   47 1     
   50   15   48 1     
   51   15   49 1     
   52   18   50 1     
   53   18   51 1     
   54   20   52 1     
   55   20   53 1     
   56   22   54 1     
   57   22   55 1     
   58   24   56 1     
   59   24   57 1     
   60   25   58 1     
@<TRIPOS>SUBSTRUCTURE
      1 S1             1
@<TRIPOS>SET
LONE_PAIRS      STATIC     ATOMS    <user>   **** ""
15 44 45 46 47 48 49 50 51 52 53 54 55 56 57 58
DONOR_HYDROGENS      STATIC     ATOMS    <user>   **** ""
4 37 41 42 43
ATOM$BLUE        STATIC     ATOMS    COLORGROUP SYSTEM
15 44 45 46 47 48 49 50 51 52 53 54 55 56 57 58
ATOM$RED        STATIC     ATOMS    COLORGROUP SYSTEM
4 37 41 42 43
