AV-unprocessed.smi:1791|AV-procd|sdf|7219|dock5
  -GOLD-   22720 8463D 1   1.00000     0.00000
 Structure written by MMmdl.
 38 39  0  0  0  0  0  0  0  0  1 V2000
  150.8122  142.0583  157.6814 C   0  0  0  0  0  0  0  0  0  0  0  0
  151.1341  141.6701  156.3500 O   0  0  0  0  0  0  0  0  0  0  0  0
  150.7047  140.4361  155.9060 C   0  0  0  0  0  0  0  0  0  0  0  0
  150.2531  139.4966  156.8543 C   0  0  0  0  0  0  0  0  0  0  0  0
  149.8104  138.2361  156.4089 C   0  0  0  0  0  0  0  0  0  0  0  0
  149.8270  137.9567  155.0212 C   0  0  0  0  0  0  0  0  0  0  0  0
  149.4216  136.7239  154.4410 N   0  0  0  0  0  0  0  0  0  0  0  0
  149.0617  135.5815  155.0511 C   0  0  0  0  0  0  0  0  0  0  0  0
  149.0295  135.4035  156.2683 O   0  0  0  0  0  0  0  0  0  0  0  0
  148.7187  134.6467  154.1529 N   0  0  0  0  0  0  0  0  0  0  0  0
  148.2723  133.2885  154.4563 C   0  0  1  0  0  0  0  0  0  0  0  0
  147.1577  133.3601  155.5116 C   0  0  0  0  0  0  0  0  0  0  0  0
  147.8078  132.5994  153.1583 C   0  0  2  0  0  0  0  0  0  0  0  0
  146.8596  133.4339  152.2946 C   0  0  0  0  0  0  0  0  0  0  0  0
  146.0558  132.3952  151.5269 C   0  0  0  0  0  0  0  0  0  0  0  0
  146.3623  131.0791  152.2454 C   0  0  0  0  0  0  0  0  0  0  0  0
  147.0115  131.4608  153.4491 O   0  0  0  0  0  0  0  0  0  0  0  0
  150.3108  138.9603  154.1569 C   0  0  0  0  0  0  0  0  0  0  0  0
  150.7357  140.1704  154.5769 N   0  0  0  0  0  0  0  0  0  0  0  0
  151.2195  143.0499  157.8772 H   0  0  0  0  0  0  0  0  0  0  0  0
  151.2452  141.3733  158.4118 H   0  0  0  0  0  0  0  0  0  0  0  0
  149.7332  142.1086  157.8332 H   0  0  0  0  0  0  0  0  0  0  0  0
  150.2490  139.7377  157.9072 H   0  0  0  0  0  0  0  0  0  0  0  0
  149.4816  137.5142  157.1396 H   0  0  0  0  0  0  0  0  0  0  0  0
  149.3370  136.7306  153.4351 H   0  0  0  0  0  0  0  0  0  0  0  0
  148.7782  134.8904  153.1753 H   0  0  0  0  0  0  0  0  0  0  0  0
  149.0928  132.7069  154.8799 H   0  0  0  0  0  0  0  0  0  0  0  0
  146.8251  132.3647  155.8068 H   0  0  0  0  0  0  0  0  0  0  0  0
  146.2895  133.9038  155.1377 H   0  0  0  0  0  0  0  0  0  0  0  0
  147.5046  133.8661  156.4131 H   0  0  0  0  0  0  0  0  0  0  0  0
  148.6679  132.2833  152.5643 H   0  0  0  0  0  0  0  0  0  0  0  0
  146.1883  134.0176  152.9260 H   0  0  0  0  0  0  0  0  0  0  0  0
  147.3895  134.1258  151.6392 H   0  0  0  0  0  0  0  0  0  0  0  0
  144.9915  132.6310  151.5578 H   0  0  0  0  0  0  0  0  0  0  0  0
  146.3579  132.3437  150.4806 H   0  0  0  0  0  0  0  0  0  0  0  0
  145.4659  130.4931  152.4495 H   0  0  0  0  0  0  0  0  0  0  0  0
  147.0415  130.4669  151.6505 H   0  0  0  0  0  0  0  0  0  0  0  0
  150.3543  138.7908  153.0909 H   0  0  0  0  0  0  0  0  0  0  0  0
  1  2  1  0  0  0  0
  1 20  1  0  0  0  0
  1 21  1  0  0  0  0
  1 22  1  0  0  0  0
  2  3  1  0  0  0  0
  3 19  1  0  0  0  0
  3  4  2  0  0  0  0
  4  5  1  0  0  0  0
  4 23  1  0  0  0  0
  5  6  2  0  0  0  0
  5 24  1  0  0  0  0
  6  7  1  0  0  0  0
  6 18  1  0  0  0  0
  7  8  1  0  0  0  0
  7 25  1  0  0  0  0
  8  9  2  0  0  0  0
  8 10  1  0  0  0  0
 10 11  1  0  0  0  0
 10 26  1  0  0  0  0
 11 12  1  0  0  0  0
 11 13  1  0  0  0  0
 11 27  1  0  0  0  0
 12 28  1  0  0  0  0
 12 29  1  0  0  0  0
 12 30  1  0  0  0  0
 13 17  1  0  0  0  0
 13 14  1  0  0  0  0
 13 31  1  0  0  0  0
 14 15  1  0  0  0  0
 14 32  1  0  0  0  0
 14 33  1  0  0  0  0
 15 16  1  0  0  0  0
 15 34  1  0  0  0  0
 15 35  1  0  0  0  0
 16 17  1  0  0  0  0
 16 36  1  0  0  0  0
 16 37  1  0  0  0  0
 18 19  2  0  0  0  0
 18 38  1  0  0  0  0
M  END
> <s_m_source_file>
AV-unprocessed.smi

> <i_m_source_file_index>
1791

> <i_lp_mmshare_version>
43012

> <i_f3d_flags>
0

> <s_epik_input>
W0NIM11PYzFbY0hdW2NIXWMoW2NIXW4xKVtOSF1DKD1PKVtOSF1bQ0BIXShbQ0gzXSlbQ0BASF0yW0NIMl1bQ0gyXVtDSDJdTzI=

> <s_epik_cmdline>
J2VwaWtfcHl0aG9uJywgJy1waCcsICc3LjAnLCAnLXRuJywgJzgnLCAnLW1hJywgJzIwMCcsICctbWV0YWxfYmluZGluZycsICctaW1hZScsICc8aW5maWxlLm1hZT4nLCAnLW9tYWUnLCAnPG91dGZpbGUubWFlPic=

> <r_lp_tautomer_probability>
1

> <r_epik_Ionization_Penalty>
9.18737e-05

> <r_epik_Ionization_Penalty_Charging>
0

> <r_epik_Ionization_Penalty_Neutral>
9.18737e-05

> <r_epik_State_Penalty>
-0

> <r_epik_Charging_Adjusted_Penalty>
0

> <i_epik_Tot_Q>
0

> <i_epik_Tot_abs_Q>
0

> <r_epik_Metal_State_Penalty>
-0

> <b_epik_Metal_Only>
0

> <s_lp_Force_Field>
OPLS_2005

> <r_lp_Energy>
20.9022

> <b_lp_Chiralities_Consistent>
1

> <s_lp_Variant>
AV-unprocessed.smi:1791-2

> <Gold.Version>
5.8.1

> <Gold.Id.Protein>
6NUR|6NUR_protein|mol2

> <Gold.PLP.Fitness>
36.5879

> <Gold.PLP.PLP>
-25.5818

> <Gold.PLP.part.hbond>
-3.0000

> <Gold.PLP.part.metal>
0.0000

> <Gold.PLP.part.buried>
-2.5344

> <Gold.PLP.part.nonpolar>
-19.6613

> <Gold.PLP.part.repulsive>
0.3023

> <Gold.PLP.ligand.clash>
0.0256

> <Gold.PLP.ligand.torsion>
0.4923

> <Gold.PLP.Chemscore.Hbond>
2.9920

> <Gold.PLP.Chemscore.CHOScore>
1.0000

> <Gold.PLP.Chemscore.Metal>
0.0000

> <Gold.Chemscore.Hbonds>
donor molecule, donor type, donor heavy atom, donor atom, acceptor molecule, acceptor atom, score
      L1  H     7    25       P1  7948  1.00
      L1  H    10    26       P1  7948  0.99
      P1  H  7989  7998       L1    19  1.00
      L1  C    18    38       P1  7957  1.00

> <Gold.PLP.Chemscore.Internal.Correction>
0.0404

> <Gold.Rescore>
     Score         DG    S(hbond)    S(metal)    S(lipo)     H(rot)  DE(clash)    DE(int)     intcor
     12.86     -15.56       2.10        0.00      58.29       1.47       0.03       2.67       ----

> <Gold.Chemscore.Fitness>
12.8595

> <Gold.Chemscore.DG>
-15.5583

> <Gold.Chemscore.ZeroCoef>
-5.4800

> <Gold.Chemscore.Hbond>
2.1019

> <Gold.Chemscore.Metal>
0.0000

> <Gold.Chemscore.Lipo>
58.2852

> <Gold.Chemscore.Internal_Hbond>
0.0000

> <Gold.Chemscore.DEClash>
0.0285

> <Gold.Chemscore.DEInternal>
2.6704

> <Gold.Chemscore.Rot>
1.4693

> <Gold.Chemscore.Internal.Correction>
   9.000000E+99

> <Gold.Chemscore.Hbonds>
donor molecule, donor type, donor heavy atom, donor atom, acceptor molecule, acceptor atom, score
      L1  H     7    25       P1  7948  0.92
      L1  H    10    26       P1  7948  0.33
      P1  H  7989  7998       L1    19  0.76

> <Gold.Chemscore.Hbond.Weighted>
-7.0203

> <Gold.Chemscore.Metal.Weighted>
-0.0000

> <Gold.Chemscore.Lipo.Weighted>
-6.8194

> <Gold.Chemscore.Internal_Hbond.Weighted>
0.0000

> <Gold.Chemscore.DEClash.Weighted>
0.0285

> <Gold.Chemscore.DEInternal.Weighted>
2.6704

> <Gold.Chemscore.Rot.Weighted>
3.7613

> <Gold.Chemscore.Internal.Correction.Weighted>
   9.000000E+99

> <Gold.Protein.RotatedTorsions>
[ 6907 6896 6895 6894 ] final  136.35 input  -60.11 | X-H torsion
[ 7974 7965 7964 7962 ] final  115.37 input  175.53 | X-H torsion
[ 8008 7997 7996 7995 ] final   -2.45 input   59.86 | X-H torsion
[ 10167 10162 10161 10158 ] final  -19.40 input  -65.29 | X-H torsion
[ 10718 10713 10712 10709 ] final  165.52 input   66.30 | X-H torsion
[ 10763 10752 10751 10750 ] final  -79.02 input  -60.55 | X-H torsion
[ 11005 11000 10999 10996 ] final   24.63 input  -57.11 | X-H torsion

> <Gold.Protein.ActiveResidues>
 VAL166  LYS551  ARG553  GLY616  TRP617  ASP618  TYR619  PRO620  LYS621  CYS622 
 ASP623  PHE694  ASN695  SER759  ASP760  ASP761  ALA762  ILE779  LEU786  VAL792 
 PHE793  MET794  SER795  GLU796  ALA797  LYS798  CYS799  TRP800  GLU811  SER814 

> <Gold.Protein.RotatedAtoms>
  152.2904  133.5555  159.5553 H   0  0  0  0  0  0  0  0  0  0  0  0  # atno 6907 bound_to 6896
  150.7233  134.0437  159.3783 H   0  0  0  0  0  0  0  0  0  0  0  0  # atno 6908 bound_to 6896
  151.8343  135.0611  160.0491 H   0  0  0  0  0  0  0  0  0  0  0  0  # atno 6909 bound_to 6896
  145.1928  139.2991  143.4359 H   0  0  0  0  0  0  0  0  0  0  0  0  # atno 7974 bound_to 7965
  154.6356  140.2534  155.7382 H   0  0  0  0  0  0  0  0  0  0  0  0  # atno 8008 bound_to 7997
  156.2502  140.2898  156.0648 H   0  0  0  0  0  0  0  0  0  0  0  0  # atno 8009 bound_to 7997
  155.1676  140.0386  157.2846 H   0  0  0  0  0  0  0  0  0  0  0  0  # atno 8010 bound_to 7997
  140.7268  143.4822  151.0102 H   0  0  0  0  0  0  0  0  0  0  0  0  # atno 10167 bound_to 10162
  157.0789  131.0386  151.2583 H   0  0  0  0  0  0  0  0  0  0  0  0  # atno 10718 bound_to 10713
  154.5333  135.5710  153.6777 H   0  0  0  0  0  0  0  0  0  0  0  0  # atno 10763 bound_to 10752
  152.9945  135.6210  154.2599 H   0  0  0  0  0  0  0  0  0  0  0  0  # atno 10764 bound_to 10752
  154.2527  135.2858  155.2790 H   0  0  0  0  0  0  0  0  0  0  0  0  # atno 10765 bound_to 10752
  140.3566  134.2170  155.7675 H   0  0  0  0  0  0  0  0  0  0  0  0  # atno 11005 bound_to 11000
  146.3433  140.2147  142.8590 LP  0  0  0  0  0  0  0  0  0  0  0  0  # atno 17320 bound_to 7965
  145.0024  140.8643  143.5274 LP  0  0  0  0  0  0  0  0  0  0  0  0  # atno 17321 bound_to 7965
  139.8522  143.7424  152.3177 LP  0  0  0  0  0  0  0  0  0  0  0  0  # atno 17342 bound_to 10162
  139.7610  144.7506  151.0364 LP  0  0  0  0  0  0  0  0  0  0  0  0  # atno 17343 bound_to 10162
  157.4816  130.7769  149.7420 LP  0  0  0  0  0  0  0  0  0  0  0  0  # atno 17370 bound_to 10713
  155.9929  130.3928  150.2922 LP  0  0  0  0  0  0  0  0  0  0  0  0  # atno 17371 bound_to 10713
  141.1996  133.8007  157.0527 LP  0  0  0  0  0  0  0  0  0  0  0  0  # atno 17394 bound_to 11000
  140.0660  134.9729  157.1386 LP  0  0  0  0  0  0  0  0  0  0  0  0  # atno 17395 bound_to 11000

$$$$
