#       Name:                AV-unprocessed.smi:2536
#       Creating user name   scv26
#       Creation time:       Fri Mar 27 14:02:33 2020


#       File generated by GOLD software.
#

@<TRIPOS>MOLECULE
AV-unprocessed.smi:2536
    36    37     1
SMALL
NO_CHARGES


@<TRIPOS>ATOM
      1 ****        -4.6614   1.3277  -0.1393 C.3            1 S1                 0.0000
      2 ****        -3.1504   1.2331  -0.2337 C.ar           1 S1                 0.0000
      3 ****        -2.3556   2.3973  -0.3046 C.ar           1 S1                 0.0000
      4 ****        -1.0088   2.3402  -0.3852 N.ar           1 S1                 0.0000
      5 ****        -0.4524   1.1273  -0.3945 C.ar           1 S1                 0.0000
      6 ****         0.9288   1.1093  -0.4729 N.pl3          1 S1                 0.0000
      7 ****         1.7582  -0.0864  -0.3880 C.3            1 S1                 0.0000
      8 ****         1.8754  -0.5956   1.0591 C.3            1 S1                 0.0000
      9 ****         2.8305  -1.7925   1.1124 C.3            1 S1                 0.0000
     10 ****         4.1749  -1.4334   0.4603 C.3            1 S1                 0.0000
     11 ****         3.9624  -0.9901  -0.8760 O.3            1 S1                 0.0000
     12 ****         3.1641   0.1867  -0.9545 C.3            1 S1                 0.0000
     13 ****        -1.1030  -0.0402  -0.3358 N.ar           1 S1                 0.0000
     14 ****        -2.4513   0.0013  -0.2551 C.ar           1 S1                 0.0000
     15 ****        -3.1405  -1.3495  -0.1852 C.3            1 S1                 0.0000
     16 ****        -4.9898   2.3672  -0.1190 H              1 S1                 0.0000
     17 ****        -5.0170   0.8443   0.7709 H              1 S1                 0.0000
     18 ****        -5.1284   0.8440  -0.9975 H              1 S1                 0.0000
     19 ****        -2.7993   3.3819  -0.2945 H              1 S1                 0.0000
     20 ****         1.3950   2.0039  -0.5120 H              1 S1                 0.0000
     21 ****         1.2996  -0.8649  -0.9992 H              1 S1                 0.0000
     22 ****         2.2520   0.1994   1.7045 H              1 S1                 0.0000
     23 ****         0.8996  -0.8820   1.4523 H              1 S1                 0.0000
     24 ****         2.9835  -2.1072   2.1449 H              1 S1                 0.0000
     25 ****         2.3859  -2.6395   0.5887 H              1 S1                 0.0000
     26 ****         4.6911  -0.6615   1.0332 H              1 S1                 0.0000
     27 ****         4.8277  -2.3063   0.4422 H              1 S1                 0.0000
     28 ****         3.0960   0.4876  -2.0004 H              1 S1                 0.0000
     29 ****         3.6530   1.0033  -0.4201 H              1 S1                 0.0000
     30 ****        -4.2264  -1.2717  -0.2011 H              1 S1                 0.0000
     31 ****        -2.8539  -1.8665   0.7309 H              1 S1                 0.0000
     32 ****        -2.8397  -1.9676  -1.0315 H              1 S1                 0.0000
     33 ****        -0.4531   3.1700  -0.4357 LP             1 S1                 0.0000
     34 ****         3.5046  -1.7196  -1.3842 LP             1 S1                 0.0000
     35 ****         4.8511  -0.8001  -1.2933 LP             1 S1                 0.0000
     36 ****        -0.6104  -0.9103  -0.3510 LP             1 S1                 0.0000
@<TRIPOS>BOND
    1    1    2 1     
    2    1   16 1     
    3    1   17 1     
    4    1   18 1     
    5    2   14 ar    
    6    2    3 ar    
    7    3    4 ar    
    8    3   19 1     
    9    4    5 ar    
   10    5    6 1     
   11    5   13 ar    
   12    6    7 1     
   13    6   20 1     
   14    7   12 1     
   15    7    8 1     
   16    7   21 1     
   17    8    9 1     
   18    8   22 1     
   19    8   23 1     
   20    9   10 1     
   21    9   24 1     
   22    9   25 1     
   23   10   11 1     
   24   10   26 1     
   25   10   27 1     
   26   11   12 1     
   27   12   28 1     
   28   12   29 1     
   29   13   14 ar    
   30   14   15 1     
   31   15   30 1     
   32   15   31 1     
   33   15   32 1     
   34    4   33 1     
   35   11   34 1     
   36   11   35 1     
   37   13   36 1     
@<TRIPOS>SUBSTRUCTURE
      1 S1             1
@<TRIPOS>SET
LONE_PAIRS      STATIC     ATOMS    <user>   **** ""
4 33 34 35 36
DONOR_HYDROGENS      STATIC     ATOMS    <user>   **** ""
1 20
ATOM$BLUE        STATIC     ATOMS    COLORGROUP SYSTEM
4 33 34 35 36
ATOM$RED        STATIC     ATOMS    COLORGROUP SYSTEM
1 20
