AV-unprocessed.smi:199|AV-procd|sdf|1573|dock2
  -GOLD-   2262019453D 1   1.00000     0.00000
 Structure written by MMmdl.
 51 55  0  0  0  0  0  0  0  0  1 V2000
  147.0085  136.5659  162.4272 C   0  0  0  0  0  0  0  0  0  0  0  0
  147.0087  135.0521  162.1591 C   0  0  1  0  0  0  0  0  0  0  0  0
  146.1455  134.3756  163.0724 O   0  0  0  0  0  0  0  0  0  0  0  0
  145.1804  133.6129  162.3616 C   0  0  0  0  0  0  0  0  0  0  0  0
  145.8435  133.3126  161.0235 C   0  0  0  0  0  0  0  0  0  0  0  0
  146.6039  134.5998  160.7367 C   0  0  1  0  0  0  0  0  0  0  0  0
  145.7054  135.5269  160.1479 O   0  0  0  0  0  0  0  0  0  0  0  0
  147.8152  134.4197  159.7910 C   0  0  0  0  0  0  0  0  0  0  0  0
  148.4107  135.6775  159.3669 N   0  0  0  0  0  0  0  0  0  0  0  0
  149.0100  136.6178  160.1729 C   0  0  0  0  0  0  0  0  0  0  0  0
  149.4753  137.6660  159.5513 N   0  0  0  0  0  0  0  0  0  0  0  0
  149.1625  137.4421  158.2153 C   0  0  0  0  0  0  0  0  0  0  0  0
  149.3674  138.1691  157.0064 C   0  0  0  0  0  0  0  0  0  0  0  0
  149.9862  139.3790  156.9486 N   0  0  0  0  0  0  0  0  0  0  0  0
  151.3637  139.5493  157.3835 C   0  0  2  0  0  0  0  0  0  0  0  0
  151.5224  141.0794  157.3619 C   0  0  0  0  0  0  0  0  0  0  0  0
  150.6434  141.4566  156.1572 C   0  0  0  0  0  0  0  0  0  0  0  0
  150.1709  140.0708  155.6810 C   0  0  1  0  0  0  0  0  0  0  0  0
  151.3645  139.3548  155.0000 C   0  0  2  0  0  0  0  0  0  0  0  0
  150.9582  138.1821  154.0870 C   0  0  0  0  0  0  0  0  0  0  0  0
  149.8065  138.5213  153.3449 O   0  0  0  0  0  0  0  0  0  0  0  0
  152.1914  138.9386  156.2338 C   0  0  0  0  0  0  0  0  0  0  0  0
  148.9312  137.5939  155.8541 N   0  0  0  0  0  0  0  0  0  0  0  0
  148.3133  136.4101  155.8775 C   0  0  0  0  0  0  0  0  0  0  0  0
  148.0406  135.6333  156.9264 N   0  0  0  0  0  0  0  0  0  0  0  0
  148.4930  136.1915  158.0848 C   0  0  0  0  0  0  0  0  0  0  0  0
  147.6603  137.0881  161.7263 H   0  0  0  0  0  0  0  0  0  0  0  0
  147.3662  136.7789  163.4346 H   0  0  0  0  0  0  0  0  0  0  0  0
  146.0083  136.9908  162.3400 H   0  0  0  0  0  0  0  0  0  0  0  0
  148.0081  134.6726  162.3753 H   0  0  0  0  0  0  0  0  0  0  0  0
  144.9022  132.7109  162.9067 H   0  0  0  0  0  0  0  0  0  0  0  0
  144.2830  134.2166  162.2200 H   0  0  0  0  0  0  0  0  0  0  0  0
  146.5408  132.4829  161.1486 H   0  0  0  0  0  0  0  0  0  0  0  0
  145.1312  133.0374  160.2444 H   0  0  0  0  0  0  0  0  0  0  0  0
  144.9301  135.0613  159.8732 H   0  0  0  0  0  0  0  0  0  0  0  0
  148.5853  133.8142  160.2711 H   0  0  0  0  0  0  0  0  0  0  0  0
  147.5148  133.8749  158.8951 H   0  0  0  0  0  0  0  0  0  0  0  0
  149.0980  136.4985  161.2432 H   0  0  0  0  0  0  0  0  0  0  0  0
  151.5934  139.1199  158.3594 H   0  0  0  0  0  0  0  0  0  0  0  0
  151.1310  141.5264  158.2768 H   0  0  0  0  0  0  0  0  0  0  0  0
  152.5606  141.3930  157.2462 H   0  0  0  0  0  0  0  0  0  0  0  0
  149.7962  142.0640  156.4784 H   0  0  0  0  0  0  0  0  0  0  0  0
  151.1849  142.0126  155.3909 H   0  0  0  0  0  0  0  0  0  0  0  0
  149.2895  140.1429  155.0461 H   0  0  0  0  0  0  0  0  0  0  0  0
  151.9210  140.0723  154.3946 H   0  0  0  0  0  0  0  0  0  0  0  0
  151.7547  137.9108  153.3951 H   0  0  0  0  0  0  0  0  0  0  0  0
  150.7357  137.2978  154.6849 H   0  0  0  0  0  0  0  0  0  0  0  0
  150.0788  138.9294  152.5371 H   0  0  0  0  0  0  0  0  0  0  0  0
  153.2131  139.3189  156.2031 H   0  0  0  0  0  0  0  0  0  0  0  0
  152.2452  137.8535  156.3303 H   0  0  0  0  0  0  0  0  0  0  0  0
  147.9919  136.0310  154.9184 H   0  0  0  0  0  0  0  0  0  0  0  0
  1  2  1  0  0  0  0
  1 27  1  0  0  0  0
  1 28  1  0  0  0  0
  1 29  1  0  0  0  0
  2  6  1  0  0  0  0
  2  3  1  0  0  0  0
  2 30  1  0  0  0  0
  3  4  1  0  0  0  0
  4  5  1  0  0  0  0
  4 31  1  0  0  0  0
  4 32  1  0  0  0  0
  5  6  1  0  0  0  0
  5 33  1  0  0  0  0
  5 34  1  0  0  0  0
  6  7  1  0  0  0  0
  6  8  1  0  0  0  0
  7 35  1  0  0  0  0
  8  9  1  0  0  0  0
  8 36  1  0  0  0  0
  8 37  1  0  0  0  0
  9 26  1  0  0  0  0
  9 10  1  0  0  0  0
 10 11  2  0  0  0  0
 10 38  1  0  0  0  0
 11 12  1  0  0  0  0
 12 26  2  0  0  0  0
 12 13  1  0  0  0  0
 13 14  1  0  0  0  0
 13 23  2  0  0  0  0
 14 18  1  0  0  0  0
 14 15  1  0  0  0  0
 15 22  1  0  0  0  0
 15 16  1  0  0  0  0
 15 39  1  0  0  0  0
 16 17  1  0  0  0  0
 16 40  1  0  0  0  0
 16 41  1  0  0  0  0
 17 18  1  0  0  0  0
 17 42  1  0  0  0  0
 17 43  1  0  0  0  0
 18 19  1  0  0  0  0
 18 44  1  0  0  0  0
 19 20  1  0  0  0  0
 19 22  1  0  0  0  0
 19 45  1  0  0  0  0
 20 21  1  0  0  0  0
 20 46  1  0  0  0  0
 20 47  1  0  0  0  0
 21 48  1  0  0  0  0
 22 49  1  0  0  0  0
 22 50  1  0  0  0  0
 23 24  1  0  0  0  0
 24 25  2  0  0  0  0
 24 51  1  0  0  0  0
 25 26  1  0  0  0  0
M  END
> <s_m_source_file>
AV-unprocessed.smi

> <i_m_source_file_index>
199

> <i_lp_mmshare_version>
43012

> <i_f3d_flags>
0

> <s_epik_input>
W0NIMl0xW0NIMl1PW0NAQEhdKFtDSDNdKVtDQEBdMShbT0hdKVtDSDJdbihbY0hdbjIpYyhjMjMpbltjSF1uYzNOKFtDQEBIXTQ1KVtDQEhdKFtDSDJdW0NIMl00KVtDQEhdKFtDSDJdNSlbQ0gyXVtPSF0=

> <s_epik_cmdline>
J2VwaWtfcHl0aG9uJywgJy1waCcsICc3LjAnLCAnLXRuJywgJzgnLCAnLW1hJywgJzIwMCcsICctbWV0YWxfYmluZGluZycsICctaW1hZScsICc8aW5maWxlLm1hZT4nLCAnLW9tYWUnLCAnPG91dGZpbGUubWFlPic=

> <r_lp_tautomer_probability>
1

> <r_epik_Ionization_Penalty>
0.00583903

> <r_epik_Ionization_Penalty_Charging>
0

> <r_epik_Ionization_Penalty_Neutral>
0.00583903

> <r_epik_State_Penalty>
-0

> <r_epik_Charging_Adjusted_Penalty>
0

> <i_epik_Tot_Q>
0

> <i_epik_Tot_abs_Q>
0

> <r_epik_Metal_State_Penalty>
-0

> <b_epik_Metal_Only>
0

> <s_lp_Force_Field>
OPLS_2005

> <r_lp_Energy>
83.8114

> <b_lp_Chiralities_Consistent>
1

> <s_lp_Variant>
AV-unprocessed.smi:199-14

> <Gold.Version>
5.8.1

> <Gold.Id.Protein>
6NUR|6NUR_protein|mol2

> <Gold.PLP.Fitness>
42.7333

> <Gold.PLP.PLP>
-40.3077

> <Gold.PLP.part.hbond>
-4.0000

> <Gold.PLP.part.metal>
0.0000

> <Gold.PLP.part.buried>
-4.5654

> <Gold.PLP.part.nonpolar>
-32.2361

> <Gold.PLP.part.repulsive>
0.0458

> <Gold.PLP.ligand.clash>
0.0000

> <Gold.PLP.ligand.torsion>
0.3134

> <Gold.PLP.Chemscore.Hbond>
1.0000

> <Gold.PLP.Chemscore.CHOScore>
0.0000

> <Gold.PLP.Chemscore.Metal>
0.0000

> <Gold.Chemscore.Hbonds>
donor molecule, donor type, donor heavy atom, donor atom, acceptor molecule, acceptor atom, score
      L1  H    21    48       P1  7957  0.94

> <Gold.PLP.Chemscore.Internal.Correction>
0.0525

> <Gold.Rescore>
     Score         DG    S(hbond)    S(metal)    S(lipo)     H(rot)  DE(clash)    DE(int)     intcor
      7.96     -11.07       0.99        0.00      86.88       3.07       1.37       1.75       ----

> <Gold.Chemscore.Fitness>
7.9599

> <Gold.Chemscore.DG>
-11.0720

> <Gold.Chemscore.ZeroCoef>
-5.4800

> <Gold.Chemscore.Hbond>
0.9861

> <Gold.Chemscore.Metal>
0.0000

> <Gold.Chemscore.Lipo>
86.8829

> <Gold.Chemscore.Internal_Hbond>
0.0000

> <Gold.Chemscore.DEClash>
1.3670

> <Gold.Chemscore.DEInternal>
1.7451

> <Gold.Chemscore.Rot>
3.0729

> <Gold.Chemscore.Internal.Correction>
   9.000000E+99

> <Gold.Chemscore.Hbonds>
donor molecule, donor type, donor heavy atom, donor atom, acceptor molecule, acceptor atom, score
      L1  H    21    48       P1  7957  0.41

> <Gold.Chemscore.Hbond.Weighted>
-3.2934

> <Gold.Chemscore.Metal.Weighted>
-0.0000

> <Gold.Chemscore.Lipo.Weighted>
-10.1653

> <Gold.Chemscore.Internal_Hbond.Weighted>
0.0000

> <Gold.Chemscore.DEClash.Weighted>
1.3670

> <Gold.Chemscore.DEInternal.Weighted>
1.7451

> <Gold.Chemscore.Rot.Weighted>
7.8667

> <Gold.Chemscore.Internal.Correction.Weighted>
   9.000000E+99

> <Gold.Protein.RotatedTorsions>
[ 6907 6896 6895 6894 ] final   92.83 input  -60.11 | X-H torsion
[ 7974 7965 7964 7962 ] final   67.72 input  175.53 | X-H torsion
[ 8008 7997 7996 7995 ] final  -13.85 input   59.86 | X-H torsion
[ 10167 10162 10161 10158 ] final  116.08 input  -65.29 | X-H torsion
[ 10718 10713 10712 10709 ] final -179.92 input   66.30 | X-H torsion
[ 10763 10752 10751 10750 ] final   21.99 input  -60.55 | X-H torsion
[ 11005 11000 10999 10996 ] final -137.43 input  -57.11 | X-H torsion

> <Gold.Protein.ActiveResidues>
 VAL166  LYS551  ARG553  GLY616  TRP617  ASP618  TYR619  PRO620  LYS621  CYS622 
 ASP623  PHE694  ASN695  SER759  ASP760  ASP761  ALA762  ILE779  LEU786  VAL792 
 PHE793  MET794  SER795  GLU796  ALA797  LYS798  CYS799  TRP800  GLU811  SER814 

> <Gold.Protein.RotatedAtoms>
  152.5453  134.1442  159.8491 H   0  0  0  0  0  0  0  0  0  0  0  0  # atno 6907 bound_to 6896
  151.1475  133.4923  159.2603 H   0  0  0  0  0  0  0  0  0  0  0  0  # atno 6908 bound_to 6896
  151.1507  135.0236  159.8722 H   0  0  0  0  0  0  0  0  0  0  0  0  # atno 6909 bound_to 6896
  145.8113  139.3034  143.1098 H   0  0  0  0  0  0  0  0  0  0  0  0  # atno 7974 bound_to 7965
  154.5258  140.2238  155.8893 H   0  0  0  0  0  0  0  0  0  0  0  0  # atno 8008 bound_to 7997
  156.1711  140.3121  155.8940 H   0  0  0  0  0  0  0  0  0  0  0  0  # atno 8009 bound_to 7997
  155.3555  140.0458  157.3037 H   0  0  0  0  0  0  0  0  0  0  0  0  # atno 8010 bound_to 7997
  139.6272  144.7110  151.2508 H   0  0  0  0  0  0  0  0  0  0  0  0  # atno 10167 bound_to 10162
  156.8662  130.9768  151.3078 H   0  0  0  0  0  0  0  0  0  0  0  0  # atno 10718 bound_to 10713
  153.0951  135.6657  153.9778 H   0  0  0  0  0  0  0  0  0  0  0  0  # atno 10763 bound_to 10752
  153.9364  135.2998  155.3445 H   0  0  0  0  0  0  0  0  0  0  0  0  # atno 10764 bound_to 10752
  154.7369  135.5097  153.9131 H   0  0  0  0  0  0  0  0  0  0  0  0  # atno 10765 bound_to 10752
  140.8712  134.2049  157.4650 H   0  0  0  0  0  0  0  0  0  0  0  0  # atno 11005 bound_to 11000
  145.9775  140.8710  143.0131 LP  0  0  0  0  0  0  0  0  0  0  0  0  # atno 17320 bound_to 7965
  144.6757  140.2032  143.7385 LP  0  0  0  0  0  0  0  0  0  0  0  0  # atno 17321 bound_to 7965
  140.7418  143.6546  150.8218 LP  0  0  0  0  0  0  0  0  0  0  0  0  # atno 17342 bound_to 10162
  140.0166  143.5586  152.2817 LP  0  0  0  0  0  0  0  0  0  0  0  0  # atno 17343 bound_to 10162
  157.6222  130.8664  149.9128 LP  0  0  0  0  0  0  0  0  0  0  0  0  # atno 17370 bound_to 10713
  156.0750  130.3680  150.0696 LP  0  0  0  0  0  0  0  0  0  0  0  0  # atno 17371 bound_to 10713
  139.8712  134.9775  156.4961 LP  0  0  0  0  0  0  0  0  0  0  0  0  # atno 17394 bound_to 11000
  140.8571  133.8088  155.9227 LP  0  0  0  0  0  0  0  0  0  0  0  0  # atno 17395 bound_to 11000

$$$$
