AV-unprocessed.smi:1039|AV-procd|sdf|4522|dock7
  -GOLD-   22720 2543D 1   1.00000     0.00000
 Structure written by MMmdl.
 40 41  0  0  0  0  0  0  0  0  1 V2000
  149.9866  141.6290  156.2650 C   0  0  0  0  0  0  0  0  0  0  0  0
  150.6174  140.6403  155.2751 C   0  0  0  0  0  0  0  0  0  0  0  0
  149.5624  139.6931  154.6634 C   0  0  0  0  0  0  0  0  0  0  0  0
  150.2194  138.6381  153.7550 C   0  0  0  0  0  0  0  0  0  0  0  0
  151.2244  137.8979  154.5377 N   0  0  0  0  0  0  0  0  0  0  0  0
  151.0744  136.6494  155.0475 C   0  0  0  0  0  0  0  0  0  0  0  0
  151.7904  136.1901  155.9384 O   0  0  0  0  0  0  0  0  0  0  0  0
  150.1052  135.9247  154.4682 N   0  0  0  0  0  0  0  0  0  0  0  0
  149.7232  134.5716  154.8519 C   0  0  0  0  0  0  0  0  0  0  0  0
  148.7719  133.9355  153.8227 C   0  0  0  0  0  0  0  0  0  0  0  0
  148.7737  132.4344  153.8460 C   0  0  0  0  0  0  0  0  0  0  0  0
  149.6818  131.7163  154.4997 N   0  0  0  0  0  0  0  0  0  0  0  0
  149.3097  130.3940  154.2890 C   0  0  0  0  0  0  0  0  0  0  0  0
  148.1830  130.3581  153.5044 C   0  0  0  0  0  0  0  0  0  0  0  0
  147.8511  131.6774  153.2167 N   0  0  0  0  0  0  0  0  0  0  0  0
  146.7297  132.1251  152.4051 C   0  0  0  0  0  0  0  0  0  0  0  0
  146.0473  131.0832  151.9288 F   0  0  0  0  0  0  0  0  0  0  0  0
  145.9176  132.8953  153.1277 F   0  0  0  0  0  0  0  0  0  0  0  0
  152.3217  138.7783  154.9567 C   0  0  0  0  0  0  0  0  0  0  0  0
  151.7685  139.8412  155.9234 C   0  0  0  0  0  0  0  0  0  0  0  0
  149.5362  141.1093  157.1113 H   0  0  0  0  0  0  0  0  0  0  0  0
  149.2073  142.2215  155.7851 H   0  0  0  0  0  0  0  0  0  0  0  0
  150.7326  142.3204  156.6577 H   0  0  0  0  0  0  0  0  0  0  0  0
  151.0449  141.2228  154.4577 H   0  0  0  0  0  0  0  0  0  0  0  0
  149.0098  139.1900  155.4584 H   0  0  0  0  0  0  0  0  0  0  0  0
  148.8301  140.2665  154.0941 H   0  0  0  0  0  0  0  0  0  0  0  0
  149.4475  138.0078  153.3139 H   0  0  0  0  0  0  0  0  0  0  0  0
  150.7100  139.1263  152.9116 H   0  0  0  0  0  0  0  0  0  0  0  0
  149.5717  136.3568  153.7278 H   0  0  0  0  0  0  0  0  0  0  0  0
  150.6082  133.9461  154.9780 H   0  0  0  0  0  0  0  0  0  0  0  0
  149.2286  134.6235  155.8229 H   0  0  0  0  0  0  0  0  0  0  0  0
  147.7611  134.3055  153.9897 H   0  0  0  0  0  0  0  0  0  0  0  0
  149.0469  134.2655  152.8204 H   0  0  0  0  0  0  0  0  0  0  0  0
  149.8748  129.5782  154.7149 H   0  0  0  0  0  0  0  0  0  0  0  0
  147.6087  129.5214  153.1348 H   0  0  0  0  0  0  0  0  0  0  0  0
  147.0877  132.7002  151.5511 H   0  0  0  0  0  0  0  0  0  0  0  0
  153.1401  138.2322  155.4279 H   0  0  0  0  0  0  0  0  0  0  0  0
  152.7554  139.2589  154.0788 H   0  0  0  0  0  0  0  0  0  0  0  0
  152.5684  140.5174  156.2264 H   0  0  0  0  0  0  0  0  0  0  0  0
  151.4149  139.3532  156.8328 H   0  0  0  0  0  0  0  0  0  0  0  0
  1  2  1  0  0  0  0
  1 21  1  0  0  0  0
  1 22  1  0  0  0  0
  1 23  1  0  0  0  0
  2 20  1  0  0  0  0
  2  3  1  0  0  0  0
  2 24  1  0  0  0  0
  3  4  1  0  0  0  0
  3 25  1  0  0  0  0
  3 26  1  0  0  0  0
  4  5  1  0  0  0  0
  4 27  1  0  0  0  0
  4 28  1  0  0  0  0
  5  6  1  0  0  0  0
  5 19  1  0  0  0  0
  6  7  2  0  0  0  0
  6  8  1  0  0  0  0
  8  9  1  0  0  0  0
  8 29  1  0  0  0  0
  9 10  1  0  0  0  0
  9 30  1  0  0  0  0
  9 31  1  0  0  0  0
 10 11  1  0  0  0  0
 10 32  1  0  0  0  0
 10 33  1  0  0  0  0
 11 15  1  0  0  0  0
 11 12  2  0  0  0  0
 12 13  1  0  0  0  0
 13 14  2  0  0  0  0
 13 34  1  0  0  0  0
 14 15  1  0  0  0  0
 14 35  1  0  0  0  0
 15 16  1  0  0  0  0
 16 17  1  0  0  0  0
 16 18  1  0  0  0  0
 16 36  1  0  0  0  0
 19 20  1  0  0  0  0
 19 37  1  0  0  0  0
 19 38  1  0  0  0  0
 20 39  1  0  0  0  0
 20 40  1  0  0  0  0
M  END
> <s_m_source_file>
AV-unprocessed.smi

> <i_m_source_file_index>
1039

> <i_lp_mmshare_version>
43012

> <i_f3d_flags>
0

> <s_epik_input>
W0NIM11bQ0hdMVtDSDJdW0NIMl1OKFtDSDJdW0NIMl0xKUMoPU8pW05IXVtDSDJdW0NIMl1jMm5bY0hdW2NIXW4yW0NIXShGKUY=

> <s_epik_cmdline>
J2VwaWtfcHl0aG9uJywgJy1waCcsICc3LjAnLCAnLXRuJywgJzgnLCAnLW1hJywgJzIwMCcsICctbWV0YWxfYmluZGluZycsICctaW1hZScsICc8aW5maWxlLm1hZT4nLCAnLW9tYWUnLCAnPG91dGZpbGUubWFlPic=

> <r_lp_tautomer_probability>
1

> <r_epik_Ionization_Penalty>
0.101783

> <r_epik_Ionization_Penalty_Charging>
0.101715

> <r_epik_Ionization_Penalty_Neutral>
6.87123e-05

> <r_epik_State_Penalty>
0.091697

> <r_epik_Charging_Adjusted_Penalty>
0.193412

> <i_epik_Tot_Q>
0

> <i_epik_Tot_abs_Q>
0

> <r_epik_Metal_State_Penalty>
0.0781553

> <b_epik_Metal_Only>
0

> <s_lp_Force_Field>
OPLS_2005

> <r_lp_Energy>
33.8957

> <b_lp_Chiralities_Consistent>
1

> <s_lp_Variant>
AV-unprocessed.smi:1039-1

> <Gold.Version>
5.8.1

> <Gold.Id.Protein>
6NUR|6NUR_protein|mol2

> <Gold.PLP.Fitness>
43.2998

> <Gold.PLP.PLP>
-38.1972

> <Gold.PLP.part.hbond>
-2.5083

> <Gold.PLP.part.metal>
0.0000

> <Gold.PLP.part.buried>
1.3084

> <Gold.PLP.part.nonpolar>
-36.8253

> <Gold.PLP.part.repulsive>
0.1185

> <Gold.PLP.ligand.clash>
0.0000

> <Gold.PLP.ligand.torsion>
0.3975

> <Gold.PLP.Chemscore.Hbond>
1.9440

> <Gold.PLP.Chemscore.CHOScore>
0.0000

> <Gold.PLP.Chemscore.Metal>
0.0000

> <Gold.Chemscore.Hbonds>
donor molecule, donor type, donor heavy atom, donor atom, acceptor molecule, acceptor atom, score
      L1  H     8    29       P1  7948  0.91
      P1  H 10752 10763       L1     7  1.00

> <Gold.PLP.Chemscore.Internal.Correction>
0.0657

> <Gold.Rescore>
     Score         DG    S(hbond)    S(metal)    S(lipo)     H(rot)  DE(clash)    DE(int)     intcor
     13.52     -14.36       1.48        0.00      67.96       1.56       0.55       0.30       ----

> <Gold.Chemscore.Fitness>
13.5153

> <Gold.Chemscore.DG>
-14.3610

> <Gold.Chemscore.ZeroCoef>
-5.4800

> <Gold.Chemscore.Hbond>
1.4761

> <Gold.Chemscore.Metal>
0.0000

> <Gold.Chemscore.Lipo>
67.9579

> <Gold.Chemscore.Internal_Hbond>
0.0000

> <Gold.Chemscore.DEClash>
0.5460

> <Gold.Chemscore.DEInternal>
0.2997

> <Gold.Chemscore.Rot>
1.5626

> <Gold.Chemscore.Internal.Correction>
   9.000000E+99

> <Gold.Chemscore.Hbonds>
donor molecule, donor type, donor heavy atom, donor atom, acceptor molecule, acceptor atom, score
      L1  H     8    29       P1  7948  0.53
      P1  H 10752 10763       L1     7  0.68

> <Gold.Chemscore.Hbond.Weighted>
-4.9303

> <Gold.Chemscore.Metal.Weighted>
-0.0000

> <Gold.Chemscore.Lipo.Weighted>
-7.9511

> <Gold.Chemscore.Internal_Hbond.Weighted>
0.0000

> <Gold.Chemscore.DEClash.Weighted>
0.5460

> <Gold.Chemscore.DEInternal.Weighted>
0.2997

> <Gold.Chemscore.Rot.Weighted>
4.0004

> <Gold.Chemscore.Internal.Correction.Weighted>
   9.000000E+99

> <Gold.Protein.RotatedTorsions>
[ 6907 6896 6895 6894 ] final  108.42 input  -60.11 | X-H torsion
[ 7974 7965 7964 7962 ] final   57.60 input  175.53 | X-H torsion
[ 8008 7997 7996 7995 ] final  126.87 input   59.86 | X-H torsion
[ 10167 10162 10161 10158 ] final -167.57 input  -65.29 | X-H torsion
[ 10718 10713 10712 10709 ] final -149.03 input   66.30 | X-H torsion
[ 10763 10752 10751 10750 ] final  100.88 input  -60.55 | X-H torsion
[ 11005 11000 10999 10996 ] final -102.08 input  -57.11 | X-H torsion

> <Gold.Protein.ActiveResidues>
 VAL166  LYS551  ARG553  GLY616  TRP617  ASP618  TYR619  PRO620  LYS621  CYS622 
 ASP623  PHE694  ASN695  SER759  ASP760  ASP761  ALA762  ILE779  LEU786  VAL792 
 PHE793  MET794  SER795  GLU796  ALA797  LYS798  CYS799  TRP800  GLU811  SER814 

> <Gold.Protein.RotatedAtoms>
  152.5113  133.9091  159.7478 H   0  0  0  0  0  0  0  0  0  0  0  0  # atno 6907 bound_to 6896
  150.9489  133.6563  159.2783 H   0  0  0  0  0  0  0  0  0  0  0  0  # atno 6908 bound_to 6896
  151.3848  135.0951  159.9560 H   0  0  0  0  0  0  0  0  0  0  0  0  # atno 6909 bound_to 6896
  145.9273  139.3778  143.0442 H   0  0  0  0  0  0  0  0  0  0  0  0  # atno 7974 bound_to 7965
  156.2876  140.2682  156.2181 H   0  0  0  0  0  0  0  0  0  0  0  0  # atno 8008 bound_to 7997
  155.0195  140.0386  157.2450 H   0  0  0  0  0  0  0  0  0  0  0  0  # atno 8009 bound_to 7997
  154.7448  140.2732  155.6348 H   0  0  0  0  0  0  0  0  0  0  0  0  # atno 8010 bound_to 7997
  139.6040  144.0950  152.1774 H   0  0  0  0  0  0  0  0  0  0  0  0  # atno 10167 bound_to 10162
  156.4278  130.8061  151.2286 H   0  0  0  0  0  0  0  0  0  0  0  0  # atno 10718 bound_to 10713
  153.3196  135.4063  155.1405 H   0  0  0  0  0  0  0  0  0  0  0  0  # atno 10763 bound_to 10752
  154.8597  135.3584  154.5615 H   0  0  0  0  0  0  0  0  0  0  0  0  # atno 10764 bound_to 10752
  153.6047  135.7070  153.5429 H   0  0  0  0  0  0  0  0  0  0  0  0  # atno 10765 bound_to 10752
  141.1204  133.8529  157.1314 H   0  0  0  0  0  0  0  0  0  0  0  0  # atno 11005 bound_to 11000
  145.8472  140.9548  143.0768 LP  0  0  0  0  0  0  0  0  0  0  0  0  # atno 17320 bound_to 7965
  144.6760  140.0361  143.7482 LP  0  0  0  0  0  0  0  0  0  0  0  0  # atno 17321 bound_to 7965
  140.0553  144.5900  150.7304 LP  0  0  0  0  0  0  0  0  0  0  0  0  # atno 17342 bound_to 10162
  140.7271  143.2648  151.4081 LP  0  0  0  0  0  0  0  0  0  0  0  0  # atno 17343 bound_to 10162
  157.7508  131.0208  150.3722 LP  0  0  0  0  0  0  0  0  0  0  0  0  # atno 17370 bound_to 10713
  156.4053  130.3923  149.6930 LP  0  0  0  0  0  0  0  0  0  0  0  0  # atno 17371 bound_to 10713
  140.0157  134.9968  157.0489 LP  0  0  0  0  0  0  0  0  0  0  0  0  # atno 17394 bound_to 11000
  140.4523  134.1569  155.7183 LP  0  0  0  0  0  0  0  0  0  0  0  0  # atno 17395 bound_to 11000

$$$$
