#       Name:                AV-unprocessed.smi:110
#       Creating user name   scv26
#       Creation time:       Thu Mar 26 18:15:33 2020


#       File generated by GOLD software.
#

@<TRIPOS>MOLECULE
AV-unprocessed.smi:110
    57    61     1
SMALL
NO_CHARGES


@<TRIPOS>ATOM
      1 ****        -1.3449   0.9843  -3.7920 O.3            1 S1                 0.0000
      2 ****        -0.8606  -0.3339  -3.6512 C.3            1 S1                 0.0000
      3 ****         0.5223  -0.4607  -4.3337 C.3            1 S1                 0.0000
      4 ****         1.5323   0.1422  -3.5307 O.3            1 S1                 0.0000
      5 ****         2.0441  -0.7598  -2.5923 C.3            1 S1                 0.0000
      6 ****         1.4288  -0.4659  -1.2513 N.pl3          1 S1                 0.0000
      7 ****         1.2369  -1.3227  -0.1870 C.2            1 S1                 0.0000
      8 ****         0.7015  -0.7882   0.8756 N.2            1 S1                 0.0000
      9 ****         0.5458   0.5512   0.5437 C.ar           1 S1                 0.0000
     10 ****         0.0468   1.6969   1.2273 C.ar           1 S1                 0.0000
     11 ****        -0.4554   1.6839   2.4839 N.pl3          1 S1                 0.0000
     12 ****         0.0525   2.6435   3.4745 C.3            1 S1                 0.0000
     13 ****        -0.3507   2.1283   4.8692 C.3            1 S1                 0.0000
     14 ****        -1.1673   0.9298   4.5066 C.ar           1 S1                 0.0000
     15 ****        -1.8640   0.0774   5.3806 C.ar           1 S1                 0.0000
     16 ****        -2.5997  -0.9900   4.8228 C.ar           1 S1                 0.0000
     17 ****        -2.6350  -1.1783   3.4216 C.ar           1 S1                 0.0000
     18 ****        -1.9289  -0.3077   2.5626 C.ar           1 S1                 0.0000
     19 ****        -1.1775   0.7431   3.1280 C.ar           1 S1                 0.0000
     20 ****         0.1285   2.8937   0.5930 N.ar           1 S1                 0.0000
     21 ****         0.6269   2.9640  -0.6436 C.ar           1 S1                 0.0000
     22 ****         1.0987   1.9788  -1.4086 N.ar           1 S1                 0.0000
     23 ****         1.0400   0.7720  -0.7734 C.ar           1 S1                 0.0000
     24 ****         1.6728  -2.1720  -3.0954 C.3            1 S1                 0.0000
     25 ****         2.8119  -2.9970  -3.2319 O.3            1 S1                 0.0000
     26 ****         1.0712  -1.8872  -4.4666 C.3            1 S1                 0.0000
     27 ****         0.0780  -2.8330  -4.8122 O.3            1 S1                 0.0000
     28 ****         0.4880   0.0164  -5.3141 H              1 S1                 0.0000
     29 ****         3.1115  -0.5958  -2.4397 H              1 S1                 0.0000
     30 ****         0.9297  -2.6375  -2.4479 H              1 S1                 0.0000
     31 ****         1.8505  -1.8893  -5.2309 H              1 S1                 0.0000
     32 ****        -2.1887   1.0414  -3.3702 H              1 S1                 0.0000
     33 ****        -0.8429  -0.6179  -2.6004 H              1 S1                 0.0000
     34 ****        -1.5882  -0.9829  -4.1377 H              1 S1                 0.0000
     35 ****         1.5022  -2.3692  -0.2160 H              1 S1                 0.0000
     36 ****         1.1357   2.7447   3.3938 H              1 S1                 0.0000
     37 ****        -0.3891   3.6230   3.2870 H              1 S1                 0.0000
     38 ****         0.5153   1.8340   5.4627 H              1 S1                 0.0000
     39 ****        -0.9418   2.8566   5.4247 H              1 S1                 0.0000
     40 ****        -1.8417   0.2378   6.4481 H              1 S1                 0.0000
     41 ****        -3.1458  -1.6613   5.4689 H              1 S1                 0.0000
     42 ****        -3.2104  -1.9914   3.0044 H              1 S1                 0.0000
     43 ****        -1.9733  -0.4485   1.4929 H              1 S1                 0.0000
     44 ****         0.6494   3.9496  -1.0845 H              1 S1                 0.0000
     45 ****         3.1980  -3.1203  -2.3782 H              1 S1                 0.0000
     46 ****         0.4873  -3.6822  -4.8810 H              1 S1                 0.0000
     47 ****        -1.4373   1.2076  -4.7624 LP             1 S1                 0.0000
     48 ****        -0.7089   1.6248  -3.3617 LP             1 S1                 0.0000
     49 ****         1.1402   0.9257  -3.0487 LP             1 S1                 0.0000
     50 ****         2.2760   0.4531  -4.1225 LP             1 S1                 0.0000
     51 ****         0.4585  -1.2401   1.7339 LP             1 S1                 0.0000
     52 ****        -0.1852   3.7246   1.0526 LP             1 S1                 0.0000
     53 ****         1.4524   2.1084  -2.3349 LP             1 S1                 0.0000
     54 ****         3.4735  -2.5600  -3.8412 LP             1 S1                 0.0000
     55 ****         2.5434  -3.8823  -3.6115 LP             1 S1                 0.0000
     56 ****        -0.3348  -2.5847  -5.6886 LP             1 S1                 0.0000
     57 ****        -0.6288  -2.8547  -4.1051 LP             1 S1                 0.0000
@<TRIPOS>BOND
    1    1    2 1     
    2    1   32 1     
    3    2    3 1     
    4    2   33 1     
    5    2   34 1     
    6    3   28 1     
    7    3   26 1     
    8    3    4 1     
    9    4    5 1     
   10    5   29 1     
   11    5    6 1     
   12    5   24 1     
   13    6   23 1     
   14    6    7 1     
   15    7    8 2     
   16    7   35 1     
   17    8    9 1     
   18    9   23 ar    
   19    9   10 ar    
   20   10   11 1     
   21   10   20 ar    
   22   11   19 1     
   23   11   12 1     
   24   12   13 1     
   25   12   36 1     
   26   12   37 1     
   27   13   14 1     
   28   13   38 1     
   29   13   39 1     
   30   14   19 ar    
   31   14   15 ar    
   32   15   16 ar    
   33   15   40 1     
   34   16   17 ar    
   35   16   41 1     
   36   17   18 ar    
   37   17   42 1     
   38   18   19 ar    
   39   18   43 1     
   40   20   21 ar    
   41   21   22 ar    
   42   21   44 1     
   43   22   23 ar    
   44   24   30 1     
   45   24   25 1     
   46   24   26 1     
   47   25   45 1     
   48   26   31 1     
   49   26   27 1     
   50   27   46 1     
   51    1   47 1     
   52    1   48 1     
   53    4   49 1     
   54    4   50 1     
   55    8   51 1     
   56   20   52 1     
   57   22   53 1     
   58   25   54 1     
   59   25   55 1     
   60   27   56 1     
   61   27   57 1     
@<TRIPOS>SUBSTRUCTURE
      1 S1             1
@<TRIPOS>SET
LONE_PAIRS      STATIC     ATOMS    <user>   **** ""
11 47 48 49 50 51 52 53 54 55 56 57
DONOR_HYDROGENS      STATIC     ATOMS    <user>   **** ""
3 32 45 46
ATOM$BLUE        STATIC     ATOMS    COLORGROUP SYSTEM
11 47 48 49 50 51 52 53 54 55 56 57
ATOM$RED        STATIC     ATOMS    COLORGROUP SYSTEM
3 32 45 46
