AV-unprocessed.smi:2911|AV-procd|sdf|11178|dock4
  -GOLD-   2272016 73D 1   1.00000     0.00000
 Structure written by MMmdl.
 41 42  0  0  0  0  0  0  0  0  1 V2000
  150.0662  135.1963  155.2178 C   0  0  0  0  0  0  0  0  0  0  0  0
  150.3284  136.6364  154.9370 C   0  0  0  0  0  0  0  0  0  0  0  0
  151.5427  137.0666  154.6163 N   0  0  0  0  0  0  0  0  0  0  0  0
  151.3622  138.4470  154.4478 O   0  0  0  0  0  0  0  0  0  0  0  0
  150.0468  138.6782  154.6744 C   0  0  0  0  0  0  0  0  0  0  0  0
  149.5415  140.0808  154.6168 C   0  0  0  0  0  0  0  0  0  0  0  0
  149.0576  140.5861  155.9853 C   0  0  0  0  0  0  0  0  0  0  0  0
  150.1683  141.0421  156.8135 N   0  0  0  0  0  0  0  0  0  0  0  0
  150.1492  142.1190  157.6177 C   0  0  0  0  0  0  0  0  0  0  0  0
  149.1425  142.8195  157.7373 O   0  0  0  0  0  0  0  0  0  0  0  0
  151.2934  142.3289  158.3220 N   0  0  0  0  0  0  0  0  0  0  0  0
  152.3847  141.3422  158.4788 C   0  0  0  0  0  0  0  0  0  0  0  0
  152.7363  141.1472  159.9604 C   0  0  0  0  0  0  0  0  0  0  0  0
  153.1363  142.4818  160.6074 C   0  0  2  0  0  0  0  0  0  0  0  0
  153.4654  142.3126  162.0970 C   0  0  0  0  0  0  0  0  0  0  0  0
  152.0246  143.5216  160.3863 C   0  0  0  0  0  0  0  0  0  0  0  0
  151.5955  143.6532  158.9081 C   0  0  1  0  0  0  0  0  0  0  0  0
  152.5810  144.4518  158.0357 C   0  0  0  0  0  0  0  0  0  0  0  0
  149.3575  137.5883  155.0026 N   0  0  0  0  0  0  0  0  0  0  0  0
  150.7943  134.5641  154.7084 H   0  0  0  0  0  0  0  0  0  0  0  0
  149.0701  134.9167  154.8741 H   0  0  0  0  0  0  0  0  0  0  0  0
  150.1298  135.0055  156.2892 H   0  0  0  0  0  0  0  0  0  0  0  0
  150.3395  140.7214  154.2398 H   0  0  0  0  0  0  0  0  0  0  0  0
  148.7325  140.1262  153.8866 H   0  0  0  0  0  0  0  0  0  0  0  0
  148.3269  141.3874  155.8616 H   0  0  0  0  0  0  0  0  0  0  0  0
  148.5492  139.7822  156.5183 H   0  0  0  0  0  0  0  0  0  0  0  0
  151.0163  140.4952  156.7797 H   0  0  0  0  0  0  0  0  0  0  0  0
  152.1692  140.3657  158.0461 H   0  0  0  0  0  0  0  0  0  0  0  0
  153.2610  141.6973  157.9365 H   0  0  0  0  0  0  0  0  0  0  0  0
  151.8823  140.7163  160.4851 H   0  0  0  0  0  0  0  0  0  0  0  0
  153.5522  140.4298  160.0530 H   0  0  0  0  0  0  0  0  0  0  0  0
  154.0394  142.8398  160.1115 H   0  0  0  0  0  0  0  0  0  0  0  0
  152.6011  141.9530  162.6561 H   0  0  0  0  0  0  0  0  0  0  0  0
  153.7786  143.2586  162.5395 H   0  0  0  0  0  0  0  0  0  0  0  0
  154.2757  141.5973  162.2405 H   0  0  0  0  0  0  0  0  0  0  0  0
  151.1524  143.2316  160.9744 H   0  0  0  0  0  0  0  0  0  0  0  0
  152.3359  144.4934  160.7716 H   0  0  0  0  0  0  0  0  0  0  0  0
  150.6862  144.2553  158.9433 H   0  0  0  0  0  0  0  0  0  0  0  0
  152.7186  145.4590  158.4297 H   0  0  0  0  0  0  0  0  0  0  0  0
  152.2102  144.5486  157.0148 H   0  0  0  0  0  0  0  0  0  0  0  0
  153.5638  143.9839  157.9902 H   0  0  0  0  0  0  0  0  0  0  0  0
  1  2  1  0  0  0  0
  1 20  1  0  0  0  0
  1 21  1  0  0  0  0
  1 22  1  0  0  0  0
  2 19  1  0  0  0  0
  2  3  2  0  0  0  0
  3  4  1  0  0  0  0
  4  5  1  0  0  0  0
  5  6  1  0  0  0  0
  5 19  2  0  0  0  0
  6  7  1  0  0  0  0
  6 23  1  0  0  0  0
  6 24  1  0  0  0  0
  7  8  1  0  0  0  0
  7 25  1  0  0  0  0
  7 26  1  0  0  0  0
  8  9  1  0  0  0  0
  8 27  1  0  0  0  0
  9 10  2  0  0  0  0
  9 11  1  0  0  0  0
 11 17  1  0  0  0  0
 11 12  1  0  0  0  0
 12 13  1  0  0  0  0
 12 28  1  0  0  0  0
 12 29  1  0  0  0  0
 13 14  1  0  0  0  0
 13 30  1  0  0  0  0
 13 31  1  0  0  0  0
 14 15  1  0  0  0  0
 14 16  1  0  0  0  0
 14 32  1  0  0  0  0
 15 33  1  0  0  0  0
 15 34  1  0  0  0  0
 15 35  1  0  0  0  0
 16 17  1  0  0  0  0
 16 36  1  0  0  0  0
 16 37  1  0  0  0  0
 17 18  1  0  0  0  0
 17 38  1  0  0  0  0
 18 39  1  0  0  0  0
 18 40  1  0  0  0  0
 18 41  1  0  0  0  0
M  END
> <s_m_source_file>
AV-unprocessed.smi

> <i_m_source_file_index>
2911

> <i_lp_mmshare_version>
43012

> <i_f3d_flags>
0

> <s_epik_input>
W0NIM11jMW5vYyhuMSlbQ0gyXVtDSDJdW05IXUMoPU8pTjJbQ0gyXVtDSDJdW0NAQEhdKFtDSDNdKVtDSDJdW0NASF0yW0NIM10=

> <s_epik_cmdline>
J2VwaWtfcHl0aG9uJywgJy1waCcsICc3LjAnLCAnLXRuJywgJzgnLCAnLW1hJywgJzIwMCcsICctbWV0YWxfYmluZGluZycsICctaW1hZScsICc8aW5maWxlLm1hZT4nLCAnLW9tYWUnLCAnPG91dGZpbGUubWFlPic=

> <r_lp_tautomer_probability>
1

> <r_epik_Ionization_Penalty>
6.61671e-05

> <r_epik_Ionization_Penalty_Charging>
0

> <r_epik_Ionization_Penalty_Neutral>
6.61671e-05

> <r_epik_State_Penalty>
-0

> <r_epik_Charging_Adjusted_Penalty>
0

> <i_epik_Tot_Q>
0

> <i_epik_Tot_abs_Q>
0

> <r_epik_Metal_State_Penalty>
-0

> <b_epik_Metal_Only>
0

> <s_lp_Force_Field>
OPLS_2005

> <r_lp_Energy>
30.9139

> <b_lp_Chiralities_Consistent>
1

> <s_lp_Variant>
AV-unprocessed.smi:2911-2

> <Gold.Version>
5.8.1

> <Gold.Id.Protein>
6NUR|6NUR_protein|mol2

> <Gold.PLP.Fitness>
41.5289

> <Gold.PLP.PLP>
-39.0790

> <Gold.PLP.part.hbond>
-1.1896

> <Gold.PLP.part.metal>
0.0000

> <Gold.PLP.part.buried>
-5.5981

> <Gold.PLP.part.nonpolar>
-34.4570

> <Gold.PLP.part.repulsive>
1.6022

> <Gold.PLP.ligand.clash>
0.0000

> <Gold.PLP.ligand.torsion>
0.4213

> <Gold.PLP.Chemscore.Hbond>
1.0895

> <Gold.PLP.Chemscore.CHOScore>
0.0000

> <Gold.PLP.Chemscore.Metal>
0.0000

> <Gold.Chemscore.Hbonds>
donor molecule, donor type, donor heavy atom, donor atom, acceptor molecule, acceptor atom, score
      P1  H 10752 10764       L1     3  1.00

> <Gold.PLP.Chemscore.Internal.Correction>
0.0239

> <Gold.Rescore>
     Score         DG    S(hbond)    S(metal)    S(lipo)     H(rot)  DE(clash)    DE(int)     intcor
     15.15     -15.67       0.99        0.00      94.15       1.61       0.03       0.49       ----

> <Gold.Chemscore.Fitness>
15.1550

> <Gold.Chemscore.DG>
-15.6718

> <Gold.Chemscore.ZeroCoef>
-5.4800

> <Gold.Chemscore.Hbond>
0.9866

> <Gold.Chemscore.Metal>
0.0000

> <Gold.Chemscore.Lipo>
94.1485

> <Gold.Chemscore.Internal_Hbond>
0.0000

> <Gold.Chemscore.DEClash>
0.0299

> <Gold.Chemscore.DEInternal>
0.4869

> <Gold.Chemscore.Rot>
1.6088

> <Gold.Chemscore.Internal.Correction>
   9.000000E+99

> <Gold.Chemscore.Hbonds>
donor molecule, donor type, donor heavy atom, donor atom, acceptor molecule, acceptor atom, score
      P1  H 10752 10764       L1     3  0.88

> <Gold.Chemscore.Hbond.Weighted>
-3.2951

> <Gold.Chemscore.Metal.Weighted>
-0.0000

> <Gold.Chemscore.Lipo.Weighted>
-11.0154

> <Gold.Chemscore.Internal_Hbond.Weighted>
0.0000

> <Gold.Chemscore.DEClash.Weighted>
0.0299

> <Gold.Chemscore.DEInternal.Weighted>
0.4869

> <Gold.Chemscore.Rot.Weighted>
4.1186

> <Gold.Chemscore.Internal.Correction.Weighted>
   9.000000E+99

> <Gold.Protein.RotatedTorsions>
[ 6907 6896 6895 6894 ] final -158.33 input  -60.11 | X-H torsion
[ 7974 7965 7964 7962 ] final  -21.41 input  175.53 | X-H torsion
[ 8008 7997 7996 7995 ] final   -0.42 input   59.86 | X-H torsion
[ 10167 10162 10161 10158 ] final -140.72 input  -65.29 | X-H torsion
[ 10718 10713 10712 10709 ] final    6.41 input   66.30 | X-H torsion
[ 10763 10752 10751 10750 ] final  -73.11 input  -60.55 | X-H torsion
[ 11005 11000 10999 10996 ] final  -60.69 input  -57.11 | X-H torsion

> <Gold.Protein.ActiveResidues>
 VAL166  LYS551  ARG553  GLY616  TRP617  ASP618  TYR619  PRO620  LYS621  CYS622 
 ASP623  PHE694  ASN695  SER759  ASP760  ASP761  ALA762  ILE779  LEU786  VAL792 
 PHE793  MET794  SER795  GLU796  ALA797  LYS798  CYS799  TRP800  GLU811  SER814 

> <Gold.Protein.RotatedAtoms>
  151.3165  133.4058  159.2650 H   0  0  0  0  0  0  0  0  0  0  0  0  # atno 6907 bound_to 6896
  151.0070  134.9367  159.7996 H   0  0  0  0  0  0  0  0  0  0  0  0  # atno 6908 bound_to 6896
  152.5290  134.3130  159.9173 H   0  0  0  0  0  0  0  0  0  0  0  0  # atno 6909 bound_to 6896
  146.1734  140.4337  142.8523 H   0  0  0  0  0  0  0  0  0  0  0  0  # atno 7974 bound_to 7965
  154.6582  140.2584  155.7138 H   0  0  0  0  0  0  0  0  0  0  0  0  # atno 8008 bound_to 7997
  156.2606  140.2854  156.0965 H   0  0  0  0  0  0  0  0  0  0  0  0  # atno 8009 bound_to 7997
  155.1348  140.0379  157.2774 H   0  0  0  0  0  0  0  0  0  0  0  0  # atno 8010 bound_to 7997
  139.8254  143.7518  152.2666 H   0  0  0  0  0  0  0  0  0  0  0  0  # atno 10167 bound_to 10162
  156.9217  130.5793  149.5648 H   0  0  0  0  0  0  0  0  0  0  0  0  # atno 10718 bound_to 10713
  154.4549  135.5908  153.6216 H   0  0  0  0  0  0  0  0  0  0  0  0  # atno 10763 bound_to 10752
  152.9817  135.6030  154.3558 H   0  0  0  0  0  0  0  0  0  0  0  0  # atno 10764 bound_to 10752
  154.3424  135.2841  155.2394 H   0  0  0  0  0  0  0  0  0  0  0  0  # atno 10765 bound_to 10752
  141.1297  133.6624  156.5262 H   0  0  0  0  0  0  0  0  0  0  0  0  # atno 11005 bound_to 11000
  144.8198  140.6531  143.6360 LP  0  0  0  0  0  0  0  0  0  0  0  0  # atno 17320 bound_to 7965
  145.4277  139.1554  143.4039 LP  0  0  0  0  0  0  0  0  0  0  0  0  # atno 17321 bound_to 7965
  139.7709  144.7477  151.0226 LP  0  0  0  0  0  0  0  0  0  0  0  0  # atno 17342 bound_to 10162
  140.7810  143.4646  151.0230 LP  0  0  0  0  0  0  0  0  0  0  0  0  # atno 17343 bound_to 10162
  156.0488  130.5560  150.8942 LP  0  0  0  0  0  0  0  0  0  0  0  0  # atno 17370 bound_to 10713
  157.5903  131.0944  150.9129 LP  0  0  0  0  0  0  0  0  0  0  0  0  # atno 17371 bound_to 10713
  140.4252  134.7151  157.4912 LP  0  0  0  0  0  0  0  0  0  0  0  0  # atno 17394 bound_to 11000
  140.0332  134.6376  155.9079 LP  0  0  0  0  0  0  0  0  0  0  0  0  # atno 17395 bound_to 11000

$$$$
