AV-unprocessed.smi:34|AV-procd|sdf|228|dock4
  -GOLD-   2262015553D 1   1.00000     0.00000
 Structure written by MMmdl.
 55 59  0  0  0  0  0  0  0  0  1 V2000
  152.3633  139.6318  158.8403 O   0  0  0  0  0  0  0  0  0  0  0  0
  151.9543  140.5674  158.1520 C   0  0  0  0  0  0  0  0  0  0  0  0
  151.5601  140.3921  156.7658 N   0  0  0  0  0  0  0  0  0  0  0  0
  151.4694  139.2403  156.0607 C   0  0  0  0  0  0  0  0  0  0  0  0
  151.7878  139.1637  154.7417 N   0  0  0  0  0  0  0  0  0  0  0  0
  151.6883  137.9999  154.0935 C   0  0  0  0  0  0  0  0  0  0  0  0
  151.3021  136.8140  154.5672 N   0  0  0  0  0  0  0  0  0  0  0  0
  150.9764  136.8808  155.8893 C   0  0  0  0  0  0  0  0  0  0  0  0
  151.0312  138.0504  156.6980 C   0  0  0  0  0  0  0  0  0  0  0  0
  150.6290  137.7476  157.9921 N   0  0  0  0  0  0  0  0  0  0  0  0
  150.3558  136.4716  157.9459 C   0  0  0  0  0  0  0  0  0  0  0  0
  150.5413  135.8686  156.7217 N   0  0  0  0  0  0  0  0  0  0  0  0
  150.3220  134.4286  156.3865 C   0  0  1  0  0  0  0  0  0  0  0  0
  149.8787  133.7624  157.5309 O   0  0  0  0  0  0  0  0  0  0  0  0
  148.8306  132.8416  157.2067 C   0  0  1  0  0  0  0  0  0  0  0  0
  147.5222  133.2922  157.8705 C   0  0  0  0  0  0  0  0  0  0  0  0
  147.8207  134.1744  158.9403 O   0  0  0  0  0  0  0  0  0  0  0  0
  147.8392  133.7210  160.2092 C   0  0  0  0  0  0  0  0  0  0  0  0
  148.0286  132.5407  160.5111 O   0  0  0  0  0  0  0  0  0  0  0  0
  147.6013  134.7978  161.2128 C   0  0  0  0  0  0  0  0  0  0  0  0
  147.2761  136.1002  160.7670 C   0  0  0  0  0  0  0  0  0  0  0  0
  147.0471  137.1381  161.6910 C   0  0  0  0  0  0  0  0  0  0  0  0
  147.1395  136.8864  163.0720 C   0  0  0  0  0  0  0  0  0  0  0  0
  147.4623  135.5951  163.5285 C   0  0  0  0  0  0  0  0  0  0  0  0
  147.6924  134.5558  162.6059 C   0  0  0  0  0  0  0  0  0  0  0  0
  148.7399  132.8650  155.6782 C   0  0  2  0  0  0  0  0  0  0  0  0
  149.5824  131.9418  155.2055 F   0  0  0  0  0  0  0  0  0  0  0  0
  149.2275  134.2631  155.3364 C   0  0  2  0  0  0  0  0  0  0  0  0
  149.6993  134.3110  154.0048 O   0  0  0  0  0  0  0  0  0  0  0  0
  151.9122  141.9739  158.6761 C   0  0  0  0  0  0  0  0  0  0  0  0
  151.3281  143.0007  157.9007 C   0  0  0  0  0  0  0  0  0  0  0  0
  151.3043  144.3269  158.3752 C   0  0  0  0  0  0  0  0  0  0  0  0
  151.8698  144.6387  159.6259 C   0  0  0  0  0  0  0  0  0  0  0  0
  152.4627  143.6241  160.4005 C   0  0  0  0  0  0  0  0  0  0  0  0
  152.4882  142.2979  159.9268 C   0  0  0  0  0  0  0  0  0  0  0  0
  151.2819  141.2306  156.2773 H   0  0  0  0  0  0  0  0  0  0  0  0
  151.9562  138.0213  153.0473 H   0  0  0  0  0  0  0  0  0  0  0  0
  150.0149  135.9277  158.8148 H   0  0  0  0  0  0  0  0  0  0  0  0
  151.2941  134.0399  156.0784 H   0  0  0  0  0  0  0  0  0  0  0  0
  149.0900  131.8435  157.5624 H   0  0  0  0  0  0  0  0  0  0  0  0
  146.8659  133.7591  157.1368 H   0  0  0  0  0  0  0  0  0  0  0  0
  146.9884  132.4296  158.2701 H   0  0  0  0  0  0  0  0  0  0  0  0
  147.1999  136.3178  159.7115 H   0  0  0  0  0  0  0  0  0  0  0  0
  146.8008  138.1288  161.3388 H   0  0  0  0  0  0  0  0  0  0  0  0
  146.9639  137.6826  163.7802 H   0  0  0  0  0  0  0  0  0  0  0  0
  147.5339  135.4008  164.5884 H   0  0  0  0  0  0  0  0  0  0  0  0
  147.9378  133.5766  162.9900 H   0  0  0  0  0  0  0  0  0  0  0  0
  147.7473  132.6378  155.2880 H   0  0  0  0  0  0  0  0  0  0  0  0
  148.4375  134.9977  155.4990 H   0  0  0  0  0  0  0  0  0  0  0  0
  149.2028  134.9637  153.5351 H   0  0  0  0  0  0  0  0  0  0  0  0
  150.8916  142.7787  156.9375 H   0  0  0  0  0  0  0  0  0  0  0  0
  150.8534  145.1059  157.7782 H   0  0  0  0  0  0  0  0  0  0  0  0
  151.8524  145.6558  159.9890 H   0  0  0  0  0  0  0  0  0  0  0  0
  152.9025  143.8631  161.3576 H   0  0  0  0  0  0  0  0  0  0  0  0
  152.9584  141.5377  160.5335 H   0  0  0  0  0  0  0  0  0  0  0  0
  1  2  2  0  0  0  0
  2  3  1  0  0  0  0
  2 30  1  0  0  0  0
  3  4  1  0  0  0  0
  3 36  1  0  0  0  0
  4  9  1  0  0  0  0
  4  5  2  0  0  0  0
  5  6  1  0  0  0  0
  6  7  2  0  0  0  0
  6 37  1  0  0  0  0
  7  8  1  0  0  0  0
  8 12  1  0  0  0  0
  8  9  2  0  0  0  0
  9 10  1  0  0  0  0
 10 11  2  0  0  0  0
 11 12  1  0  0  0  0
 11 38  1  0  0  0  0
 12 13  1  0  0  0  0
 13 28  1  0  0  0  0
 13 14  1  0  0  0  0
 13 39  1  0  0  0  0
 14 15  1  0  0  0  0
 15 16  1  0  0  0  0
 15 26  1  0  0  0  0
 15 40  1  0  0  0  0
 16 17  1  0  0  0  0
 16 41  1  0  0  0  0
 16 42  1  0  0  0  0
 17 18  1  0  0  0  0
 18 19  2  0  0  0  0
 18 20  1  0  0  0  0
 20 25  1  0  0  0  0
 20 21  2  0  0  0  0
 21 22  1  0  0  0  0
 21 43  1  0  0  0  0
 22 23  2  0  0  0  0
 22 44  1  0  0  0  0
 23 24  1  0  0  0  0
 23 45  1  0  0  0  0
 24 25  2  0  0  0  0
 24 46  1  0  0  0  0
 25 47  1  0  0  0  0
 26 27  1  0  0  0  0
 26 28  1  0  0  0  0
 26 48  1  0  0  0  0
 28 29  1  0  0  0  0
 28 49  1  0  0  0  0
 29 50  1  0  0  0  0
 30 35  1  0  0  0  0
 30 31  2  0  0  0  0
 31 32  1  0  0  0  0
 31 51  1  0  0  0  0
 32 33  2  0  0  0  0
 32 52  1  0  0  0  0
 33 34  1  0  0  0  0
 33 53  1  0  0  0  0
 34 35  2  0  0  0  0
 34 54  1  0  0  0  0
 35 55  1  0  0  0  0
M  END
> <s_m_source_file>
AV-unprocessed.smi

> <i_m_source_file_index>
34

> <i_lp_mmshare_version>
43012

> <i_f3d_flags>
0

> <s_epik_input>
W2NIXTFbY0hdW2NIXVtjSF1bY0hdYzFDKD1PKVtOSF1jKG5bY0hdbjIpYyhjMjMpbltjSF1uM1tDQEBIXTRPW0NASF0oW0NAQEhdKEYpW0NASF00W09IXSlbQ0gyXU9DKD1PKWM1W2NIXVtjSF1bY0hdW2NIXVtjSF01

> <s_epik_cmdline>
J2VwaWtfcHl0aG9uJywgJy1waCcsICc3LjAnLCAnLXRuJywgJzgnLCAnLW1hJywgJzIwMCcsICctbWV0YWxfYmluZGluZycsICctaW1hZScsICc8aW5maWxlLm1hZT4nLCAnLW9tYWUnLCAnPG91dGZpbGUubWFlPic=

> <r_lp_tautomer_probability>
1

> <r_epik_Ionization_Penalty>
0.00257489

> <r_epik_Ionization_Penalty_Charging>
0

> <r_epik_Ionization_Penalty_Neutral>
0.00257489

> <r_epik_State_Penalty>
0.00519398

> <r_epik_Charging_Adjusted_Penalty>
0.00519398

> <i_epik_Tot_Q>
0

> <i_epik_Tot_abs_Q>
0

> <r_epik_Metal_State_Penalty>
0.335891

> <b_epik_Metal_Only>
0

> <s_epik_Chemistry_Notes>
This compound has an ester and may undergo hydrolysis at high or low pH. This compound contains an acetal/aminal-like group ( X-CH(R)-Y where X, Y are N, S, or O) that may be acid/base labile, releasing an aldehyde.

> <s_lp_Force_Field>
OPLS_2005

> <r_lp_Energy>
45.4832

> <b_lp_Chiralities_Consistent>
1

> <s_lp_Variant>
AV-unprocessed.smi:34-14

> <Gold.Version>
5.8.1

> <Gold.Id.Protein>
6NUR|6NUR_protein|mol2

> <Gold.PLP.Fitness>
64.3989

> <Gold.PLP.PLP>
-54.9160

> <Gold.PLP.part.hbond>
-4.5697

> <Gold.PLP.part.metal>
0.0000

> <Gold.PLP.part.buried>
-3.9000

> <Gold.PLP.part.nonpolar>
-47.5082

> <Gold.PLP.part.repulsive>
0.3592

> <Gold.PLP.ligand.clash>
0.0000

> <Gold.PLP.ligand.torsion>
1.5117

> <Gold.PLP.Chemscore.Hbond>
3.7260

> <Gold.PLP.Chemscore.CHOScore>
0.3309

> <Gold.PLP.Chemscore.Metal>
0.0000

> <Gold.Chemscore.Hbonds>
donor molecule, donor type, donor heavy atom, donor atom, acceptor molecule, acceptor atom, score
      L1  H    29    50       P1  7948  0.74
      P1  H  6896  6909       L1    14  1.00
      P1  H  7989  7998       L1     5  0.81
      P1  H 10752 10763       L1     7  1.00
      L1  C     6    37       P1  7949  0.51

> <Gold.PLP.Chemscore.Internal.Correction>
0.3358

> <Gold.Rescore>
     Score         DG    S(hbond)    S(metal)    S(lipo)     H(rot)  DE(clash)    DE(int)     intcor
     16.64     -20.74       1.99        0.00     133.08       2.72       0.09       4.01       ----

> <Gold.Chemscore.Fitness>
16.6368

> <Gold.Chemscore.DG>
-20.7364

> <Gold.Chemscore.ZeroCoef>
-5.4800

> <Gold.Chemscore.Hbond>
1.9918

> <Gold.Chemscore.Metal>
0.0000

> <Gold.Chemscore.Lipo>
133.0845

> <Gold.Chemscore.Internal_Hbond>
0.0000

> <Gold.Chemscore.DEClash>
0.0886

> <Gold.Chemscore.DEInternal>
4.0110

> <Gold.Chemscore.Rot>
2.7215

> <Gold.Chemscore.Internal.Correction>
   9.000000E+99

> <Gold.Chemscore.Hbonds>
donor molecule, donor type, donor heavy atom, donor atom, acceptor molecule, acceptor atom, score
      L1  H    29    50       P1  7948  0.12
      P1  H  6896  6909       L1    14  0.96
      P1  H  7989  7998       L1     5  0.67
      P1  H 10752 10763       L1     7  0.29

> <Gold.Chemscore.Hbond.Weighted>
-6.6526

> <Gold.Chemscore.Metal.Weighted>
-0.0000

> <Gold.Chemscore.Lipo.Weighted>
-15.5709

> <Gold.Chemscore.Internal_Hbond.Weighted>
0.0000

> <Gold.Chemscore.DEClash.Weighted>
0.0886

> <Gold.Chemscore.DEInternal.Weighted>
4.0110

> <Gold.Chemscore.Rot.Weighted>
6.9670

> <Gold.Chemscore.Internal.Correction.Weighted>
   9.000000E+99

> <Gold.Protein.RotatedTorsions>
[ 6907 6896 6895 6894 ] final   -0.44 input  -60.11 | X-H torsion
[ 7974 7965 7964 7962 ] final -148.74 input  175.53 | X-H torsion
[ 8008 7997 7996 7995 ] final   68.03 input   59.86 | X-H torsion
[ 10167 10162 10161 10158 ] final   84.11 input  -65.29 | X-H torsion
[ 10718 10713 10712 10709 ] final -124.50 input   66.30 | X-H torsion
[ 10763 10752 10751 10750 ] final   50.39 input  -60.55 | X-H torsion
[ 11005 11000 10999 10996 ] final   31.15 input  -57.11 | X-H torsion

> <Gold.Protein.ActiveResidues>
 VAL166  LYS551  ARG553  GLY616  TRP617  ASP618  TYR619  PRO620  LYS621  CYS622 
 ASP623  PHE694  ASN695  SER759  ASP760  ASP761  ALA762  ILE779  LEU786  VAL792 
 PHE793  MET794  SER795  GLU796  ALA797  LYS798  CYS799  TRP800  GLU811  SER814 

> <Gold.Protein.RotatedAtoms>
  151.5623  135.1065  159.9975 H   0  0  0  0  0  0  0  0  0  0  0  0  # atno 6907 bound_to 6896
  152.4441  133.7498  159.6698 H   0  0  0  0  0  0  0  0  0  0  0  0  # atno 6908 bound_to 6896
  150.8352  133.7957  159.3106 H   0  0  0  0  0  0  0  0  0  0  0  0  # atno 6909 bound_to 6896
  144.8011  140.5157  143.5707 H   0  0  0  0  0  0  0  0  0  0  0  0  # atno 7974 bound_to 7965
  155.7020  140.3495  155.4937 H   0  0  0  0  0  0  0  0  0  0  0  0  # atno 8008 bound_to 7997
  155.9432  140.1105  157.1060 H   0  0  0  0  0  0  0  0  0  0  0  0  # atno 8009 bound_to 7997
  154.4107  140.1208  156.4941 H   0  0  0  0  0  0  0  0  0  0  0  0  # atno 8010 bound_to 7997
  139.9114  144.6269  150.8534 H   0  0  0  0  0  0  0  0  0  0  0  0  # atno 10167 bound_to 10162
  156.1593  130.6590  151.0027 H   0  0  0  0  0  0  0  0  0  0  0  0  # atno 10718 bound_to 10713
  152.9785  135.5880  154.4245 H   0  0  0  0  0  0  0  0  0  0  0  0  # atno 10763 bound_to 10752
  154.3865  135.2767  155.2182 H   0  0  0  0  0  0  0  0  0  0  0  0  # atno 10764 bound_to 10752
  154.4073  135.6090  153.5986 H   0  0  0  0  0  0  0  0  0  0  0  0  # atno 10765 bound_to 10752
  140.2869  134.2908  155.7786 H   0  0  0  0  0  0  0  0  0  0  0  0  # atno 11005 bound_to 11000
  145.5552  139.1478  143.3372 LP  0  0  0  0  0  0  0  0  0  0  0  0  # atno 17320 bound_to 7965
  146.2292  140.5689  142.8983 LP  0  0  0  0  0  0  0  0  0  0  0  0  # atno 17321 bound_to 7965
  140.7684  143.3363  151.2302 LP  0  0  0  0  0  0  0  0  0  0  0  0  # atno 17342 bound_to 10162
  139.6939  143.9645  152.2873 LP  0  0  0  0  0  0  0  0  0  0  0  0  # atno 17343 bound_to 10162
  157.6720  131.0859  150.7589 LP  0  0  0  0  0  0  0  0  0  0  0  0  # atno 17370 bound_to 10713
  156.7652  130.4811  149.5429 LP  0  0  0  0  0  0  0  0  0  0  0  0  # atno 17371 bound_to 10713
  141.2153  133.7561  156.9566 LP  0  0  0  0  0  0  0  0  0  0  0  0  # atno 17394 bound_to 11000
  140.1231  134.9404  157.2231 LP  0  0  0  0  0  0  0  0  0  0  0  0  # atno 17395 bound_to 11000

$$$$
