AV-unprocessed.smi:698|AV-procd|sdf|3398|dock3
  -GOLD-   22720 0383D 1   1.00000     0.00000
 Structure written by MMmdl.
 33 34  0  0  0  0  0  0  0  0  1 V2000
  154.5022  140.4593  161.9070 C   0  0  0  0  0  0  0  0  0  0  0  0
  153.8091  141.6831  161.3034 C   0  0  0  0  0  0  0  0  0  0  0  0
  153.2606  141.3222  160.0391 O   0  0  0  0  0  0  0  0  0  0  0  0
  152.6445  142.3011  159.2865 C   0  0  0  0  0  0  0  0  0  0  0  0
  152.8439  143.6496  159.6376 C   0  0  0  0  0  0  0  0  0  0  0  0
  152.2143  144.6435  158.8674 C   0  0  0  0  0  0  0  0  0  0  0  0
  151.4100  144.2536  157.7797 C   0  0  0  0  0  0  0  0  0  0  0  0
  151.2550  142.8800  157.4896 C   0  0  0  0  0  0  0  0  0  0  0  0
  150.4236  142.5878  156.3760 N   0  0  0  0  0  0  0  0  0  0  0  0
  150.1534  141.3877  155.8288 C   0  0  0  0  0  0  0  0  0  0  0  0
  150.5945  140.3146  156.2432 O   0  0  0  0  0  0  0  0  0  0  0  0
  149.2089  141.4129  154.6210 C   0  0  1  0  0  0  0  0  0  0  0  0
  148.8891  140.0265  154.0289 C   0  0  0  0  0  0  0  0  0  0  0  0
  147.4241  139.8213  154.3630 C   0  0  0  0  0  0  0  0  0  0  0  0
  146.9077  141.2523  154.4013 C   0  0  0  0  0  0  0  0  0  0  0  0
  147.9590  141.9520  155.0471 O   0  0  0  0  0  0  0  0  0  0  0  0
  151.8695  141.9310  158.2374 N   0  0  0  0  0  0  0  0  0  0  0  0
  154.9254  140.6945  162.8838 H   0  0  0  0  0  0  0  0  0  0  0  0
  155.3129  140.1128  161.2656 H   0  0  0  0  0  0  0  0  0  0  0  0
  153.7999  139.6355  162.0360 H   0  0  0  0  0  0  0  0  0  0  0  0
  153.0202  142.0254  161.9753 H   0  0  0  0  0  0  0  0  0  0  0  0
  154.5310  142.4936  161.1900 H   0  0  0  0  0  0  0  0  0  0  0  0
  153.4667  143.9153  160.4790 H   0  0  0  0  0  0  0  0  0  0  0  0
  152.3453  145.6885  159.1067 H   0  0  0  0  0  0  0  0  0  0  0  0
  150.9182  145.0047  157.1786 H   0  0  0  0  0  0  0  0  0  0  0  0
  149.9769  143.3838  155.9454 H   0  0  0  0  0  0  0  0  0  0  0  0
  149.6212  142.0534  153.8392 H   0  0  0  0  0  0  0  0  0  0  0  0
  149.0239  140.0522  152.9469 H   0  0  0  0  0  0  0  0  0  0  0  0
  149.5126  139.2175  154.4117 H   0  0  0  0  0  0  0  0  0  0  0  0
  146.9012  139.1969  153.6383 H   0  0  0  0  0  0  0  0  0  0  0  0
  147.3247  139.3622  155.3475 H   0  0  0  0  0  0  0  0  0  0  0  0
  146.7702  141.6458  153.3930 H   0  0  0  0  0  0  0  0  0  0  0  0
  145.9670  141.3490  154.9434 H   0  0  0  0  0  0  0  0  0  0  0  0
  1  2  1  0  0  0  0
  1 18  1  0  0  0  0
  1 19  1  0  0  0  0
  1 20  1  0  0  0  0
  2  3  1  0  0  0  0
  2 21  1  0  0  0  0
  2 22  1  0  0  0  0
  3  4  1  0  0  0  0
  4 17  1  0  0  0  0
  4  5  2  0  0  0  0
  5  6  1  0  0  0  0
  5 23  1  0  0  0  0
  6  7  2  0  0  0  0
  6 24  1  0  0  0  0
  7  8  1  0  0  0  0
  7 25  1  0  0  0  0
  8  9  1  0  0  0  0
  8 17  2  0  0  0  0
  9 10  1  0  0  0  0
  9 26  1  0  0  0  0
 10 11  2  0  0  0  0
 10 12  1  0  0  0  0
 12 16  1  0  0  0  0
 12 13  1  0  0  0  0
 12 27  1  0  0  0  0
 13 14  1  0  0  0  0
 13 28  1  0  0  0  0
 13 29  1  0  0  0  0
 14 15  1  0  0  0  0
 14 30  1  0  0  0  0
 14 31  1  0  0  0  0
 15 16  1  0  0  0  0
 15 32  1  0  0  0  0
 15 33  1  0  0  0  0
M  END
> <s_m_source_file>
AV-unprocessed.smi

> <i_m_source_file_index>
698

> <i_lp_mmshare_version>
43012

> <i_f3d_flags>
0

> <s_epik_input>
W0NIM11bQ0gyXU9jMVtjSF1bY0hdW2NIXWMobjEpW05IXUMoPU8pW0NAQEhdMltDSDJdW0NIMl1bQ0gyXU8y

> <s_epik_cmdline>
J2VwaWtfcHl0aG9uJywgJy1waCcsICc3LjAnLCAnLXRuJywgJzgnLCAnLW1hJywgJzIwMCcsICctbWV0YWxfYmluZGluZycsICctaW1hZScsICc8aW5maWxlLm1hZT4nLCAnLW9tYWUnLCAnPG91dGZpbGUubWFlPic=

> <r_lp_tautomer_probability>
1

> <r_epik_Ionization_Penalty>
3.42089e-05

> <r_epik_Ionization_Penalty_Charging>
0

> <r_epik_Ionization_Penalty_Neutral>
3.42089e-05

> <r_epik_State_Penalty>
-0

> <r_epik_Charging_Adjusted_Penalty>
0

> <i_epik_Tot_Q>
0

> <i_epik_Tot_abs_Q>
0

> <r_epik_Metal_State_Penalty>
-0

> <b_epik_Metal_Only>
0

> <s_lp_Force_Field>
OPLS_2005

> <r_lp_Energy>
20.5333

> <b_lp_Chiralities_Consistent>
1

> <s_lp_Variant>
AV-unprocessed.smi:698-2

> <Gold.Version>
5.8.1

> <Gold.Id.Protein>
6NUR|6NUR_protein|mol2

> <Gold.PLP.Fitness>
40.7341

> <Gold.PLP.PLP>
-38.0896

> <Gold.PLP.part.hbond>
-1.0000

> <Gold.PLP.part.metal>
0.0000

> <Gold.PLP.part.buried>
-4.4304

> <Gold.PLP.part.nonpolar>
-34.8119

> <Gold.PLP.part.repulsive>
1.6589

> <Gold.PLP.ligand.clash>
0.0000

> <Gold.PLP.ligand.torsion>
0.1841

> <Gold.PLP.Chemscore.Hbond>
1.0000

> <Gold.PLP.Chemscore.CHOScore>
0.0000

> <Gold.PLP.Chemscore.Metal>
0.0000

> <Gold.Chemscore.Hbonds>
donor molecule, donor type, donor heavy atom, donor atom, acceptor molecule, acceptor atom, score
      L1  H     9    26       P1  8028  1.00

> <Gold.PLP.Chemscore.Internal.Correction>
0.0127

> <Gold.Rescore>
     Score         DG    S(hbond)    S(metal)    S(lipo)     H(rot)  DE(clash)    DE(int)     intcor
     13.03     -14.59       0.99        0.00      80.69       1.42       0.03       1.53       ----

> <Gold.Chemscore.Fitness>
13.0295

> <Gold.Chemscore.DG>
-14.5938

> <Gold.Chemscore.ZeroCoef>
-5.4800

> <Gold.Chemscore.Hbond>
0.9893

> <Gold.Chemscore.Metal>
0.0000

> <Gold.Chemscore.Lipo>
80.6901

> <Gold.Chemscore.Internal_Hbond>
0.0000

> <Gold.Chemscore.DEClash>
0.0339

> <Gold.Chemscore.DEInternal>
1.5304

> <Gold.Chemscore.Rot>
1.4185

> <Gold.Chemscore.Internal.Correction>
   9.000000E+99

> <Gold.Chemscore.Hbonds>
donor molecule, donor type, donor heavy atom, donor atom, acceptor molecule, acceptor atom, score
      L1  H     9    26       P1  8028  1.00

> <Gold.Chemscore.Hbond.Weighted>
-3.3044

> <Gold.Chemscore.Metal.Weighted>
-0.0000

> <Gold.Chemscore.Lipo.Weighted>
-9.4407

> <Gold.Chemscore.Internal_Hbond.Weighted>
0.0000

> <Gold.Chemscore.DEClash.Weighted>
0.0339

> <Gold.Chemscore.DEInternal.Weighted>
1.5304

> <Gold.Chemscore.Rot.Weighted>
3.6313

> <Gold.Chemscore.Internal.Correction.Weighted>
   9.000000E+99

> <Gold.Protein.RotatedTorsions>
[ 6907 6896 6895 6894 ] final  112.41 input  -60.11 | X-H torsion
[ 7974 7965 7964 7962 ] final  106.01 input  175.53 | X-H torsion
[ 8008 7997 7996 7995 ] final    5.76 input   59.86 | X-H torsion
[ 10167 10162 10161 10158 ] final -121.02 input  -65.29 | X-H torsion
[ 10718 10713 10712 10709 ] final  -12.25 input   66.30 | X-H torsion
[ 10763 10752 10751 10750 ] final   87.49 input  -60.55 | X-H torsion
[ 11005 11000 10999 10996 ] final -139.75 input  -57.11 | X-H torsion

> <Gold.Protein.ActiveResidues>
 VAL166  LYS551  ARG553  GLY616  TRP617  ASP618  TYR619  PRO620  LYS621  CYS622 
 ASP623  PHE694  ASN695  SER759  ASP760  ASP761  ALA762  ILE779  LEU786  VAL792 
 PHE793  MET794  SER795  GLU796  ALA797  LYS798  CYS799  TRP800  GLU811  SER814 

> <Gold.Protein.RotatedAtoms>
  152.4918  133.8520  159.7206 H   0  0  0  0  0  0  0  0  0  0  0  0  # atno 6907 bound_to 6896
  150.9054  133.7055  159.2875 H   0  0  0  0  0  0  0  0  0  0  0  0  # atno 6908 bound_to 6896
  151.4482  135.1031  159.9742 H   0  0  0  0  0  0  0  0  0  0  0  0  # atno 6909 bound_to 6896
  145.3122  139.2537  143.3757 H   0  0  0  0  0  0  0  0  0  0  0  0  # atno 7974 bound_to 7965
  154.7324  140.2733  155.6444 H   0  0  0  0  0  0  0  0  0  0  0  0  # atno 8008 bound_to 7997
  156.2853  140.2713  156.1953 H   0  0  0  0  0  0  0  0  0  0  0  0  # atno 8009 bound_to 7997
  155.0364  140.0371  157.2483 H   0  0  0  0  0  0  0  0  0  0  0  0  # atno 8010 bound_to 7997
  140.0295  143.5262  152.2183 H   0  0  0  0  0  0  0  0  0  0  0  0  # atno 10167 bound_to 10162
  156.6473  130.4945  149.6074 H   0  0  0  0  0  0  0  0  0  0  0  0  # atno 10718 bound_to 10713
  153.1674  135.4541  154.9855 H   0  0  0  0  0  0  0  0  0  0  0  0  # atno 10763 bound_to 10752
  154.7941  135.3231  154.7710 H   0  0  0  0  0  0  0  0  0  0  0  0  # atno 10764 bound_to 10752
  153.8191  135.6948  153.4884 H   0  0  0  0  0  0  0  0  0  0  0  0  # atno 10765 bound_to 10752
  140.8490  134.2310  157.4771 H   0  0  0  0  0  0  0  0  0  0  0  0  # atno 11005 bound_to 11000
  146.3113  140.3661  142.8669 LP  0  0  0  0  0  0  0  0  0  0  0  0  # atno 17320 bound_to 7965
  144.9006  140.7638  143.5869 LP  0  0  0  0  0  0  0  0  0  0  0  0  # atno 17321 bound_to 7965
  139.6085  144.7602  151.3005 LP  0  0  0  0  0  0  0  0  0  0  0  0  # atno 17342 bound_to 10162
  140.7308  143.6869  150.7954 LP  0  0  0  0  0  0  0  0  0  0  0  0  # atno 17343 bound_to 10162
  156.2111  130.6680  151.1271 LP  0  0  0  0  0  0  0  0  0  0  0  0  # atno 17370 bound_to 10713
  157.7152  131.0713  150.6354 LP  0  0  0  0  0  0  0  0  0  0  0  0  # atno 17371 bound_to 10713
  139.8704  134.9673  156.4593 LP  0  0  0  0  0  0  0  0  0  0  0  0  # atno 17394 bound_to 11000
  140.8812  133.7917  155.9468 LP  0  0  0  0  0  0  0  0  0  0  0  0  # atno 17395 bound_to 11000

$$$$
