AV-unprocessed.smi:1639|AV-procd|sdf|6550|dock6
  -GOLD-   22720 7233D 1   1.00000     0.00000
 Structure written by MMmdl.
 38 39  0  0  0  0  0  0  0  0  2 V2000
  152.3709  141.5230  159.3374 C   0  0  0  0  0  0  0  0  0  0  0  0
  151.5599  140.8586  158.2229 C   0  0  0  0  0  0  0  0  0  0  0  0
  152.4539  140.2854  157.2830 O   0  0  0  0  0  0  0  0  0  0  0  0
  151.8669  139.2794  156.4701 C   0  0  2  0  0  0  0  0  0  0  0  0
  152.9362  138.7257  155.5136 C   0  0  0  0  0  0  0  0  0  0  0  0
  152.2973  137.7482  154.5133 C   0  0  0  0  0  0  0  0  0  0  0  0
  151.1177  138.4065  153.7757 C   0  0  0  0  0  0  0  0  0  0  0  0
  150.1519  138.9556  154.7246 N   0  0  0  0  0  0  0  0  0  0  0  0
  148.9773  139.4105  154.1127 C   0  0  0  0  0  0  0  0  0  0  0  0
  148.4388  140.6710  154.4325 C   0  0  0  0  0  0  0  0  0  0  0  0
  147.2620  141.0473  153.7622 C   0  0  0  0  0  0  0  0  0  0  0  0
  146.5953  142.3823  154.0184 C   0  0  0  0  0  0  0  0  0  0  0  0
  146.6749  140.2365  152.8582 N   0  0  0  0  0  0  0  0  0  0  0  0
  147.2339  139.0488  152.5997 C   0  0  0  0  0  0  0  0  0  0  0  0
  146.6285  138.2294  151.6772 N   0  0  0  0  0  0  0  0  0  0  0  0
  148.3561  138.6213  153.1968 N   0  3  0  0  0  0  0  0  0  0  0  0
  150.7107  139.9115  155.6771 C   0  0  0  0  0  0  0  0  0  0  0  0
  151.7143  141.9754  160.0809 H   0  0  0  0  0  0  0  0  0  0  0  0
  153.0140  142.3078  158.9383 H   0  0  0  0  0  0  0  0  0  0  0  0
  153.0042  140.7969  159.8476 H   0  0  0  0  0  0  0  0  0  0  0  0
  150.9106  140.0876  158.6406 H   0  0  0  0  0  0  0  0  0  0  0  0
  150.9261  141.5999  157.7336 H   0  0  0  0  0  0  0  0  0  0  0  0
  151.4708  138.4567  157.0699 H   0  0  0  0  0  0  0  0  0  0  0  0
  153.4069  139.5468  154.9714 H   0  0  0  0  0  0  0  0  0  0  0  0
  153.7263  138.2285  156.0770 H   0  0  0  0  0  0  0  0  0  0  0  0
  153.0435  137.4060  153.7955 H   0  0  0  0  0  0  0  0  0  0  0  0
  151.9468  136.8616  155.0434 H   0  0  0  0  0  0  0  0  0  0  0  0
  151.4855  139.2038  153.1281 H   0  0  0  0  0  0  0  0  0  0  0  0
  150.6277  137.6736  153.1333 H   0  0  0  0  0  0  0  0  0  0  0  0
  148.9130  141.3182  155.1562 H   0  0  0  0  0  0  0  0  0  0  0  0
  147.1477  142.9620  154.7588 H   0  0  0  0  0  0  0  0  0  0  0  0
  145.5805  142.2359  154.3890 H   0  0  0  0  0  0  0  0  0  0  0  0
  146.5459  142.9657  153.0986 H   0  0  0  0  0  0  0  0  0  0  0  0
  145.7828  138.5231  151.2101 H   0  0  0  0  0  0  0  0  0  0  0  0
  147.0182  137.3236  151.4594 H   0  0  0  0  0  0  0  0  0  0  0  0
  149.9312  140.2476  156.3623 H   0  0  0  0  0  0  0  0  0  0  0  0
  151.0688  140.7923  155.1416 H   0  0  0  0  0  0  0  0  0  0  0  0
  148.7538  137.7094  152.9718 H   0  0  0  0  0  0  0  0  0  0  0  0
  1  2  1  0  0  0  0
  1 18  1  0  0  0  0
  1 19  1  0  0  0  0
  1 20  1  0  0  0  0
  2  3  1  0  0  0  0
  2 21  1  0  0  0  0
  2 22  1  0  0  0  0
  3  4  1  0  0  0  0
  4 17  1  0  0  0  0
  4  5  1  0  0  0  0
  4 23  1  0  0  0  0
  5  6  1  0  0  0  0
  5 24  1  0  0  0  0
  5 25  1  0  0  0  0
  6  7  1  0  0  0  0
  6 26  1  0  0  0  0
  6 27  1  0  0  0  0
  7  8  1  0  0  0  0
  7 28  1  0  0  0  0
  7 29  1  0  0  0  0
  8  9  1  0  0  0  0
  8 17  1  0  0  0  0
  9 16  1  0  0  0  0
  9 10  2  0  0  0  0
 10 11  1  0  0  0  0
 10 30  1  0  0  0  0
 11 12  1  0  0  0  0
 11 13  2  0  0  0  0
 12 31  1  0  0  0  0
 12 32  1  0  0  0  0
 12 33  1  0  0  0  0
 13 14  1  0  0  0  0
 14 15  1  0  0  0  0
 14 16  2  0  0  0  0
 15 34  1  0  0  0  0
 15 35  1  0  0  0  0
 16 38  1  0  0  0  0
 17 36  1  0  0  0  0
 17 37  1  0  0  0  0
M  CHG  1  16   1
M  END
> <s_m_source_file>
AV-unprocessed.smi

> <i_m_source_file_index>
1639

> <i_lp_mmshare_version>
43012

> <i_f3d_flags>
0

> <s_epik_input>
W0NIM11bQ0gyXU9bQ0BASF0xW0NIMl1bQ0gyXVtDSDJdTihbQ0gyXTEpYzJbY0hdYyhbQ0gzXSluYyhuMilbTkgyXQ==

> <s_epik_cmdline>
J2VwaWtfcHl0aG9uJywgJy1waCcsICc3LjAnLCAnLXRuJywgJzgnLCAnLW1hJywgJzIwMCcsICctbWV0YWxfYmluZGluZycsICctaW1hZScsICc8aW5maWxlLm1hZT4nLCAnLW9tYWUnLCAnPG91dGZpbGUubWFlPic=

> <r_lp_tautomer_probability>
0.424989

> <r_epik_Ionization_Penalty>
0.443088

> <r_epik_Ionization_Penalty_Charging>
0.443085

> <r_epik_Ionization_Penalty_Neutral>
3.21819e-06

> <r_epik_State_Penalty>
1.26241

> <r_epik_Charging_Adjusted_Penalty>
1.70549

> <i_epik_Tot_Q>
1

> <i_epik_Tot_abs_Q>
1

> <r_epik_Metal_State_Penalty>
1.59997

> <b_epik_Metal_Only>
0

> <s_lp_Force_Field>
OPLS_2005

> <r_lp_Energy>
14.3037

> <b_lp_Chiralities_Consistent>
1

> <s_lp_Variant>
AV-unprocessed.smi:1639-3

> <Gold.Version>
5.8.1

> <Gold.Id.Protein>
6NUR|6NUR_protein|mol2

> <Gold.PLP.Fitness>
39.0223

> <Gold.PLP.PLP>
-29.4067

> <Gold.PLP.part.hbond>
-3.9665

> <Gold.PLP.part.metal>
0.0000

> <Gold.PLP.part.buried>
0.3496

> <Gold.PLP.part.nonpolar>
-27.1598

> <Gold.PLP.part.repulsive>
1.1647

> <Gold.PLP.ligand.clash>
1.8184

> <Gold.PLP.ligand.torsion>
0.2409

> <Gold.PLP.Chemscore.Hbond>
3.9199

> <Gold.PLP.Chemscore.CHOScore>
0.0000

> <Gold.PLP.Chemscore.Metal>
0.0000

> <Gold.Chemscore.Hbonds>
donor molecule, donor type, donor heavy atom, donor atom, acceptor molecule, acceptor atom, score
      L1  H    15    34       P1 10171  0.18
      L1  H    15    35       P1  7948  0.77
      L1  H    16    38       P1  7948  2.00
      P1  H  7997  8008       L1     3  0.97

> <Gold.PLP.Chemscore.Internal.Correction>
0.1560

> <Gold.Rescore>
     Score         DG    S(hbond)    S(metal)    S(lipo)     H(rot)  DE(clash)    DE(int)     intcor
     15.79     -17.53       2.26        0.00      70.42       1.46       1.46       0.28       ----

> <Gold.Chemscore.Fitness>
15.7874

> <Gold.Chemscore.DG>
-17.5292

> <Gold.Chemscore.ZeroCoef>
-5.4800

> <Gold.Chemscore.Hbond>
2.2568

> <Gold.Chemscore.Metal>
0.0000

> <Gold.Chemscore.Lipo>
70.4176

> <Gold.Chemscore.Internal_Hbond>
0.0000

> <Gold.Chemscore.DEClash>
1.4637

> <Gold.Chemscore.DEInternal>
0.2780

> <Gold.Chemscore.Rot>
1.4560

> <Gold.Chemscore.Internal.Correction>
   9.000000E+99

> <Gold.Chemscore.Hbonds>
donor molecule, donor type, donor heavy atom, donor atom, acceptor molecule, acceptor atom, score
      L1  H    15    34       P1 10171  0.19
      L1  H    15    35       P1  7948  0.38
      L1  H    16    38       P1  7948  0.96
      P1  H  7997  8008       L1     3  0.22

> <Gold.Chemscore.Hbond.Weighted>
-7.5376

> <Gold.Chemscore.Metal.Weighted>
-0.0000

> <Gold.Chemscore.Lipo.Weighted>
-8.2389

> <Gold.Chemscore.Internal_Hbond.Weighted>
0.0000

> <Gold.Chemscore.DEClash.Weighted>
1.4637

> <Gold.Chemscore.DEInternal.Weighted>
0.2780

> <Gold.Chemscore.Rot.Weighted>
3.7272

> <Gold.Chemscore.Internal.Correction.Weighted>
   9.000000E+99

> <Gold.Protein.RotatedTorsions>
[ 6907 6896 6895 6894 ] final  176.12 input  -60.11 | X-H torsion
[ 7974 7965 7964 7962 ] final   40.82 input  175.53 | X-H torsion
[ 8008 7997 7996 7995 ] final  -66.17 input   59.86 | X-H torsion
[ 10167 10162 10161 10158 ] final -161.46 input  -65.29 | X-H torsion
[ 10718 10713 10712 10709 ] final   61.40 input   66.30 | X-H torsion
[ 10763 10752 10751 10750 ] final  152.95 input  -60.55 | X-H torsion
[ 11005 11000 10999 10996 ] final    3.88 input  -57.11 | X-H torsion

> <Gold.Protein.ActiveResidues>
 VAL166  LYS551  ARG553  GLY616  TRP617  ASP618  TYR619  PRO620  LYS621  CYS622 
 ASP623  PHE694  ASN695  SER759  ASP760  ASP761  ALA762  ILE779  LEU786  VAL792 
 PHE793  MET794  SER795  GLU796  ALA797  LYS798  CYS799  TRP800  GLU811  SER814 

> <Gold.Protein.RotatedAtoms>
  151.7252  133.3316  159.3325 H   0  0  0  0  0  0  0  0  0  0  0  0  # atno 6907 bound_to 6896
  150.7636  134.6412  159.6247 H   0  0  0  0  0  0  0  0  0  0  0  0  # atno 6908 bound_to 6896
  152.3627  134.6852  160.0254 H   0  0  0  0  0  0  0  0  0  0  0  0  # atno 6909 bound_to 6896
  146.0874  139.5488  142.9498 H   0  0  0  0  0  0  0  0  0  0  0  0  # atno 7974 bound_to 7965
  154.4718  140.0918  156.7163 H   0  0  0  0  0  0  0  0  0  0  0  0  # atno 8008 bound_to 7997
  155.4704  140.3464  155.4306 H   0  0  0  0  0  0  0  0  0  0  0  0  # atno 8009 bound_to 7997
  156.1051  140.1432  156.9403 H   0  0  0  0  0  0  0  0  0  0  0  0  # atno 8010 bound_to 7997
  139.6463  144.0166  152.2129 H   0  0  0  0  0  0  0  0  0  0  0  0  # atno 10167 bound_to 10162
  157.5825  130.8992  149.9456 H   0  0  0  0  0  0  0  0  0  0  0  0  # atno 10718 bound_to 10713
  154.1283  135.2828  155.3191 H   0  0  0  0  0  0  0  0  0  0  0  0  # atno 10763 bound_to 10752
  154.6374  135.5414  153.7753 H   0  0  0  0  0  0  0  0  0  0  0  0  # atno 10764 bound_to 10752
  153.0290  135.6478  154.1434 H   0  0  0  0  0  0  0  0  0  0  0  0  # atno 10765 bound_to 10752
  140.5881  133.9949  155.8077 H   0  0  0  0  0  0  0  0  0  0  0  0  # atno 11005 bound_to 11000
  145.6104  141.0340  143.1969 LP  0  0  0  0  0  0  0  0  0  0  0  0  # atno 17320 bound_to 7965
  144.7335  139.7654  143.7338 LP  0  0  0  0  0  0  0  0  0  0  0  0  # atno 17321 bound_to 7965
  139.9868  144.6389  150.7850 LP  0  0  0  0  0  0  0  0  0  0  0  0  # atno 17342 bound_to 10162
  140.7516  143.2976  151.3165 LP  0  0  0  0  0  0  0  0  0  0  0  0  # atno 17343 bound_to 10162
  156.0872  130.3667  150.0465 LP  0  0  0  0  0  0  0  0  0  0  0  0  # atno 17370 bound_to 10713
  156.8602  130.9489  151.3618 LP  0  0  0  0  0  0  0  0  0  0  0  0  # atno 17371 bound_to 10713
  141.0953  133.9854  157.3171 LP  0  0  0  0  0  0  0  0  0  0  0  0  # atno 17394 bound_to 11000
  139.9286  135.0201  156.8323 LP  0  0  0  0  0  0  0  0  0  0  0  0  # atno 17395 bound_to 11000

$$$$
