AV-unprocessed.smi:2456|AV-procd|sdf|9700|dock1
  -GOLD-   2272013343D 1   1.00000     0.00000
 Structure written by MMmdl.
 34 35  0  0  0  0  0  0  0  0  1 V2000
  146.9602  142.5923  154.2018 C   0  0  0  0  0  0  0  0  0  0  0  0
  148.2186  141.7125  154.2923 C   0  0  2  0  0  0  0  0  0  0  0  0
  148.0935  140.6482  153.2962 N   0  0  0  0  0  0  0  0  0  0  0  0
  147.1061  139.7407  153.2564 C   0  0  0  0  0  0  0  0  0  0  0  0
  146.1951  139.6941  154.0837 O   0  0  0  0  0  0  0  0  0  0  0  0
  147.2483  138.9119  152.2075 N   0  0  0  0  0  0  0  0  0  0  0  0
  146.4122  137.8309  151.8236 C   0  0  0  0  0  0  0  0  0  0  0  0
  146.4924  137.1941  150.6494 N   0  0  0  0  0  0  0  0  0  0  0  0
  145.5476  136.1704  150.5423 C   0  0  0  0  0  0  0  0  0  0  0  0
  144.7491  136.0423  151.6515 C   0  0  0  0  0  0  0  0  0  0  0  0
  145.1562  137.2074  152.8830 S   0  0  0  0  0  0  0  0  0  0  0  0
  148.2865  141.1194  155.7174 C   0  0  0  0  0  0  0  0  0  0  0  0
  147.3074  140.5193  156.1663 O   0  0  0  0  0  0  0  0  0  0  0  0
  149.4114  141.2874  156.4456 N   0  0  0  0  0  0  0  0  0  0  0  0
  149.5771  140.7555  157.7973 C   0  0  0  0  0  0  0  0  0  0  0  0
  151.0534  140.9498  158.1434 C   0  0  0  0  0  0  0  0  0  0  0  0
  151.4847  142.1247  157.2779 C   0  0  0  0  0  0  0  0  0  0  0  0
  150.6157  142.0043  156.0260 C   0  0  0  0  0  0  0  0  0  0  0  0
  147.0006  143.4186  154.9126 H   0  0  0  0  0  0  0  0  0  0  0  0
  146.0511  142.0241  154.4049 H   0  0  0  0  0  0  0  0  0  0  0  0
  146.8604  143.0271  153.2068 H   0  0  0  0  0  0  0  0  0  0  0  0
  149.1012  142.3084  154.0577 H   0  0  0  0  0  0  0  0  0  0  0  0
  148.7978  140.6188  152.5738 H   0  0  0  0  0  0  0  0  0  0  0  0
  148.0458  139.0756  151.6108 H   0  0  0  0  0  0  0  0  0  0  0  0
  145.5131  135.5804  149.6385 H   0  0  0  0  0  0  0  0  0  0  0  0
  143.9500  135.3355  151.8184 H   0  0  0  0  0  0  0  0  0  0  0  0
  148.9452  141.3233  158.4819 H   0  0  0  0  0  0  0  0  0  0  0  0
  149.2900  139.7049  157.8634 H   0  0  0  0  0  0  0  0  0  0  0  0
  151.2196  141.1233  159.2069 H   0  0  0  0  0  0  0  0  0  0  0  0
  151.6167  140.0606  157.8571 H   0  0  0  0  0  0  0  0  0  0  0  0
  151.2565  143.0592  157.7925 H   0  0  0  0  0  0  0  0  0  0  0  0
  152.5519  142.1176  157.0550 H   0  0  0  0  0  0  0  0  0  0  0  0
  151.1300  141.4191  155.2624 H   0  0  0  0  0  0  0  0  0  0  0  0
  150.3914  142.9880  155.6117 H   0  0  0  0  0  0  0  0  0  0  0  0
  1  2  1  0  0  0  0
  1 19  1  0  0  0  0
  1 20  1  0  0  0  0
  1 21  1  0  0  0  0
  2  3  1  0  0  0  0
  2 12  1  0  0  0  0
  2 22  1  0  0  0  0
  3  4  1  0  0  0  0
  3 23  1  0  0  0  0
  4  5  2  0  0  0  0
  4  6  1  0  0  0  0
  6  7  1  0  0  0  0
  6 24  1  0  0  0  0
  7 11  1  0  0  0  0
  7  8  2  0  0  0  0
  8  9  1  0  0  0  0
  9 10  2  0  0  0  0
  9 25  1  0  0  0  0
 10 11  1  0  0  0  0
 10 26  1  0  0  0  0
 12 13  2  0  0  0  0
 12 14  1  0  0  0  0
 14 18  1  0  0  0  0
 14 15  1  0  0  0  0
 15 16  1  0  0  0  0
 15 27  1  0  0  0  0
 15 28  1  0  0  0  0
 16 17  1  0  0  0  0
 16 29  1  0  0  0  0
 16 30  1  0  0  0  0
 17 18  1  0  0  0  0
 17 31  1  0  0  0  0
 17 32  1  0  0  0  0
 18 33  1  0  0  0  0
 18 34  1  0  0  0  0
M  END
> <s_m_source_file>
AV-unprocessed.smi

> <i_m_source_file_index>
2456

> <i_lp_mmshare_version>
43012

> <i_f3d_flags>
0

> <s_epik_input>
W0NIMl0xW0NIMl1bQ0gyXVtDSDJdTjFDKD1PKVtDQEhdKFtDSDNdKVtOSF1DKD1PKVtOSF1jMm5bY0hdW2NIXXMy

> <s_epik_cmdline>
J2VwaWtfcHl0aG9uJywgJy1waCcsICc3LjAnLCAnLXRuJywgJzgnLCAnLW1hJywgJzIwMCcsICctbWV0YWxfYmluZGluZycsICctaW1hZScsICc8aW5maWxlLm1hZT4nLCAnLW9tYWUnLCAnPG91dGZpbGUubWFlPic=

> <r_lp_tautomer_probability>
1

> <r_epik_Ionization_Penalty>
0.000150201

> <r_epik_Ionization_Penalty_Charging>
0

> <r_epik_Ionization_Penalty_Neutral>
0.000150201

> <r_epik_State_Penalty>
-0

> <r_epik_Charging_Adjusted_Penalty>
0

> <i_epik_Tot_Q>
0

> <i_epik_Tot_abs_Q>
0

> <r_epik_Metal_State_Penalty>
0.0705602

> <b_epik_Metal_Only>
0

> <s_lp_Force_Field>
OPLS_2005

> <r_lp_Energy>
26.5881

> <b_lp_Chiralities_Consistent>
1

> <s_lp_Variant>
AV-unprocessed.smi:2456-1

> <Gold.Version>
5.8.1

> <Gold.Id.Protein>
6NUR|6NUR_protein|mol2

> <Gold.PLP.Fitness>
39.2851

> <Gold.PLP.PLP>
-27.5469

> <Gold.PLP.part.hbond>
-3.5852

> <Gold.PLP.part.metal>
0.0000

> <Gold.PLP.part.buried>
-0.7706

> <Gold.PLP.part.nonpolar>
-24.8543

> <Gold.PLP.part.repulsive>
2.8207

> <Gold.PLP.ligand.clash>
0.0000

> <Gold.PLP.ligand.torsion>
0.1005

> <Gold.PLP.Chemscore.Hbond>
2.9760

> <Gold.PLP.Chemscore.CHOScore>
1.0000

> <Gold.PLP.Chemscore.Metal>
0.0000

> <Gold.Chemscore.Hbonds>
donor molecule, donor type, donor heavy atom, donor atom, acceptor molecule, acceptor atom, score
      L1  H     3    23       P1  7957  1.00
      L1  H     6    24       P1  7957  1.00
      P1  H  7954  7966       L1     8  0.98
      L1  C     9    25       P1  7921  1.00

> <Gold.PLP.Chemscore.Internal.Correction>
0.0112

> <Gold.Rescore>
     Score         DG    S(hbond)    S(metal)    S(lipo)     H(rot)  DE(clash)    DE(int)     intcor
      9.86     -17.78       2.70        0.00      57.39       1.34       1.94       5.98       ----

> <Gold.Chemscore.Fitness>
9.8609

> <Gold.Chemscore.DG>
-17.7780

> <Gold.Chemscore.ZeroCoef>
-5.4800

> <Gold.Chemscore.Hbond>
2.7023

> <Gold.Chemscore.Metal>
0.0000

> <Gold.Chemscore.Lipo>
57.3944

> <Gold.Chemscore.Internal_Hbond>
0.0000

> <Gold.Chemscore.DEClash>
1.9419

> <Gold.Chemscore.DEInternal>
5.9752

> <Gold.Chemscore.Rot>
1.3448

> <Gold.Chemscore.Internal.Correction>
   9.000000E+99

> <Gold.Chemscore.Hbonds>
donor molecule, donor type, donor heavy atom, donor atom, acceptor molecule, acceptor atom, score
      L1  H     3    23       P1  7957  0.99
      L1  H     6    24       P1  7957  0.88
      P1  H  7954  7966       L1     8  0.41

> <Gold.Chemscore.Hbond.Weighted>
-9.0256

> <Gold.Chemscore.Metal.Weighted>
-0.0000

> <Gold.Chemscore.Lipo.Weighted>
-6.7151

> <Gold.Chemscore.Internal_Hbond.Weighted>
0.0000

> <Gold.Chemscore.DEClash.Weighted>
1.9419

> <Gold.Chemscore.DEInternal.Weighted>
5.9752

> <Gold.Chemscore.Rot.Weighted>
3.4427

> <Gold.Chemscore.Internal.Correction.Weighted>
   9.000000E+99

> <Gold.Protein.RotatedTorsions>
[ 6907 6896 6895 6894 ] final  168.60 input  -60.11 | X-H torsion
[ 7974 7965 7964 7962 ] final  156.05 input  175.53 | X-H torsion
[ 8008 7997 7996 7995 ] final  -98.32 input   59.86 | X-H torsion
[ 10167 10162 10161 10158 ] final  149.81 input  -65.29 | X-H torsion
[ 10718 10713 10712 10709 ] final   33.46 input   66.30 | X-H torsion
[ 10763 10752 10751 10750 ] final   38.80 input  -60.55 | X-H torsion
[ 11005 11000 10999 10996 ] final    3.19 input  -57.11 | X-H torsion

> <Gold.Protein.ActiveResidues>
 VAL166  LYS551  ARG553  GLY616  TRP617  ASP618  TYR619  PRO620  LYS621  CYS622 
 ASP623  PHE694  ASN695  SER759  ASP760  ASP761  ALA762  ILE779  LEU786  VAL792 
 PHE793  MET794  SER795  GLU796  ALA797  LYS798  CYS799  TRP800  GLU811  SER814 

> <Gold.Protein.RotatedAtoms>
  151.8451  133.3430  159.3655 H   0  0  0  0  0  0  0  0  0  0  0  0  # atno 6907 bound_to 6896
  150.7223  134.5354  159.5730 H   0  0  0  0  0  0  0  0  0  0  0  0  # atno 6908 bound_to 6896
  152.2835  134.7802  160.0443 H   0  0  0  0  0  0  0  0  0  0  0  0  # atno 6909 bound_to 6896
  144.7987  139.7151  143.6191 H   0  0  0  0  0  0  0  0  0  0  0  0  # atno 7974 bound_to 7965
  154.7996  140.0456  157.1262 H   0  0  0  0  0  0  0  0  0  0  0  0  # atno 8008 bound_to 7997
  154.9495  140.3063  155.5062 H   0  0  0  0  0  0  0  0  0  0  0  0  # atno 8009 bound_to 7997
  156.2960  140.2291  156.4571 H   0  0  0  0  0  0  0  0  0  0  0  0  # atno 8010 bound_to 7997
  139.4857  144.5572  151.7296 H   0  0  0  0  0  0  0  0  0  0  0  0  # atno 10167 bound_to 10162
  157.2981  130.7337  149.6650 H   0  0  0  0  0  0  0  0  0  0  0  0  # atno 10718 bound_to 10713
  152.9988  135.6239  154.2363 H   0  0  0  0  0  0  0  0  0  0  0  0  # atno 10763 bound_to 10752
  154.2104  135.2800  155.2962 H   0  0  0  0  0  0  0  0  0  0  0  0  # atno 10764 bound_to 10752
  154.5611  135.5705  153.7067 H   0  0  0  0  0  0  0  0  0  0  0  0  # atno 10765 bound_to 10752
  140.5959  133.9881  155.8109 H   0  0  0  0  0  0  0  0  0  0  0  0  # atno 11005 bound_to 11000
  146.2262  139.5727  142.9585 LP  0  0  0  0  0  0  0  0  0  0  0  0  # atno 17320 bound_to 7965
  145.5609  141.0404  143.2227 LP  0  0  0  0  0  0  0  0  0  0  0  0  # atno 17321 bound_to 7965
  140.5135  144.0988  150.6002 LP  0  0  0  0  0  0  0  0  0  0  0  0  # atno 17342 bound_to 10162
  140.3922  143.2746  152.0047 LP  0  0  0  0  0  0  0  0  0  0  0  0  # atno 17343 bound_to 10162
  155.9670  130.4288  150.4805 LP  0  0  0  0  0  0  0  0  0  0  0  0  # atno 17370 bound_to 10713
  157.2781  131.0601  151.2216 LP  0  0  0  0  0  0  0  0  0  0  0  0  # atno 17371 bound_to 10713
  141.0904  133.9925  157.3245 LP  0  0  0  0  0  0  0  0  0  0  0  0  # atno 17394 bound_to 11000
  139.9254  135.0201  156.8214 LP  0  0  0  0  0  0  0  0  0  0  0  0  # atno 17395 bound_to 11000

$$$$
