AV-unprocessed.smi:2600|AV-procd|sdf|10182|dock2
  -GOLD-   2272014193D 1   1.00000     0.00000
 Structure written by MMmdl.
 44 45  0  0  0  0  0  0  0  0  1 V2000
  147.3791  141.7684  154.6984 C   0  0  0  0  0  0  0  0  0  0  0  0
  147.8171  140.4172  154.1097 C   0  0  0  0  0  0  0  0  0  0  0  0
  148.9654  139.7033  154.8619 C   0  0  2  0  0  0  0  0  0  0  0  0
  148.4263  139.2347  156.2325 C   0  0  0  0  0  0  0  0  0  0  0  0
  150.2063  140.6222  155.0198 C   0  0  0  0  0  0  0  0  0  0  0  0
  151.3323  139.8471  155.5606 N   0  0  0  0  0  0  0  0  0  0  0  0
  151.9218  139.9940  156.7730 C   0  0  0  0  0  0  0  0  0  0  0  0
  153.0262  139.5214  157.0446 O   0  0  0  0  0  0  0  0  0  0  0  0
  151.2105  140.7122  157.6600 N   0  0  0  0  0  0  0  0  0  0  0  0
  151.6140  141.0236  159.0293 C   0  0  0  0  0  0  0  0  0  0  0  0
  152.7237  142.0912  159.0854 C   0  0  0  0  0  0  0  0  0  0  0  0
  152.2561  143.4746  159.4231 C   0  0  0  0  0  0  0  0  0  0  0  0
  151.8506  144.4839  158.5956 C   0  0  0  0  0  0  0  0  0  0  0  0
  151.5068  145.5423  159.4800 C   0  0  0  0  0  0  0  0  0  0  0  0
  151.6949  145.2238  160.7483 N   0  0  0  0  0  0  0  0  0  0  0  0
  152.1616  143.9573  160.7176 N   0  0  0  0  0  0  0  0  0  0  0  0
  152.4761  143.3001  161.9718 C   0  0  0  0  0  0  0  0  0  0  0  0
  151.6828  138.7674  154.6354 C   0  0  0  0  0  0  0  0  0  0  0  0
  150.4730  137.8288  154.5022 C   0  0  0  0  0  0  0  0  0  0  0  0
  149.3216  138.5598  154.0731 O   0  0  0  0  0  0  0  0  0  0  0  0
  146.6417  142.2443  154.0516 H   0  0  0  0  0  0  0  0  0  0  0  0
  148.2205  142.4548  154.7958 H   0  0  0  0  0  0  0  0  0  0  0  0
  146.9178  141.6558  155.6789 H   0  0  0  0  0  0  0  0  0  0  0  0
  146.9491  139.7586  154.0583 H   0  0  0  0  0  0  0  0  0  0  0  0
  148.1233  140.5856  153.0765 H   0  0  0  0  0  0  0  0  0  0  0  0
  148.0876  140.0822  156.8290 H   0  0  0  0  0  0  0  0  0  0  0  0
  149.1766  138.7111  156.8226 H   0  0  0  0  0  0  0  0  0  0  0  0
  147.5805  138.5573  156.1129 H   0  0  0  0  0  0  0  0  0  0  0  0
  150.5222  141.0186  154.0552 H   0  0  0  0  0  0  0  0  0  0  0  0
  149.9430  141.4964  155.6150 H   0  0  0  0  0  0  0  0  0  0  0  0
  150.3156  141.0706  157.3597 H   0  0  0  0  0  0  0  0  0  0  0  0
  150.7548  141.3419  159.6211 H   0  0  0  0  0  0  0  0  0  0  0  0
  151.9713  140.1051  159.4947 H   0  0  0  0  0  0  0  0  0  0  0  0
  153.4858  141.7813  159.8006 H   0  0  0  0  0  0  0  0  0  0  0  0
  153.2285  142.1192  158.1189 H   0  0  0  0  0  0  0  0  0  0  0  0
  151.7969  144.4647  157.5174 H   0  0  0  0  0  0  0  0  0  0  0  0
  151.1304  146.5257  159.2393 H   0  0  0  0  0  0  0  0  0  0  0  0
  153.2625  142.5601  161.8259 H   0  0  0  0  0  0  0  0  0  0  0  0
  151.5858  142.8037  162.3577 H   0  0  0  0  0  0  0  0  0  0  0  0
  152.8205  144.0311  162.7045 H   0  0  0  0  0  0  0  0  0  0  0  0
  151.9386  139.1899  153.6627 H   0  0  0  0  0  0  0  0  0  0  0  0
  152.5576  138.1998  154.9551 H   0  0  0  0  0  0  0  0  0  0  0  0
  150.6831  137.0532  153.7655 H   0  0  0  0  0  0  0  0  0  0  0  0
  150.2755  137.3133  155.4421 H   0  0  0  0  0  0  0  0  0  0  0  0
  1  2  1  0  0  0  0
  1 21  1  0  0  0  0
  1 22  1  0  0  0  0
  1 23  1  0  0  0  0
  2  3  1  0  0  0  0
  2 24  1  0  0  0  0
  2 25  1  0  0  0  0
  3 20  1  0  0  0  0
  3  4  1  0  0  0  0
  3  5  1  0  0  0  0
  4 26  1  0  0  0  0
  4 27  1  0  0  0  0
  4 28  1  0  0  0  0
  5  6  1  0  0  0  0
  5 29  1  0  0  0  0
  5 30  1  0  0  0  0
  6  7  1  0  0  0  0
  6 18  1  0  0  0  0
  7  8  2  0  0  0  0
  7  9  1  0  0  0  0
  9 10  1  0  0  0  0
  9 31  1  0  0  0  0
 10 11  1  0  0  0  0
 10 32  1  0  0  0  0
 10 33  1  0  0  0  0
 11 12  1  0  0  0  0
 11 34  1  0  0  0  0
 11 35  1  0  0  0  0
 12 16  1  0  0  0  0
 12 13  2  0  0  0  0
 13 14  1  0  0  0  0
 13 36  1  0  0  0  0
 14 15  2  0  0  0  0
 14 37  1  0  0  0  0
 15 16  1  0  0  0  0
 16 17  1  0  0  0  0
 17 38  1  0  0  0  0
 17 39  1  0  0  0  0
 17 40  1  0  0  0  0
 18 19  1  0  0  0  0
 18 41  1  0  0  0  0
 18 42  1  0  0  0  0
 19 20  1  0  0  0  0
 19 43  1  0  0  0  0
 19 44  1  0  0  0  0
M  END
> <s_m_source_file>
AV-unprocessed.smi

> <i_m_source_file_index>
2600

> <i_lp_mmshare_version>
43012

> <i_f3d_flags>
0

> <s_epik_input>
W0NIM11bQ0gyXVtDQEBdMShbQ0gzXSlbQ0gyXU4oW0NIMl1bQ0gyXU8xKUMoPU8pW05IXVtDSDJdW0NIMl1jMltjSF1bY0hdbm4yW0NIM10=

> <s_epik_cmdline>
J2VwaWtfcHl0aG9uJywgJy1waCcsICc3LjAnLCAnLXRuJywgJzgnLCAnLW1hJywgJzIwMCcsICctbWV0YWxfYmluZGluZycsICctaW1hZScsICc8aW5maWxlLm1hZT4nLCAnLW9tYWUnLCAnPG91dGZpbGUubWFlPic=

> <r_lp_tautomer_probability>
1

> <r_epik_Ionization_Penalty>
0.00252014

> <r_epik_Ionization_Penalty_Charging>
0

> <r_epik_Ionization_Penalty_Neutral>
0.00252014

> <r_epik_State_Penalty>
0.00172506

> <r_epik_Charging_Adjusted_Penalty>
0.00172506

> <i_epik_Tot_Q>
0

> <i_epik_Tot_abs_Q>
0

> <r_epik_Metal_State_Penalty>
-0

> <b_epik_Metal_Only>
0

> <s_lp_Force_Field>
OPLS_2005

> <r_lp_Energy>
29.2507

> <b_lp_Chiralities_Consistent>
1

> <s_lp_Variant>
AV-unprocessed.smi:2600-2

> <Gold.Version>
5.8.1

> <Gold.Id.Protein>
6NUR|6NUR_protein|mol2

> <Gold.PLP.Fitness>
47.5598

> <Gold.PLP.PLP>
-46.4063

> <Gold.PLP.part.hbond>
-1.0000

> <Gold.PLP.part.metal>
0.0000

> <Gold.PLP.part.buried>
-0.5162

> <Gold.PLP.part.nonpolar>
-44.5915

> <Gold.PLP.part.repulsive>
0.5014

> <Gold.PLP.ligand.clash>
0.0000

> <Gold.PLP.ligand.torsion>
0.9468

> <Gold.PLP.Chemscore.Hbond>
1.0000

> <Gold.PLP.Chemscore.CHOScore>
0.0000

> <Gold.PLP.Chemscore.Metal>
0.0000

> <Gold.Chemscore.Hbonds>
donor molecule, donor type, donor heavy atom, donor atom, acceptor molecule, acceptor atom, score
      P1  H  7997  8008       L1     8  0.98

> <Gold.PLP.Chemscore.Internal.Correction>
0.0470

> <Gold.Rescore>
     Score         DG    S(hbond)    S(metal)    S(lipo)     H(rot)  DE(clash)    DE(int)     intcor
     16.08     -17.07       0.99        0.00     102.99       1.47       0.02       0.98       ----

> <Gold.Chemscore.Fitness>
16.0750

> <Gold.Chemscore.DG>
-17.0705

> <Gold.Chemscore.ZeroCoef>
-5.4800

> <Gold.Chemscore.Hbond>
0.9920

> <Gold.Chemscore.Metal>
0.0000

> <Gold.Chemscore.Lipo>
102.9861

> <Gold.Chemscore.Internal_Hbond>
0.0000

> <Gold.Chemscore.DEClash>
0.0204

> <Gold.Chemscore.DEInternal>
0.9751

> <Gold.Chemscore.Rot>
1.4735

> <Gold.Chemscore.Internal.Correction>
   9.000000E+99

> <Gold.Chemscore.Hbonds>
donor molecule, donor type, donor heavy atom, donor atom, acceptor molecule, acceptor atom, score
      P1  H  7997  8008       L1     8  0.92

> <Gold.Chemscore.Hbond.Weighted>
-3.3132

> <Gold.Chemscore.Metal.Weighted>
-0.0000

> <Gold.Chemscore.Lipo.Weighted>
-12.0494

> <Gold.Chemscore.Internal_Hbond.Weighted>
0.0000

> <Gold.Chemscore.DEClash.Weighted>
0.0204

> <Gold.Chemscore.DEInternal.Weighted>
0.9751

> <Gold.Chemscore.Rot.Weighted>
3.7721

> <Gold.Chemscore.Internal.Correction.Weighted>
   9.000000E+99

> <Gold.Protein.RotatedTorsions>
[ 6907 6896 6895 6894 ] final   37.52 input  -60.11 | X-H torsion
[ 7974 7965 7964 7962 ] final   86.01 input  175.53 | X-H torsion
[ 8008 7997 7996 7995 ] final  -68.24 input   59.86 | X-H torsion
[ 10167 10162 10161 10158 ] final   92.50 input  -65.29 | X-H torsion
[ 10718 10713 10712 10709 ] final  -84.30 input   66.30 | X-H torsion
[ 10763 10752 10751 10750 ] final -126.48 input  -60.55 | X-H torsion
[ 11005 11000 10999 10996 ] final  -94.78 input  -57.11 | X-H torsion

> <Gold.Protein.ActiveResidues>
 VAL166  LYS551  ARG553  GLY616  TRP617  ASP618  TYR619  PRO620  LYS621  CYS622 
 ASP623  PHE694  ASN695  SER759  ASP760  ASP761  ALA762  ILE779  LEU786  VAL792 
 PHE793  MET794  SER795  GLU796  ALA797  LYS798  CYS799  TRP800  GLU811  SER814 

> <Gold.Protein.RotatedAtoms>
  152.1443  134.9038  160.0551 H   0  0  0  0  0  0  0  0  0  0  0  0  # atno 6907 bound_to 6896
  152.0094  133.3851  159.4222 H   0  0  0  0  0  0  0  0  0  0  0  0  # atno 6908 bound_to 6896
  150.6868  134.3668  159.5018 H   0  0  0  0  0  0  0  0  0  0  0  0  # atno 6909 bound_to 6896
  145.5779  139.2321  143.2369 H   0  0  0  0  0  0  0  0  0  0  0  0  # atno 7974 bound_to 7965
  154.4854  140.0877  156.7475 H   0  0  0  0  0  0  0  0  0  0  0  0  # atno 8008 bound_to 7997
  155.4363  140.3452  155.4267 H   0  0  0  0  0  0  0  0  0  0  0  0  # atno 8009 bound_to 7997
  156.1254  140.1486  156.9132 H   0  0  0  0  0  0  0  0  0  0  0  0  # atno 8010 bound_to 7997
  139.8270  144.6705  150.9447 H   0  0  0  0  0  0  0  0  0  0  0  0  # atno 10167 bound_to 10162
  156.0008  130.4693  150.4388 H   0  0  0  0  0  0  0  0  0  0  0  0  # atno 10718 bound_to 10713
  154.8746  135.3994  154.3438 H   0  0  0  0  0  0  0  0  0  0  0  0  # atno 10763 bound_to 10752
  153.4234  135.7023  153.6284 H   0  0  0  0  0  0  0  0  0  0  0  0  # atno 10764 bound_to 10752
  153.4937  135.3743  155.2474 H   0  0  0  0  0  0  0  0  0  0  0  0  # atno 10765 bound_to 10752
  141.1461  133.7980  157.0345 H   0  0  0  0  0  0  0  0  0  0  0  0  # atno 11005 bound_to 11000
  146.1737  140.6605  142.9221 LP  0  0  0  0  0  0  0  0  0  0  0  0  # atno 17320 bound_to 7965
  144.7407  140.4935  143.6871 LP  0  0  0  0  0  0  0  0  0  0  0  0  # atno 17321 bound_to 7965
  140.7809  143.4037  151.1107 LP  0  0  0  0  0  0  0  0  0  0  0  0  # atno 17342 bound_to 10162
  139.7693  143.8518  152.3117 LP  0  0  0  0  0  0  0  0  0  0  0  0  # atno 17343 bound_to 10162
  157.2431  131.0530  151.2424 LP  0  0  0  0  0  0  0  0  0  0  0  0  # atno 17370 bound_to 10713
  157.3601  130.7127  149.6496 LP  0  0  0  0  0  0  0  0  0  0  0  0  # atno 17371 bound_to 10713
  140.0733  134.9690  157.1503 LP  0  0  0  0  0  0  0  0  0  0  0  0  # atno 17394 bound_to 11000
  140.3680  134.2421  155.7180 LP  0  0  0  0  0  0  0  0  0  0  0  0  # atno 17395 bound_to 11000

$$$$
