AV-unprocessed.smi:2540|AV-procd|sdf|9987|dock3
  -GOLD-   2272014 33D 1   1.00000     0.00000
 Structure written by MMmdl.
 28 29  0  0  0  0  0  0  0  0  2 V2000
  150.6925  137.0400  154.7024 C   0  0  0  0  0  0  0  0  0  0  0  0
  152.0344  137.4762  154.8276 O   0  0  0  0  0  0  0  0  0  0  0  0
  152.1331  138.8649  155.0990 C   0  0  0  0  0  0  0  0  0  0  0  0
  151.4939  139.1800  156.4589 C   0  0  0  0  0  0  0  0  0  0  0  0
  151.2025  140.6121  156.6217 N   0  0  0  0  0  0  0  0  0  0  0  0
  150.4188  141.4491  155.8948 C   0  0  0  0  0  0  0  0  0  0  0  0
  149.6797  141.0909  154.7690 N   0  0  0  0  0  0  0  0  0  0  0  0
  150.4630  142.6958  156.4286 N   0  3  0  0  0  0  0  0  0  0  0  0
  151.3105  142.6646  157.5403 C   0  0  0  0  0  0  0  0  0  0  0  0
  151.6887  143.6733  158.4211 C   0  0  0  0  0  0  0  0  0  0  0  0
  152.5788  143.3125  159.4539 C   0  0  0  0  0  0  0  0  0  0  0  0
  153.0590  141.9933  159.5836 C   0  0  0  0  0  0  0  0  0  0  0  0
  152.6687  140.9759  158.6882 C   0  0  0  0  0  0  0  0  0  0  0  0
  151.7879  141.3369  157.6689 C   0  0  0  0  0  0  0  0  0  0  0  0
  150.6729  135.9702  154.4943 H   0  0  0  0  0  0  0  0  0  0  0  0
  150.1867  137.5513  153.8824 H   0  0  0  0  0  0  0  0  0  0  0  0
  150.1334  137.2149  155.6224 H   0  0  0  0  0  0  0  0  0  0  0  0
  153.1808  139.1701  155.1023 H   0  0  0  0  0  0  0  0  0  0  0  0
  151.6307  139.4341  154.3157 H   0  0  0  0  0  0  0  0  0  0  0  0
  150.5538  138.6376  156.5634 H   0  0  0  0  0  0  0  0  0  0  0  0
  152.1316  138.8488  157.2783 H   0  0  0  0  0  0  0  0  0  0  0  0
  149.1152  141.7615  154.2676 H   0  0  0  0  0  0  0  0  0  0  0  0
  149.6852  140.1446  154.4157 H   0  0  0  0  0  0  0  0  0  0  0  0
  151.3250  144.6856  158.3242 H   0  0  0  0  0  0  0  0  0  0  0  0
  152.9017  144.0637  160.1600 H   0  0  0  0  0  0  0  0  0  0  0  0
  153.7427  141.7562  160.3858 H   0  0  0  0  0  0  0  0  0  0  0  0
  153.0484  139.9705  158.7940 H   0  0  0  0  0  0  0  0  0  0  0  0
  149.9620  143.4962  156.0648 H   0  0  0  0  0  0  0  0  0  0  0  0
  1  2  1  0  0  0  0
  1 15  1  0  0  0  0
  1 16  1  0  0  0  0
  1 17  1  0  0  0  0
  2  3  1  0  0  0  0
  3  4  1  0  0  0  0
  3 18  1  0  0  0  0
  3 19  1  0  0  0  0
  4  5  1  0  0  0  0
  4 20  1  0  0  0  0
  4 21  1  0  0  0  0
  5 14  1  0  0  0  0
  5  6  1  0  0  0  0
  6  7  1  0  0  0  0
  6  8  2  0  0  0  0
  7 22  1  0  0  0  0
  7 23  1  0  0  0  0
  8  9  1  0  0  0  0
  8 28  1  0  0  0  0
  9 14  2  0  0  0  0
  9 10  1  0  0  0  0
 10 11  2  0  0  0  0
 10 24  1  0  0  0  0
 11 12  1  0  0  0  0
 11 25  1  0  0  0  0
 12 13  2  0  0  0  0
 12 26  1  0  0  0  0
 13 14  1  0  0  0  0
 13 27  1  0  0  0  0
M  CHG  1   8   1
M  END
> <s_m_source_file>
AV-unprocessed.smi

> <i_m_source_file_index>
2540

> <i_lp_mmshare_version>
43012

> <i_f3d_flags>
0

> <s_epik_input>
W0NIM11PW0NIMl1bQ0gyXW4oYyhuMSlbTkgyXSljKGMxMilbY0hdW2NIXVtjSF1bY0hdMg==

> <s_epik_cmdline>
J2VwaWtfcHl0aG9uJywgJy1waCcsICc3LjAnLCAnLXRuJywgJzgnLCAnLW1hJywgJzIwMCcsICctbWV0YWxfYmluZGluZycsICctaW1hZScsICc8aW5maWxlLm1hZT4nLCAnLW9tYWUnLCAnPG91dGZpbGUubWFlPic=

> <r_epik_Ionization_Penalty>
0.266071

> <r_epik_Ionization_Penalty_Charging>
0.266069

> <r_epik_Ionization_Penalty_Neutral>
1.55827e-06

> <r_epik_State_Penalty>
0.258006

> <r_epik_Charging_Adjusted_Penalty>
0.524075

> <i_epik_Tot_Q>
1

> <i_epik_Tot_abs_Q>
1

> <r_epik_Metal_State_Penalty>
3.73495

> <b_epik_Metal_Only>
0

> <s_lp_Force_Field>
OPLS_2005

> <r_lp_Energy>
14.4512

> <b_lp_Chiralities_Consistent>
1

> <s_lp_Variant>
AV-unprocessed.smi:2540-1

> <Gold.Version>
5.8.1

> <Gold.Id.Protein>
6NUR|6NUR_protein|mol2

> <Gold.PLP.Fitness>
39.7965

> <Gold.PLP.PLP>
-31.8937

> <Gold.PLP.part.hbond>
-2.0000

> <Gold.PLP.part.metal>
0.0000

> <Gold.PLP.part.buried>
-5.4412

> <Gold.PLP.part.nonpolar>
-25.9942

> <Gold.PLP.part.repulsive>
0.7704

> <Gold.PLP.ligand.clash>
0.0000

> <Gold.PLP.ligand.torsion>
0.0738

> <Gold.PLP.Chemscore.Hbond>
2.6821

> <Gold.PLP.Chemscore.CHOScore>
0.0000

> <Gold.PLP.Chemscore.Metal>
0.0000

> <Gold.Chemscore.Hbonds>
donor molecule, donor type, donor heavy atom, donor atom, acceptor molecule, acceptor atom, score
      L1  H     8    28       P1  8028  2.00
      P1  H 10752 10765       L1     2  0.68

> <Gold.PLP.Chemscore.Internal.Correction>
0.0040

> <Gold.Rescore>
     Score         DG    S(hbond)    S(metal)    S(lipo)     H(rot)  DE(clash)    DE(int)     intcor
     16.79     -16.93       1.86        0.00      77.53       1.49       0.03       0.11       ----

> <Gold.Chemscore.Fitness>
16.7935

> <Gold.Chemscore.DG>
-16.9322

> <Gold.Chemscore.ZeroCoef>
-5.4800

> <Gold.Chemscore.Hbond>
1.8580

> <Gold.Chemscore.Metal>
0.0000

> <Gold.Chemscore.Lipo>
77.5314

> <Gold.Chemscore.Internal_Hbond>
0.0000

> <Gold.Chemscore.DEClash>
0.0270

> <Gold.Chemscore.DEInternal>
0.1117

> <Gold.Chemscore.Rot>
1.4940

> <Gold.Chemscore.Internal.Correction>
   9.000000E+99

> <Gold.Chemscore.Hbonds>
donor molecule, donor type, donor heavy atom, donor atom, acceptor molecule, acceptor atom, score
      L1  H     8    28       P1  8028  1.00
      P1  H 10752 10765       L1     2  0.13

> <Gold.Chemscore.Hbond.Weighted>
-6.2057

> <Gold.Chemscore.Metal.Weighted>
-0.0000

> <Gold.Chemscore.Lipo.Weighted>
-9.0712

> <Gold.Chemscore.Internal_Hbond.Weighted>
0.0000

> <Gold.Chemscore.DEClash.Weighted>
0.0270

> <Gold.Chemscore.DEInternal.Weighted>
0.1117

> <Gold.Chemscore.Rot.Weighted>
3.8247

> <Gold.Chemscore.Internal.Correction.Weighted>
   9.000000E+99

> <Gold.Protein.RotatedTorsions>
[ 6907 6896 6895 6894 ] final   57.83 input  -60.11 | X-H torsion
[ 7974 7965 7964 7962 ] final  -78.99 input  175.53 | X-H torsion
[ 8008 7997 7996 7995 ] final  -77.22 input   59.86 | X-H torsion
[ 10167 10162 10161 10158 ] final -102.88 input  -65.29 | X-H torsion
[ 10718 10713 10712 10709 ] final  173.08 input   66.30 | X-H torsion
[ 10763 10752 10751 10750 ] final  170.63 input  -60.55 | X-H torsion
[ 11005 11000 10999 10996 ] final   64.01 input  -57.11 | X-H torsion

> <Gold.Protein.ActiveResidues>
 VAL166  LYS551  ARG553  GLY616  TRP617  ASP618  TYR619  PRO620  LYS621  CYS622 
 ASP623  PHE694  ASN695  SER759  ASP760  ASP761  ALA762  ILE779  LEU786  VAL792 
 PHE793  MET794  SER795  GLU796  ALA797  LYS798  CYS799  TRP800  GLU811  SER814 

> <Gold.Protein.RotatedAtoms>
  152.3768  134.6651  160.0156 H   0  0  0  0  0  0  0  0  0  0  0  0  # atno 6907 bound_to 6896
  151.6926  133.3305  159.3254 H   0  0  0  0  0  0  0  0  0  0  0  0  # atno 6908 bound_to 6896
  150.7716  134.6620  159.6390 H   0  0  0  0  0  0  0  0  0  0  0  0  # atno 6909 bound_to 6896
  145.5792  140.9452  143.1353 H   0  0  0  0  0  0  0  0  0  0  0  0  # atno 7974 bound_to 7965
  154.5576  140.0714  156.8768 H   0  0  0  0  0  0  0  0  0  0  0  0  # atno 8008 bound_to 7997
  155.2873  140.3375  155.4236 H   0  0  0  0  0  0  0  0  0  0  0  0  # atno 8009 bound_to 7997
  156.2015  140.1723  156.7875 H   0  0  0  0  0  0  0  0  0  0  0  0  # atno 8010 bound_to 7997
  140.2260  143.3641  152.0928 H   0  0  0  0  0  0  0  0  0  0  0  0  # atno 10167 bound_to 10162
  156.9695  131.0085  151.2908 H   0  0  0  0  0  0  0  0  0  0  0  0  # atno 10718 bound_to 10713
  154.4004  135.2755  155.2100 H   0  0  0  0  0  0  0  0  0  0  0  0  # atno 10763 bound_to 10752
  154.4128  135.6018  153.5967 H   0  0  0  0  0  0  0  0  0  0  0  0  # atno 10764 bound_to 10752
  152.9831  135.5953  154.4271 H   0  0  0  0  0  0  0  0  0  0  0  0  # atno 10765 bound_to 10752
  139.9987  134.6477  155.9967 H   0  0  0  0  0  0  0  0  0  0  0  0  # atno 11005 bound_to 11000
  144.7402  139.7471  143.7314 LP  0  0  0  0  0  0  0  0  0  0  0  0  # atno 17320 bound_to 7965
  146.1729  139.4887  142.9916 LP  0  0  0  0  0  0  0  0  0  0  0  0  # atno 17321 bound_to 7965
  139.5127  144.6921  151.5732 LP  0  0  0  0  0  0  0  0  0  0  0  0  # atno 17342 bound_to 10162
  140.6220  143.9240  150.6534 LP  0  0  0  0  0  0  0  0  0  0  0  0  # atno 17343 bound_to 10162
  157.5602  130.8241  149.8256 LP  0  0  0  0  0  0  0  0  0  0  0  0  # atno 17370 bound_to 10713
  156.0288  130.3771  150.1745 LP  0  0  0  0  0  0  0  0  0  0  0  0  # atno 17371 bound_to 10713
  141.1625  133.6538  156.4365 LP  0  0  0  0  0  0  0  0  0  0  0  0  # atno 17394 bound_to 11000
  140.4769  134.6700  157.5154 LP  0  0  0  0  0  0  0  0  0  0  0  0  # atno 17395 bound_to 11000

$$$$
