#       Name:                AV-unprocessed.smi:1780
#       Creating user name   scv26
#       Creation time:       Fri Mar 27 08:42:46 2020


#       File generated by GOLD software.
#

@<TRIPOS>MOLECULE
AV-unprocessed.smi:1780
    49    50     1
SMALL
NO_CHARGES


@<TRIPOS>ATOM
      1 ****        -5.7059   3.8790  -2.3989 C.3            1 S1                 0.0000
      2 ****        -5.2029   3.5172  -0.9962 C.3            1 S1                 0.0000
      3 ****        -4.7108   2.1546  -0.9345 N.pl3          1 S1                 0.0000
      4 ****        -3.4002   1.7210  -0.8967 C.2            1 S1                 0.0000
      5 ****        -3.4639   0.3572  -0.8408 C.2            1 S1                 0.0000
      6 ****        -2.4115  -0.5914  -0.7868 N.am           1 S1                 0.0000
      7 ****        -1.0931  -0.3429  -0.7305 C.2            1 S1                 0.0000
      8 ****        -0.5816   0.7770  -0.7179 O.2            1 S1                 0.0000
      9 ****        -0.3830  -1.4787  -0.6797 N.am           1 S1                 0.0000
     10 ****         1.0729  -1.5480  -0.5930 C.3            1 S1                 0.0000
     11 ****         1.6174  -1.2057   0.8202 C.3            1 S1                 0.0000
     12 ****         0.9860  -2.1454   1.8765 C.3            1 S1                 0.0000
     13 ****         3.1171  -1.2299   0.8194 N.4            1 S1                 1.0000
     14 ****         3.7076  -0.0338   0.1584 C.3            1 S1                 0.0000
     15 ****         5.2394  -0.1406   0.0899 C.3            1 S1                 0.0000
     16 ****         5.7613  -0.2801   1.4028 O.3            1 S1                 0.0000
     17 ****         5.2922  -1.4663   2.0262 C.3            1 S1                 0.0000
     18 ****         3.7587  -1.4265   2.1492 C.3            1 S1                 0.0000
     19 ****        -4.8455   0.0332  -0.8517 C.2            1 S1                 0.0000
     20 ****        -5.5931   1.1249  -0.9054 N.2            1 S1                 0.0000
     21 ****        -6.0631   4.9085  -2.4286 H              1 S1                 0.0000
     22 ****        -6.5304   3.2331  -2.7024 H              1 S1                 0.0000
     23 ****        -4.9117   3.7802  -3.1393 H              1 S1                 0.0000
     24 ****        -4.3994   4.1926  -0.7000 H              1 S1                 0.0000
     25 ****        -6.0022   3.6354  -0.2633 H              1 S1                 0.0000
     26 ****        -2.5678   2.4090  -0.9136 H              1 S1                 0.0000
     27 ****        -2.6946  -1.5604  -0.7813 H              1 S1                 0.0000
     28 ****        -0.8834  -2.3557  -0.6976 H              1 S1                 0.0000
     29 ****         1.3752  -2.5590  -0.8679 H              1 S1                 0.0000
     30 ****         1.4844  -0.8935  -1.3602 H              1 S1                 0.0000
     31 ****         1.3092  -0.1919   1.0809 H              1 S1                 0.0000
     32 ****        -0.1029  -2.1268   1.8354 H              1 S1                 0.0000
     33 ****         1.2441  -1.8498   2.8935 H              1 S1                 0.0000
     34 ****         1.2999  -3.1794   1.7293 H              1 S1                 0.0000
     35 ****         3.3255   0.0889  -0.8531 H              1 S1                 0.0000
     36 ****         3.4268   0.8644   0.7107 H              1 S1                 0.0000
     37 ****         5.5463  -0.9828  -0.5327 H              1 S1                 0.0000
     38 ****         5.6585   0.7587  -0.3615 H              1 S1                 0.0000
     39 ****         5.6147  -2.3411   1.4591 H              1 S1                 0.0000
     40 ****         5.7446  -1.5460   3.0149 H              1 S1                 0.0000
     41 ****         3.4575  -0.6232   2.8236 H              1 S1                 0.0000
     42 ****         3.4450  -2.3684   2.5982 H              1 S1                 0.0000
     43 ****        -5.3212  -0.9358  -0.8210 H              1 S1                 0.0000
     44 ****         3.3846  -2.0321   0.2671 H              1 S1                 0.0000
     45 ****        -1.1607   1.5916  -0.7510 LP             1 S1                 0.0000
     46 ****         0.4129   0.8720  -0.6746 LP             1 S1                 0.0000
     47 ****         5.4792   0.5079   1.9500 LP             1 S1                 0.0000
     48 ****         6.7596  -0.3117   1.3539 LP             1 S1                 0.0000
     49 ****        -6.5916   1.1785  -0.9211 LP             1 S1                 0.0000
@<TRIPOS>BOND
    1    1    2 1     
    2    1   21 1     
    3    1   22 1     
    4    1   23 1     
    5    2    3 1     
    6    2   24 1     
    7    2   25 1     
    8    3   20 1     
    9    3    4 1     
   10    4    5 2     
   11    4   26 1     
   12    5    6 1     
   13    5   19 1     
   14    6    7 am    
   15    6   27 1     
   16    7    8 2     
   17    7    9 am    
   18    9   10 1     
   19    9   28 1     
   20   10   11 1     
   21   10   29 1     
   22   10   30 1     
   23   11   12 1     
   24   11   13 1     
   25   11   31 1     
   26   12   32 1     
   27   12   33 1     
   28   12   34 1     
   29   13   18 1     
   30   13   14 1     
   31   13   44 1     
   32   14   15 1     
   33   14   35 1     
   34   14   36 1     
   35   15   16 1     
   36   15   37 1     
   37   15   38 1     
   38   16   17 1     
   39   17   18 1     
   40   17   39 1     
   41   17   40 1     
   42   18   41 1     
   43   18   42 1     
   44   19   20 2     
   45   19   43 1     
   46    8   45 1     
   47    8   46 1     
   48   16   47 1     
   49   16   48 1     
   50   20   49 1     
@<TRIPOS>SUBSTRUCTURE
      1 S1             1
@<TRIPOS>SET
LONE_PAIRS      STATIC     ATOMS    <user>   **** ""
5 45 46 47 48 49
DONOR_HYDROGENS      STATIC     ATOMS    <user>   **** ""
3 27 28 44
ATOM$BLUE        STATIC     ATOMS    COLORGROUP SYSTEM
5 45 46 47 48 49
ATOM$RED        STATIC     ATOMS    COLORGROUP SYSTEM
3 27 28 44
