AV-unprocessed.smi:703|AV-procd|sdf|3437|dock1
  -GOLD-   22720 0423D 1   1.00000     0.00000
 Structure written by MMmdl.
 37 38  0  0  0  0  0  0  0  0  3 V2000
  146.5685  133.1694  151.1078 C   0  0  0  0  0  0  0  0  0  0  0  0
  146.3399  133.7073  152.5268 C   0  0  0  0  0  0  0  0  0  0  0  0
  147.5910  134.2094  153.1438 N   0  3  2  0  0  0  0  0  0  0  0  0
  148.6308  133.1846  153.3823 C   0  0  0  0  0  0  0  0  0  0  0  0
  149.4845  133.7397  154.5257 C   0  0  2  0  0  0  0  0  0  0  0  0
  150.3365  132.6642  155.2277 C   0  0  0  0  0  0  0  0  0  0  0  0
  148.4413  134.4413  155.4103 C   0  0  1  0  0  0  0  0  0  0  0  0
  149.0379  135.5202  156.1819 N   0  5  0  0  0  0  0  0  0  0  0  0
  149.3157  135.3118  157.7672 S   0  0  0  0  0  0  0  0  0  0  0  0
  149.3696  133.8911  158.1501 O   0  0  0  0  0  0  0  0  0  0  0  0
  150.4004  136.1793  158.2531 O   0  0  0  0  0  0  0  0  0  0  0  0
  147.7582  135.9949  158.4871 C   0  0  0  0  0  0  0  0  0  0  0  0
  147.7374  135.8006  159.9789 C   0  0  0  0  0  0  0  0  0  0  0  0
  147.7090  134.5810  160.7113 C   0  0  0  0  0  0  0  0  0  0  0  0
  147.7020  134.9900  162.0134 C   0  0  0  0  0  0  0  0  0  0  0  0
  147.7160  136.3446  162.0859 O   0  0  0  0  0  0  0  0  0  0  0  0
  147.7343  136.8534  160.7824 N   0  0  0  0  0  0  0  0  0  0  0  0
  147.3935  134.9593  154.4076 C   0  0  0  0  0  0  0  0  0  0  0  0
  145.6253  132.8606  150.6567 H   0  0  0  0  0  0  0  0  0  0  0  0
  147.2295  132.3025  151.1078 H   0  0  0  0  0  0  0  0  0  0  0  0
  147.0103  133.9303  150.4634 H   0  0  0  0  0  0  0  0  0  0  0  0
  145.6227  134.5278  152.4788 H   0  0  0  0  0  0  0  0  0  0  0  0
  145.8954  132.9377  153.1598 H   0  0  0  0  0  0  0  0  0  0  0  0
  148.1691  132.2334  153.6614 H   0  0  0  0  0  0  0  0  0  0  0  0
  149.2213  133.0085  152.4824 H   0  0  0  0  0  0  0  0  0  0  0  0
  150.1544  134.4914  154.1024 H   0  0  0  0  0  0  0  0  0  0  0  0
  149.7272  131.8647  155.6538 H   0  0  0  0  0  0  0  0  0  0  0  0
  150.9410  133.0879  156.0319 H   0  0  0  0  0  0  0  0  0  0  0  0
  151.0248  132.2022  154.5195 H   0  0  0  0  0  0  0  0  0  0  0  0
  147.9703  133.6886  156.0443 H   0  0  0  0  0  0  0  0  0  0  0  0
  147.7180  137.0551  158.2359 H   0  0  0  0  0  0  0  0  0  0  0  0
  146.9073  135.5143  158.0051 H   0  0  0  0  0  0  0  0  0  0  0  0
  147.7021  133.5681  160.3374 H   0  0  0  0  0  0  0  0  0  0  0  0
  147.6870  134.4642  162.9565 H   0  0  0  0  0  0  0  0  0  0  0  0
  147.5217  136.0206  154.1875 H   0  0  0  0  0  0  0  0  0  0  0  0
  146.3874  134.8304  154.8101 H   0  0  0  0  0  0  0  0  0  0  0  0
  147.9937  134.8755  152.5005 H   0  0  0  0  0  0  0  0  0  0  0  0
  1  2  1  0  0  0  0
  1 19  1  0  0  0  0
  1 20  1  0  0  0  0
  1 21  1  0  0  0  0
  2  3  1  0  0  0  0
  2 22  1  0  0  0  0
  2 23  1  0  0  0  0
  3 18  1  0  0  0  0
  3  4  1  0  0  0  0
  3 37  1  0  0  0  0
  4  5  1  0  0  0  0
  4 24  1  0  0  0  0
  4 25  1  0  0  0  0
  5  6  1  0  0  0  0
  5  7  1  0  0  0  0
  5 26  1  0  0  0  0
  6 27  1  0  0  0  0
  6 28  1  0  0  0  0
  6 29  1  0  0  0  0
  7  8  1  0  0  0  0
  7 18  1  0  0  0  0
  7 30  1  0  0  0  0
  8  9  1  0  0  0  0
  9 10  2  0  0  0  0
  9 11  2  0  0  0  0
  9 12  1  0  0  0  0
 12 13  1  0  0  0  0
 12 31  1  0  0  0  0
 12 32  1  0  0  0  0
 13 17  2  0  0  0  0
 13 14  1  0  0  0  0
 14 15  2  0  0  0  0
 14 33  1  0  0  0  0
 15 16  1  0  0  0  0
 15 34  1  0  0  0  0
 16 17  1  0  0  0  0
 18 35  1  0  0  0  0
 18 36  1  0  0  0  0
M  CHG  1   3   1
M  CHG  1   8  -1
M  END
> <s_m_source_file>
AV-unprocessed.smi

> <i_m_source_file_index>
703

> <i_lp_mmshare_version>
43012

> <i_f3d_flags>
0

> <s_epik_input>
W0NIM11bQ0gyXU4xW0NIMl1bQ0BASF0oW0NIM10pW0NASF0oW0NIMl0xKVtOSF1TKD1PKSg9TylbQ0gyXWMyW2NIXVtjSF1vbjI=

> <s_epik_cmdline>
J2VwaWtfcHl0aG9uJywgJy1waCcsICc3LjAnLCAnLXRuJywgJzgnLCAnLW1hJywgJzIwMCcsICctbWV0YWxfYmluZGluZycsICctaW1hZScsICc8aW5maWxlLm1hZT4nLCAnLW9tYWUnLCAnPG91dGZpbGUubWFlPic=

> <r_epik_Ionization_Penalty>
3.62494

> <r_epik_Ionization_Penalty_Charging>
3.62494

> <r_epik_Ionization_Penalty_Neutral>
2.0321e-10

> <r_epik_State_Penalty>
3.62558

> <r_epik_Charging_Adjusted_Penalty>
7.25052

> <i_epik_Tot_Q>
0

> <i_epik_Tot_abs_Q>
2

> <r_epik_Metal_State_Penalty>
0.530836

> <b_epik_Metal_Only>
1

> <s_lp_Force_Field>
OPLS_2005

> <r_lp_Energy>
15.6249

> <b_lp_Chiralities_Consistent>
1

> <s_lp_Variant>
AV-unprocessed.smi:703-12

> <Gold.Version>
5.8.1

> <Gold.Id.Protein>
6NUR|6NUR_protein|mol2

> <Gold.PLP.Fitness>
39.3765

> <Gold.PLP.PLP>
-28.1261

> <Gold.PLP.part.hbond>
-5.7612

> <Gold.PLP.part.metal>
0.0000

> <Gold.PLP.part.buried>
-3.7387

> <Gold.PLP.part.nonpolar>
-18.3676

> <Gold.PLP.part.repulsive>
0.0319

> <Gold.PLP.ligand.clash>
0.0000

> <Gold.PLP.ligand.torsion>
0.8121

> <Gold.PLP.Chemscore.Hbond>
3.9280

> <Gold.PLP.Chemscore.CHOScore>
0.0000

> <Gold.PLP.Chemscore.Metal>
0.0000

> <Gold.Chemscore.Hbonds>
donor molecule, donor type, donor heavy atom, donor atom, acceptor molecule, acceptor atom, score
      L1  H     3    37       P1  7948  2.00
      P1  H  6896  6909       L1    10  0.70
      P1  H  6934  6947       L1    17  0.44

> <Gold.PLP.Chemscore.Internal.Correction>
1.0906

> <Gold.Rescore>
     Score         DG    S(hbond)    S(metal)    S(lipo)     H(rot)  DE(clash)    DE(int)     intcor
     16.37     -17.24       2.97        0.00      51.49       1.63       0.01       0.86       ----

> <Gold.Chemscore.Fitness>
16.3725

> <Gold.Chemscore.DG>
-17.2429

> <Gold.Chemscore.ZeroCoef>
-5.4800

> <Gold.Chemscore.Hbond>
2.9704

> <Gold.Chemscore.Metal>
0.0000

> <Gold.Chemscore.Lipo>
51.4911

> <Gold.Chemscore.Internal_Hbond>
0.0000

> <Gold.Chemscore.DEClash>
0.0060

> <Gold.Chemscore.DEInternal>
0.8644

> <Gold.Chemscore.Rot>
1.6338

> <Gold.Chemscore.Internal.Correction>
   9.000000E+99

> <Gold.Chemscore.Hbonds>
donor molecule, donor type, donor heavy atom, donor atom, acceptor molecule, acceptor atom, score
      L1  H     3    37       P1  7948  0.78
      P1  H  6896  6909       L1    10  0.07
      P1  H  6934  6947       L1    17  0.26

> <Gold.Chemscore.Hbond.Weighted>
-9.9210

> <Gold.Chemscore.Metal.Weighted>
-0.0000

> <Gold.Chemscore.Lipo.Weighted>
-6.0245

> <Gold.Chemscore.Internal_Hbond.Weighted>
0.0000

> <Gold.Chemscore.DEClash.Weighted>
0.0060

> <Gold.Chemscore.DEInternal.Weighted>
0.8644

> <Gold.Chemscore.Rot.Weighted>
4.1825

> <Gold.Chemscore.Internal.Correction.Weighted>
   9.000000E+99

> <Gold.Protein.RotatedTorsions>
[ 6907 6896 6895 6894 ] final   22.63 input  -60.11 | X-H torsion
[ 7974 7965 7964 7962 ] final   71.93 input  175.53 | X-H torsion
[ 8008 7997 7996 7995 ] final -138.87 input   59.86 | X-H torsion
[ 10167 10162 10161 10158 ] final   67.30 input  -65.29 | X-H torsion
[ 10718 10713 10712 10709 ] final -169.24 input   66.30 | X-H torsion
[ 10763 10752 10751 10750 ] final  -43.47 input  -60.55 | X-H torsion
[ 11005 11000 10999 10996 ] final   72.19 input  -57.11 | X-H torsion

> <Gold.Protein.ActiveResidues>
 VAL166  LYS551  ARG553  GLY616  TRP617  ASP618  TYR619  PRO620  LYS621  CYS622 
 ASP623  PHE694  ASN695  SER759  ASP760  ASP761  ALA762  ILE779  LEU786  VAL792 
 PHE793  MET794  SER795  GLU796  ALA797  LYS798  CYS799  TRP800  GLU811  SER814 

> <Gold.Protein.RotatedAtoms>
  151.9301  135.0260  160.0528 H   0  0  0  0  0  0  0  0  0  0  0  0  # atno 6907 bound_to 6896
  152.2126  133.4918  159.5127 H   0  0  0  0  0  0  0  0  0  0  0  0  # atno 6908 bound_to 6896
  150.6980  134.1364  159.4131 H   0  0  0  0  0  0  0  0  0  0  0  0  # atno 6909 bound_to 6896
  145.7597  139.2795  143.1383 H   0  0  0  0  0  0  0  0  0  0  0  0  # atno 7974 bound_to 7965
  155.4355  140.0528  157.3015 H   0  0  0  0  0  0  0  0  0  0  0  0  # atno 8008 bound_to 7997
  154.4841  140.2093  155.9653 H   0  0  0  0  0  0  0  0  0  0  0  0  # atno 8009 bound_to 7997
  156.1249  140.3182  155.8267 H   0  0  0  0  0  0  0  0  0  0  0  0  # atno 8010 bound_to 7997
  140.0910  144.4988  150.7099 H   0  0  0  0  0  0  0  0  0  0  0  0  # atno 10167 bound_to 10162
  156.7086  130.9224  151.3087 H   0  0  0  0  0  0  0  0  0  0  0  0  # atno 10718 bound_to 10713
  153.9961  135.6699  153.4756 H   0  0  0  0  0  0  0  0  0  0  0  0  # atno 10763 bound_to 10752
  153.0683  135.4988  154.8245 H   0  0  0  0  0  0  0  0  0  0  0  0  # atno 10764 bound_to 10752
  154.7080  135.3092  154.9203 H   0  0  0  0  0  0  0  0  0  0  0  0  # atno 10765 bound_to 10752
  139.9504  134.7238  156.0877 H   0  0  0  0  0  0  0  0  0  0  0  0  # atno 11005 bound_to 11000
  146.0276  140.8289  142.9892 LP  0  0  0  0  0  0  0  0  0  0  0  0  # atno 17320 bound_to 7965
  144.6833  140.2721  143.7304 LP  0  0  0  0  0  0  0  0  0  0  0  0  # atno 17321 bound_to 7965
  140.7028  143.2447  151.4813 LP  0  0  0  0  0  0  0  0  0  0  0  0  # atno 17342 bound_to 10162
  139.5725  144.1896  152.1856 LP  0  0  0  0  0  0  0  0  0  0  0  0  # atno 17343 bound_to 10162
  157.6945  130.9267  150.0605 LP  0  0  0  0  0  0  0  0  0  0  0  0  # atno 17370 bound_to 10713
  156.1677  130.3645  149.9209 LP  0  0  0  0  0  0  0  0  0  0  0  0  # atno 17371 bound_to 10713
  141.1165  133.6626  156.3106 LP  0  0  0  0  0  0  0  0  0  0  0  0  # atno 17394 bound_to 11000
  140.5734  134.5818  157.5463 LP  0  0  0  0  0  0  0  0  0  0  0  0  # atno 17395 bound_to 11000

$$$$
