AV-unprocessed.smi:2005|AV-procd|sdf|8126|dock4
  -GOLD-   2272010363D 1   1.00000     0.00000
 Structure written by MMmdl.
 39 40  0  0  0  0  0  0  0  0  1 V2000
  147.0295  141.7908  157.0767 C   0  0  0  0  0  0  0  0  0  0  0  0
  146.9103  141.7380  155.5466 C   0  0  0  0  0  0  0  0  0  0  0  0
  145.8975  142.7470  154.9854 C   0  0  0  0  0  0  0  0  0  0  0  0
  146.6585  140.3495  155.0471 C   0  0  0  0  0  0  0  0  0  0  0  0
  145.6742  139.5713  155.5174 N   0  0  0  0  0  0  0  0  0  0  0  0
  145.6379  138.3313  154.8958 N   0  0  0  0  0  0  0  0  0  0  0  0
  146.6000  138.2077  153.9717 C   0  0  0  0  0  0  0  0  0  0  0  0
  146.7921  137.0437  153.1820 N   0  0  0  0  0  0  0  0  0  0  0  0
  145.9381  136.0264  152.9729 C   0  0  0  0  0  0  0  0  0  0  0  0
  144.8101  135.9315  153.4578 O   0  0  0  0  0  0  0  0  0  0  0  0
  146.4702  135.1106  152.1505 N   0  0  0  0  0  0  0  0  0  0  0  0
  145.8058  133.8923  151.6975 C   0  0  2  0  0  0  0  0  0  0  0  0
  146.5409  133.3346  150.4649 C   0  0  0  0  0  0  0  0  0  0  0  0
  145.8431  132.0825  149.9052 C   0  0  0  0  0  0  0  0  0  0  0  0
  144.3549  132.3322  149.5973 C   0  0  2  0  0  0  0  0  0  0  0  0
  144.2288  133.1934  148.4826 O   0  0  0  0  0  0  0  0  0  0  0  0
  143.6189  132.9276  150.8122 C   0  0  0  0  0  0  0  0  0  0  0  0
  144.3257  134.1756  151.3698 C   0  0  0  0  0  0  0  0  0  0  0  0
  147.6408  139.6087  153.7879 S   0  0  0  0  0  0  0  0  0  0  0  0
  147.8179  141.1263  157.4316 H   0  0  0  0  0  0  0  0  0  0  0  0
  146.0982  141.4899  157.5576 H   0  0  0  0  0  0  0  0  0  0  0  0
  147.2688  142.7983  157.4179 H   0  0  0  0  0  0  0  0  0  0  0  0
  147.8842  142.0333  155.1539 H   0  0  0  0  0  0  0  0  0  0  0  0
  145.8984  142.7384  153.8949 H   0  0  0  0  0  0  0  0  0  0  0  0
  146.1342  143.7613  155.3079 H   0  0  0  0  0  0  0  0  0  0  0  0
  144.8844  142.5207  155.3197 H   0  0  0  0  0  0  0  0  0  0  0  0
  147.6819  136.9845  152.7095 H   0  0  0  0  0  0  0  0  0  0  0  0
  147.4030  135.2728  151.8000 H   0  0  0  0  0  0  0  0  0  0  0  0
  145.8551  133.1420  152.4892 H   0  0  0  0  0  0  0  0  0  0  0  0
  146.5926  134.0985  149.6877 H   0  0  0  0  0  0  0  0  0  0  0  0
  147.5719  133.0912  150.7244 H   0  0  0  0  0  0  0  0  0  0  0  0
  146.3608  131.7329  149.0112 H   0  0  0  0  0  0  0  0  0  0  0  0
  145.9238  131.2773  150.6364 H   0  0  0  0  0  0  0  0  0  0  0  0
  143.8845  131.3875  149.3231 H   0  0  0  0  0  0  0  0  0  0  0  0
  144.9570  133.7958  148.4844 H   0  0  0  0  0  0  0  0  0  0  0  0
  142.5874  133.1665  150.5512 H   0  0  0  0  0  0  0  0  0  0  0  0
  143.5651  132.1737  151.5986 H   0  0  0  0  0  0  0  0  0  0  0  0
  143.8021  134.5191  152.2626 H   0  0  0  0  0  0  0  0  0  0  0  0
  144.2569  134.9869  150.6437 H   0  0  0  0  0  0  0  0  0  0  0  0
  1  2  1  0  0  0  0
  1 20  1  0  0  0  0
  1 21  1  0  0  0  0
  1 22  1  0  0  0  0
  2  3  1  0  0  0  0
  2  4  1  0  0  0  0
  2 23  1  0  0  0  0
  3 24  1  0  0  0  0
  3 25  1  0  0  0  0
  3 26  1  0  0  0  0
  4 19  1  0  0  0  0
  4  5  2  0  0  0  0
  5  6  1  0  0  0  0
  6  7  2  0  0  0  0
  7  8  1  0  0  0  0
  7 19  1  0  0  0  0
  8  9  1  0  0  0  0
  8 27  1  0  0  0  0
  9 10  2  0  0  0  0
  9 11  1  0  0  0  0
 11 12  1  0  0  0  0
 11 28  1  0  0  0  0
 12 18  1  0  0  0  0
 12 13  1  0  0  0  0
 12 29  1  0  0  0  0
 13 14  1  0  0  0  0
 13 30  1  0  0  0  0
 13 31  1  0  0  0  0
 14 15  1  0  0  0  0
 14 32  1  0  0  0  0
 14 33  1  0  0  0  0
 15 16  1  0  0  0  0
 15 17  1  0  0  0  0
 15 34  1  0  0  0  0
 16 35  1  0  0  0  0
 17 18  1  0  0  0  0
 17 36  1  0  0  0  0
 17 37  1  0  0  0  0
 18 38  1  0  0  0  0
 18 39  1  0  0  0  0
M  END
> <s_m_source_file>
AV-unprocessed.smi

> <i_m_source_file_index>
2005

> <i_lp_mmshare_version>
43012

> <i_f3d_flags>
0

> <s_epik_input>
W0NIM11bQ0hdKFtDSDNdKWMxbm5jKHMxKVtOSF1DKD1PKVtOSF1bQ0BASF0yW0NIMl1bQ0gyXVtDQEBIXShbT0hdKVtDSDJdW0NIMl0y

> <s_epik_cmdline>
J2VwaWtfcHl0aG9uJywgJy1waCcsICc3LjAnLCAnLXRuJywgJzgnLCAnLW1hJywgJzIwMCcsICctbWV0YWxfYmluZGluZycsICctaW1hZScsICc8aW5maWxlLm1hZT4nLCAnLW9tYWUnLCAnPG91dGZpbGUubWFlPic=

> <r_lp_tautomer_probability>
1

> <r_epik_Ionization_Penalty>
0.000372581

> <r_epik_Ionization_Penalty_Charging>
0

> <r_epik_Ionization_Penalty_Neutral>
0.000372581

> <r_epik_State_Penalty>
-0

> <r_epik_Charging_Adjusted_Penalty>
0

> <i_epik_Tot_Q>
0

> <i_epik_Tot_abs_Q>
0

> <r_epik_Metal_State_Penalty>
0.186152

> <b_epik_Metal_Only>
0

> <s_lp_Force_Field>
OPLS_2005

> <r_lp_Energy>
3.3573

> <b_lp_Chiralities_Consistent>
1

> <s_lp_Variant>
AV-unprocessed.smi:2005-2

> <Gold.Version>
5.8.1

> <Gold.Id.Protein>
6NUR|6NUR_protein|mol2

> <Gold.PLP.Fitness>
40.3832

> <Gold.PLP.PLP>
-32.4775

> <Gold.PLP.part.hbond>
-3.9384

> <Gold.PLP.part.metal>
0.0000

> <Gold.PLP.part.buried>
-2.9363

> <Gold.PLP.part.nonpolar>
-25.5602

> <Gold.PLP.part.repulsive>
0.3562

> <Gold.PLP.ligand.clash>
0.0000

> <Gold.PLP.ligand.torsion>
0.5867

> <Gold.PLP.Chemscore.Hbond>
3.0000

> <Gold.PLP.Chemscore.CHOScore>
0.0000

> <Gold.PLP.Chemscore.Metal>
0.0000

> <Gold.Chemscore.Hbonds>
donor molecule, donor type, donor heavy atom, donor atom, acceptor molecule, acceptor atom, score
      L1  H     8    27       P1  7948  1.00
      L1  H    11    28       P1  7948  1.00
      L1  H    16    35       P1  7921  1.00

> <Gold.PLP.Chemscore.Internal.Correction>
0.0790

> <Gold.Rescore>
     Score         DG    S(hbond)    S(metal)    S(lipo)     H(rot)  DE(clash)    DE(int)     intcor
     15.82     -18.92       2.84        0.00      71.59       1.72       0.03       3.06       ----

> <Gold.Chemscore.Fitness>
15.8249

> <Gold.Chemscore.DG>
-18.9214

> <Gold.Chemscore.ZeroCoef>
-5.4800

> <Gold.Chemscore.Hbond>
2.8355

> <Gold.Chemscore.Metal>
0.0000

> <Gold.Chemscore.Lipo>
71.5898

> <Gold.Chemscore.Internal_Hbond>
0.0000

> <Gold.Chemscore.DEClash>
0.0347

> <Gold.Chemscore.DEInternal>
3.0618

> <Gold.Chemscore.Rot>
1.7207

> <Gold.Chemscore.Internal.Correction>
   9.000000E+99

> <Gold.Chemscore.Hbonds>
donor molecule, donor type, donor heavy atom, donor atom, acceptor molecule, acceptor atom, score
      L1  H     8    27       P1  7948  0.99
      L1  H    11    28       P1  7948  0.92
      L1  H    16    35       P1  7921  0.90

> <Gold.Chemscore.Hbond.Weighted>
-9.4705

> <Gold.Chemscore.Metal.Weighted>
-0.0000

> <Gold.Chemscore.Lipo.Weighted>
-8.3760

> <Gold.Chemscore.Internal_Hbond.Weighted>
0.0000

> <Gold.Chemscore.DEClash.Weighted>
0.0347

> <Gold.Chemscore.DEInternal.Weighted>
3.0618

> <Gold.Chemscore.Rot.Weighted>
4.4051

> <Gold.Chemscore.Internal.Correction.Weighted>
   9.000000E+99

> <Gold.Protein.RotatedTorsions>
[ 6907 6896 6895 6894 ] final -177.43 input  -60.11 | X-H torsion
[ 7974 7965 7964 7962 ] final   47.25 input  175.53 | X-H torsion
[ 8008 7997 7996 7995 ] final -140.77 input   59.86 | X-H torsion
[ 10167 10162 10161 10158 ] final -162.05 input  -65.29 | X-H torsion
[ 10718 10713 10712 10709 ] final -109.53 input   66.30 | X-H torsion
[ 10763 10752 10751 10750 ] final  167.50 input  -60.55 | X-H torsion
[ 11005 11000 10999 10996 ] final -145.65 input  -57.11 | X-H torsion

> <Gold.Protein.ActiveResidues>
 VAL166  LYS551  ARG553  GLY616  TRP617  ASP618  TYR619  PRO620  LYS621  CYS622 
 ASP623  PHE694  ASN695  SER759  ASP760  ASP761  ALA762  ILE779  LEU786  VAL792 
 PHE793  MET794  SER795  GLU796  ALA797  LYS798  CYS799  TRP800  GLU811  SER814 

> <Gold.Protein.RotatedAtoms>
  151.6208  133.3339  159.3087 H   0  0  0  0  0  0  0  0  0  0  0  0  # atno 6907 bound_to 6896
  150.8107  134.7263  159.6696 H   0  0  0  0  0  0  0  0  0  0  0  0  # atno 6908 bound_to 6896
  152.4203  134.5971  160.0041 H   0  0  0  0  0  0  0  0  0  0  0  0  # atno 6909 bound_to 6896
  146.0315  139.4770  142.9834 H   0  0  0  0  0  0  0  0  0  0  0  0  # atno 7974 bound_to 7965
  155.4669  140.0550  157.2984 H   0  0  0  0  0  0  0  0  0  0  0  0  # atno 8008 bound_to 7997
  154.4714  140.2042  155.9939 H   0  0  0  0  0  0  0  0  0  0  0  0  # atno 8009 bound_to 7997
  156.1062  140.3211  155.8014 H   0  0  0  0  0  0  0  0  0  0  0  0  # atno 8010 bound_to 7997
  139.6420  144.0241  152.2099 H   0  0  0  0  0  0  0  0  0  0  0  0  # atno 10167 bound_to 10162
  156.0542  130.5768  150.8112 H   0  0  0  0  0  0  0  0  0  0  0  0  # atno 10718 bound_to 10713
  154.3548  135.2753  155.2352 H   0  0  0  0  0  0  0  0  0  0  0  0  # atno 10763 bound_to 10752
  154.4566  135.5917  153.6230 H   0  0  0  0  0  0  0  0  0  0  0  0  # atno 10764 bound_to 10752
  152.9847  135.6055  154.3762 H   0  0  0  0  0  0  0  0  0  0  0  0  # atno 10765 bound_to 10752
  140.7901  134.2978  157.5016 H   0  0  0  0  0  0  0  0  0  0  0  0  # atno 11005 bound_to 11000
  145.7032  141.0129  143.1493 LP  0  0  0  0  0  0  0  0  0  0  0  0  # atno 17320 bound_to 7965
  144.7033  139.8669  143.7438 LP  0  0  0  0  0  0  0  0  0  0  0  0  # atno 17321 bound_to 7965
  139.9933  144.6346  150.7794 LP  0  0  0  0  0  0  0  0  0  0  0  0  # atno 17342 bound_to 10162
  140.7496  143.2941  151.3252 LP  0  0  0  0  0  0  0  0  0  0  0  0  # atno 17343 bound_to 10162
  157.5496  131.0943  150.9714 LP  0  0  0  0  0  0  0  0  0  0  0  0  # atno 17370 bound_to 10713
  156.9977  130.5587  149.5308 LP  0  0  0  0  0  0  0  0  0  0  0  0  # atno 17371 bound_to 10713
  139.8732  134.9369  156.3674 LP  0  0  0  0  0  0  0  0  0  0  0  0  # atno 17394 bound_to 11000
  140.9398  133.7522  156.0131 LP  0  0  0  0  0  0  0  0  0  0  0  0  # atno 17395 bound_to 11000

$$$$
