#       Name:                AV-unprocessed.smi:155
#       Creating user name   scv26
#       Creation time:       Thu Mar 26 18:52:38 2020


#       File generated by GOLD software.
#

@<TRIPOS>MOLECULE
AV-unprocessed.smi:155
    71    74     1
SMALL
NO_CHARGES


@<TRIPOS>ATOM
      1 ****        -5.6324   1.3544   3.2540 C.3            1 S1                 0.0000
      2 ****        -4.9194   2.3782   2.4976 N.3            1 S1                 0.0000
      3 ****        -5.8819   3.3874   2.0767 C.3            1 S1                 0.0000
      4 ****        -4.2643   1.8163   1.3172 C.3            1 S1                 0.0000
      5 ****        -2.9900   1.0000   1.6465 C.3            1 S1                 0.0000
      6 ****        -1.7644   1.8112   1.8775 N.4            1 S1                 1.0000
      7 ****        -1.6983   2.4506   3.2211 C.3            1 S1                 0.0000
      8 ****        -0.4296   3.2987   3.4527 C.3            1 S1                 0.0000
      9 ****         0.8906   2.6073   3.0578 C.3            1 S1                 0.0000
     10 ****         0.9236   2.2030   1.6500 N.pl3          1 S1                 0.0000
     11 ****         1.6468   1.1104   1.2921 C.ar           1 S1                 0.0000
     12 ****         2.8020   0.8573   1.9614 N.ar           1 S1                 0.0000
     13 ****         3.5538  -0.1997   1.6407 C.ar           1 S1                 0.0000
     14 ****         3.3365  -1.1234   0.7035 N.ar           1 S1                 0.0000
     15 ****         2.1709  -0.8867   0.0373 C.ar           1 S1                 0.0000
     16 ****         1.2723   0.1950   0.2644 C.ar           1 S1                 0.0000
     17 ****         0.1846   0.0861  -0.5963 N.2            1 S1                 0.0000
     18 ****         0.4360  -0.9819  -1.3027 C.2            1 S1                 0.0000
     19 ****         1.6093  -1.6261  -0.9882 N.pl3          1 S1                 0.0000
     20 ****         2.1313  -2.8276  -1.6152 C.3            1 S1                 0.0000
     21 ****         2.8491  -2.5298  -2.9462 C.3            1 S1                 0.0000
     22 ****         3.9203  -1.6354  -2.7116 O.3            1 S1                 0.0000
     23 ****         3.3986  -3.8061  -3.6091 C.3            1 S1                 0.0000
     24 ****         4.0750  -3.5792  -4.9637 C.3            1 S1                 0.0000
     25 ****         3.8837  -4.8989  -5.6966 C.3            1 S1                 0.0000
     26 ****         2.8717  -5.6603  -4.8378 C.3            1 S1                 0.0000
     27 ****         2.3389  -4.6845  -3.9548 O.3            1 S1                 0.0000
     28 ****         0.1480   2.9391   0.6492 C.3            1 S1                 0.0000
     29 ****        -1.3785   2.6876   0.7375 C.3            1 S1                 0.0000
     30 ****        -4.9547   0.5951   3.6417 H              1 S1                 0.0000
     31 ****        -6.3862   0.8584   2.6405 H              1 S1                 0.0000
     32 ****        -6.1368   1.8002   4.1120 H              1 S1                 0.0000
     33 ****        -5.3829   4.1930   1.5369 H              1 S1                 0.0000
     34 ****        -6.3771   3.8304   2.9415 H              1 S1                 0.0000
     35 ****        -6.6471   2.9618   1.4255 H              1 S1                 0.0000
     36 ****        -4.9787   1.1778   0.7948 H              1 S1                 0.0000
     37 ****        -4.0173   2.6127   0.6152 H              1 S1                 0.0000
     38 ****        -3.1418   0.3175   2.4818 H              1 S1                 0.0000
     39 ****        -2.7776   0.3547   0.7933 H              1 S1                 0.0000
     40 ****        -2.5645   3.0916   3.3759 H              1 S1                 0.0000
     41 ****        -1.7512   1.6647   3.9754 H              1 S1                 0.0000
     42 ****        -0.5215   4.2486   2.9254 H              1 S1                 0.0000
     43 ****        -0.3814   3.5697   4.5078 H              1 S1                 0.0000
     44 ****         1.7304   3.2759   3.2493 H              1 S1                 0.0000
     45 ****         1.0306   1.7336   3.6962 H              1 S1                 0.0000
     46 ****         4.4593  -0.3221   2.2170 H              1 S1                 0.0000
     47 ****        -0.2303  -1.3316  -2.0781 H              1 S1                 0.0000
     48 ****         2.8068  -3.3241  -0.9175 H              1 S1                 0.0000
     49 ****         1.2982  -3.5117  -1.7802 H              1 S1                 0.0000
     50 ****         2.1520  -2.0420  -3.6289 H              1 S1                 0.0000
     51 ****         4.5180  -2.0369  -2.0994 H              1 S1                 0.0000
     52 ****         4.0808  -4.3265  -2.9338 H              1 S1                 0.0000
     53 ****         3.5699  -2.7830  -5.5120 H              1 S1                 0.0000
     54 ****         5.1243  -3.3009  -4.8626 H              1 S1                 0.0000
     55 ****         3.5020  -4.7263  -6.7033 H              1 S1                 0.0000
     56 ****         4.8177  -5.4551  -5.7821 H              1 S1                 0.0000
     57 ****         2.0863  -6.1303  -5.4299 H              1 S1                 0.0000
     58 ****         3.3698  -6.4364  -4.2550 H              1 S1                 0.0000
     59 ****         0.3451   4.0018   0.7930 H              1 S1                 0.0000
     60 ****         0.5112   2.7249  -0.3563 H              1 S1                 0.0000
     61 ****        -1.6901   2.2139  -0.1941 H              1 S1                 0.0000
     62 ****        -1.9193   3.6332   0.7907 H              1 S1                 0.0000
     63 ****        -1.0269   1.1213   1.9015 H              1 S1                 0.0000
     64 ****        -4.2110   2.7754   3.0811 LP             1 S1                 0.0000
     65 ****         3.0916   1.4667   2.6995 LP             1 S1                 0.0000
     66 ****         3.9494  -1.8904   0.5140 LP             1 S1                 0.0000
     67 ****        -0.6102   0.6898  -0.6593 LP             1 S1                 0.0000
     68 ****         3.5687  -0.7811  -2.3287 LP             1 S1                 0.0000
     69 ****         4.3950  -1.4450  -3.5708 LP             1 S1                 0.0000
     70 ****         1.6067  -4.1760  -4.4080 LP             1 S1                 0.0000
     71 ****         1.9787  -5.1264  -3.1332 LP             1 S1                 0.0000
@<TRIPOS>BOND
    1    1    2 1     
    2    1   30 1     
    3    1   31 1     
    4    1   32 1     
    5    2    3 1     
    6    2    4 1     
    7    3   33 1     
    8    3   34 1     
    9    3   35 1     
   10    4    5 1     
   11    4   36 1     
   12    4   37 1     
   13    5    6 1     
   14    5   38 1     
   15    5   39 1     
   16    6   29 1     
   17    6    7 1     
   18    6   63 1     
   19    7    8 1     
   20    7   40 1     
   21    7   41 1     
   22    8    9 1     
   23    8   42 1     
   24    8   43 1     
   25    9   10 1     
   26    9   44 1     
   27    9   45 1     
   28   10   11 1     
   29   10   28 1     
   30   11   16 ar    
   31   11   12 ar    
   32   12   13 ar    
   33   13   14 ar    
   34   13   46 1     
   35   14   15 ar    
   36   15   19 1     
   37   15   16 ar    
   38   16   17 1     
   39   17   18 2     
   40   18   19 1     
   41   18   47 1     
   42   19   20 1     
   43   20   21 1     
   44   20   48 1     
   45   20   49 1     
   46   21   22 1     
   47   21   23 1     
   48   21   50 1     
   49   22   51 1     
   50   23   27 1     
   51   23   24 1     
   52   23   52 1     
   53   24   25 1     
   54   24   53 1     
   55   24   54 1     
   56   25   26 1     
   57   25   55 1     
   58   25   56 1     
   59   26   27 1     
   60   26   57 1     
   61   26   58 1     
   62   28   29 1     
   63   28   59 1     
   64   28   60 1     
   65   29   61 1     
   66   29   62 1     
   67    2   64 1     
   68   12   65 1     
   69   14   66 1     
   70   17   67 1     
   71   22   68 1     
   72   22   69 1     
   73   27   70 1     
   74   27   71 1     
@<TRIPOS>SUBSTRUCTURE
      1 S1             1
@<TRIPOS>SET
LONE_PAIRS      STATIC     ATOMS    <user>   **** ""
8 64 65 66 67 68 69 70 71
DONOR_HYDROGENS      STATIC     ATOMS    <user>   **** ""
2 63 51
ATOM$BLUE        STATIC     ATOMS    COLORGROUP SYSTEM
8 64 65 66 67 68 69 70 71
ATOM$RED        STATIC     ATOMS    COLORGROUP SYSTEM
2 63 51
