AV-unprocessed.smi:1196|AV-procd|sdf|5007|dock4
  -GOLD-   22720 4 23D 1   1.00000     0.00000
 Structure written by MMmdl.
 36 37  0  0  0  0  0  0  0  0  2 V2000
  149.5798  141.5246  156.5477 C   0  0  0  0  0  0  0  0  0  0  0  0
  151.0247  141.0070  156.6289 C   0  0  1  0  0  0  0  0  0  0  0  0
  151.5740  141.0974  158.0661 C   0  0  0  0  0  0  0  0  0  0  0  0
  151.8547  142.4648  158.4677 N   0  0  0  0  0  0  0  0  0  0  0  0
  151.3350  143.6318  157.9489 C   0  0  0  0  0  0  0  0  0  0  0  0
  151.8969  144.6684  158.6376 C   0  0  0  0  0  0  0  0  0  0  0  0
  152.7598  144.0266  159.5693 C   0  0  0  0  0  0  0  0  0  0  0  0
  152.7312  142.7077  159.4667 N   0  0  0  0  0  0  0  0  0  0  0  0
  151.0864  139.6271  156.1524 N   0  0  0  0  0  0  0  0  0  0  0  0
  151.9603  139.1499  155.2532 C   0  0  0  0  0  0  0  0  0  0  0  0
  152.8206  139.8441  154.7113 O   0  0  0  0  0  0  0  0  0  0  0  0
  151.8495  137.6601  154.9226 C   0  0  0  0  0  0  0  0  0  0  0  0
  150.4785  137.0754  155.3100 C   0  0  0  0  0  0  0  0  0  0  0  0
  150.3826  136.7025  156.8025 C   0  0  1  0  0  0  0  0  0  0  0  0
  149.0463  136.2686  157.1496 N   0  0  0  0  0  0  0  0  0  0  0  0
  149.0505  135.0345  157.6496 C   0  0  0  0  0  0  0  0  0  0  0  0
  148.0171  134.4855  158.0250 O   0  0  0  0  0  0  0  0  0  0  0  0
  150.3042  134.5420  157.6592 N   0  5  0  0  0  0  0  0  0  0  0  0
  151.1768  135.4491  157.1694 C   0  0  0  0  0  0  0  0  0  0  0  0
  152.3950  135.3783  157.0164 O   0  0  0  0  0  0  0  0  0  0  0  0
  149.5152  142.5599  156.8830 H   0  0  0  0  0  0  0  0  0  0  0  0
  148.9101  140.9301  157.1700 H   0  0  0  0  0  0  0  0  0  0  0  0
  149.2032  141.4887  155.5249 H   0  0  0  0  0  0  0  0  0  0  0  0
  151.6469  141.6363  155.9895 H   0  0  0  0  0  0  0  0  0  0  0  0
  150.8474  140.6876  158.7691 H   0  0  0  0  0  0  0  0  0  0  0  0
  152.4803  140.4987  158.1740 H   0  0  0  0  0  0  0  0  0  0  0  0
  150.6178  143.6271  157.1415 H   0  0  0  0  0  0  0  0  0  0  0  0
  151.7196  145.7242  158.4964 H   0  0  0  0  0  0  0  0  0  0  0  0
  153.4010  144.4766  160.3128 H   0  0  0  0  0  0  0  0  0  0  0  0
  150.4214  138.9800  156.5514 H   0  0  0  0  0  0  0  0  0  0  0  0
  152.0184  137.5331  153.8528 H   0  0  0  0  0  0  0  0  0  0  0  0
  152.6456  137.1130  155.4299 H   0  0  0  0  0  0  0  0  0  0  0  0
  149.6877  137.7822  155.0517 H   0  0  0  0  0  0  0  0  0  0  0  0
  150.2915  136.1811  154.7134 H   0  0  0  0  0  0  0  0  0  0  0  0
  150.6883  137.5320  157.4414 H   0  0  0  0  0  0  0  0  0  0  0  0
  148.2261  136.8465  157.0433 H   0  0  0  0  0  0  0  0  0  0  0  0
  1  2  1  0  0  0  0
  1 21  1  0  0  0  0
  1 22  1  0  0  0  0
  1 23  1  0  0  0  0
  2  3  1  0  0  0  0
  2  9  1  0  0  0  0
  2 24  1  0  0  0  0
  3  4  1  0  0  0  0
  3 25  1  0  0  0  0
  3 26  1  0  0  0  0
  4  8  1  0  0  0  0
  4  5  1  0  0  0  0
  5  6  2  0  0  0  0
  5 27  1  0  0  0  0
  6  7  1  0  0  0  0
  6 28  1  0  0  0  0
  7  8  2  0  0  0  0
  7 29  1  0  0  0  0
  9 10  1  0  0  0  0
  9 30  1  0  0  0  0
 10 11  2  0  0  0  0
 10 12  1  0  0  0  0
 12 13  1  0  0  0  0
 12 31  1  0  0  0  0
 12 32  1  0  0  0  0
 13 14  1  0  0  0  0
 13 33  1  0  0  0  0
 13 34  1  0  0  0  0
 14 19  1  0  0  0  0
 14 15  1  0  0  0  0
 14 35  1  0  0  0  0
 15 16  1  0  0  0  0
 15 36  1  0  0  0  0
 16 17  2  0  0  0  0
 16 18  1  0  0  0  0
 18 19  1  0  0  0  0
 19 20  2  0  0  0  0
M  CHG  1  18  -1
M  END
> <s_m_source_file>
AV-unprocessed.smi

> <i_m_source_file_index>
1196

> <i_lp_mmshare_version>
43012

> <i_f3d_flags>
0

> <s_epik_input>
bjFbY0hdW2NIXVtjSF1uMVtDSDJdW0NAQEhdKFtDSDNdKVtOSF1DKD1PKVtDSDJdW0NIMl1bQ0BASF0yW05IXUMoPU8pW05IXUMyPU8=

> <s_epik_cmdline>
J2VwaWtfcHl0aG9uJywgJy1waCcsICc3LjAnLCAnLXRuJywgJzgnLCAnLW1hJywgJzIwMCcsICctbWV0YWxfYmluZGluZycsICctaW1hZScsICc8aW5maWxlLm1hZT4nLCAnLW9tYWUnLCAnPG91dGZpbGUubWFlPic=

> <r_lp_tautomer_probability>
1

> <r_epik_Ionization_Penalty>
2.57056

> <r_epik_Ionization_Penalty_Charging>
2.57023

> <r_epik_Ionization_Penalty_Neutral>
0.000331301

> <r_epik_State_Penalty>
2.56828

> <r_epik_Charging_Adjusted_Penalty>
5.13851

> <i_epik_Tot_Q>
-1

> <i_epik_Tot_abs_Q>
1

> <r_epik_Metal_State_Penalty>
0.444883

> <b_epik_Metal_Only>
1

> <s_lp_Force_Field>
OPLS_2005

> <r_lp_Energy>
6.594

> <b_lp_Chiralities_Consistent>
1

> <s_lp_Variant>
AV-unprocessed.smi:1196-12

> <Gold.Version>
5.8.1

> <Gold.Id.Protein>
6NUR|6NUR_protein|mol2

> <Gold.PLP.Fitness>
45.2665

> <Gold.PLP.PLP>
-32.1042

> <Gold.PLP.part.hbond>
-4.0644

> <Gold.PLP.part.metal>
0.0000

> <Gold.PLP.part.buried>
-3.2885

> <Gold.PLP.part.nonpolar>
-25.9554

> <Gold.PLP.part.repulsive>
0.1557

> <Gold.PLP.ligand.clash>
0.0000

> <Gold.PLP.ligand.torsion>
0.9687

> <Gold.PLP.Chemscore.Hbond>
3.9769

> <Gold.PLP.Chemscore.CHOScore>
0.9995

> <Gold.PLP.Chemscore.Metal>
0.0000

> <Gold.Chemscore.Hbonds>
donor molecule, donor type, donor heavy atom, donor atom, acceptor molecule, acceptor atom, score
      P1  H  6896  6909       L1    18  1.41
      P1  H  7989  7998       L1    11  0.42
      P1  H  7997  8010       L1    11  0.98
      P1  H 10752 10764       L1    20  1.00
      L1  C     5    27       P1  8028  1.00

> <Gold.PLP.Chemscore.Internal.Correction>
0.1706

> <Gold.Rescore>
     Score         DG    S(hbond)    S(metal)    S(lipo)     H(rot)  DE(clash)    DE(int)     intcor
     14.17     -14.68       2.44        0.00      72.38       2.89       0.02       0.49       ----

> <Gold.Chemscore.Fitness>
14.1664

> <Gold.Chemscore.DG>
-14.6786

> <Gold.Chemscore.ZeroCoef>
-5.4800

> <Gold.Chemscore.Hbond>
2.4373

> <Gold.Chemscore.Metal>
0.0000

> <Gold.Chemscore.Lipo>
72.3764

> <Gold.Chemscore.Internal_Hbond>
0.0000

> <Gold.Chemscore.DEClash>
0.0217

> <Gold.Chemscore.DEInternal>
0.4905

> <Gold.Chemscore.Rot>
2.8946

> <Gold.Chemscore.Internal.Correction>
   9.000000E+99

> <Gold.Chemscore.Hbonds>
donor molecule, donor type, donor heavy atom, donor atom, acceptor molecule, acceptor atom, score
      P1  H  6896  6909       L1    18  0.40
      P1  H  7989  7998       L1    11  0.11
      P1  H  7997  8010       L1    11  0.87
      P1  H 10752 10764       L1    20  0.95

> <Gold.Chemscore.Hbond.Weighted>
-8.1407

> <Gold.Chemscore.Metal.Weighted>
-0.0000

> <Gold.Chemscore.Lipo.Weighted>
-8.4680

> <Gold.Chemscore.Internal_Hbond.Weighted>
0.0000

> <Gold.Chemscore.DEClash.Weighted>
0.0217

> <Gold.Chemscore.DEInternal.Weighted>
0.4905

> <Gold.Chemscore.Rot.Weighted>
7.4101

> <Gold.Chemscore.Internal.Correction.Weighted>
   9.000000E+99

> <Gold.Protein.RotatedTorsions>
[ 6907 6896 6895 6894 ] final   15.01 input  -60.11 | X-H torsion
[ 7974 7965 7964 7962 ] final   85.07 input  175.53 | X-H torsion
[ 8008 7997 7996 7995 ] final  110.63 input   59.86 | X-H torsion
[ 10167 10162 10161 10158 ] final -123.70 input  -65.29 | X-H torsion
[ 10718 10713 10712 10709 ] final  -23.24 input   66.30 | X-H torsion
[ 10763 10752 10751 10750 ] final  -12.31 input  -60.55 | X-H torsion
[ 11005 11000 10999 10996 ] final   82.23 input  -57.11 | X-H torsion

> <Gold.Protein.ActiveResidues>
 VAL166  LYS551  ARG553  GLY616  TRP617  ASP618  TYR619  PRO620  LYS621  CYS622 
 ASP623  PHE694  ASN695  SER759  ASP760  ASP761  ALA762  ILE779  LEU786  VAL792 
 PHE793  MET794  SER795  GLU796  ALA797  LYS798  CYS799  TRP800  GLU811  SER814 

> <Gold.Protein.RotatedAtoms>
  151.8113  135.0680  160.0413 H   0  0  0  0  0  0  0  0  0  0  0  0  # atno 6907 bound_to 6896
  152.3018  133.5659  159.5632 H   0  0  0  0  0  0  0  0  0  0  0  0  # atno 6908 bound_to 6896
  150.7277  134.0196  159.3739 H   0  0  0  0  0  0  0  0  0  0  0  0  # atno 6909 bound_to 6896
  145.5903  139.2337  143.2303 H   0  0  0  0  0  0  0  0  0  0  0  0  # atno 7974 bound_to 7965
  156.2067  140.3035  155.9642 H   0  0  0  0  0  0  0  0  0  0  0  0  # atno 8008 bound_to 7997
  155.2824  140.0438  157.3033 H   0  0  0  0  0  0  0  0  0  0  0  0  # atno 8009 bound_to 7997
  154.5643  140.2329  155.8297 H   0  0  0  0  0  0  0  0  0  0  0  0  # atno 8010 bound_to 7997
  140.0007  143.5544  152.2304 H   0  0  0  0  0  0  0  0  0  0  0  0  # atno 10167 bound_to 10162
  156.4937  130.4572  149.6741 H   0  0  0  0  0  0  0  0  0  0  0  0  # atno 10718 bound_to 10713
  153.4966  135.7017  153.5855 H   0  0  0  0  0  0  0  0  0  0  0  0  # atno 10763 bound_to 10752
  153.4004  135.3873  155.1984 H   0  0  0  0  0  0  0  0  0  0  0  0  # atno 10764 bound_to 10752
  154.8713  135.3880  154.4432 H   0  0  0  0  0  0  0  0  0  0  0  0  # atno 10765 bound_to 10752
  139.9070  134.8056  156.2147 H   0  0  0  0  0  0  0  0  0  0  0  0  # atno 11005 bound_to 11000
  146.1651  140.6729  142.9259 LP  0  0  0  0  0  0  0  0  0  0  0  0  # atno 17320 bound_to 7965
  144.7354  140.4793  143.6907 LP  0  0  0  0  0  0  0  0  0  0  0  0  # atno 17321 bound_to 7965
  139.6274  144.7639  151.2610 LP  0  0  0  0  0  0  0  0  0  0  0  0  # atno 17342 bound_to 10162
  140.7420  143.6540  150.8223 LP  0  0  0  0  0  0  0  0  0  0  0  0  # atno 17343 bound_to 10162
  156.3401  130.7377  151.2321 LP  0  0  0  0  0  0  0  0  0  0  0  0  # atno 17370 bound_to 10713
  157.7471  131.0406  150.4605 LP  0  0  0  0  0  0  0  0  0  0  0  0  # atno 17371 bound_to 10713
  141.0443  133.6921  156.1655 LP  0  0  0  0  0  0  0  0  0  0  0  0  # atno 17394 bound_to 11000
  140.6908  134.4668  157.5588 LP  0  0  0  0  0  0  0  0  0  0  0  0  # atno 17395 bound_to 11000

$$$$
