AV-unprocessed.smi:3303|AV-procd|sdf|12671|dock3
  -GOLD-   2272019 03D 1   1.00000     0.00000
 Structure written by MMmdl.
 45 46  0  0  0  0  0  0  0  0  3 V2000
  145.9846  142.2062  154.3527 C   0  0  0  0  0  0  0  0  0  0  0  0
  147.4157  141.8947  153.8658 C   0  0  2  0  0  0  0  0  0  0  0  0
  147.3960  141.0627  152.5688 C   0  0  0  0  0  0  0  0  0  0  0  0
  146.9273  139.6696  152.8012 N   0  3  1  0  0  0  0  0  0  0  0  0
  146.7823  138.9421  151.5167 C   0  0  0  0  0  0  0  0  0  0  0  0
  147.7603  138.9529  153.8149 C   0  0  2  0  0  0  0  0  0  0  0  0
  147.2466  137.5286  154.1028 C   0  0  0  0  0  0  0  0  0  0  0  0
  147.8285  139.7511  155.1363 C   0  0  0  0  0  0  0  0  0  0  0  0
  148.3107  141.1969  154.9123 C   0  0  2  0  0  0  0  0  0  0  0  0
  148.3731  141.9776  156.1707 N   0  3  0  0  0  0  0  0  0  0  0  0
  149.4065  141.5460  157.1356 C   0  0  0  0  0  0  0  0  0  0  0  0
  150.7602  142.1960  156.8166 C   0  0  0  0  0  0  0  0  0  0  0  0
  151.4623  142.7055  158.0611 C   0  0  0  0  0  0  0  0  0  0  0  0
  151.8096  144.0677  158.1884 C   0  0  0  0  0  0  0  0  0  0  0  0
  152.4569  144.4870  159.3669 C   0  0  0  0  0  0  0  0  0  0  0  0
  152.7333  143.5330  160.3652 C   0  0  0  0  0  0  0  0  0  0  0  0
  152.3475  142.1963  160.1406 C   0  0  0  0  0  0  0  0  0  0  0  0
  151.7254  141.7838  159.0145 N   0  0  0  0  0  0  0  0  0  0  0  0
  145.4284  141.3026  154.6014 H   0  0  0  0  0  0  0  0  0  0  0  0
  145.4201  142.7313  153.5814 H   0  0  0  0  0  0  0  0  0  0  0  0
  145.9886  142.8470  155.2344 H   0  0  0  0  0  0  0  0  0  0  0  0
  147.8775  142.8538  153.6264 H   0  0  0  0  0  0  0  0  0  0  0  0
  146.7543  141.5509  151.8337 H   0  0  0  0  0  0  0  0  0  0  0  0
  148.3959  141.0331  152.1325 H   0  0  0  0  0  0  0  0  0  0  0  0
  147.7568  138.7275  151.0758 H   0  0  0  0  0  0  0  0  0  0  0  0
  146.2100  139.5324  150.8001 H   0  0  0  0  0  0  0  0  0  0  0  0
  146.2441  138.0033  151.6439 H   0  0  0  0  0  0  0  0  0  0  0  0
  148.7727  138.8704  153.4155 H   0  0  0  0  0  0  0  0  0  0  0  0
  147.8112  137.0679  154.9140 H   0  0  0  0  0  0  0  0  0  0  0  0
  147.3542  136.8705  153.2409 H   0  0  0  0  0  0  0  0  0  0  0  0
  146.1963  137.5351  154.3960 H   0  0  0  0  0  0  0  0  0  0  0  0
  146.8512  139.7529  155.6206 H   0  0  0  0  0  0  0  0  0  0  0  0
  148.5017  139.2361  155.8216 H   0  0  0  0  0  0  0  0  0  0  0  0
  149.3222  141.1615  154.5032 H   0  0  0  0  0  0  0  0  0  0  0  0
  148.5770  142.9365  155.9267 H   0  0  0  0  0  0  0  0  0  0  0  0
  149.1021  141.8135  158.1472 H   0  0  0  0  0  0  0  0  0  0  0  0
  149.5015  140.4599  157.1021 H   0  0  0  0  0  0  0  0  0  0  0  0
  151.4071  141.4805  156.3072 H   0  0  0  0  0  0  0  0  0  0  0  0
  150.6220  143.0300  156.1268 H   0  0  0  0  0  0  0  0  0  0  0  0
  151.5848  144.7778  157.4062 H   0  0  0  0  0  0  0  0  0  0  0  0
  152.7361  145.5215  159.5027 H   0  0  0  0  0  0  0  0  0  0  0  0
  153.2287  143.8188  161.2814 H   0  0  0  0  0  0  0  0  0  0  0  0
  152.5437  141.4388  160.8849 H   0  0  0  0  0  0  0  0  0  0  0  0
  147.4685  141.9501  156.6197 H   0  0  0  0  0  0  0  0  0  0  0  0
  145.9974  139.7433  153.1891 H   0  0  0  0  0  0  0  0  0  0  0  0
  1  2  1  0  0  0  0
  1 19  1  0  0  0  0
  1 20  1  0  0  0  0
  1 21  1  0  0  0  0
  2  9  1  0  0  0  0
  2  3  1  0  0  0  0
  2 22  1  0  0  0  0
  3  4  1  0  0  0  0
  3 23  1  0  0  0  0
  3 24  1  0  0  0  0
  4  5  1  0  0  0  0
  4  6  1  0  0  0  0
  4 45  1  0  0  0  0
  5 25  1  0  0  0  0
  5 26  1  0  0  0  0
  5 27  1  0  0  0  0
  6  7  1  0  0  0  0
  6  8  1  0  0  0  0
  6 28  1  0  0  0  0
  7 29  1  0  0  0  0
  7 30  1  0  0  0  0
  7 31  1  0  0  0  0
  8  9  1  0  0  0  0
  8 32  1  0  0  0  0
  8 33  1  0  0  0  0
  9 10  1  0  0  0  0
  9 34  1  0  0  0  0
 10 11  1  0  0  0  0
 10 35  1  0  0  0  0
 10 44  1  0  0  0  0
 11 12  1  0  0  0  0
 11 36  1  0  0  0  0
 11 37  1  0  0  0  0
 12 13  1  0  0  0  0
 12 38  1  0  0  0  0
 12 39  1  0  0  0  0
 13 18  1  0  0  0  0
 13 14  2  0  0  0  0
 14 15  1  0  0  0  0
 14 40  1  0  0  0  0
 15 16  2  0  0  0  0
 15 41  1  0  0  0  0
 16 17  1  0  0  0  0
 16 42  1  0  0  0  0
 17 18  2  0  0  0  0
 17 43  1  0  0  0  0
M  CHG  1   4   1
M  CHG  1  10   1
M  END
> <s_m_source_file>
AV-unprocessed.smi

> <i_m_source_file_index>
3303

> <i_lp_mmshare_version>
43012

> <i_f3d_flags>
0

> <s_epik_input>
W0NIM11bQ0BASF0xW0NIMl1OKFtDSDNdKVtDQEBIXShbQ0gzXSlbQ0gyXVtDQEhdMVtOSF1bQ0gyXVtDSDJdYzJbY0hdW2NIXVtjSF1bY0hdbjI=

> <s_epik_cmdline>
J2VwaWtfcHl0aG9uJywgJy1waCcsICc3LjAnLCAnLXRuJywgJzgnLCAnLW1hJywgJzIwMCcsICctbWV0YWxfYmluZGluZycsICctaW1hZScsICc8aW5maWxlLm1hZT4nLCAnLW9tYWUnLCAnPG91dGZpbGUubWFlPic=

> <r_epik_Ionization_Penalty>
0.0769462

> <r_epik_Ionization_Penalty_Charging>
0.0759813

> <r_epik_Ionization_Penalty_Neutral>
0.000964829

> <r_epik_State_Penalty>
0.0654373

> <r_epik_Charging_Adjusted_Penalty>
0.141419

> <i_epik_Tot_Q>
2

> <i_epik_Tot_abs_Q>
2

> <r_epik_Metal_State_Penalty>
0.0656439

> <b_epik_Metal_Only>
0

> <s_lp_Force_Field>
OPLS_2005

> <r_lp_Energy>
31.1482

> <b_lp_Chiralities_Consistent>
1

> <s_lp_Variant>
AV-unprocessed.smi:3303-15

> <Gold.Version>
5.8.1

> <Gold.Id.Protein>
6NUR|6NUR_protein|mol2

> <Gold.PLP.Fitness>
43.0763

> <Gold.PLP.PLP>
-38.0549

> <Gold.PLP.part.hbond>
-1.3815

> <Gold.PLP.part.metal>
0.0000

> <Gold.PLP.part.buried>
-4.4057

> <Gold.PLP.part.nonpolar>
-32.8943

> <Gold.PLP.part.repulsive>
0.0279

> <Gold.PLP.ligand.clash>
0.0000

> <Gold.PLP.ligand.torsion>
0.5031

> <Gold.PLP.Chemscore.Hbond>
2.0000

> <Gold.PLP.Chemscore.CHOScore>
0.0000

> <Gold.PLP.Chemscore.Metal>
0.0000

> <Gold.Chemscore.Hbonds>
donor molecule, donor type, donor heavy atom, donor atom, acceptor molecule, acceptor atom, score
      L1  H    10    35       P1  8028  2.00

> <Gold.PLP.Chemscore.Internal.Correction>
0.0276

> <Gold.Rescore>
     Score         DG    S(hbond)    S(metal)    S(lipo)     H(rot)  DE(clash)    DE(int)     intcor
     18.16     -18.73       0.98        0.00     115.24       1.37       0.07       0.50       ----

> <Gold.Chemscore.Fitness>
18.1575

> <Gold.Chemscore.DG>
-18.7301

> <Gold.Chemscore.ZeroCoef>
-5.4800

> <Gold.Chemscore.Hbond>
0.9836

> <Gold.Chemscore.Metal>
0.0000

> <Gold.Chemscore.Lipo>
115.2417

> <Gold.Chemscore.Internal_Hbond>
0.0000

> <Gold.Chemscore.DEClash>
0.0723

> <Gold.Chemscore.DEInternal>
0.5003

> <Gold.Chemscore.Rot>
1.3744

> <Gold.Chemscore.Internal.Correction>
   9.000000E+99

> <Gold.Chemscore.Hbonds>
donor molecule, donor type, donor heavy atom, donor atom, acceptor molecule, acceptor atom, score
      L1  H    10    35       P1  8028  0.99

> <Gold.Chemscore.Hbond.Weighted>
-3.2852

> <Gold.Chemscore.Metal.Weighted>
-0.0000

> <Gold.Chemscore.Lipo.Weighted>
-13.4833

> <Gold.Chemscore.Internal_Hbond.Weighted>
0.0000

> <Gold.Chemscore.DEClash.Weighted>
0.0723

> <Gold.Chemscore.DEInternal.Weighted>
0.5003

> <Gold.Chemscore.Rot.Weighted>
3.5185

> <Gold.Chemscore.Internal.Correction.Weighted>
   9.000000E+99

> <Gold.Protein.RotatedTorsions>
[ 6907 6896 6895 6894 ] final -127.76 input  -60.11 | X-H torsion
[ 7974 7965 7964 7962 ] final   -9.18 input  175.53 | X-H torsion
[ 8008 7997 7996 7995 ] final   78.31 input   59.86 | X-H torsion
[ 10167 10162 10161 10158 ] final -109.34 input  -65.29 | X-H torsion
[ 10718 10713 10712 10709 ] final  -80.77 input   66.30 | X-H torsion
[ 10763 10752 10751 10750 ] final  128.08 input  -60.55 | X-H torsion
[ 11005 11000 10999 10996 ] final  -26.18 input  -57.11 | X-H torsion

> <Gold.Protein.ActiveResidues>
 VAL166  LYS551  ARG553  GLY616  TRP617  ASP618  TYR619  PRO620  LYS621  CYS622 
 ASP623  PHE694  ASN695  SER759  ASP760  ASP761  ALA762  ILE779  LEU786  VAL792 
 PHE793  MET794  SER795  GLU796  ALA797  LYS798  CYS799  TRP800  GLU811  SER814 

> <Gold.Protein.RotatedAtoms>
  150.9107  133.7002  159.2855 H   0  0  0  0  0  0  0  0  0  0  0  0  # atno 6907 bound_to 6896
  151.4489  135.1026  159.9701 H   0  0  0  0  0  0  0  0  0  0  0  0  # atno 6908 bound_to 6896
  152.4928  133.8497  159.7250 H   0  0  0  0  0  0  0  0  0  0  0  0  # atno 6909 bound_to 6896
  146.2259  140.2577  142.8350 H   0  0  0  0  0  0  0  0  0  0  0  0  # atno 7974 bound_to 7965
  155.8539  140.3457  155.5711 H   0  0  0  0  0  0  0  0  0  0  0  0  # atno 8008 bound_to 7997
  155.8008  140.0885  157.1978 H   0  0  0  0  0  0  0  0  0  0  0  0  # atno 8009 bound_to 7997
  154.4009  140.1466  156.3259 H   0  0  0  0  0  0  0  0  0  0  0  0  # atno 8010 bound_to 7997
  140.1563  143.4157  152.1458 H   0  0  0  0  0  0  0  0  0  0  0  0  # atno 10167 bound_to 10162
  156.0063  130.4584  150.3850 H   0  0  0  0  0  0  0  0  0  0  0  0  # atno 10718 bound_to 10713
  153.7197  135.3255  155.3264 H   0  0  0  0  0  0  0  0  0  0  0  0  # atno 10763 bound_to 10752
  154.8360  135.4496  154.1230 H   0  0  0  0  0  0  0  0  0  0  0  0  # atno 10764 bound_to 10752
  153.2347  135.6964  153.7930 H   0  0  0  0  0  0  0  0  0  0  0  0  # atno 10765 bound_to 10752
  140.9006  133.7527  156.0539 H   0  0  0  0  0  0  0  0  0  0  0  0  # atno 11005 bound_to 11000
  144.9363  140.8030  143.5658 LP  0  0  0  0  0  0  0  0  0  0  0  0  # atno 17320 bound_to 7965
  145.2525  139.2025  143.4935 LP  0  0  0  0  0  0  0  0  0  0  0  0  # atno 17321 bound_to 7965
  139.5402  144.7249  151.4760 LP  0  0  0  0  0  0  0  0  0  0  0  0  # atno 17342 bound_to 10162
  140.6671  143.8375  150.6954 LP  0  0  0  0  0  0  0  0  0  0  0  0  # atno 17343 bound_to 10162
  157.1928  131.0419  151.2691 LP  0  0  0  0  0  0  0  0  0  0  0  0  # atno 17370 bound_to 10713
  157.4046  130.7352  149.6793 LP  0  0  0  0  0  0  0  0  0  0  0  0  # atno 17371 bound_to 10713
  140.8235  134.3262  157.5374 LP  0  0  0  0  0  0  0  0  0  0  0  0  # atno 17394 bound_to 11000
  139.8741  134.9322  156.3549 LP  0  0  0  0  0  0  0  0  0  0  0  0  # atno 17395 bound_to 11000

$$$$
