AV-unprocessed.smi:229|AV-procd|sdf|1759|dock4
  -GOLD-   2262020283D 1   1.00000     0.00000
 Structure written by MMmdl.
 58 62  0  0  0  0  0  0  0  0  1 V2000
  147.4089  133.7263  159.8785 C   0  0  0  0  0  0  0  0  0  0  0  0
  147.4906  133.2778  158.4131 C   0  0  0  0  0  0  0  0  0  0  0  0
  148.8933  133.4229  157.8003 C   0  0  2  0  0  0  0  0  0  0  0  0
  149.1714  134.8395  157.2657 C   0  0  0  0  0  0  0  0  0  0  0  0
  150.4694  134.8755  156.6041 N   0  0  0  0  0  0  0  0  0  0  0  0
  150.9710  136.1177  156.3874 C   0  0  0  0  0  0  0  0  0  0  0  0
  151.1797  136.5545  155.1159 N   0  0  0  0  0  0  0  0  0  0  0  0
  151.6645  137.7798  154.8929 C   0  0  0  0  0  0  0  0  0  0  0  0
  152.0060  138.7164  155.7797 N   0  0  0  0  0  0  0  0  0  0  0  0
  151.8076  138.2814  157.0566 C   0  0  0  0  0  0  0  0  0  0  0  0
  151.3006  137.0097  157.4470 C   0  0  0  0  0  0  0  0  0  0  0  0
  151.2542  136.9260  158.8343 N   0  0  0  0  0  0  0  0  0  0  0  0
  151.6974  138.0847  159.2396 C   0  0  0  0  0  0  0  0  0  0  0  0
  152.0514  138.9587  158.2373 N   0  0  0  0  0  0  0  0  0  0  0  0
  152.5747  140.3037  158.3980 C   0  0  0  0  0  0  0  0  0  0  0  0
  151.6742  141.1837  159.2868 C   0  0  2  0  0  0  0  0  0  0  0  0
  150.4156  141.3463  158.6601 O   0  0  0  0  0  0  0  0  0  0  0  0
  152.3138  142.5577  159.5742 C   0  0  1  0  0  0  0  0  0  0  0  0
  152.3168  143.5833  158.4358 C   0  0  0  0  0  0  0  0  0  0  0  0
  152.4553  144.8749  159.2100 C   0  0  0  0  0  0  0  0  0  0  0  0
  151.5880  144.5987  160.4367 C   0  0  0  0  0  0  0  0  0  0  0  0
  151.6835  143.1971  160.6801 O   0  0  0  0  0  0  0  0  0  0  0  0
  150.5945  133.8855  155.5385 C   0  0  0  0  0  0  0  0  0  0  0  0
  150.2582  132.4692  156.0573 C   0  0  2  0  0  0  0  0  0  0  0  0
  151.3463  131.8698  156.9556 C   0  0  0  0  0  0  0  0  0  0  0  0
  152.0654  130.8831  156.0467 C   0  0  0  0  0  0  0  0  0  0  0  0
  151.0020  130.3611  155.2728 O   0  0  0  0  0  0  0  0  0  0  0  0
  150.1825  131.4587  154.8962 C   0  0  0  0  0  0  0  0  0  0  0  0
  148.9892  132.4938  156.7192 O   0  0  0  0  0  0  0  0  0  0  0  0
  146.4132  133.5440  160.2827 H   0  0  0  0  0  0  0  0  0  0  0  0
  147.6152  134.7911  159.9855 H   0  0  0  0  0  0  0  0  0  0  0  0
  148.1225  133.1813  160.4971 H   0  0  0  0  0  0  0  0  0  0  0  0
  147.1899  132.2310  158.3577 H   0  0  0  0  0  0  0  0  0  0  0  0
  146.7655  133.8329  157.8169 H   0  0  0  0  0  0  0  0  0  0  0  0
  149.6309  133.1701  158.5631 H   0  0  0  0  0  0  0  0  0  0  0  0
  148.4016  135.1291  156.5489 H   0  0  0  0  0  0  0  0  0  0  0  0
  149.1264  135.5575  158.0827 H   0  0  0  0  0  0  0  0  0  0  0  0
  151.7977  138.0474  153.8551 H   0  0  0  0  0  0  0  0  0  0  0  0
  151.7847  138.3339  160.2872 H   0  0  0  0  0  0  0  0  0  0  0  0
  153.5741  140.2293  158.8286 H   0  0  0  0  0  0  0  0  0  0  0  0
  152.6940  140.7508  157.4101 H   0  0  0  0  0  0  0  0  0  0  0  0
  151.5140  140.6692  160.2351 H   0  0  0  0  0  0  0  0  0  0  0  0
  149.9496  142.0372  159.1058 H   0  0  0  0  0  0  0  0  0  0  0  0
  153.3473  142.3991  159.8868 H   0  0  0  0  0  0  0  0  0  0  0  0
  153.1246  143.4240  157.7212 H   0  0  0  0  0  0  0  0  0  0  0  0
  151.3733  143.5864  157.8894 H   0  0  0  0  0  0  0  0  0  0  0  0
  153.4941  145.0233  159.5086 H   0  0  0  0  0  0  0  0  0  0  0  0
  152.1329  145.7512  158.6470 H   0  0  0  0  0  0  0  0  0  0  0  0
  151.9001  145.1770  161.3065 H   0  0  0  0  0  0  0  0  0  0  0  0
  150.5456  144.8409  160.2257 H   0  0  0  0  0  0  0  0  0  0  0  0
  149.9122  134.1535  154.7303 H   0  0  0  0  0  0  0  0  0  0  0  0
  151.6047  133.8995  155.1260 H   0  0  0  0  0  0  0  0  0  0  0  0
  152.0181  132.6127  157.3870 H   0  0  0  0  0  0  0  0  0  0  0  0
  150.8930  131.3153  157.7785 H   0  0  0  0  0  0  0  0  0  0  0  0
  152.7824  131.3917  155.4000 H   0  0  0  0  0  0  0  0  0  0  0  0
  152.5866  130.1010  156.5989 H   0  0  0  0  0  0  0  0  0  0  0  0
  149.1647  131.1277  154.6873 H   0  0  0  0  0  0  0  0  0  0  0  0
  150.5842  131.8842  153.9751 H   0  0  0  0  0  0  0  0  0  0  0  0
  1  2  1  0  0  0  0
  1 30  1  0  0  0  0
  1 31  1  0  0  0  0
  1 32  1  0  0  0  0
  2  3  1  0  0  0  0
  2 33  1  0  0  0  0
  2 34  1  0  0  0  0
  3 29  1  0  0  0  0
  3  4  1  0  0  0  0
  3 35  1  0  0  0  0
  4  5  1  0  0  0  0
  4 36  1  0  0  0  0
  4 37  1  0  0  0  0
  5  6  1  0  0  0  0
  5 23  1  0  0  0  0
  6 11  1  0  0  0  0
  6  7  2  0  0  0  0
  7  8  1  0  0  0  0
  8  9  2  0  0  0  0
  8 38  1  0  0  0  0
  9 10  1  0  0  0  0
 10 14  1  0  0  0  0
 10 11  2  0  0  0  0
 11 12  1  0  0  0  0
 12 13  2  0  0  0  0
 13 14  1  0  0  0  0
 13 39  1  0  0  0  0
 14 15  1  0  0  0  0
 15 16  1  0  0  0  0
 15 40  1  0  0  0  0
 15 41  1  0  0  0  0
 16 17  1  0  0  0  0
 16 18  1  0  0  0  0
 16 42  1  0  0  0  0
 17 43  1  0  0  0  0
 18 22  1  0  0  0  0
 18 19  1  0  0  0  0
 18 44  1  0  0  0  0
 19 20  1  0  0  0  0
 19 45  1  0  0  0  0
 19 46  1  0  0  0  0
 20 21  1  0  0  0  0
 20 47  1  0  0  0  0
 20 48  1  0  0  0  0
 21 22  1  0  0  0  0
 21 49  1  0  0  0  0
 21 50  1  0  0  0  0
 23 24  1  0  0  0  0
 23 51  1  0  0  0  0
 23 52  1  0  0  0  0
 24 28  1  0  0  0  0
 24 25  1  0  0  0  0
 24 29  1  0  0  0  0
 25 26  1  0  0  0  0
 25 53  1  0  0  0  0
 25 54  1  0  0  0  0
 26 27  1  0  0  0  0
 26 55  1  0  0  0  0
 26 56  1  0  0  0  0
 27 28  1  0  0  0  0
 28 57  1  0  0  0  0
 28 58  1  0  0  0  0
M  END
> <s_m_source_file>
AV-unprocessed.smi

> <i_m_source_file_index>
229

> <i_lp_mmshare_version>
43012

> <i_f3d_flags>
0

> <s_epik_input>
W0NIMl0xT1tDSDJdW0NIMl1bQ0BdMTJbQ0gyXU4oW0NIMl1bQ0BIXShPMilbQ0gyXVtDSDNdKWMobltjSF1uMyljKGMzNCluW2NIXW40W0NIMl1bQ0BIXShbT0hdKVtDQEBIXTVbQ0gyXVtDSDJdW0NIMl1PNQ==

> <s_epik_cmdline>
J2VwaWtfcHl0aG9uJywgJy1waCcsICc3LjAnLCAnLXRuJywgJzgnLCAnLW1hJywgJzIwMCcsICctbWV0YWxfYmluZGluZycsICctaW1hZScsICc8aW5maWxlLm1hZT4nLCAnLW9tYWUnLCAnPG91dGZpbGUubWFlPic=

> <r_lp_tautomer_probability>
1

> <r_epik_Ionization_Penalty>
0.00318402

> <r_epik_Ionization_Penalty_Charging>
0

> <r_epik_Ionization_Penalty_Neutral>
0.00318402

> <r_epik_State_Penalty>
0.00215642

> <r_epik_Charging_Adjusted_Penalty>
0.00215642

> <i_epik_Tot_Q>
0

> <i_epik_Tot_abs_Q>
0

> <r_epik_Metal_State_Penalty>
-0

> <b_epik_Metal_Only>
0

> <s_lp_Force_Field>
OPLS_2005

> <r_lp_Energy>
55.431

> <b_lp_Chiralities_Consistent>
1

> <s_lp_Variant>
AV-unprocessed.smi:229-13

> <Gold.Version>
5.8.1

> <Gold.Id.Protein>
6NUR|6NUR_protein|mol2

> <Gold.PLP.Fitness>
46.5225

> <Gold.PLP.PLP>
-43.0691

> <Gold.PLP.part.hbond>
-2.4979

> <Gold.PLP.part.metal>
0.0000

> <Gold.PLP.part.buried>
-7.8309

> <Gold.PLP.part.nonpolar>
-33.5677

> <Gold.PLP.part.repulsive>
0.2290

> <Gold.PLP.ligand.clash>
0.0000

> <Gold.PLP.ligand.torsion>
0.8363

> <Gold.PLP.Chemscore.Hbond>
1.5747

> <Gold.PLP.Chemscore.CHOScore>
0.0000

> <Gold.PLP.Chemscore.Metal>
0.0000

> <Gold.Chemscore.Hbonds>
donor molecule, donor type, donor heavy atom, donor atom, acceptor molecule, acceptor atom, score
      P1  H  6896  6909       L1    12  0.86
      P1  H 10752 10763       L1     7  0.63

> <Gold.PLP.Chemscore.Internal.Correction>
0.4018

> <Gold.Rescore>
     Score         DG    S(hbond)    S(metal)    S(lipo)     H(rot)  DE(clash)    DE(int)     intcor
     14.70     -15.74       1.47        0.00      99.43       2.46       0.16       0.88       ----

> <Gold.Chemscore.Fitness>
14.7031

> <Gold.Chemscore.DG>
-15.7442

> <Gold.Chemscore.ZeroCoef>
-5.4800

> <Gold.Chemscore.Hbond>
1.4749

> <Gold.Chemscore.Metal>
0.0000

> <Gold.Chemscore.Lipo>
99.4314

> <Gold.Chemscore.Internal_Hbond>
0.0000

> <Gold.Chemscore.DEClash>
0.1570

> <Gold.Chemscore.DEInternal>
0.8841

> <Gold.Chemscore.Rot>
2.4591

> <Gold.Chemscore.Internal.Correction>
   9.000000E+99

> <Gold.Chemscore.Hbonds>
donor molecule, donor type, donor heavy atom, donor atom, acceptor molecule, acceptor atom, score
      P1  H  6896  6909       L1    12  0.79
      P1  H 10752 10763       L1     7  0.03

> <Gold.Chemscore.Hbond.Weighted>
-4.9261

> <Gold.Chemscore.Metal.Weighted>
-0.0000

> <Gold.Chemscore.Lipo.Weighted>
-11.6335

> <Gold.Chemscore.Internal_Hbond.Weighted>
0.0000

> <Gold.Chemscore.DEClash.Weighted>
0.1570

> <Gold.Chemscore.DEInternal.Weighted>
0.8841

> <Gold.Chemscore.Rot.Weighted>
6.2953

> <Gold.Chemscore.Internal.Correction.Weighted>
   9.000000E+99

> <Gold.Protein.RotatedTorsions>
[ 6907 6896 6895 6894 ] final  105.77 input  -60.11 | X-H torsion
[ 7974 7965 7964 7962 ] final  -17.51 input  175.53 | X-H torsion
[ 8008 7997 7996 7995 ] final   43.81 input   59.86 | X-H torsion
[ 10167 10162 10161 10158 ] final -164.28 input  -65.29 | X-H torsion
[ 10718 10713 10712 10709 ] final   64.20 input   66.30 | X-H torsion
[ 10763 10752 10751 10750 ] final   55.21 input  -60.55 | X-H torsion
[ 11005 11000 10999 10996 ] final -140.20 input  -57.11 | X-H torsion

> <Gold.Protein.ActiveResidues>
 VAL166  LYS551  ARG553  GLY616  TRP617  ASP618  TYR619  PRO620  LYS621  CYS622 
 ASP623  PHE694  ASN695  SER759  ASP760  ASP761  ALA762  ILE779  LEU786  VAL792 
 PHE793  MET794  SER795  GLU796  ALA797  LYS798  CYS799  TRP800  GLU811  SER814 

> <Gold.Protein.RotatedAtoms>
  152.5218  133.9480  159.7657 H   0  0  0  0  0  0  0  0  0  0  0  0  # atno 6907 bound_to 6896
  150.9796  133.6251  159.2732 H   0  0  0  0  0  0  0  0  0  0  0  0  # atno 6908 bound_to 6896
  151.3433  135.0874  159.9431 H   0  0  0  0  0  0  0  0  0  0  0  0  # atno 6909 bound_to 6896
  146.1937  140.3790  142.8448 H   0  0  0  0  0  0  0  0  0  0  0  0  # atno 7974 bound_to 7965
  155.3089  140.3390  155.4244 H   0  0  0  0  0  0  0  0  0  0  0  0  # atno 8008 bound_to 7997
  156.1965  140.1717  156.8026 H   0  0  0  0  0  0  0  0  0  0  0  0  # atno 8009 bound_to 7997
  154.5505  140.0706  156.8644 H   0  0  0  0  0  0  0  0  0  0  0  0  # atno 8010 bound_to 7997
  139.6261  144.0529  152.1976 H   0  0  0  0  0  0  0  0  0  0  0  0  # atno 10167 bound_to 10162
  157.6023  130.9147  149.9814 H   0  0  0  0  0  0  0  0  0  0  0  0  # atno 10718 bound_to 10713
  152.9814  135.5718  154.5030 H   0  0  0  0  0  0  0  0  0  0  0  0  # atno 10763 bound_to 10752
  154.4546  135.2779  155.1759 H   0  0  0  0  0  0  0  0  0  0  0  0  # atno 10764 bound_to 10752
  154.3372  135.6237  153.5632 H   0  0  0  0  0  0  0  0  0  0  0  0  # atno 10765 bound_to 10752
  140.8445  134.2361  157.4793 H   0  0  0  0  0  0  0  0  0  0  0  0  # atno 11005 bound_to 11000
  144.8538  140.7040  143.6151 LP  0  0  0  0  0  0  0  0  0  0  0  0  # atno 17320 bound_to 7965
  145.3711  139.1658  143.4331 LP  0  0  0  0  0  0  0  0  0  0  0  0  # atno 17321 bound_to 7965
  140.0183  144.6172  150.7588 LP  0  0  0  0  0  0  0  0  0  0  0  0  # atno 17342 bound_to 10162
  140.7412  143.2815  151.3586 LP  0  0  0  0  0  0  0  0  0  0  0  0  # atno 17343 bound_to 10162
  156.1100  130.3650  150.0066 LP  0  0  0  0  0  0  0  0  0  0  0  0  # atno 17370 bound_to 10713
  156.8166  130.9344  151.3642 LP  0  0  0  0  0  0  0  0  0  0  0  0  # atno 17371 bound_to 10713
  139.8703  134.9652  156.4522 LP  0  0  0  0  0  0  0  0  0  0  0  0  # atno 17394 bound_to 11000
  140.8858  133.7884  155.9517 LP  0  0  0  0  0  0  0  0  0  0  0  0  # atno 17395 bound_to 11000

$$$$
