AV-unprocessed.smi:3043|AV-procd|sdf|11603|dock5
  -GOLD-   2272016583D 1   1.00000     0.00000
 Structure written by MMmdl.
 44 45  0  0  0  0  0  0  0  0  2 V2000
  145.2461  143.6949  154.8536 C   0  0  0  0  0  0  0  0  0  0  0  0
  145.4154  142.3078  155.4776 C   0  0  0  0  0  0  0  0  0  0  0  0
  144.6532  141.9878  156.3896 O   0  0  0  0  0  0  0  0  0  0  0  0
  146.3838  141.4835  155.0102 N   0  0  0  0  0  0  0  0  0  0  0  0
  146.5667  140.1141  155.5056 C   0  0  0  0  0  0  0  0  0  0  0  0
  146.1642  139.1255  154.3965 C   0  0  0  0  0  0  0  0  0  0  0  0
  146.9712  139.3709  153.1021 C   0  0  0  0  0  0  0  0  0  0  0  0
  146.5045  138.4370  151.9707 C   0  0  0  0  0  0  0  0  0  0  0  0
  146.5538  137.0183  152.3857 N   0  3  0  0  0  0  0  0  0  0  0  0
  145.7204  136.0917  151.5874 C   0  0  2  0  0  0  0  0  0  0  0  0
  144.2775  136.0450  152.1278 C   0  0  0  0  0  0  0  0  0  0  0  0
  146.3920  134.7031  151.5637 C   0  0  0  0  0  0  0  0  0  0  0  0
  145.6415  133.7213  150.8009 N   0  0  0  0  0  0  0  0  0  0  0  0
  145.9542  132.3991  150.5645 C   0  0  0  0  0  0  0  0  0  0  0  0
  144.9530  131.8763  149.7971 C   0  0  0  0  0  0  0  0  0  0  0  0
  144.0591  132.9687  149.6168 C   0  0  0  0  0  0  0  0  0  0  0  0
  144.4735  134.0712  150.2203 N   0  0  0  0  0  0  0  0  0  0  0  0
  146.9041  140.8638  152.7013 C   0  0  0  0  0  0  0  0  0  0  0  0
  147.2785  141.7760  153.8833 C   0  0  0  0  0  0  0  0  0  0  0  0
  145.0489  143.6181  153.7840 H   0  0  0  0  0  0  0  0  0  0  0  0
  146.1394  144.3007  155.0086 H   0  0  0  0  0  0  0  0  0  0  0  0
  144.4054  144.2195  155.3085 H   0  0  0  0  0  0  0  0  0  0  0  0
  147.6117  139.9658  155.7817 H   0  0  0  0  0  0  0  0  0  0  0  0
  145.9905  139.9104  156.4091 H   0  0  0  0  0  0  0  0  0  0  0  0
  146.3155  138.1032  154.7449 H   0  0  0  0  0  0  0  0  0  0  0  0
  145.0969  139.2269  154.1930 H   0  0  0  0  0  0  0  0  0  0  0  0
  148.0129  139.1328  153.3251 H   0  0  0  0  0  0  0  0  0  0  0  0
  145.4826  138.6925  151.6912 H   0  0  0  0  0  0  0  0  0  0  0  0
  147.1220  138.5826  151.0831 H   0  0  0  0  0  0  0  0  0  0  0  0
  147.5141  136.7179  152.2982 H   0  0  0  0  0  0  0  0  0  0  0  0
  145.6936  136.4615  150.5611 H   0  0  0  0  0  0  0  0  0  0  0  0
  143.6419  135.4047  151.5158 H   0  0  0  0  0  0  0  0  0  0  0  0
  143.8123  137.0301  152.1338 H   0  0  0  0  0  0  0  0  0  0  0  0
  144.2510  135.6590  153.1472 H   0  0  0  0  0  0  0  0  0  0  0  0
  147.3889  134.7757  151.1265 H   0  0  0  0  0  0  0  0  0  0  0  0
  146.5274  134.3301  152.5807 H   0  0  0  0  0  0  0  0  0  0  0  0
  146.8532  131.9458  150.9558 H   0  0  0  0  0  0  0  0  0  0  0  0
  144.8704  130.8667  149.4224 H   0  0  0  0  0  0  0  0  0  0  0  0
  143.1282  132.9933  149.0696 H   0  0  0  0  0  0  0  0  0  0  0  0
  147.5736  141.0627  151.8641 H   0  0  0  0  0  0  0  0  0  0  0  0
  145.8983  141.1122  152.3591 H   0  0  0  0  0  0  0  0  0  0  0  0
  147.2571  142.8179  153.5674 H   0  0  0  0  0  0  0  0  0  0  0  0
  148.3091  141.5875  154.1874 H   0  0  0  0  0  0  0  0  0  0  0  0
  146.2834  136.9442  153.3561 H   0  0  0  0  0  0  0  0  0  0  0  0
  1  2  1  0  0  0  0
  1 20  1  0  0  0  0
  1 21  1  0  0  0  0
  1 22  1  0  0  0  0
  2  3  2  0  0  0  0
  2  4  1  0  0  0  0
  4 19  1  0  0  0  0
  4  5  1  0  0  0  0
  5  6  1  0  0  0  0
  5 23  1  0  0  0  0
  5 24  1  0  0  0  0
  6  7  1  0  0  0  0
  6 25  1  0  0  0  0
  6 26  1  0  0  0  0
  7  8  1  0  0  0  0
  7 18  1  0  0  0  0
  7 27  1  0  0  0  0
  8  9  1  0  0  0  0
  8 28  1  0  0  0  0
  8 29  1  0  0  0  0
  9 10  1  0  0  0  0
  9 30  1  0  0  0  0
  9 44  1  0  0  0  0
 10 11  1  0  0  0  0
 10 12  1  0  0  0  0
 10 31  1  0  0  0  0
 11 32  1  0  0  0  0
 11 33  1  0  0  0  0
 11 34  1  0  0  0  0
 12 13  1  0  0  0  0
 12 35  1  0  0  0  0
 12 36  1  0  0  0  0
 13 17  1  0  0  0  0
 13 14  1  0  0  0  0
 14 15  2  0  0  0  0
 14 37  1  0  0  0  0
 15 16  1  0  0  0  0
 15 38  1  0  0  0  0
 16 17  2  0  0  0  0
 16 39  1  0  0  0  0
 18 19  1  0  0  0  0
 18 40  1  0  0  0  0
 18 41  1  0  0  0  0
 19 42  1  0  0  0  0
 19 43  1  0  0  0  0
M  CHG  1   9   1
M  END
> <s_m_source_file>
AV-unprocessed.smi

> <i_m_source_file_index>
3043

> <i_lp_mmshare_version>
43012

> <i_f3d_flags>
0

> <s_epik_input>
W0NIM11DKD1PKU4xW0NIMl1bQ0gyXVtDSF0oW0NIMl1bQ0gyXTEpW0NIMl1bTkhdW0NASF0oW0NIM10pW0NIMl1uMltjSF1bY0hdW2NIXW4y

> <s_epik_cmdline>
J2VwaWtfcHl0aG9uJywgJy1waCcsICc3LjAnLCAnLXRuJywgJzgnLCAnLW1hJywgJzIwMCcsICctbWV0YWxfYmluZGluZycsICctaW1hZScsICc8aW5maWxlLm1hZT4nLCAnLW9tYWUnLCAnPG91dGZpbGUubWFlPic=

> <r_lp_tautomer_probability>
1

> <r_epik_Ionization_Penalty>
0.00300549

> <r_epik_Ionization_Penalty_Charging>
0.00299781

> <r_epik_Ionization_Penalty_Neutral>
7.6831e-06

> <r_epik_State_Penalty>
0.00210473

> <r_epik_Charging_Adjusted_Penalty>
0.00510254

> <i_epik_Tot_Q>
1

> <i_epik_Tot_abs_Q>
1

> <r_epik_Metal_State_Penalty>
-0

> <b_epik_Metal_Only>
0

> <s_lp_Force_Field>
OPLS_2005

> <r_lp_Energy>
29.3743

> <b_lp_Chiralities_Consistent>
1

> <s_lp_Variant>
AV-unprocessed.smi:3043-1

> <Gold.Version>
5.8.1

> <Gold.Id.Protein>
6NUR|6NUR_protein|mol2

> <Gold.PLP.Fitness>
44.8048

> <Gold.PLP.PLP>
-33.6781

> <Gold.PLP.part.hbond>
-1.0000

> <Gold.PLP.part.metal>
0.0000

> <Gold.PLP.part.buried>
-3.3639

> <Gold.PLP.part.nonpolar>
-30.2455

> <Gold.PLP.part.repulsive>
0.2886

> <Gold.PLP.ligand.clash>
0.0000

> <Gold.PLP.ligand.torsion>
0.4569

> <Gold.PLP.Chemscore.Hbond>
2.0000

> <Gold.PLP.Chemscore.CHOScore>
1.9988

> <Gold.PLP.Chemscore.Metal>
0.0000

> <Gold.Chemscore.Hbonds>
donor molecule, donor type, donor heavy atom, donor atom, acceptor molecule, acceptor atom, score
      L1  H     9    30       P1  7948  2.00
      L1  C    14    37       P1 10747  1.00
      L1  C    16    39       P1 10186  0.82

> <Gold.PLP.Chemscore.Internal.Correction>
0.0439

> <Gold.Rescore>
     Score         DG    S(hbond)    S(metal)    S(lipo)     H(rot)  DE(clash)    DE(int)     intcor
     12.69     -14.57       0.99        0.00      87.44       1.74       0.17       1.71       ----

> <Gold.Chemscore.Fitness>
12.6925

> <Gold.Chemscore.DG>
-14.5695

> <Gold.Chemscore.ZeroCoef>
-5.4800

> <Gold.Chemscore.Hbond>
0.9937

> <Gold.Chemscore.Metal>
0.0000

> <Gold.Chemscore.Lipo>
87.4386

> <Gold.Chemscore.Internal_Hbond>
0.0000

> <Gold.Chemscore.DEClash>
0.1669

> <Gold.Chemscore.DEInternal>
1.7101

> <Gold.Chemscore.Rot>
1.7422

> <Gold.Chemscore.Internal.Correction>
   9.000000E+99

> <Gold.Chemscore.Hbonds>
donor molecule, donor type, donor heavy atom, donor atom, acceptor molecule, acceptor atom, score
      L1  H     9    30       P1  7948  0.97

> <Gold.Chemscore.Hbond.Weighted>
-3.3191

> <Gold.Chemscore.Metal.Weighted>
-0.0000

> <Gold.Chemscore.Lipo.Weighted>
-10.2303

> <Gold.Chemscore.Internal_Hbond.Weighted>
0.0000

> <Gold.Chemscore.DEClash.Weighted>
0.1669

> <Gold.Chemscore.DEInternal.Weighted>
1.7101

> <Gold.Chemscore.Rot.Weighted>
4.4600

> <Gold.Chemscore.Internal.Correction.Weighted>
   9.000000E+99

> <Gold.Protein.RotatedTorsions>
[ 6907 6896 6895 6894 ] final  -16.44 input  -60.11 | X-H torsion
[ 7974 7965 7964 7962 ] final -174.60 input  175.53 | X-H torsion
[ 8008 7997 7996 7995 ] final  138.02 input   59.86 | X-H torsion
[ 10167 10162 10161 10158 ] final  -45.62 input  -65.29 | X-H torsion
[ 10718 10713 10712 10709 ] final -167.48 input   66.30 | X-H torsion
[ 10763 10752 10751 10750 ] final  -73.18 input  -60.55 | X-H torsion
[ 11005 11000 10999 10996 ] final -169.88 input  -57.11 | X-H torsion

> <Gold.Protein.ActiveResidues>
 VAL166  LYS551  ARG553  GLY616  TRP617  ASP618  TYR619  PRO620  LYS621  CYS622 
 ASP623  PHE694  ASN695  SER759  ASP760  ASP761  ALA762  ILE779  LEU786  VAL792 
 PHE793  MET794  SER795  GLU796  ALA797  LYS798  CYS799  TRP800  GLU811  SER814 

> <Gold.Protein.RotatedAtoms>
  151.3086  135.0788  159.9263 H   0  0  0  0  0  0  0  0  0  0  0  0  # atno 6907 bound_to 6896
  152.5282  133.9759  159.7794 H   0  0  0  0  0  0  0  0  0  0  0  0  # atno 6908 bound_to 6896
  151.0059  133.5960  159.2719 H   0  0  0  0  0  0  0  0  0  0  0  0  # atno 6909 bound_to 6896
  144.7131  140.1447  143.6389 H   0  0  0  0  0  0  0  0  0  0  0  0  # atno 7974 bound_to 7965
  156.2999  140.2404  156.4004 H   0  0  0  0  0  0  0  0  0  0  0  0  # atno 8008 bound_to 7997
  154.8532  140.0423  157.1637 H   0  0  0  0  0  0  0  0  0  0  0  0  # atno 8009 bound_to 7997
  154.8976  140.2972  155.5339 H   0  0  0  0  0  0  0  0  0  0  0  0  # atno 8010 bound_to 7997
  140.6850  143.2870  151.3666 H   0  0  0  0  0  0  0  0  0  0  0  0  # atno 10167 bound_to 10162
  156.6829  130.9129  151.3059 H   0  0  0  0  0  0  0  0  0  0  0  0  # atno 10718 bound_to 10713
  154.4559  135.5905  153.6223 H   0  0  0  0  0  0  0  0  0  0  0  0  # atno 10763 bound_to 10752
  152.9818  135.6032  154.3546 H   0  0  0  0  0  0  0  0  0  0  0  0  # atno 10764 bound_to 10752
  154.3413  135.2841  155.2400 H   0  0  0  0  0  0  0  0  0  0  0  0  # atno 10765 bound_to 10752
  140.5258  134.5665  157.5061 H   0  0  0  0  0  0  0  0  0  0  0  0  # atno 11005 bound_to 11000
  145.9171  139.2522  143.1403 LP  0  0  0  0  0  0  0  0  0  0  0  0  # atno 17320 bound_to 7965
  145.9658  140.8799  143.0187 LP  0  0  0  0  0  0  0  0  0  0  0  0  # atno 17321 bound_to 7965
  139.6202  144.0922  152.2384 LP  0  0  0  0  0  0  0  0  0  0  0  0  # atno 17342 bound_to 10162
  140.0364  144.6041  150.7446 LP  0  0  0  0  0  0  0  0  0  0  0  0  # atno 17343 bound_to 10162
  157.7037  130.9361  150.0863 LP  0  0  0  0  0  0  0  0  0  0  0  0  # atno 17370 bound_to 10713
  156.1854  130.3652  149.8980 LP  0  0  0  0  0  0  0  0  0  0  0  0  # atno 17371 bound_to 10713
  139.9581  134.7500  156.0297 LP  0  0  0  0  0  0  0  0  0  0  0  0  # atno 17394 bound_to 11000
  141.1309  133.6587  156.3462 LP  0  0  0  0  0  0  0  0  0  0  0  0  # atno 17395 bound_to 11000

$$$$
