AV-unprocessed.smi:3172|AV-procd|sdf|12116|dock1
  -GOLD-   2272017553D 1   1.00000     0.00000
 Structure written by MMmdl.
 43 44  0  0  0  0  0  0  0  0  2 V2000
  144.3824  143.4416  155.4975 C   0  0  0  0  0  0  0  0  0  0  0  0
  145.7195  142.8168  155.7502 C   0  0  0  0  0  0  0  0  0  0  0  0
  146.1901  142.6133  157.0449 N   0  0  0  0  0  0  0  0  0  0  0  0
  147.3766  142.0509  156.8655 C   0  0  0  0  0  0  0  0  0  0  0  0
  147.7228  141.8784  155.5820 N   0  0  0  0  0  0  0  0  0  0  0  0
  148.9610  141.2956  155.0917 C   0  0  0  0  0  0  0  0  0  0  0  0
  150.0563  141.2036  156.1738 C   0  0  1  0  0  0  0  0  0  0  0  0
  151.2013  140.2504  155.7903 C   0  0  0  0  0  0  0  0  0  0  0  0
  150.5949  142.5558  156.4447 N   0  3  0  0  0  0  0  0  0  0  0  0
  151.0407  142.8109  157.8332 C   0  0  0  0  0  0  0  0  0  0  0  0
  151.9082  144.0834  157.8739 C   0  0  0  0  0  0  0  0  0  0  0  0
  152.4155  144.3778  159.2947 C   0  0  0  0  0  0  0  0  0  0  0  0
  153.1858  143.1788  159.8685 C   0  0  0  0  0  0  0  0  0  0  0  0
  152.3293  141.9036  159.8342 C   0  0  0  0  0  0  0  0  0  0  0  0
  151.8199  141.6104  158.4134 C   0  0  0  0  0  0  0  0  0  0  0  0
  146.6488  142.3637  154.8378 C   0  0  0  0  0  0  0  0  0  0  0  0
  146.6018  142.3557  153.3432 C   0  0  0  0  0  0  0  0  0  0  0  0
  143.7134  142.7444  154.9927 H   0  0  0  0  0  0  0  0  0  0  0  0
  144.4757  144.3268  154.8677 H   0  0  0  0  0  0  0  0  0  0  0  0
  143.8992  143.7477  156.4262 H   0  0  0  0  0  0  0  0  0  0  0  0
  148.0132  141.7632  157.6896 H   0  0  0  0  0  0  0  0  0  0  0  0
  148.7401  140.3028  154.6959 H   0  0  0  0  0  0  0  0  0  0  0  0
  149.3102  141.8905  154.2469 H   0  0  0  0  0  0  0  0  0  0  0  0
  149.5935  140.8167  157.0819 H   0  0  0  0  0  0  0  0  0  0  0  0
  150.8461  139.2267  155.6693 H   0  0  0  0  0  0  0  0  0  0  0  0
  151.9750  140.2315  156.5582 H   0  0  0  0  0  0  0  0  0  0  0  0
  151.6716  140.5525  154.8541 H   0  0  0  0  0  0  0  0  0  0  0  0
  151.3609  142.7392  155.8125 H   0  0  0  0  0  0  0  0  0  0  0  0
  150.1549  142.9915  158.4449 H   0  0  0  0  0  0  0  0  0  0  0  0
  152.7610  143.9726  157.2023 H   0  0  0  0  0  0  0  0  0  0  0  0
  151.3363  144.9370  157.5080 H   0  0  0  0  0  0  0  0  0  0  0  0
  153.0551  145.2607  159.2858 H   0  0  0  0  0  0  0  0  0  0  0  0
  151.5712  144.6147  159.9436 H   0  0  0  0  0  0  0  0  0  0  0  0
  154.0996  143.0217  159.2940 H   0  0  0  0  0  0  0  0  0  0  0  0
  153.4962  143.3914  160.8918 H   0  0  0  0  0  0  0  0  0  0  0  0
  152.9089  141.0571  160.2037 H   0  0  0  0  0  0  0  0  0  0  0  0
  151.4809  142.0154  160.5106 H   0  0  0  0  0  0  0  0  0  0  0  0
  151.1909  140.7204  158.4396 H   0  0  0  0  0  0  0  0  0  0  0  0
  152.6662  141.3714  157.7676 H   0  0  0  0  0  0  0  0  0  0  0  0
  145.6045  142.6070  152.9821 H   0  0  0  0  0  0  0  0  0  0  0  0
  146.8576  141.3730  152.9469 H   0  0  0  0  0  0  0  0  0  0  0  0
  147.2978  143.0841  152.9276 H   0  0  0  0  0  0  0  0  0  0  0  0
  149.8563  143.2147  156.2437 H   0  0  0  0  0  0  0  0  0  0  0  0
  1  2  1  0  0  0  0
  1 18  1  0  0  0  0
  1 19  1  0  0  0  0
  1 20  1  0  0  0  0
  2 16  2  0  0  0  0
  2  3  1  0  0  0  0
  3  4  2  0  0  0  0
  4  5  1  0  0  0  0
  4 21  1  0  0  0  0
  5  6  1  0  0  0  0
  5 16  1  0  0  0  0
  6  7  1  0  0  0  0
  6 22  1  0  0  0  0
  6 23  1  0  0  0  0
  7  8  1  0  0  0  0
  7  9  1  0  0  0  0
  7 24  1  0  0  0  0
  8 25  1  0  0  0  0
  8 26  1  0  0  0  0
  8 27  1  0  0  0  0
  9 10  1  0  0  0  0
  9 28  1  0  0  0  0
  9 43  1  0  0  0  0
 10 15  1  0  0  0  0
 10 11  1  0  0  0  0
 10 29  1  0  0  0  0
 11 12  1  0  0  0  0
 11 30  1  0  0  0  0
 11 31  1  0  0  0  0
 12 13  1  0  0  0  0
 12 32  1  0  0  0  0
 12 33  1  0  0  0  0
 13 14  1  0  0  0  0
 13 34  1  0  0  0  0
 13 35  1  0  0  0  0
 14 15  1  0  0  0  0
 14 36  1  0  0  0  0
 14 37  1  0  0  0  0
 15 38  1  0  0  0  0
 15 39  1  0  0  0  0
 16 17  1  0  0  0  0
 17 40  1  0  0  0  0
 17 41  1  0  0  0  0
 17 42  1  0  0  0  0
M  CHG  1   9   1
M  END
> <s_m_source_file>
AV-unprocessed.smi

> <i_m_source_file_index>
3172

> <i_lp_mmshare_version>
43012

> <i_f3d_flags>
0

> <s_epik_input>
W0NIM11jMW5bY0hdbihjMVtDSDNdKVtDSDJdW0NASF0oW0NIM10pW05IXVtDSF0yW0NIMl1bQ0gyXVtDSDJdW0NIMl1bQ0gyXTI=

> <s_epik_cmdline>
J2VwaWtfcHl0aG9uJywgJy1waCcsICc3LjAnLCAnLXRuJywgJzgnLCAnLW1hJywgJzIwMCcsICctbWV0YWxfYmluZGluZycsICctaW1hZScsICc8aW5maWxlLm1hZT4nLCAnLW9tYWUnLCAnPG91dGZpbGUubWFlPic=

> <r_lp_tautomer_probability>
1

> <r_epik_Ionization_Penalty>
0.328572

> <r_epik_Ionization_Penalty_Charging>
0.328572

> <r_epik_Ionization_Penalty_Neutral>
3.58496e-13

> <r_epik_State_Penalty>
0.596179

> <r_epik_Charging_Adjusted_Penalty>
0.924751

> <i_epik_Tot_Q>
1

> <i_epik_Tot_abs_Q>
1

> <r_epik_Metal_State_Penalty>
0.00102252

> <b_epik_Metal_Only>
0

> <s_lp_Force_Field>
OPLS_2005

> <r_lp_Energy>
17.121

> <b_lp_Chiralities_Consistent>
1

> <s_lp_Variant>
AV-unprocessed.smi:3172-4

> <Gold.Version>
5.8.1

> <Gold.Id.Protein>
6NUR|6NUR_protein|mol2

> <Gold.PLP.Fitness>
43.2180

> <Gold.PLP.PLP>
-38.7848

> <Gold.PLP.part.hbond>
-1.0000

> <Gold.PLP.part.metal>
0.0000

> <Gold.PLP.part.buried>
-3.7202

> <Gold.PLP.part.nonpolar>
-33.9211

> <Gold.PLP.part.repulsive>
0.2063

> <Gold.PLP.ligand.clash>
0.0000

> <Gold.PLP.ligand.torsion>
0.8033

> <Gold.PLP.Chemscore.Hbond>
2.0000

> <Gold.PLP.Chemscore.CHOScore>
0.0000

> <Gold.PLP.Chemscore.Metal>
0.0000

> <Gold.Chemscore.Hbonds>
donor molecule, donor type, donor heavy atom, donor atom, acceptor molecule, acceptor atom, score
      L1  H     9    43       P1  8028  2.00

> <Gold.PLP.Chemscore.Internal.Correction>
0.0398

> <Gold.Rescore>
     Score         DG    S(hbond)    S(metal)    S(lipo)     H(rot)  DE(clash)    DE(int)     intcor
     16.43     -17.41       1.00        0.00     106.32       1.50       0.02       0.97       ----

> <Gold.Chemscore.Fitness>
16.4270

> <Gold.Chemscore.DG>
-17.4136

> <Gold.Chemscore.ZeroCoef>
-5.4800

> <Gold.Chemscore.Hbond>
0.9983

> <Gold.Chemscore.Metal>
0.0000

> <Gold.Chemscore.Lipo>
106.3163

> <Gold.Chemscore.Internal_Hbond>
0.0000

> <Gold.Chemscore.DEClash>
0.0197

> <Gold.Chemscore.DEInternal>
0.9670

> <Gold.Chemscore.Rot>
1.4999

> <Gold.Chemscore.Internal.Correction>
   9.000000E+99

> <Gold.Chemscore.Hbonds>
donor molecule, donor type, donor heavy atom, donor atom, acceptor molecule, acceptor atom, score
      L1  H     9    43       P1  8028  1.00

> <Gold.Chemscore.Hbond.Weighted>
-3.3343

> <Gold.Chemscore.Metal.Weighted>
-0.0000

> <Gold.Chemscore.Lipo.Weighted>
-12.4390

> <Gold.Chemscore.Internal_Hbond.Weighted>
0.0000

> <Gold.Chemscore.DEClash.Weighted>
0.0197

> <Gold.Chemscore.DEInternal.Weighted>
0.9670

> <Gold.Chemscore.Rot.Weighted>
3.8397

> <Gold.Chemscore.Internal.Correction.Weighted>
   9.000000E+99

> <Gold.Protein.RotatedTorsions>
[ 6907 6896 6895 6894 ] final  166.12 input  -60.11 | X-H torsion
[ 7974 7965 7964 7962 ] final   58.34 input  175.53 | X-H torsion
[ 8008 7997 7996 7995 ] final   10.79 input   59.86 | X-H torsion
[ 10167 10162 10161 10158 ] final  -78.47 input  -65.29 | X-H torsion
[ 10718 10713 10712 10709 ] final -170.52 input   66.30 | X-H torsion
[ 10763 10752 10751 10750 ] final    7.32 input  -60.55 | X-H torsion
[ 11005 11000 10999 10996 ] final    8.50 input  -57.11 | X-H torsion

> <Gold.Protein.ActiveResidues>
 VAL166  LYS551  ARG553  GLY616  TRP617  ASP618  TYR619  PRO620  LYS621  CYS622 
 ASP623  PHE694  ASN695  SER759  ASP760  ASP761  ALA762  ILE779  LEU786  VAL792 
 PHE793  MET794  SER795  GLU796  ALA797  LYS798  CYS799  TRP800  GLU811  SER814 

> <Gold.Protein.RotatedAtoms>
  151.8838  133.3501  159.3775 H   0  0  0  0  0  0  0  0  0  0  0  0  # atno 6907 bound_to 6896
  150.7120  134.4992  159.5562 H   0  0  0  0  0  0  0  0  0  0  0  0  # atno 6908 bound_to 6896
  152.2549  134.8095  160.0491 H   0  0  0  0  0  0  0  0  0  0  0  0  # atno 6909 bound_to 6896
  145.9192  139.3716  143.0488 H   0  0  0  0  0  0  0  0  0  0  0  0  # atno 7974 bound_to 7965
  154.7981  140.2847  155.5941 H   0  0  0  0  0  0  0  0  0  0  0  0  # atno 8008 bound_to 7997
  156.2973  140.2592  156.2772 H   0  0  0  0  0  0  0  0  0  0  0  0  # atno 8009 bound_to 7997
  154.9590  140.0378  157.2170 H   0  0  0  0  0  0  0  0  0  0  0  0  # atno 8010 bound_to 7997
  140.4679  143.2435  151.8250 H   0  0  0  0  0  0  0  0  0  0  0  0  # atno 10167 bound_to 10162
  156.7274  130.9293  151.3102 H   0  0  0  0  0  0  0  0  0  0  0  0  # atno 10718 bound_to 10713
  153.2376  135.6900  153.7819 H   0  0  0  0  0  0  0  0  0  0  0  0  # atno 10763 bound_to 10752
  153.6960  135.3305  155.3214 H   0  0  0  0  0  0  0  0  0  0  0  0  # atno 10764 bound_to 10752
  154.8341  135.4556  154.1286 H   0  0  0  0  0  0  0  0  0  0  0  0  # atno 10765 bound_to 10752
  140.5363  134.0418  155.7889 H   0  0  0  0  0  0  0  0  0  0  0  0  # atno 11005 bound_to 11000
  145.8571  140.9496  143.0719 LP  0  0  0  0  0  0  0  0  0  0  0  0  # atno 17320 bound_to 7965
  144.6751  140.0483  143.7479 LP  0  0  0  0  0  0  0  0  0  0  0  0  # atno 17321 bound_to 7965
  139.4814  144.4928  151.9163 LP  0  0  0  0  0  0  0  0  0  0  0  0  # atno 17342 bound_to 10162
  140.4013  144.2489  150.5893 LP  0  0  0  0  0  0  0  0  0  0  0  0  # atno 17343 bound_to 10162
  157.6873  130.9198  150.0419 LP  0  0  0  0  0  0  0  0  0  0  0  0  # atno 17370 bound_to 10713
  156.1552  130.3643  149.9379 LP  0  0  0  0  0  0  0  0  0  0  0  0  # atno 17371 bound_to 10713
  141.1253  133.9394  157.2648 LP  0  0  0  0  0  0  0  0  0  0  0  0  # atno 17394 bound_to 11000
  139.9527  135.0172  156.9041 LP  0  0  0  0  0  0  0  0  0  0  0  0  # atno 17395 bound_to 11000

$$$$
