AV-unprocessed.smi:1645|AV-procd|sdf|6617|dock4
  -GOLD-   22720 7313D 1   1.00000     0.00000
 Structure written by MMmdl.
 55 58  0  0  0  0  0  0  0  0  4 V2000
  146.6257  139.3304  155.2200 O   0  0  0  0  0  0  0  0  0  0  0  0
  147.3653  138.6616  154.4895 C   0  0  0  0  0  0  0  0  0  0  0  0
  148.6999  138.8168  154.5482 N   0  0  0  0  0  0  0  0  0  0  0  0
  149.4557  139.6985  155.3656 C   0  0  0  0  0  0  0  0  0  0  0  0
  150.8626  139.6531  155.2647 C   0  0  0  0  0  0  0  0  0  0  0  0
  151.6476  140.5186  156.0538 C   0  0  0  0  0  0  0  0  0  0  0  0
  151.0084  141.4291  156.9260 C   0  0  0  0  0  0  0  0  0  0  0  0
  151.7025  142.3161  157.7585 N   0  0  0  0  0  0  0  0  0  0  0  0
  151.5011  143.7157  157.3931 C   0  0  0  0  0  0  0  0  0  0  0  0
  152.4420  144.6291  158.1971 C   0  0  0  0  0  0  0  0  0  0  0  0
  152.2789  144.3901  159.7069 C   0  0  0  0  0  0  0  0  0  0  0  0
  152.4629  142.8987  160.0337 C   0  0  0  0  0  0  0  0  0  0  0  0
  151.5257  142.0271  159.1791 C   0  0  0  0  0  0  0  0  0  0  0  0
  149.6591  141.4603  156.9759 N   0  3  0  0  0  0  0  0  0  0  0  0
  148.8717  140.6476  156.2387 C   0  0  0  0  0  0  0  0  0  0  0  0
  146.9998  137.7145  153.5848 N   0  5  0  0  0  0  0  0  0  0  0  0
  145.7832  136.8947  153.6740 C   0  0  1  0  0  0  0  0  0  0  0  0
  144.8849  137.1661  152.4510 C   0  0  0  0  0  0  0  0  0  0  0  0
  145.2901  136.1261  151.3852 C   0  0  0  0  0  0  0  0  0  0  0  0
  146.3119  135.2741  152.0263 N   0  3  2  0  0  0  0  0  0  0  0  0
  146.3964  133.8668  151.5768 C   0  0  0  0  0  0  0  0  0  0  0  0
  147.5569  133.1606  152.3072 C   0  0  0  0  0  0  0  0  0  0  0  0
  147.4386  133.2970  153.8391 C   0  0  0  0  0  0  0  0  0  0  0  0
  147.2911  134.7735  154.2540 C   0  0  0  0  0  0  0  0  0  0  0  0
  146.1130  135.4054  153.4791 C   0  0  1  0  0  0  0  0  0  0  0  0
  149.2363  138.1674  153.9918 H   0  0  0  0  0  0  0  0  0  0  0  0
  151.3401  138.9522  154.5956 H   0  0  0  0  0  0  0  0  0  0  0  0
  152.7250  140.4783  155.9886 H   0  0  0  0  0  0  0  0  0  0  0  0
  151.6799  143.8471  156.3249 H   0  0  0  0  0  0  0  0  0  0  0  0
  150.4641  143.9973  157.5810 H   0  0  0  0  0  0  0  0  0  0  0  0
  153.4750  144.4354  157.9055 H   0  0  0  0  0  0  0  0  0  0  0  0
  152.2434  145.6743  157.9579 H   0  0  0  0  0  0  0  0  0  0  0  0
  152.9983  144.9908  160.2642 H   0  0  0  0  0  0  0  0  0  0  0  0
  151.2874  144.7156  160.0245 H   0  0  0  0  0  0  0  0  0  0  0  0
  153.4987  142.6102  159.8483 H   0  0  0  0  0  0  0  0  0  0  0  0
  152.2767  142.7211  161.0931 H   0  0  0  0  0  0  0  0  0  0  0  0
  150.4885  142.2109  159.4628 H   0  0  0  0  0  0  0  0  0  0  0  0
  151.7270  140.9718  159.3678 H   0  0  0  0  0  0  0  0  0  0  0  0
  147.8103  140.7954  156.3713 H   0  0  0  0  0  0  0  0  0  0  0  0
  145.2374  137.0458  154.6063 H   0  0  0  0  0  0  0  0  0  0  0  0
  143.8413  137.0099  152.7265 H   0  0  0  0  0  0  0  0  0  0  0  0
  144.9633  138.1899  152.0816 H   0  0  0  0  0  0  0  0  0  0  0  0
  144.4234  135.5346  151.0850 H   0  0  0  0  0  0  0  0  0  0  0  0
  145.7042  136.5942  150.4915 H   0  0  0  0  0  0  0  0  0  0  0  0
  145.4532  133.3572  151.7794 H   0  0  0  0  0  0  0  0  0  0  0  0
  146.5554  133.8373  150.4985 H   0  0  0  0  0  0  0  0  0  0  0  0
  147.5875  132.1072  152.0279 H   0  0  0  0  0  0  0  0  0  0  0  0
  148.5038  133.5931  151.9811 H   0  0  0  0  0  0  0  0  0  0  0  0
  146.5727  132.7329  154.1880 H   0  0  0  0  0  0  0  0  0  0  0  0
  148.3103  132.8571  154.3241 H   0  0  0  0  0  0  0  0  0  0  0  0
  147.1283  134.8406  155.3308 H   0  0  0  0  0  0  0  0  0  0  0  0
  148.2274  135.2941  154.0447 H   0  0  0  0  0  0  0  0  0  0  0  0
  145.2118  134.8450  153.7377 H   0  0  0  0  0  0  0  0  0  0  0  0
  147.2019  135.7130  151.8370 H   0  0  0  0  0  0  0  0  0  0  0  0
  149.2112  142.1296  157.6019 H   0  0  0  0  0  0  0  0  0  0  0  0
  1  2  2  0  0  0  0
  2  3  1  0  0  0  0
  2 16  1  0  0  0  0
  3  4  1  0  0  0  0
  3 26  1  0  0  0  0
  4 15  1  0  0  0  0
  4  5  2  0  0  0  0
  5  6  1  0  0  0  0
  5 27  1  0  0  0  0
  6  7  2  0  0  0  0
  6 28  1  0  0  0  0
  7  8  1  0  0  0  0
  7 14  1  0  0  0  0
  8 13  1  0  0  0  0
  8  9  1  0  0  0  0
  9 10  1  0  0  0  0
  9 29  1  0  0  0  0
  9 30  1  0  0  0  0
 10 11  1  0  0  0  0
 10 31  1  0  0  0  0
 10 32  1  0  0  0  0
 11 12  1  0  0  0  0
 11 33  1  0  0  0  0
 11 34  1  0  0  0  0
 12 13  1  0  0  0  0
 12 35  1  0  0  0  0
 12 36  1  0  0  0  0
 13 37  1  0  0  0  0
 13 38  1  0  0  0  0
 14 15  2  0  0  0  0
 14 55  1  0  0  0  0
 15 39  1  0  0  0  0
 16 17  1  0  0  0  0
 17 25  1  0  0  0  0
 17 18  1  0  0  0  0
 17 40  1  0  0  0  0
 18 19  1  0  0  0  0
 18 41  1  0  0  0  0
 18 42  1  0  0  0  0
 19 20  1  0  0  0  0
 19 43  1  0  0  0  0
 19 44  1  0  0  0  0
 20 25  1  0  0  0  0
 20 21  1  0  0  0  0
 20 54  1  0  0  0  0
 21 22  1  0  0  0  0
 21 45  1  0  0  0  0
 21 46  1  0  0  0  0
 22 23  1  0  0  0  0
 22 47  1  0  0  0  0
 22 48  1  0  0  0  0
 23 24  1  0  0  0  0
 23 49  1  0  0  0  0
 23 50  1  0  0  0  0
 24 25  1  0  0  0  0
 24 51  1  0  0  0  0
 24 52  1  0  0  0  0
 25 53  1  0  0  0  0
M  CHG  1  14   1
M  CHG  1  16  -1
M  CHG  1  20   1
M  END
> <s_m_source_file>
AV-unprocessed.smi

> <i_m_source_file_index>
1645

> <i_lp_mmshare_version>
43012

> <i_f3d_flags>
0

> <s_epik_input>
W0NIMl0xW0NIMl1bQ0gyXVtDSDJdW0NASF0oTjEyKVtDQEBIXShbQ0gyXVtDSDJdMilbTkhdQyg9TylbTkhdYzNbY0hdW2NIXWMobltjSF0zKU40W0NIMl1bQ0gyXVtDSDJdW0NIMl1bQ0gyXTQ=

> <s_epik_cmdline>
J2VwaWtfcHl0aG9uJywgJy1waCcsICc3LjAnLCAnLXRuJywgJzgnLCAnLW1hJywgJzIwMCcsICctbWV0YWxfYmluZGluZycsICctaW1hZScsICc8aW5maWxlLm1hZT4nLCAnLW9tYWUnLCAnPG91dGZpbGUubWFlPic=

> <r_lp_tautomer_probability>
0.999994

> <r_epik_Ionization_Penalty>
8.55589

> <r_epik_Ionization_Penalty_Charging>
8.55589

> <r_epik_Ionization_Penalty_Neutral>
3.8092e-06

> <r_epik_State_Penalty>
8.15703

> <r_epik_Charging_Adjusted_Penalty>
16.7129

> <i_epik_Tot_Q>
1

> <i_epik_Tot_abs_Q>
3

> <r_epik_Metal_State_Penalty>
4.13781

> <b_epik_Metal_Only>
1

> <s_lp_Force_Field>
OPLS_2005

> <r_lp_Energy>
55.818

> <b_lp_Chiralities_Consistent>
1

> <s_lp_Variant>
AV-unprocessed.smi:1645-18

> <Gold.Version>
5.8.1

> <Gold.Id.Protein>
6NUR|6NUR_protein|mol2

> <Gold.PLP.Fitness>
45.9959

> <Gold.PLP.PLP>
-40.3687

> <Gold.PLP.part.hbond>
-1.0000

> <Gold.PLP.part.metal>
0.0000

> <Gold.PLP.part.buried>
-4.0327

> <Gold.PLP.part.nonpolar>
-37.4658

> <Gold.PLP.part.repulsive>
1.3182

> <Gold.PLP.ligand.clash>
0.0000

> <Gold.PLP.ligand.torsion>
0.2958

> <Gold.PLP.Chemscore.Hbond>
2.0000

> <Gold.PLP.Chemscore.CHOScore>
0.0000

> <Gold.PLP.Chemscore.Metal>
0.0000

> <Gold.Chemscore.Hbonds>
donor molecule, donor type, donor heavy atom, donor atom, acceptor molecule, acceptor atom, score
      L1  H    20    54       P1  7948  2.00

> <Gold.PLP.Chemscore.Internal.Correction>
0.2188

> <Gold.Rescore>
     Score         DG    S(hbond)    S(metal)    S(lipo)     H(rot)  DE(clash)    DE(int)     intcor
     17.39     -19.22       1.00        0.00     114.53       1.17       0.08       1.74       ----

> <Gold.Chemscore.Fitness>
17.3892

> <Gold.Chemscore.DG>
-19.2154

> <Gold.Chemscore.ZeroCoef>
-5.4800

> <Gold.Chemscore.Hbond>
0.9997

> <Gold.Chemscore.Metal>
0.0000

> <Gold.Chemscore.Lipo>
114.5274

> <Gold.Chemscore.Internal_Hbond>
0.0000

> <Gold.Chemscore.DEClash>
0.0835

> <Gold.Chemscore.DEInternal>
1.7427

> <Gold.Chemscore.Rot>
1.1731

> <Gold.Chemscore.Internal.Correction>
   9.000000E+99

> <Gold.Chemscore.Hbonds>
donor molecule, donor type, donor heavy atom, donor atom, acceptor molecule, acceptor atom, score
      L1  H    20    54       P1  7948  1.00

> <Gold.Chemscore.Hbond.Weighted>
-3.3390

> <Gold.Chemscore.Metal.Weighted>
-0.0000

> <Gold.Chemscore.Lipo.Weighted>
-13.3997

> <Gold.Chemscore.Internal_Hbond.Weighted>
0.0000

> <Gold.Chemscore.DEClash.Weighted>
0.0835

> <Gold.Chemscore.DEInternal.Weighted>
1.7427

> <Gold.Chemscore.Rot.Weighted>
3.0032

> <Gold.Chemscore.Internal.Correction.Weighted>
   9.000000E+99

> <Gold.Protein.RotatedTorsions>
[ 6907 6896 6895 6894 ] final -167.55 input  -60.11 | X-H torsion
[ 7974 7965 7964 7962 ] final  -94.51 input  175.53 | X-H torsion
[ 8008 7997 7996 7995 ] final -143.41 input   59.86 | X-H torsion
[ 10167 10162 10161 10158 ] final -161.00 input  -65.29 | X-H torsion
[ 10718 10713 10712 10709 ] final  -99.37 input   66.30 | X-H torsion
[ 10763 10752 10751 10750 ] final -143.79 input  -60.55 | X-H torsion
[ 11005 11000 10999 10996 ] final  -78.89 input  -57.11 | X-H torsion

> <Gold.Protein.ActiveResidues>
 VAL166  LYS551  ARG553  GLY616  TRP617  ASP618  TYR619  PRO620  LYS621  CYS622 
 ASP623  PHE694  ASN695  SER759  ASP760  ASP761  ALA762  ILE779  LEU786  VAL792 
 PHE793  MET794  SER795  GLU796  ALA797  LYS798  CYS799  TRP800  GLU811  SER814 

> <Gold.Protein.RotatedAtoms>
  151.4614  133.3592  159.2809 H   0  0  0  0  0  0  0  0  0  0  0  0  # atno 6907 bound_to 6896
  150.9023  134.8437  159.7379 H   0  0  0  0  0  0  0  0  0  0  0  0  # atno 6908 bound_to 6896
  152.4886  134.4535  159.9634 H   0  0  0  0  0  0  0  0  0  0  0  0  # atno 6909 bound_to 6896
  145.3723  140.9507  143.2440 H   0  0  0  0  0  0  0  0  0  0  0  0  # atno 7974 bound_to 7965
  155.5102  140.0583  157.2925 H   0  0  0  0  0  0  0  0  0  0  0  0  # atno 8008 bound_to 7997
  154.4555  140.1970  156.0342 H   0  0  0  0  0  0  0  0  0  0  0  0  # atno 8009 bound_to 7997
  156.0789  140.3249  155.7673 H   0  0  0  0  0  0  0  0  0  0  0  0  # atno 8010 bound_to 7997
  139.6498  144.0105  152.2153 H   0  0  0  0  0  0  0  0  0  0  0  0  # atno 10167 bound_to 10162
  156.0132  130.5280  150.6661 H   0  0  0  0  0  0  0  0  0  0  0  0  # atno 10718 bound_to 10713
  154.8455  135.3458  154.6244 H   0  0  0  0  0  0  0  0  0  0  0  0  # atno 10763 bound_to 10752
  153.6853  135.6978  153.5110 H   0  0  0  0  0  0  0  0  0  0  0  0  # atno 10764 bound_to 10752
  153.2637  135.4315  155.0875 H   0  0  0  0  0  0  0  0  0  0  0  0  # atno 10765 bound_to 10752
  141.1666  133.7082  156.8041 H   0  0  0  0  0  0  0  0  0  0  0  0  # atno 11005 bound_to 11000
  144.8567  139.5238  143.6831 LP  0  0  0  0  0  0  0  0  0  0  0  0  # atno 17320 bound_to 7965
  146.2880  139.7058  142.9182 LP  0  0  0  0  0  0  0  0  0  0  0  0  # atno 17321 bound_to 7965
  139.9816  144.6424  150.7895 LP  0  0  0  0  0  0  0  0  0  0  0  0  # atno 17342 bound_to 10162
  140.7532  143.3004  151.3095 LP  0  0  0  0  0  0  0  0  0  0  0  0  # atno 17343 bound_to 10162
  157.4393  131.0859  151.0960 LP  0  0  0  0  0  0  0  0  0  0  0  0  # atno 17370 bound_to 10713
  157.1509  130.6183  149.5582 LP  0  0  0  0  0  0  0  0  0  0  0  0  # atno 17371 bound_to 10713
  140.2235  134.8739  157.3402 LP  0  0  0  0  0  0  0  0  0  0  0  0  # atno 17394 bound_to 11000
  140.1963  134.4309  155.7687 LP  0  0  0  0  0  0  0  0  0  0  0  0  # atno 17395 bound_to 11000

$$$$
