AV-unprocessed.smi:1843|AV-procd|sdf|7504|dock5
  -GOLD-   22720 9203D 1   1.00000     0.00000
 Structure written by MMmdl.
 36 38  0  0  0  0  0  0  0  0  2 V2000
  152.5551  139.8509  156.4172 O   0  0  0  0  0  0  0  0  0  0  0  0
  151.3663  140.1658  156.5100 C   0  0  0  0  0  0  0  0  0  0  0  0
  150.3233  139.5378  155.9211 N   0  5  0  0  0  0  0  0  0  0  0  0
  150.4565  138.2718  155.4918 C   0  0  0  0  0  0  0  0  0  0  0  0
  151.6510  137.6749  155.3759 N   0  0  0  0  0  0  0  0  0  0  0  0
  151.5644  136.3680  154.9189 N   0  0  0  0  0  0  0  0  0  0  0  0
  150.3016  135.9923  154.7031 C   0  0  0  0  0  0  0  0  0  0  0  0
  149.9474  134.6303  154.2069 C   0  0  0  0  0  0  0  0  0  0  0  0
  148.9900  133.7527  154.9795 C   0  0  0  0  0  0  0  0  0  0  0  0
  150.4480  133.3796  154.8961 C   0  0  0  0  0  0  0  0  0  0  0  0
  149.1040  137.2282  155.0547 S   0  0  0  0  0  0  0  0  0  0  0  0
  151.0095  141.2239  157.2519 N   0  0  0  0  0  0  0  0  0  0  0  0
  151.9139  142.1011  157.9936 C   0  0  2  0  0  0  0  0  0  0  0  0
  152.2368  141.4541  159.3593 C   0  0  0  0  0  0  0  0  0  0  0  0
  153.0584  142.3835  160.2641 C   0  0  0  0  0  0  0  0  0  0  0  0
  152.3430  143.7258  160.4642 C   0  0  0  0  0  0  0  0  0  0  0  0
  152.0675  144.3978  159.1126 C   0  0  0  0  0  0  0  0  0  0  0  0
  151.2500  143.4861  158.1773 C   0  0  1  0  0  0  0  0  0  0  0  0
  151.1555  144.1392  156.9269 O   0  0  0  0  0  0  0  0  0  0  0  0
  149.8840  134.6220  153.1205 H   0  0  0  0  0  0  0  0  0  0  0  0
  148.6217  134.1240  155.9339 H   0  0  0  0  0  0  0  0  0  0  0  0
  148.2830  133.1567  154.4061 H   0  0  0  0  0  0  0  0  0  0  0  0
  150.7145  132.5330  154.2669 H   0  0  0  0  0  0  0  0  0  0  0  0
  151.0426  133.4926  155.8003 H   0  0  0  0  0  0  0  0  0  0  0  0
  150.0259  141.4465  157.2948 H   0  0  0  0  0  0  0  0  0  0  0  0
  152.8451  142.2307  157.4382 H   0  0  0  0  0  0  0  0  0  0  0  0
  151.3084  141.1927  159.8696 H   0  0  0  0  0  0  0  0  0  0  0  0
  152.7781  140.5187  159.2125 H   0  0  0  0  0  0  0  0  0  0  0  0
  153.2305  141.9057  161.2288 H   0  0  0  0  0  0  0  0  0  0  0  0
  154.0409  142.5518  159.8214 H   0  0  0  0  0  0  0  0  0  0  0  0
  151.4042  143.5689  160.9971 H   0  0  0  0  0  0  0  0  0  0  0  0
  152.9498  144.3818  161.0892 H   0  0  0  0  0  0  0  0  0  0  0  0
  151.5402  145.3394  159.2710 H   0  0  0  0  0  0  0  0  0  0  0  0
  153.0185  144.6524  158.6421 H   0  0  0  0  0  0  0  0  0  0  0  0
  150.2449  143.3659  158.5846 H   0  0  0  0  0  0  0  0  0  0  0  0
  150.2419  144.2802  156.7315 H   0  0  0  0  0  0  0  0  0  0  0  0
  1  2  2  0  0  0  0
  2  3  1  0  0  0  0
  2 12  1  0  0  0  0
  3  4  1  0  0  0  0
  4 11  1  0  0  0  0
  4  5  2  0  0  0  0
  5  6  1  0  0  0  0
  6  7  2  0  0  0  0
  7  8  1  0  0  0  0
  7 11  1  0  0  0  0
  8 10  1  0  0  0  0
  8  9  1  0  0  0  0
  8 20  1  0  0  0  0
  9 10  1  0  0  0  0
  9 21  1  0  0  0  0
  9 22  1  0  0  0  0
 10 23  1  0  0  0  0
 10 24  1  0  0  0  0
 12 13  1  0  0  0  0
 12 25  1  0  0  0  0
 13 18  1  0  0  0  0
 13 14  1  0  0  0  0
 13 26  1  0  0  0  0
 14 15  1  0  0  0  0
 14 27  1  0  0  0  0
 14 28  1  0  0  0  0
 15 16  1  0  0  0  0
 15 29  1  0  0  0  0
 15 30  1  0  0  0  0
 16 17  1  0  0  0  0
 16 31  1  0  0  0  0
 16 32  1  0  0  0  0
 17 18  1  0  0  0  0
 17 33  1  0  0  0  0
 17 34  1  0  0  0  0
 18 19  1  0  0  0  0
 18 35  1  0  0  0  0
 19 36  1  0  0  0  0
M  CHG  1   3  -1
M  END
> <s_m_source_file>
AV-unprocessed.smi

> <i_m_source_file_index>
1843

> <i_lp_mmshare_version>
43012

> <i_f3d_flags>
0

> <s_epik_input>
W09IXVtDQEBIXTFbQ0gyXVtDSDJdW0NIMl1bQ0gyXVtDQEhdMVtOSF1DKD1PKVtOSF1jMm5uYyhzMilbQ0hdM1tDSDJdW0NIMl0z

> <s_epik_cmdline>
J2VwaWtfcHl0aG9uJywgJy1waCcsICc3LjAnLCAnLXRuJywgJzgnLCAnLW1hJywgJzIwMCcsICctbWV0YWxfYmluZGluZycsICctaW1hZScsICc8aW5maWxlLm1hZT4nLCAnLW9tYWUnLCAnPG91dGZpbGUubWFlPic=

> <r_lp_tautomer_probability>
1

> <r_epik_Ionization_Penalty>
4.7996

> <r_epik_Ionization_Penalty_Charging>
4.64516

> <r_epik_Ionization_Penalty_Neutral>
0.154442

> <r_epik_State_Penalty>
4.64493

> <r_epik_Charging_Adjusted_Penalty>
9.29009

> <i_epik_Tot_Q>
-1

> <i_epik_Tot_abs_Q>
1

> <r_epik_Metal_State_Penalty>
0.896144

> <b_epik_Metal_Only>
1

> <s_lp_Force_Field>
OPLS_2005

> <r_lp_Energy>
6.98885

> <b_lp_Chiralities_Consistent>
1

> <s_lp_Variant>
AV-unprocessed.smi:1843-5

> <Gold.Version>
5.8.1

> <Gold.Id.Protein>
6NUR|6NUR_protein|mol2

> <Gold.PLP.Fitness>
42.2150

> <Gold.PLP.PLP>
-34.1556

> <Gold.PLP.part.hbond>
-3.0000

> <Gold.PLP.part.metal>
0.0000

> <Gold.PLP.part.buried>
-6.3920

> <Gold.PLP.part.nonpolar>
-25.7750

> <Gold.PLP.part.repulsive>
0.1924

> <Gold.PLP.ligand.clash>
0.0000

> <Gold.PLP.ligand.torsion>
0.5382

> <Gold.PLP.Chemscore.Hbond>
3.0000

> <Gold.PLP.Chemscore.CHOScore>
0.0000

> <Gold.PLP.Chemscore.Metal>
0.0000

> <Gold.Chemscore.Hbonds>
donor molecule, donor type, donor heavy atom, donor atom, acceptor molecule, acceptor atom, score
      L1  H    19    36       P1  8028  1.00
      P1  H  7997  8009       L1     1  1.00
      P1  H 10752 10763       L1     6  0.86

> <Gold.PLP.Chemscore.Internal.Correction>
0.1358

> <Gold.Rescore>
     Score         DG    S(hbond)    S(metal)    S(lipo)     H(rot)  DE(clash)    DE(int)     intcor
     19.18     -21.39       2.94        0.00      89.51       1.72       0.01       2.20       ----

> <Gold.Chemscore.Fitness>
19.1796

> <Gold.Chemscore.DG>
-21.3851

> <Gold.Chemscore.ZeroCoef>
-5.4800

> <Gold.Chemscore.Hbond>
2.9419

> <Gold.Chemscore.Metal>
0.0000

> <Gold.Chemscore.Lipo>
89.5050

> <Gold.Chemscore.Internal_Hbond>
0.0000

> <Gold.Chemscore.DEClash>
0.0050

> <Gold.Chemscore.DEInternal>
2.2004

> <Gold.Chemscore.Rot>
1.7160

> <Gold.Chemscore.Internal.Correction>
   9.000000E+99

> <Gold.Chemscore.Hbonds>
donor molecule, donor type, donor heavy atom, donor atom, acceptor molecule, acceptor atom, score
      L1  H    19    36       P1  8028  0.95
      P1  H  7997  8009       L1     1  1.00
      P1  H 10752 10763       L1     6  0.75

> <Gold.Chemscore.Hbond.Weighted>
-9.8259

> <Gold.Chemscore.Metal.Weighted>
-0.0000

> <Gold.Chemscore.Lipo.Weighted>
-10.4721

> <Gold.Chemscore.Internal_Hbond.Weighted>
0.0000

> <Gold.Chemscore.DEClash.Weighted>
0.0050

> <Gold.Chemscore.DEInternal.Weighted>
2.2004

> <Gold.Chemscore.Rot.Weighted>
4.3930

> <Gold.Chemscore.Internal.Correction.Weighted>
   9.000000E+99

> <Gold.Protein.RotatedTorsions>
[ 6907 6896 6895 6894 ] final  125.95 input  -60.11 | X-H torsion
[ 7974 7965 7964 7962 ] final  -31.56 input  175.53 | X-H torsion
[ 8008 7997 7996 7995 ] final -168.65 input   59.86 | X-H torsion
[ 10167 10162 10161 10158 ] final    3.59 input  -65.29 | X-H torsion
[ 10718 10713 10712 10709 ] final   63.13 input   66.30 | X-H torsion
[ 10763 10752 10751 10750 ] final   83.75 input  -60.55 | X-H torsion
[ 11005 11000 10999 10996 ] final  -91.62 input  -57.11 | X-H torsion

> <Gold.Protein.ActiveResidues>
 VAL166  LYS551  ARG553  GLY616  TRP617  ASP618  TYR619  PRO620  LYS621  CYS622 
 ASP623  PHE694  ASN695  SER759  ASP760  ASP761  ALA762  ILE779  LEU786  VAL792 
 PHE793  MET794  SER795  GLU796  ALA797  LYS798  CYS799  TRP800  GLU811  SER814 

> <Gold.Protein.RotatedAtoms>
  152.3947  133.6729  159.6266 H   0  0  0  0  0  0  0  0  0  0  0  0  # atno 6907 bound_to 6896
  150.7848  133.8895  159.3318 H   0  0  0  0  0  0  0  0  0  0  0  0  # atno 6908 bound_to 6896
  151.6674  135.0982  160.0242 H   0  0  0  0  0  0  0  0  0  0  0  0  # atno 6909 bound_to 6896
  146.1058  140.5683  142.8800 H   0  0  0  0  0  0  0  0  0  0  0  0  # atno 7974 bound_to 7965
  155.8943  140.1030  157.1396 H   0  0  0  0  0  0  0  0  0  0  0  0  # atno 8008 bound_to 7997
  154.4018  140.1305  156.4420 H   0  0  0  0  0  0  0  0  0  0  0  0  # atno 8009 bound_to 7997
  155.7497  140.3465  155.5146 H   0  0  0  0  0  0  0  0  0  0  0  0  # atno 8010 bound_to 7997
  140.6578  143.7382  150.7684 H   0  0  0  0  0  0  0  0  0  0  0  0  # atno 10167 bound_to 10162
  157.5950  130.9088  149.9677 H   0  0  0  0  0  0  0  0  0  0  0  0  # atno 10718 bound_to 10713
  153.1319  135.4679  154.9362 H   0  0  0  0  0  0  0  0  0  0  0  0  # atno 10763 bound_to 10752
  154.7672  135.3148  154.8265 H   0  0  0  0  0  0  0  0  0  0  0  0  # atno 10764 bound_to 10752
  153.8806  135.6894  153.4821 H   0  0  0  0  0  0  0  0  0  0  0  0  # atno 10765 bound_to 10752
  141.1540  133.7767  156.9905 H   0  0  0  0  0  0  0  0  0  0  0  0  # atno 11005 bound_to 11000
  144.7469  140.5092  143.6829 LP  0  0  0  0  0  0  0  0  0  0  0  0  # atno 17320 bound_to 7965
  145.5764  139.1486  143.3260 LP  0  0  0  0  0  0  0  0  0  0  0  0  # atno 17321 bound_to 7965
  140.1045  143.4756  152.2406 LP  0  0  0  0  0  0  0  0  0  0  0  0  # atno 17342 bound_to 10162
  139.5804  144.7508  151.3654 LP  0  0  0  0  0  0  0  0  0  0  0  0  # atno 17343 bound_to 10162
  156.1011  130.3656  150.0217 LP  0  0  0  0  0  0  0  0  0  0  0  0  # atno 17370 bound_to 10713
  156.8332  130.9400  151.3636 LP  0  0  0  0  0  0  0  0  0  0  0  0  # atno 17371 bound_to 10713
  140.1006  134.9538  157.1917 LP  0  0  0  0  0  0  0  0  0  0  0  0  # atno 17394 bound_to 11000
  140.3324  134.2795  155.7226 LP  0  0  0  0  0  0  0  0  0  0  0  0  # atno 17395 bound_to 11000

$$$$
