AV-unprocessed.smi:3287|AV-procd|sdf|12603|dock6
  -GOLD-   2272018533D 1   1.00000     0.00000
 Structure written by MMmdl.
 43 44  0  0  0  0  0  0  0  0  2 V2000
  152.5671  143.6480  162.0026 C   0  0  0  0  0  0  0  0  0  0  0  0
  152.7369  143.3427  160.5038 C   0  0  1  0  0  0  0  0  0  0  0  0
  152.7488  141.8168  160.2801 C   0  0  0  0  0  0  0  0  0  0  0  0
  152.9218  141.4468  158.7984 C   0  0  0  0  0  0  0  0  0  0  0  0
  151.8495  142.1017  157.9117 C   0  0  1  0  0  0  0  0  0  0  0  0
  150.5271  141.4795  158.1551 N   0  3  0  0  0  0  0  0  0  0  0  0
  150.1296  140.4245  157.1978 C   0  0  0  0  0  0  0  0  0  0  0  0
  150.3992  140.8563  155.7462 C   0  0  1  0  0  0  0  0  0  0  0  0
  151.5461  140.1755  155.2744 O   0  0  0  0  0  0  0  0  0  0  0  0
  149.1869  140.6004  154.8644 C   0  0  0  0  0  0  0  0  0  0  0  0
  148.3131  141.6476  154.4985 C   0  0  0  0  0  0  0  0  0  0  0  0
  147.2112  141.3482  153.6727 C   0  0  0  0  0  0  0  0  0  0  0  0
  146.9482  140.1079  153.2086 N   0  0  0  0  0  0  0  0  0  0  0  0
  147.7882  139.1108  153.5592 C   0  0  0  0  0  0  0  0  0  0  0  0
  148.9175  139.3030  154.3802 C   0  0  0  0  0  0  0  0  0  0  0  0
  151.8354  143.6279  158.1387 C   0  0  0  0  0  0  0  0  0  0  0  0
  151.6535  144.0187  159.6218 C   0  0  2  0  0  0  0  0  0  0  0  0
  151.6429  145.5519  159.7573 C   0  0  0  0  0  0  0  0  0  0  0  0
  151.5798  143.3525  162.3592 H   0  0  0  0  0  0  0  0  0  0  0  0
  152.6991  144.7079  162.2183 H   0  0  0  0  0  0  0  0  0  0  0  0
  153.3075  143.1118  162.5971 H   0  0  0  0  0  0  0  0  0  0  0  0
  153.7114  143.7286  160.1999 H   0  0  0  0  0  0  0  0  0  0  0  0
  153.5557  141.3643  160.8578 H   0  0  0  0  0  0  0  0  0  0  0  0
  151.8237  141.3819  160.6609 H   0  0  0  0  0  0  0  0  0  0  0  0
  153.9091  141.7706  158.4657 H   0  0  0  0  0  0  0  0  0  0  0  0
  152.9033  140.3630  158.6783 H   0  0  0  0  0  0  0  0  0  0  0  0
  152.1149  141.9037  156.8723 H   0  0  0  0  0  0  0  0  0  0  0  0
  150.5508  141.0583  159.0726 H   0  0  0  0  0  0  0  0  0  0  0  0
  150.6598  139.4969  157.4138 H   0  0  0  0  0  0  0  0  0  0  0  0
  149.0653  140.2222  157.3262 H   0  0  0  0  0  0  0  0  0  0  0  0
  150.6223  141.9241  155.7226 H   0  0  0  0  0  0  0  0  0  0  0  0
  152.2681  140.3667  155.8545 H   0  0  0  0  0  0  0  0  0  0  0  0
  148.4791  142.6593  154.8389 H   0  0  0  0  0  0  0  0  0  0  0  0
  146.5240  142.1267  153.3758 H   0  0  0  0  0  0  0  0  0  0  0  0
  147.5544  138.1296  153.1727 H   0  0  0  0  0  0  0  0  0  0  0  0
  149.5584  138.4697  154.6284 H   0  0  0  0  0  0  0  0  0  0  0  0
  152.7809  144.0388  157.7813 H   0  0  0  0  0  0  0  0  0  0  0  0
  151.0671  144.1008  157.5276 H   0  0  0  0  0  0  0  0  0  0  0  0
  150.6762  143.6583  159.9464 H   0  0  0  0  0  0  0  0  0  0  0  0
  152.6180  145.9785  159.5203 H   0  0  0  0  0  0  0  0  0  0  0  0
  151.3735  145.8687  160.7644 H   0  0  0  0  0  0  0  0  0  0  0  0
  150.9136  145.9991  159.0812 H   0  0  0  0  0  0  0  0  0  0  0  0
  149.8213  142.2024  158.1557 H   0  0  0  0  0  0  0  0  0  0  0  0
  1  2  1  0  0  0  0
  1 19  1  0  0  0  0
  1 20  1  0  0  0  0
  1 21  1  0  0  0  0
  2 17  1  0  0  0  0
  2  3  1  0  0  0  0
  2 22  1  0  0  0  0
  3  4  1  0  0  0  0
  3 23  1  0  0  0  0
  3 24  1  0  0  0  0
  4  5  1  0  0  0  0
  4 25  1  0  0  0  0
  4 26  1  0  0  0  0
  5  6  1  0  0  0  0
  5 16  1  0  0  0  0
  5 27  1  0  0  0  0
  6  7  1  0  0  0  0
  6 28  1  0  0  0  0
  6 43  1  0  0  0  0
  7  8  1  0  0  0  0
  7 29  1  0  0  0  0
  7 30  1  0  0  0  0
  8  9  1  0  0  0  0
  8 10  1  0  0  0  0
  8 31  1  0  0  0  0
  9 32  1  0  0  0  0
 10 15  1  0  0  0  0
 10 11  2  0  0  0  0
 11 12  1  0  0  0  0
 11 33  1  0  0  0  0
 12 13  2  0  0  0  0
 12 34  1  0  0  0  0
 13 14  1  0  0  0  0
 14 15  2  0  0  0  0
 14 35  1  0  0  0  0
 15 36  1  0  0  0  0
 16 17  1  0  0  0  0
 16 37  1  0  0  0  0
 16 38  1  0  0  0  0
 17 18  1  0  0  0  0
 17 39  1  0  0  0  0
 18 40  1  0  0  0  0
 18 41  1  0  0  0  0
 18 42  1  0  0  0  0
M  CHG  1   6   1
M  END
> <s_m_source_file>
AV-unprocessed.smi

> <i_m_source_file_index>
3287

> <i_lp_mmshare_version>
43012

> <i_f3d_flags>
0

> <s_epik_input>
W0NIM11bQ0BASF0xW0NIMl1bQ0gyXVtDQEhdKFtDSDJdW0NASF0xW0NIM10pW05IXVtDSDJdW0NASF0oW09IXSljMltjSF1bY0hdbltjSF1bY0hdMg==

> <s_epik_cmdline>
J2VwaWtfcHl0aG9uJywgJy1waCcsICc3LjAnLCAnLXRuJywgJzgnLCAnLW1hJywgJzIwMCcsICctbWV0YWxfYmluZGluZycsICctaW1hZScsICc8aW5maWxlLm1hZT4nLCAnLW9tYWUnLCAnPG91dGZpbGUubWFlPic=

> <r_lp_tautomer_probability>
1

> <r_epik_Ionization_Penalty>
0.00537262

> <r_epik_Ionization_Penalty_Charging>
0.00321624

> <r_epik_Ionization_Penalty_Neutral>
0.00215638

> <r_epik_State_Penalty>
-0

> <r_epik_Charging_Adjusted_Penalty>
0.00321624

> <i_epik_Tot_Q>
1

> <i_epik_Tot_abs_Q>
1

> <r_epik_Metal_State_Penalty>
-0

> <b_epik_Metal_Only>
0

> <s_lp_Force_Field>
OPLS_2005

> <r_lp_Energy>
19.4184

> <b_lp_Chiralities_Consistent>
1

> <s_lp_Variant>
AV-unprocessed.smi:3287-14

> <Gold.Version>
5.8.1

> <Gold.Id.Protein>
6NUR|6NUR_protein|mol2

> <Gold.PLP.Fitness>
45.4320

> <Gold.PLP.PLP>
-43.2028

> <Gold.PLP.part.hbond>
-1.0000

> <Gold.PLP.part.metal>
0.0000

> <Gold.PLP.part.buried>
-5.7599

> <Gold.PLP.part.nonpolar>
-37.0024

> <Gold.PLP.part.repulsive>
0.3247

> <Gold.PLP.ligand.clash>
0.0000

> <Gold.PLP.ligand.torsion>
1.7454

> <Gold.PLP.Chemscore.Hbond>
0.9120

> <Gold.PLP.Chemscore.CHOScore>
0.9896

> <Gold.PLP.Chemscore.Metal>
0.0000

> <Gold.Chemscore.Hbonds>
donor molecule, donor type, donor heavy atom, donor atom, acceptor molecule, acceptor atom, score
      P1  H  7989  7998       L1     9  0.98
      L1  C    14    35       P1  7948  0.61

> <Gold.PLP.Chemscore.Internal.Correction>
0.0152

> <Gold.Rescore>
     Score         DG    S(hbond)    S(metal)    S(lipo)     H(rot)  DE(clash)    DE(int)     intcor
     16.18     -18.24       0.71        0.00     130.53       1.90       0.05       2.00       ----

> <Gold.Chemscore.Fitness>
16.1833

> <Gold.Chemscore.DG>
-18.2352

> <Gold.Chemscore.ZeroCoef>
-5.4800

> <Gold.Chemscore.Hbond>
0.7056

> <Gold.Chemscore.Metal>
0.0000

> <Gold.Chemscore.Lipo>
130.5251

> <Gold.Chemscore.Internal_Hbond>
0.0000

> <Gold.Chemscore.DEClash>
0.0475

> <Gold.Chemscore.DEInternal>
2.0043

> <Gold.Chemscore.Rot>
1.9035

> <Gold.Chemscore.Internal.Correction>
   9.000000E+99

> <Gold.Chemscore.Hbonds>
donor molecule, donor type, donor heavy atom, donor atom, acceptor molecule, acceptor atom, score
      P1  H  7989  7998       L1     9  0.23

> <Gold.Chemscore.Hbond.Weighted>
-2.3566

> <Gold.Chemscore.Metal.Weighted>
-0.0000

> <Gold.Chemscore.Lipo.Weighted>
-15.2714

> <Gold.Chemscore.Internal_Hbond.Weighted>
0.0000

> <Gold.Chemscore.DEClash.Weighted>
0.0475

> <Gold.Chemscore.DEInternal.Weighted>
2.0043

> <Gold.Chemscore.Rot.Weighted>
4.8729

> <Gold.Chemscore.Internal.Correction.Weighted>
   9.000000E+99

> <Gold.Protein.RotatedTorsions>
[ 6907 6896 6895 6894 ] final   80.56 input  -60.11 | X-H torsion
[ 7974 7965 7964 7962 ] final   69.95 input  175.53 | X-H torsion
[ 8008 7997 7996 7995 ] final  -96.55 input   59.86 | X-H torsion
[ 10167 10162 10161 10158 ] final  -42.50 input  -65.29 | X-H torsion
[ 10718 10713 10712 10709 ] final  -45.71 input   66.30 | X-H torsion
[ 10763 10752 10751 10750 ] final  -48.74 input  -60.55 | X-H torsion
[ 11005 11000 10999 10996 ] final -139.75 input  -57.11 | X-H torsion

> <Gold.Protein.ActiveResidues>
 VAL166  LYS551  ARG553  GLY616  TRP617  ASP618  TYR619  PRO620  LYS621  CYS622 
 ASP623  PHE694  ASN695  SER759  ASP760  ASP761  ALA762  ILE779  LEU786  VAL792 
 PHE793  MET794  SER795  GLU796  ALA797  LYS798  CYS799  TRP800  GLU811  SER814 

> <Gold.Protein.RotatedAtoms>
  152.5239  134.3339  159.9192 H   0  0  0  0  0  0  0  0  0  0  0  0  # atno 6907 bound_to 6896
  151.3288  133.4002  159.2668 H   0  0  0  0  0  0  0  0  0  0  0  0  # atno 6908 bound_to 6896
  150.9897  134.9252  159.7950 H   0  0  0  0  0  0  0  0  0  0  0  0  # atno 6909 bound_to 6896
  145.7841  139.2902  143.1248 H   0  0  0  0  0  0  0  0  0  0  0  0  # atno 7974 bound_to 7965
  154.7759  140.0470  157.1089 H   0  0  0  0  0  0  0  0  0  0  0  0  # atno 8008 bound_to 7997
  154.9763  140.3096  155.4946 H   0  0  0  0  0  0  0  0  0  0  0  0  # atno 8009 bound_to 7997
  156.2929  140.2244  156.4859 H   0  0  0  0  0  0  0  0  0  0  0  0  # atno 8010 bound_to 7997
  140.6967  143.3034  151.3218 H   0  0  0  0  0  0  0  0  0  0  0  0  # atno 10167 bound_to 10162
  156.2255  130.4169  149.8939 H   0  0  0  0  0  0  0  0  0  0  0  0  # atno 10718 bound_to 10713
  154.0827  135.6589  153.4840 H   0  0  0  0  0  0  0  0  0  0  0  0  # atno 10763 bound_to 10752
  153.0350  135.5183  154.7458 H   0  0  0  0  0  0  0  0  0  0  0  0  # atno 10764 bound_to 10752
  154.6558  135.3008  154.9897 H   0  0  0  0  0  0  0  0  0  0  0  0  # atno 10765 bound_to 10752
  140.8489  134.2310  157.4771 H   0  0  0  0  0  0  0  0  0  0  0  0  # atno 11005 bound_to 11000
  146.0044  140.8492  143.0002 LP  0  0  0  0  0  0  0  0  0  0  0  0  # atno 17320 bound_to 7965
  144.6792  140.2398  143.7345 LP  0  0  0  0  0  0  0  0  0  0  0  0  # atno 17321 bound_to 7965
  139.6431  144.0502  152.2569 LP  0  0  0  0  0  0  0  0  0  0  0  0  # atno 17342 bound_to 10162
  140.0014  144.6290  150.7726 LP  0  0  0  0  0  0  0  0  0  0  0  0  # atno 17343 bound_to 10162
  156.6571  130.8767  151.3541 LP  0  0  0  0  0  0  0  0  0  0  0  0  # atno 17370 bound_to 10713
  157.7108  130.9438  150.1084 LP  0  0  0  0  0  0  0  0  0  0  0  0  # atno 17371 bound_to 10713
  139.8704  134.9673  156.4593 LP  0  0  0  0  0  0  0  0  0  0  0  0  # atno 17394 bound_to 11000
  140.8812  133.7916  155.9469 LP  0  0  0  0  0  0  0  0  0  0  0  0  # atno 17395 bound_to 11000

$$$$
