#       Name:                AV-unprocessed.smi:189
#       Creating user name   scv26
#       Creation time:       Thu Mar 26 19:30:47 2020


#       File generated by GOLD software.
#

@<TRIPOS>MOLECULE
AV-unprocessed.smi:189
    61    65     1
SMALL
NO_CHARGES


@<TRIPOS>ATOM
      1 ****        -1.6296  -0.5281   2.0783 C.3            1 S1                 0.0000
      2 ****        -2.3253  -0.8221   0.7326 C.3            1 S1                 0.0000
      3 ****        -3.8564  -0.6208   0.8487 C.3            1 S1                 0.0000
      4 ****        -4.2154   0.1520  -0.4168 C.3            1 S1                 0.0000
      5 ****        -5.4701   1.0332  -0.4116 C.3            1 S1                 0.0000
      6 ****        -5.5748   1.7658  -1.7659 C.3            1 S1                 0.0000
      7 ****        -4.2794   2.5295  -2.1247 C.3            1 S1                 0.0000
      8 ****        -3.0218   1.6396  -2.0306 C.3            1 S1                 0.0000
      9 ****        -2.9679   0.9957  -0.6325 C.3            1 S1                 0.0000
     10 ****        -1.8957   0.0472  -0.3727 N.3            1 S1                 0.0000
     11 ****        -0.5852   0.3823  -0.4834 C.ar           1 S1                 0.0000
     12 ****        -0.2174   1.6905  -0.4909 N.ar           1 S1                 0.0000
     13 ****         1.0720   2.0274  -0.5854 C.ar           1 S1                 0.0000
     14 ****         2.1384   1.2302  -0.6746 N.ar           1 S1                 0.0000
     15 ****         1.7757  -0.0844  -0.6608 C.ar           1 S1                 0.0000
     16 ****         0.4486  -0.5909  -0.5712 C.ar           1 S1                 0.0000
     17 ****         0.4688  -1.9801  -0.5935 N.2            1 S1                 0.0000
     18 ****         1.7360  -2.2781  -0.6828 C.2            1 S1                 0.0000
     19 ****         2.5918  -1.2005  -0.7221 N.pl3          1 S1                 0.0000
     20 ****         4.0428  -1.2465  -0.8155 C.3            1 S1                 0.0000
     21 ****         4.7388  -1.4317   0.5530 C.3            1 S1                 0.0000
     22 ****         4.3695  -2.6905   1.0898 O.3            1 S1                 0.0000
     23 ****         4.4041  -0.3508   1.5773 C.3            1 S1                 0.0000
     24 ****         5.6803  -0.2588   2.4020 C.3            1 S1                 0.0000
     25 ****         6.6927  -0.3923   1.4190 O.3            1 S1                 0.0000
     26 ****         6.2772  -1.3700   0.4704 C.3            1 S1                 0.0000
     27 ****        -2.0456  -1.1497   2.8716 H              1 S1                 0.0000
     28 ****        -1.7574   0.5144   2.3720 H              1 S1                 0.0000
     29 ****        -0.5604  -0.7354   2.0393 H              1 S1                 0.0000
     30 ****        -2.1278  -1.8534   0.4383 H              1 S1                 0.0000
     31 ****        -4.3970  -1.5642   0.9283 H              1 S1                 0.0000
     32 ****        -4.1043  -0.0217   1.7261 H              1 S1                 0.0000
     33 ****        -4.3015  -0.5711  -1.2308 H              1 S1                 0.0000
     34 ****        -6.3597   0.4266  -0.2402 H              1 S1                 0.0000
     35 ****        -5.4186   1.7580   0.4019 H              1 S1                 0.0000
     36 ****        -5.7868   1.0379  -2.5500 H              1 S1                 0.0000
     37 ****        -6.4203   2.4540  -1.7522 H              1 S1                 0.0000
     38 ****        -4.3622   2.9488  -3.1277 H              1 S1                 0.0000
     39 ****        -4.1666   3.3773  -1.4479 H              1 S1                 0.0000
     40 ****        -3.0514   0.8678  -2.8007 H              1 S1                 0.0000
     41 ****        -2.1359   2.2420  -2.2274 H              1 S1                 0.0000
     42 ****        -2.9163   1.7803   0.1252 H              1 S1                 0.0000
     43 ****         1.2784   3.0876  -0.5875 H              1 S1                 0.0000
     44 ****         2.0856  -3.2997  -0.7174 H              1 S1                 0.0000
     45 ****         4.3173  -2.0568  -1.4922 H              1 S1                 0.0000
     46 ****         4.3838  -0.3254  -1.2899 H              1 S1                 0.0000
     47 ****         4.8065  -2.8013   1.9206 H              1 S1                 0.0000
     48 ****         4.2447   0.6057   1.0785 H              1 S1                 0.0000
     49 ****         3.5168  -0.5661   2.1743 H              1 S1                 0.0000
     50 ****         5.7666   0.6828   2.9445 H              1 S1                 0.0000
     51 ****         5.7479  -1.0798   3.1175 H              1 S1                 0.0000
     52 ****         6.7405  -2.3294   0.7070 H              1 S1                 0.0000
     53 ****         6.6279  -1.0750  -0.5193 H              1 S1                 0.0000
     54 ****        -1.7868  -0.4801  -1.2153 LP             1 S1                 0.0000
     55 ****        -0.9149   2.4041  -0.4254 LP             1 S1                 0.0000
     56 ****         3.0817   1.5548  -0.7427 LP             1 S1                 0.0000
     57 ****        -0.3090  -2.6073  -0.5509 LP             1 S1                 0.0000
     58 ****         4.6462  -3.4190   0.4631 LP             1 S1                 0.0000
     59 ****         3.3788  -2.7234   1.2225 LP             1 S1                 0.0000
     60 ****         7.5461  -0.6835   1.8514 LP             1 S1                 0.0000
     61 ****         6.8341   0.4845   0.9595 LP             1 S1                 0.0000
@<TRIPOS>BOND
    1    1    2 1     
    2    1   27 1     
    3    1   28 1     
    4    1   29 1     
    5    2   10 1     
    6    2    3 1     
    7    2   30 1     
    8    3    4 1     
    9    3   31 1     
   10    3   32 1     
   11    4    9 1     
   12    4    5 1     
   13    4   33 1     
   14    5    6 1     
   15    5   34 1     
   16    5   35 1     
   17    6    7 1     
   18    6   36 1     
   19    6   37 1     
   20    7    8 1     
   21    7   38 1     
   22    7   39 1     
   23    8    9 1     
   24    8   40 1     
   25    8   41 1     
   26    9   10 1     
   27    9   42 1     
   28   10   11 1     
   29   11   16 ar    
   30   11   12 ar    
   31   12   13 ar    
   32   13   14 ar    
   33   13   43 1     
   34   14   15 ar    
   35   15   19 1     
   36   15   16 ar    
   37   16   17 1     
   38   17   18 2     
   39   18   19 1     
   40   18   44 1     
   41   19   20 1     
   42   20   21 1     
   43   20   45 1     
   44   20   46 1     
   45   21   26 1     
   46   21   22 1     
   47   21   23 1     
   48   22   47 1     
   49   23   24 1     
   50   23   48 1     
   51   23   49 1     
   52   24   25 1     
   53   24   50 1     
   54   24   51 1     
   55   25   26 1     
   56   26   52 1     
   57   26   53 1     
   58   10   54 1     
   59   12   55 1     
   60   14   56 1     
   61   17   57 1     
   62   22   58 1     
   63   22   59 1     
   64   25   60 1     
   65   25   61 1     
@<TRIPOS>SUBSTRUCTURE
      1 S1             1
@<TRIPOS>SET
LONE_PAIRS      STATIC     ATOMS    <user>   **** ""
8 54 55 56 57 58 59 60 61
DONOR_HYDROGENS      STATIC     ATOMS    <user>   **** ""
1 47
ATOM$BLUE        STATIC     ATOMS    COLORGROUP SYSTEM
8 54 55 56 57 58 59 60 61
ATOM$RED        STATIC     ATOMS    COLORGROUP SYSTEM
1 47
