AV-unprocessed.smi:1472|AV-procd|sdf|5965|dock6
  -GOLD-   22720 6 53D 1   1.00000     0.00000
 Structure written by MMmdl.
 42 43  0  0  0  0  0  0  0  0  2 V2000
  150.4873  141.8529  158.0625 C   0  0  0  0  0  0  0  0  0  0  0  0
  150.9942  140.2424  157.3323 S   0  0  0  0  0  0  0  0  0  0  0  0
  152.4506  140.1062  157.4863 O   0  0  0  0  0  0  0  0  0  0  0  0
  150.1045  139.1987  157.8643 O   0  0  0  0  0  0  0  0  0  0  0  0
  150.6507  140.4183  155.6352 N   0  0  0  0  0  0  0  0  0  0  0  0
  150.6972  139.2388  154.7491 C   0  0  0  0  0  0  0  0  0  0  0  0
  149.2871  138.7083  154.4328 C   0  0  0  0  0  0  0  0  0  0  0  0
  148.3789  139.8142  153.8636 C   0  0  0  0  0  0  0  0  0  0  0  0
  146.9519  139.3157  153.5486 C   0  0  0  0  0  0  0  0  0  0  0  0
  146.9440  138.0370  152.8436 N   0  0  0  0  0  0  0  0  0  0  0  0
  145.9122  137.1815  152.8139 C   0  0  0  0  0  0  0  0  0  0  0  0
  144.8505  137.3797  153.4041 O   0  0  0  0  0  0  0  0  0  0  0  0
  146.2002  136.0930  152.0791 N   0  0  0  0  0  0  0  0  0  0  0  0
  145.3615  134.9888  151.7643 C   0  0  0  0  0  0  0  0  0  0  0  0
  144.0591  134.9793  152.3118 C   0  0  0  0  0  0  0  0  0  0  0  0
  143.1987  133.8950  152.0432 C   0  0  0  0  0  0  0  0  0  0  0  0
  143.6268  132.8714  151.2738 N   0  3  0  0  0  0  0  0  0  0  0  0
  144.8662  132.8288  150.7398 C   0  0  0  0  0  0  0  0  0  0  0  0
  145.7711  133.8842  150.9741 C   0  0  0  0  0  0  0  0  0  0  0  0
  148.3495  140.9870  154.8566 C   0  0  0  0  0  0  0  0  0  0  0  0
  149.7651  141.5030  155.1681 C   0  0  0  0  0  0  0  0  0  0  0  0
  150.6791  141.8327  159.1349 H   0  0  0  0  0  0  0  0  0  0  0  0
  149.4237  142.0158  157.8985 H   0  0  0  0  0  0  0  0  0  0  0  0
  151.0624  142.6614  157.6153 H   0  0  0  0  0  0  0  0  0  0  0  0
  151.1950  139.5254  153.8221 H   0  0  0  0  0  0  0  0  0  0  0  0
  151.3075  138.4537  155.1947 H   0  0  0  0  0  0  0  0  0  0  0  0
  149.3728  137.8861  153.7219 H   0  0  0  0  0  0  0  0  0  0  0  0
  148.8357  138.2864  155.3298 H   0  0  0  0  0  0  0  0  0  0  0  0
  148.8258  140.1769  152.9366 H   0  0  0  0  0  0  0  0  0  0  0  0
  146.3877  139.1938  154.4737 H   0  0  0  0  0  0  0  0  0  0  0  0
  146.4130  140.0590  152.9583 H   0  0  0  0  0  0  0  0  0  0  0  0
  147.7833  137.7929  152.3384 H   0  0  0  0  0  0  0  0  0  0  0  0
  147.1472  136.0297  151.7348 H   0  0  0  0  0  0  0  0  0  0  0  0
  143.7160  135.7968  152.9297 H   0  0  0  0  0  0  0  0  0  0  0  0
  142.1895  133.8157  152.4200 H   0  0  0  0  0  0  0  0  0  0  0  0
  145.0990  131.9540  150.1502 H   0  0  0  0  0  0  0  0  0  0  0  0
  146.7634  133.8182  150.5546 H   0  0  0  0  0  0  0  0  0  0  0  0
  147.7528  141.8031  154.4476 H   0  0  0  0  0  0  0  0  0  0  0  0
  147.8524  140.6817  155.7766 H   0  0  0  0  0  0  0  0  0  0  0  0
  149.7238  142.3047  155.9049 H   0  0  0  0  0  0  0  0  0  0  0  0
  150.2006  141.9373  154.2674 H   0  0  0  0  0  0  0  0  0  0  0  0
  142.9892  132.0955  151.0928 H   0  0  0  0  0  0  0  0  0  0  0  0
  1  2  1  0  0  0  0
  1 22  1  0  0  0  0
  1 23  1  0  0  0  0
  1 24  1  0  0  0  0
  2  3  2  0  0  0  0
  2  4  2  0  0  0  0
  2  5  1  0  0  0  0
  5 21  1  0  0  0  0
  5  6  1  0  0  0  0
  6  7  1  0  0  0  0
  6 25  1  0  0  0  0
  6 26  1  0  0  0  0
  7  8  1  0  0  0  0
  7 27  1  0  0  0  0
  7 28  1  0  0  0  0
  8  9  1  0  0  0  0
  8 20  1  0  0  0  0
  8 29  1  0  0  0  0
  9 10  1  0  0  0  0
  9 30  1  0  0  0  0
  9 31  1  0  0  0  0
 10 11  1  0  0  0  0
 10 32  1  0  0  0  0
 11 12  2  0  0  0  0
 11 13  1  0  0  0  0
 13 14  1  0  0  0  0
 13 33  1  0  0  0  0
 14 19  1  0  0  0  0
 14 15  2  0  0  0  0
 15 16  1  0  0  0  0
 15 34  1  0  0  0  0
 16 17  2  0  0  0  0
 16 35  1  0  0  0  0
 17 18  1  0  0  0  0
 17 42  1  0  0  0  0
 18 19  2  0  0  0  0
 18 36  1  0  0  0  0
 19 37  1  0  0  0  0
 20 21  1  0  0  0  0
 20 38  1  0  0  0  0
 20 39  1  0  0  0  0
 21 40  1  0  0  0  0
 21 41  1  0  0  0  0
M  CHG  1  17   1
M  END
> <s_m_source_file>
AV-unprocessed.smi

> <i_m_source_file_index>
1472

> <i_lp_mmshare_version>
43012

> <i_f3d_flags>
0

> <s_epik_input>
W0NIM11TKD1PKSg9TylOMVtDSDJdW0NIMl1bQ0hdKFtDSDJdW0NIMl0xKVtDSDJdW05IXUMoPU8pW05IXWMyW2NIXVtjSF1uW2NIXVtjSF0y

> <s_epik_cmdline>
J2VwaWtfcHl0aG9uJywgJy1waCcsICc3LjAnLCAnLXRuJywgJzgnLCAnLW1hJywgJzIwMCcsICctbWV0YWxfYmluZGluZycsICctaW1hZScsICc8aW5maWxlLm1hZT4nLCAnLW9tYWUnLCAnPG91dGZpbGUubWFlPic=

> <r_epik_Ionization_Penalty>
1.02593

> <r_epik_Ionization_Penalty_Charging>
1.02591

> <r_epik_Ionization_Penalty_Neutral>
2.05222e-05

> <r_epik_State_Penalty>
1.07662

> <r_epik_Charging_Adjusted_Penalty>
2.10252

> <i_epik_Tot_Q>
1

> <i_epik_Tot_abs_Q>
1

> <r_epik_Metal_State_Penalty>
1.17465

> <b_epik_Metal_Only>
0

> <s_lp_Force_Field>
OPLS_2005

> <r_lp_Energy>
12.5629

> <b_lp_Chiralities_Consistent>
1

> <s_lp_Variant>
AV-unprocessed.smi:1472-2

> <Gold.Version>
5.8.1

> <Gold.Id.Protein>
6NUR|6NUR_protein|mol2

> <Gold.PLP.Fitness>
42.4383

> <Gold.PLP.PLP>
-34.7787

> <Gold.PLP.part.hbond>
-3.0000

> <Gold.PLP.part.metal>
0.0000

> <Gold.PLP.part.buried>
-3.2676

> <Gold.PLP.part.nonpolar>
-29.1031

> <Gold.PLP.part.repulsive>
0.2714

> <Gold.PLP.ligand.clash>
0.0000

> <Gold.PLP.ligand.torsion>
1.4702

> <Gold.PLP.Chemscore.Hbond>
2.8480

> <Gold.PLP.Chemscore.CHOScore>
0.0000

> <Gold.PLP.Chemscore.Metal>
0.0000

> <Gold.Chemscore.Hbonds>
donor molecule, donor type, donor heavy atom, donor atom, acceptor molecule, acceptor atom, score
      L1  H    10    32       P1  7948  0.86
      L1  H    13    33       P1  7948  1.00
      P1  H  7997  8010       L1     3  0.84

> <Gold.PLP.Chemscore.Internal.Correction>
2.0561

> <Gold.Rescore>
     Score         DG    S(hbond)    S(metal)    S(lipo)     H(rot)  DE(clash)    DE(int)     intcor
     17.01     -20.16       2.90        0.00      71.17       1.30       0.19       2.96       ----

> <Gold.Chemscore.Fitness>
17.0143

> <Gold.Chemscore.DG>
-20.1638

> <Gold.Chemscore.ZeroCoef>
-5.4800

> <Gold.Chemscore.Hbond>
2.9022

> <Gold.Chemscore.Metal>
0.0000

> <Gold.Chemscore.Lipo>
71.1664

> <Gold.Chemscore.Internal_Hbond>
0.0000

> <Gold.Chemscore.DEClash>
0.1941

> <Gold.Chemscore.DEInternal>
2.9554

> <Gold.Chemscore.Rot>
1.3031

> <Gold.Chemscore.Internal.Correction>
   9.000000E+99

> <Gold.Chemscore.Hbonds>
donor molecule, donor type, donor heavy atom, donor atom, acceptor molecule, acceptor atom, score
      L1  H    10    32       P1  7948  0.82
      L1  H    13    33       P1  7948  0.99
      P1  H  7997  8010       L1     3  0.80

> <Gold.Chemscore.Hbond.Weighted>
-9.6933

> <Gold.Chemscore.Metal.Weighted>
-0.0000

> <Gold.Chemscore.Lipo.Weighted>
-8.3265

> <Gold.Chemscore.Internal_Hbond.Weighted>
0.0000

> <Gold.Chemscore.DEClash.Weighted>
0.1941

> <Gold.Chemscore.DEInternal.Weighted>
2.9554

> <Gold.Chemscore.Rot.Weighted>
3.3359

> <Gold.Chemscore.Internal.Correction.Weighted>
   9.000000E+99

> <Gold.Protein.RotatedTorsions>
[ 6907 6896 6895 6894 ] final   89.47 input  -60.11 | X-H torsion
[ 7974 7965 7964 7962 ] final -151.26 input  175.53 | X-H torsion
[ 8008 7997 7996 7995 ] final   56.13 input   59.86 | X-H torsion
[ 10167 10162 10161 10158 ] final -116.42 input  -65.29 | X-H torsion
[ 10718 10713 10712 10709 ] final  139.89 input   66.30 | X-H torsion
[ 10763 10752 10751 10750 ] final   43.22 input  -60.55 | X-H torsion
[ 11005 11000 10999 10996 ] final  -72.97 input  -57.11 | X-H torsion

> <Gold.Protein.ActiveResidues>
 VAL166  LYS551  ARG553  GLY616  TRP617  ASP618  TYR619  PRO620  LYS621  CYS622 
 ASP623  PHE694  ASN695  SER759  ASP760  ASP761  ALA762  ILE779  LEU786  VAL792 
 PHE793  MET794  SER795  GLU796  ALA797  LYS798  CYS799  TRP800  GLU811  SER814 

> <Gold.Protein.RotatedAtoms>
  152.5436  134.1961  159.8693 H   0  0  0  0  0  0  0  0  0  0  0  0  # atno 6907 bound_to 6896
  151.1953  133.4636  159.2603 H   0  0  0  0  0  0  0  0  0  0  0  0  # atno 6908 bound_to 6896
  151.1043  135.0002  159.8519 H   0  0  0  0  0  0  0  0  0  0  0  0  # atno 6909 bound_to 6896
  144.7860  140.4822  143.5806 H   0  0  0  0  0  0  0  0  0  0  0  0  # atno 7974 bound_to 7965
  155.5124  140.3477  155.4391 H   0  0  0  0  0  0  0  0  0  0  0  0  # atno 8008 bound_to 7997
  156.0840  140.1394  156.9704 H   0  0  0  0  0  0  0  0  0  0  0  0  # atno 8009 bound_to 7997
  154.4596  140.0940  156.6832 H   0  0  0  0  0  0  0  0  0  0  0  0  # atno 8010 bound_to 7997
  140.0794  143.4802  152.1934 H   0  0  0  0  0  0  0  0  0  0  0  0  # atno 10167 bound_to 10162
  157.4094  131.1026  151.0470 H   0  0  0  0  0  0  0  0  0  0  0  0  # atno 10718 bound_to 10713
  152.9865  135.6108  154.3076 H   0  0  0  0  0  0  0  0  0  0  0  0  # atno 10763 bound_to 10752
  154.2793  135.2777  155.2706 H   0  0  0  0  0  0  0  0  0  0  0  0  # atno 10764 bound_to 10752
  154.5052  135.5856  153.6618 H   0  0  0  0  0  0  0  0  0  0  0  0  # atno 10765 bound_to 10752
  141.1616  133.6863  156.7141 H   0  0  0  0  0  0  0  0  0  0  0  0  # atno 11005 bound_to 11000
  145.5921  139.1496  143.3176 LP  0  0  0  0  0  0  0  0  0  0  0  0  # atno 17320 bound_to 7965
  146.2092  140.6046  142.9067 LP  0  0  0  0  0  0  0  0  0  0  0  0  # atno 17321 bound_to 7965
  139.5788  144.7500  151.3694 LP  0  0  0  0  0  0  0  0  0  0  0  0  # atno 17342 bound_to 10162
  140.7085  143.7451  150.7525 LP  0  0  0  0  0  0  0  0  0  0  0  0  # atno 17343 bound_to 10162
  157.1440  130.6155  149.5563 LP  0  0  0  0  0  0  0  0  0  0  0  0  # atno 17370 bound_to 10713
  155.9846  130.4872  150.6991 LP  0  0  0  0  0  0  0  0  0  0  0  0  # atno 17371 bound_to 10713
  140.2865  134.8275  157.3979 LP  0  0  0  0  0  0  0  0  0  0  0  0  # atno 17394 bound_to 11000
  140.1385  134.5002  155.8049 LP  0  0  0  0  0  0  0  0  0  0  0  0  # atno 17395 bound_to 11000

$$$$
