AV-unprocessed.smi:524|AV-procd|sdf|2806|dock3
  -GOLD-   2262023283D 1   1.00000     0.00000
 Structure written by MMmdl.
 42 44  0  0  0  0  0  0  0  0  2 V2000
  148.7764  140.9255  154.1547 C   0  0  0  0  0  0  0  0  0  0  0  0
  150.1186  140.4938  154.2832 O   0  0  0  0  0  0  0  0  0  0  0  0
  150.4097  139.9914  155.5773 C   0  0  0  0  0  0  0  0  0  0  0  0
  151.7437  140.5726  156.0653 C   0  0  0  0  0  0  0  0  0  0  0  0
  152.1823  139.9592  157.3185 N   0  0  0  0  0  0  0  0  0  0  0  0
  152.2889  140.5218  158.5554 C   0  0  0  0  0  0  0  0  0  0  0  0
  151.9312  141.8465  158.8196 N   0  0  0  0  0  0  0  0  0  0  0  0
  152.2689  142.5360  160.0648 C   0  0  0  0  0  0  0  0  0  0  0  0
  152.8818  143.9228  159.7976 C   0  0  0  0  0  0  0  0  0  0  0  0
  151.9280  144.7894  158.9642 C   0  0  0  0  0  0  0  0  0  0  0  0
  151.4908  144.0247  157.7076 C   0  0  0  0  0  0  0  0  0  0  0  0
  150.9409  142.6381  158.0880 C   0  0  0  0  0  0  0  0  0  0  0  0
  152.8004  139.7152  159.4880 N   0  0  0  0  0  0  0  0  0  0  0  0
  153.0133  138.5323  158.7989 C   0  0  0  0  0  0  0  0  0  0  0  0
  152.6589  138.6546  157.4920 C   0  0  0  0  0  0  0  0  0  0  0  0
  152.8083  137.5690  156.4962 C   0  0  0  0  0  0  0  0  0  0  0  0
  152.4997  137.7386  155.3184 O   0  0  0  0  0  0  0  0  0  0  0  0
  153.3151  136.4229  157.0516 N   0  5  0  0  0  0  0  0  0  0  0  0
  153.6779  136.2535  158.3704 C   0  0  0  0  0  0  0  0  0  0  0  0
  154.1294  135.1865  158.7885 O   0  0  0  0  0  0  0  0  0  0  0  0
  153.5400  137.2923  159.2530 N   0  0  0  0  0  0  0  0  0  0  0  0
  153.9274  137.1441  160.6588 C   0  0  0  0  0  0  0  0  0  0  0  0
  148.6063  141.2925  153.1426 H   0  0  0  0  0  0  0  0  0  0  0  0
  148.5560  141.7374  154.8490 H   0  0  0  0  0  0  0  0  0  0  0  0
  148.0794  140.1070  154.3378 H   0  0  0  0  0  0  0  0  0  0  0  0
  149.6135  140.2655  156.2708 H   0  0  0  0  0  0  0  0  0  0  0  0
  150.4602  138.9018  155.5527 H   0  0  0  0  0  0  0  0  0  0  0  0
  152.4944  140.4462  155.2935 H   0  0  0  0  0  0  0  0  0  0  0  0
  151.6671  141.6504  156.1994 H   0  0  0  0  0  0  0  0  0  0  0  0
  151.3733  142.6285  160.6804 H   0  0  0  0  0  0  0  0  0  0  0  0
  152.9765  141.9334  160.6353 H   0  0  0  0  0  0  0  0  0  0  0  0
  153.1100  144.4193  160.7410 H   0  0  0  0  0  0  0  0  0  0  0  0
  153.8295  143.8080  159.2706 H   0  0  0  0  0  0  0  0  0  0  0  0
  151.0508  145.0443  159.5602 H   0  0  0  0  0  0  0  0  0  0  0  0
  152.4072  145.7300  158.6915 H   0  0  0  0  0  0  0  0  0  0  0  0
  150.7326  144.5932  157.1687 H   0  0  0  0  0  0  0  0  0  0  0  0
  152.3393  143.9173  157.0313 H   0  0  0  0  0  0  0  0  0  0  0  0
  150.5979  142.1002  157.2048 H   0  0  0  0  0  0  0  0  0  0  0  0
  150.0571  142.7555  158.7164 H   0  0  0  0  0  0  0  0  0  0  0  0
  153.3867  136.3174  161.1219 H   0  0  0  0  0  0  0  0  0  0  0  0
  153.7204  138.0365  161.2489 H   0  0  0  0  0  0  0  0  0  0  0  0
  154.9959  136.9403  160.7385 H   0  0  0  0  0  0  0  0  0  0  0  0
  1  2  1  0  0  0  0
  1 23  1  0  0  0  0
  1 24  1  0  0  0  0
  1 25  1  0  0  0  0
  2  3  1  0  0  0  0
  3  4  1  0  0  0  0
  3 26  1  0  0  0  0
  3 27  1  0  0  0  0
  4  5  1  0  0  0  0
  4 28  1  0  0  0  0
  4 29  1  0  0  0  0
  5 15  1  0  0  0  0
  5  6  1  0  0  0  0
  6  7  1  0  0  0  0
  6 13  2  0  0  0  0
  7 12  1  0  0  0  0
  7  8  1  0  0  0  0
  8  9  1  0  0  0  0
  8 30  1  0  0  0  0
  8 31  1  0  0  0  0
  9 10  1  0  0  0  0
  9 32  1  0  0  0  0
  9 33  1  0  0  0  0
 10 11  1  0  0  0  0
 10 34  1  0  0  0  0
 10 35  1  0  0  0  0
 11 12  1  0  0  0  0
 11 36  1  0  0  0  0
 11 37  1  0  0  0  0
 12 38  1  0  0  0  0
 12 39  1  0  0  0  0
 13 14  1  0  0  0  0
 14 21  1  0  0  0  0
 14 15  2  0  0  0  0
 15 16  1  0  0  0  0
 16 17  2  0  0  0  0
 16 18  1  0  0  0  0
 18 19  1  0  0  0  0
 19 20  2  0  0  0  0
 19 21  1  0  0  0  0
 21 22  1  0  0  0  0
 22 40  1  0  0  0  0
 22 41  1  0  0  0  0
 22 42  1  0  0  0  0
M  CHG  1  18  -1
M  END
> <s_m_source_file>
AV-unprocessed.smi

> <i_m_source_file_index>
524

> <i_lp_mmshare_version>
43012

> <i_f3d_flags>
0

> <s_epik_input>
W0NIM11uMWMoPU8pW25IXWMoPU8pYyhjMTIpbihbQ0gyXVtDSDJdT1tDSDNdKWMobjIpTjNbQ0gyXVtDSDJdW0NIMl1bQ0gyXVtDSDJdMw==

> <s_epik_cmdline>
J2VwaWtfcHl0aG9uJywgJy1waCcsICc3LjAnLCAnLXRuJywgJzgnLCAnLW1hJywgJzIwMCcsICctbWV0YWxfYmluZGluZycsICctaW1hZScsICc8aW5maWxlLm1hZT4nLCAnLW9tYWUnLCAnPG91dGZpbGUubWFlPic=

> <r_lp_tautomer_probability>
1

> <r_epik_Ionization_Penalty>
5.09461

> <r_epik_Ionization_Penalty_Charging>
0.078064

> <r_epik_Ionization_Penalty_Neutral>
5.01654

> <r_epik_State_Penalty>
5.01281

> <r_epik_Charging_Adjusted_Penalty>
5.09087

> <i_epik_Tot_Q>
-1

> <i_epik_Tot_abs_Q>
1

> <r_epik_Metal_State_Penalty>
1.12909

> <b_epik_Metal_Only>
1

> <s_lp_Force_Field>
OPLS_2005

> <r_lp_Energy>
41.0117

> <b_lp_Chiralities_Consistent>
1

> <s_lp_Variant>
AV-unprocessed.smi:524-2

> <Gold.Version>
5.8.1

> <Gold.Id.Protein>
6NUR|6NUR_protein|mol2

> <Gold.PLP.Fitness>
51.1574

> <Gold.PLP.PLP>
-40.5661

> <Gold.PLP.part.hbond>
-4.0000

> <Gold.PLP.part.metal>
0.0000

> <Gold.PLP.part.buried>
-4.4505

> <Gold.PLP.part.nonpolar>
-33.0043

> <Gold.PLP.part.repulsive>
0.1627

> <Gold.PLP.ligand.clash>
0.0000

> <Gold.PLP.ligand.torsion>
0.5885

> <Gold.PLP.Chemscore.Hbond>
3.7920

> <Gold.PLP.Chemscore.CHOScore>
0.0000

> <Gold.PLP.Chemscore.Metal>
0.0000

> <Gold.Chemscore.Hbonds>
donor molecule, donor type, donor heavy atom, donor atom, acceptor molecule, acceptor atom, score
      P1  H  6896  6908       L1    20  0.86
      P1  H  7989  7998       L1     2  0.85
      P1  H 10752 10765       L1    18  2.00

> <Gold.PLP.Chemscore.Internal.Correction>
0.3923

> <Gold.Rescore>
     Score         DG    S(hbond)    S(metal)    S(lipo)     H(rot)  DE(clash)    DE(int)     intcor
     16.63     -18.40       1.84        0.00      89.79       1.46       0.09       1.67       ----

> <Gold.Chemscore.Fitness>
16.6317

> <Gold.Chemscore.DG>
-18.3952

> <Gold.Chemscore.ZeroCoef>
-5.4800

> <Gold.Chemscore.Hbond>
1.8433

> <Gold.Chemscore.Metal>
0.0000

> <Gold.Chemscore.Lipo>
89.7942

> <Gold.Chemscore.Internal_Hbond>
0.0000

> <Gold.Chemscore.DEClash>
0.0931

> <Gold.Chemscore.DEInternal>
1.6704

> <Gold.Chemscore.Rot>
1.4639

> <Gold.Chemscore.Internal.Correction>
   9.000000E+99

> <Gold.Chemscore.Hbonds>
donor molecule, donor type, donor heavy atom, donor atom, acceptor molecule, acceptor atom, score
      P1  H  6896  6908       L1    20  0.32
      P1  H  7989  7998       L1     2  0.58
      P1  H 10752 10765       L1    18  0.24

> <Gold.Chemscore.Hbond.Weighted>
-6.1567

> <Gold.Chemscore.Metal.Weighted>
-0.0000

> <Gold.Chemscore.Lipo.Weighted>
-10.5059

> <Gold.Chemscore.Internal_Hbond.Weighted>
0.0000

> <Gold.Chemscore.DEClash.Weighted>
0.0931

> <Gold.Chemscore.DEInternal.Weighted>
1.6704

> <Gold.Chemscore.Rot.Weighted>
3.7475

> <Gold.Chemscore.Internal.Correction.Weighted>
   9.000000E+99

> <Gold.Protein.RotatedTorsions>
[ 6907 6896 6895 6894 ] final  -44.37 input  -60.11 | X-H torsion
[ 7974 7965 7964 7962 ] final  101.05 input  175.53 | X-H torsion
[ 8008 7997 7996 7995 ] final   42.62 input   59.86 | X-H torsion
[ 10167 10162 10161 10158 ] final  124.16 input  -65.29 | X-H torsion
[ 10718 10713 10712 10709 ] final  165.11 input   66.30 | X-H torsion
[ 10763 10752 10751 10750 ] final -112.59 input  -60.55 | X-H torsion
[ 11005 11000 10999 10996 ] final  -88.99 input  -57.11 | X-H torsion

> <Gold.Protein.ActiveResidues>
 VAL166  LYS551  ARG553  GLY616  TRP617  ASP618  TYR619  PRO620  LYS621  CYS622 
 ASP623  PHE694  ASN695  SER759  ASP760  ASP761  ALA762  ILE779  LEU786  VAL792 
 PHE793  MET794  SER795  GLU796  ALA797  LYS798  CYS799  TRP800  GLU811  SER814 

> <Gold.Protein.RotatedAtoms>
  150.9336  134.8750  159.7566 H   0  0  0  0  0  0  0  0  0  0  0  0  # atno 6907 bound_to 6896
  152.5049  134.4043  159.9437 H   0  0  0  0  0  0  0  0  0  0  0  0  # atno 6908 bound_to 6896
  151.4068  133.3700  159.2774 H   0  0  0  0  0  0  0  0  0  0  0  0  # atno 6909 bound_to 6896
  145.3775  139.2386  143.3422 H   0  0  0  0  0  0  0  0  0  0  0  0  # atno 7974 bound_to 7965
  155.2892  140.3377  155.4253 H   0  0  0  0  0  0  0  0  0  0  0  0  # atno 8008 bound_to 7997
  156.2054  140.1749  156.7851 H   0  0  0  0  0  0  0  0  0  0  0  0  # atno 8009 bound_to 7997
  154.5614  140.0687  156.8809 H   0  0  0  0  0  0  0  0  0  0  0  0  # atno 8010 bound_to 7997
  139.5757  144.6962  151.3659 H   0  0  0  0  0  0  0  0  0  0  0  0  # atno 10167 bound_to 10162
  157.0848  131.0402  151.2560 H   0  0  0  0  0  0  0  0  0  0  0  0  # atno 10718 bound_to 10713
  154.8357  135.4485  154.1218 H   0  0  0  0  0  0  0  0  0  0  0  0  # atno 10763 bound_to 10752
  153.2452  135.6920  153.7745 H   0  0  0  0  0  0  0  0  0  0  0  0  # atno 10764 bound_to 10752
  153.7078  135.3361  155.3215 H   0  0  0  0  0  0  0  0  0  0  0  0  # atno 10765 bound_to 10752
  141.1592  133.7603  156.9531 H   0  0  0  0  0  0  0  0  0  0  0  0  # atno 11005 bound_to 11000
  146.2857  140.4437  142.8759 LP  0  0  0  0  0  0  0  0  0  0  0  0  # atno 17320 bound_to 7965
  144.8532  140.7031  143.6155 LP  0  0  0  0  0  0  0  0  0  0  0  0  # atno 17321 bound_to 7965
  140.7040  143.7561  150.7450 LP  0  0  0  0  0  0  0  0  0  0  0  0  # atno 17342 bound_to 10162
  140.1080  143.4726  152.2387 LP  0  0  0  0  0  0  0  0  0  0  0  0  # atno 17343 bound_to 10162
  157.4770  130.7742  149.7377 LP  0  0  0  0  0  0  0  0  0  0  0  0  # atno 17370 bound_to 10713
  155.9914  130.3938  150.2988 LP  0  0  0  0  0  0  0  0  0  0  0  0  # atno 17371 bound_to 10713
  140.1244  134.9396  157.2248 LP  0  0  0  0  0  0  0  0  0  0  0  0  # atno 17394 bound_to 11000
  140.3032  134.3108  155.7284 LP  0  0  0  0  0  0  0  0  0  0  0  0  # atno 17395 bound_to 11000

$$$$
