AV-unprocessed.smi:761|AV-procd|sdf|3630|dock8
  -GOLD-   22720 1 23D 1   1.00000     0.00000
 Structure written by MMmdl.
 34 35  0  0  0  0  0  0  0  0  2 V2000
  144.4170  136.0646  152.3284 O   0  0  0  0  0  0  0  0  0  0  0  0
  145.6379  135.9941  152.1878 C   0  0  0  0  0  0  0  0  0  0  0  0
  146.4883  136.8936  152.7031 N   0  0  0  0  0  0  0  0  0  0  0  0
  146.0903  138.0470  153.5017 C   0  0  0  0  0  0  0  0  0  0  0  0
  146.8995  139.3014  153.1234 C   0  0  0  0  0  0  0  0  0  0  0  0
  146.2495  140.5449  153.5971 N   0  3  0  0  0  0  0  0  0  0  0  0
  146.9711  141.8010  153.2412 C   0  0  0  0  0  0  0  0  0  0  0  0
  146.8123  142.6507  154.4701 C   0  0  0  0  0  0  0  0  0  0  0  0
  146.2537  141.9686  155.4634 C   0  0  0  0  0  0  0  0  0  0  0  0
  145.9515  140.5540  155.0571 C   0  0  0  0  0  0  0  0  0  0  0  0
  146.2913  135.0451  151.4954 N   0  0  0  0  0  0  0  0  0  0  0  0
  145.7593  133.9098  150.8253 C   0  0  0  0  0  0  0  0  0  0  0  0
  144.3602  133.8397  150.6627 C   0  0  0  0  0  0  0  0  0  0  0  0
  143.8091  132.7329  149.9865 C   0  0  0  0  0  0  0  0  0  0  0  0
  144.5541  131.7315  149.4732 N   0  0  0  0  0  0  0  0  0  0  0  0
  145.8940  131.8075  149.6164 C   0  0  0  0  0  0  0  0  0  0  0  0
  146.5460  132.8690  150.2755 C   0  0  0  0  0  0  0  0  0  0  0  0
  147.4766  136.7679  152.5378 H   0  0  0  0  0  0  0  0  0  0  0  0
  145.0191  138.2184  153.3834 H   0  0  0  0  0  0  0  0  0  0  0  0
  146.2504  137.8038  154.5524 H   0  0  0  0  0  0  0  0  0  0  0  0
  147.8903  139.2312  153.5748 H   0  0  0  0  0  0  0  0  0  0  0  0
  147.0504  139.3617  152.0444 H   0  0  0  0  0  0  0  0  0  0  0  0
  148.0320  141.6307  153.0516 H   0  0  0  0  0  0  0  0  0  0  0  0
  146.5229  142.2745  152.3673 H   0  0  0  0  0  0  0  0  0  0  0  0
  147.1406  143.6788  154.5169 H   0  0  0  0  0  0  0  0  0  0  0  0
  146.0509  142.3483  156.4542 H   0  0  0  0  0  0  0  0  0  0  0  0
  144.9084  140.2973  155.2438 H   0  0  0  0  0  0  0  0  0  0  0  0
  146.5942  139.8708  155.6144 H   0  0  0  0  0  0  0  0  0  0  0  0
  147.2879  135.1733  151.3985 H   0  0  0  0  0  0  0  0  0  0  0  0
  143.7155  134.6147  151.0510 H   0  0  0  0  0  0  0  0  0  0  0  0
  142.7405  132.6520  149.8528 H   0  0  0  0  0  0  0  0  0  0  0  0
  146.4672  130.9995  149.1863 H   0  0  0  0  0  0  0  0  0  0  0  0
  147.6233  132.8676  150.3322 H   0  0  0  0  0  0  0  0  0  0  0  0
  145.3510  140.6015  153.1395 H   0  0  0  0  0  0  0  0  0  0  0  0
  1  2  2  0  0  0  0
  2  3  1  0  0  0  0
  2 11  1  0  0  0  0
  3  4  1  0  0  0  0
  3 18  1  0  0  0  0
  4  5  1  0  0  0  0
  4 19  1  0  0  0  0
  4 20  1  0  0  0  0
  5  6  1  0  0  0  0
  5 21  1  0  0  0  0
  5 22  1  0  0  0  0
  6 10  1  0  0  0  0
  6  7  1  0  0  0  0
  6 34  1  0  0  0  0
  7  8  1  0  0  0  0
  7 23  1  0  0  0  0
  7 24  1  0  0  0  0
  8  9  2  0  0  0  0
  8 25  1  0  0  0  0
  9 10  1  0  0  0  0
  9 26  1  0  0  0  0
 10 27  1  0  0  0  0
 10 28  1  0  0  0  0
 11 12  1  0  0  0  0
 11 29  1  0  0  0  0
 12 17  1  0  0  0  0
 12 13  2  0  0  0  0
 13 14  1  0  0  0  0
 13 30  1  0  0  0  0
 14 15  2  0  0  0  0
 14 31  1  0  0  0  0
 15 16  1  0  0  0  0
 16 17  2  0  0  0  0
 16 32  1  0  0  0  0
 17 33  1  0  0  0  0
M  CHG  1   6   1
M  END
> <s_m_source_file>
AV-unprocessed.smi

> <i_m_source_file_index>
761

> <i_lp_mmshare_version>
43012

> <i_f3d_flags>
0

> <s_epik_input>
W2NIXTFbY0hdbltjSF1bY0hdYzFbTkhdQyg9TylbTkhdW0NIMl1bQ0gyXU4yW0NIMl1bQ0hdPVtDSF1bQ0gyXTI=

> <s_epik_cmdline>
J2VwaWtfcHl0aG9uJywgJy1waCcsICc3LjAnLCAnLXRuJywgJzgnLCAnLW1hJywgJzIwMCcsICctbWV0YWxfYmluZGluZycsICctaW1hZScsICc8aW5maWxlLm1hZT4nLCAnLW9tYWUnLCAnPG91dGZpbGUubWFlPic=

> <r_epik_Ionization_Penalty>
0.100973

> <r_epik_Ionization_Penalty_Charging>
0.00265978

> <r_epik_Ionization_Penalty_Neutral>
0.098313

> <r_epik_State_Penalty>
0.0959991

> <r_epik_Charging_Adjusted_Penalty>
0.0986589

> <i_epik_Tot_Q>
1

> <i_epik_Tot_abs_Q>
1

> <r_epik_Metal_State_Penalty>
0.0816347

> <b_epik_Metal_Only>
0

> <s_lp_Force_Field>
OPLS_2005

> <r_lp_Energy>
25.6578

> <b_lp_Chiralities_Consistent>
1

> <s_lp_Variant>
AV-unprocessed.smi:761-1

> <Gold.Version>
5.8.1

> <Gold.Id.Protein>
6NUR|6NUR_protein|mol2

> <Gold.PLP.Fitness>
46.0666

> <Gold.PLP.PLP>
-29.5475

> <Gold.PLP.part.hbond>
-4.0000

> <Gold.PLP.part.metal>
0.0000

> <Gold.PLP.part.buried>
-3.5239

> <Gold.PLP.part.nonpolar>
-22.8463

> <Gold.PLP.part.repulsive>
0.3937

> <Gold.PLP.ligand.clash>
0.0000

> <Gold.PLP.ligand.torsion>
0.2376

> <Gold.PLP.Chemscore.Hbond>
4.2694

> <Gold.PLP.Chemscore.CHOScore>
1.3897

> <Gold.PLP.Chemscore.Metal>
0.0000

> <Gold.Chemscore.Hbonds>
donor molecule, donor type, donor heavy atom, donor atom, acceptor molecule, acceptor atom, score
      L1  H     3    18       P1  7948  1.00
      L1  H     6    34       P1 10175  2.00
      L1  H    11    29       P1  7948  1.00
      P1  H 10785 10796       L1    15  0.26
      L1  C    14    31       P1 10186  1.00
      L1  C    16    32       P1 10747  0.36

> <Gold.PLP.Chemscore.Internal.Correction>
0.0171

> <Gold.Rescore>
     Score         DG    S(hbond)    S(metal)    S(lipo)     H(rot)  DE(clash)    DE(int)     intcor
     17.37     -20.34       2.92        0.00      76.84       1.51       1.31       1.67       ----

> <Gold.Chemscore.Fitness>
17.3680

> <Gold.Chemscore.DG>
-20.3436

> <Gold.Chemscore.ZeroCoef>
-5.4800

> <Gold.Chemscore.Hbond>
2.9170

> <Gold.Chemscore.Metal>
0.0000

> <Gold.Chemscore.Lipo>
76.8435

> <Gold.Chemscore.Internal_Hbond>
0.0000

> <Gold.Chemscore.DEClash>
1.3092

> <Gold.Chemscore.DEInternal>
1.6663

> <Gold.Chemscore.Rot>
1.5117

> <Gold.Chemscore.Internal.Correction>
   9.000000E+99

> <Gold.Chemscore.Hbonds>
donor molecule, donor type, donor heavy atom, donor atom, acceptor molecule, acceptor atom, score
      L1  H     3    18       P1  7948  1.00
      L1  H     6    34       P1 10175  0.85
      L1  H    11    29       P1  7948  0.73
      P1  H 10785 10796       L1    15  0.20

> <Gold.Chemscore.Hbond.Weighted>
-9.7429

> <Gold.Chemscore.Metal.Weighted>
-0.0000

> <Gold.Chemscore.Lipo.Weighted>
-8.9907

> <Gold.Chemscore.Internal_Hbond.Weighted>
0.0000

> <Gold.Chemscore.DEClash.Weighted>
1.3092

> <Gold.Chemscore.DEInternal.Weighted>
1.6663

> <Gold.Chemscore.Rot.Weighted>
3.8700

> <Gold.Chemscore.Internal.Correction.Weighted>
   9.000000E+99

> <Gold.Protein.RotatedTorsions>
[ 6907 6896 6895 6894 ] final   -1.15 input  -60.11 | X-H torsion
[ 7974 7965 7964 7962 ] final    3.26 input  175.53 | X-H torsion
[ 8008 7997 7996 7995 ] final  178.70 input   59.86 | X-H torsion
[ 10167 10162 10161 10158 ] final  159.09 input  -65.29 | X-H torsion
[ 10718 10713 10712 10709 ] final  -79.30 input   66.30 | X-H torsion
[ 10763 10752 10751 10750 ] final  -52.32 input  -60.55 | X-H torsion
[ 11005 11000 10999 10996 ] final  -10.72 input  -57.11 | X-H torsion

> <Gold.Protein.ActiveResidues>
 VAL166  LYS551  ARG553  GLY616  TRP617  ASP618  TYR619  PRO620  LYS621  CYS622 
 ASP623  PHE694  ASN695  SER759  ASP760  ASP761  ALA762  ILE779  LEU786  VAL792 
 PHE793  MET794  SER795  GLU796  ALA797  LYS798  CYS799  TRP800  GLU811  SER814 

> <Gold.Protein.RotatedAtoms>
  151.5508  135.1067  159.9948 H   0  0  0  0  0  0  0  0  0  0  0  0  # atno 6907 bound_to 6896
  152.4492  133.7592  159.6748 H   0  0  0  0  0  0  0  0  0  0  0  0  # atno 6908 bound_to 6896
  150.8416  133.7860  159.3083 H   0  0  0  0  0  0  0  0  0  0  0  0  # atno 6909 bound_to 6896
  146.2445  140.0712  142.8362 H   0  0  0  0  0  0  0  0  0  0  0  0  # atno 7974 bound_to 7965
  156.0516  140.1327  157.0043 H   0  0  0  0  0  0  0  0  0  0  0  0  # atno 8008 bound_to 7997
  154.4438  140.1009  156.6456 H   0  0  0  0  0  0  0  0  0  0  0  0  # atno 8009 bound_to 7997
  155.5514  140.3463  155.4471 H   0  0  0  0  0  0  0  0  0  0  0  0  # atno 8010 bound_to 7997
  139.4830  144.4763  151.8506 H   0  0  0  0  0  0  0  0  0  0  0  0  # atno 10167 bound_to 10162
  156.0096  130.4542  150.3628 H   0  0  0  0  0  0  0  0  0  0  0  0  # atno 10718 bound_to 10713
  154.1409  135.6505  153.4942 H   0  0  0  0  0  0  0  0  0  0  0  0  # atno 10763 bound_to 10752
  153.0166  135.5315  154.6906 H   0  0  0  0  0  0  0  0  0  0  0  0  # atno 10764 bound_to 10752
  154.6167  135.2960  155.0343 H   0  0  0  0  0  0  0  0  0  0  0  0  # atno 10765 bound_to 10752
  140.7477  133.8618  155.9019 H   0  0  0  0  0  0  0  0  0  0  0  0  # atno 11005 bound_to 11000
  145.0814  140.9224  143.4823 LP  0  0  0  0  0  0  0  0  0  0  0  0  # atno 17320 bound_to 7965
  145.0866  139.2921  143.5756 LP  0  0  0  0  0  0  0  0  0  0  0  0  # atno 17321 bound_to 7965
  140.4236  144.2210  150.5887 LP  0  0  0  0  0  0  0  0  0  0  0  0  # atno 17342 bound_to 10162
  140.4849  143.2366  151.8901 LP  0  0  0  0  0  0  0  0  0  0  0  0  # atno 17343 bound_to 10162
  157.1716  131.0370  151.2793 LP  0  0  0  0  0  0  0  0  0  0  0  0  # atno 17370 bound_to 10713
  157.4224  130.7445  149.6924 LP  0  0  0  0  0  0  0  0  0  0  0  0  # atno 17371 bound_to 10713
  140.9779  134.1444  157.4520 LP  0  0  0  0  0  0  0  0  0  0  0  0  # atno 17394 bound_to 11000
  139.8793  135.0001  156.5990 LP  0  0  0  0  0  0  0  0  0  0  0  0  # atno 17395 bound_to 11000

$$$$
