AV-unprocessed.smi:2264|AV-procd|sdf|9142|dock2
  -GOLD-   2272012343D 1   1.00000     0.00000
 Structure written by MMmdl.
 44 45  0  0  0  0  0  0  0  0  1 V2000
  150.5430  145.0874  160.0214 C   0  0  0  0  0  0  0  0  0  0  0  0
  151.4482  143.8743  160.0843 C   0  0  0  0  0  0  0  0  0  0  0  0
  152.2760  143.6569  161.2028 C   0  0  0  0  0  0  0  0  0  0  0  0
  153.1148  142.5276  161.2548 C   0  0  0  0  0  0  0  0  0  0  0  0
  153.1372  141.5971  160.1855 C   0  0  0  0  0  0  0  0  0  0  0  0
  153.9323  140.4710  160.1668 O   0  0  0  0  0  0  0  0  0  0  0  0
  154.8868  140.2927  161.2045 C   0  0  0  0  0  0  0  0  0  0  0  0
  155.1817  138.7904  161.3286 C   0  0  1  0  0  0  0  0  0  0  0  0
  156.1871  138.6385  162.3098 O   0  0  0  0  0  0  0  0  0  0  0  0
  153.9332  137.9827  161.7546 C   0  0  0  0  0  0  0  0  0  0  0  0
  154.2963  136.6985  162.3745 N   0  0  0  0  0  0  0  0  0  0  0  0
  154.2486  136.6489  163.7781 C   0  0  0  0  0  0  0  0  0  0  0  0
  154.5439  135.5723  164.4298 N   0  0  0  0  0  0  0  0  0  0  0  0
  154.9200  134.4187  163.7355 C   0  0  0  0  0  0  0  0  0  0  0  0
  155.2530  133.2138  164.5977 C   0  0  0  0  0  0  0  0  0  0  0  0
  154.9773  134.3987  162.3758 C   0  0  0  0  0  0  0  0  0  0  0  0
  155.3821  133.1727  161.5670 C   0  0  0  0  0  0  0  0  0  0  0  0
  154.6358  135.6147  161.6196 C   0  0  0  0  0  0  0  0  0  0  0  0
  154.6545  135.6630  160.3882 O   0  0  0  0  0  0  0  0  0  0  0  0
  152.3055  141.8231  159.0647 C   0  0  0  0  0  0  0  0  0  0  0  0
  152.3088  140.8419  157.9070 C   0  0  0  0  0  0  0  0  0  0  0  0
  151.4664  142.9560  159.0172 C   0  0  0  0  0  0  0  0  0  0  0  0
  150.5532  145.6411  160.9607 H   0  0  0  0  0  0  0  0  0  0  0  0
  149.5159  144.7836  159.8175 H   0  0  0  0  0  0  0  0  0  0  0  0
  150.8670  145.7590  159.2260 H   0  0  0  0  0  0  0  0  0  0  0  0
  152.2724  144.3560  162.0265 H   0  0  0  0  0  0  0  0  0  0  0  0
  153.7360  142.3989  162.1280 H   0  0  0  0  0  0  0  0  0  0  0  0
  155.8016  140.8317  160.9523 H   0  0  0  0  0  0  0  0  0  0  0  0
  154.5102  140.6822  162.1522 H   0  0  0  0  0  0  0  0  0  0  0  0
  155.5748  138.4322  160.3760 H   0  0  0  0  0  0  0  0  0  0  0  0
  157.0135  138.4947  161.8747 H   0  0  0  0  0  0  0  0  0  0  0  0
  153.2853  138.5781  162.4009 H   0  0  0  0  0  0  0  0  0  0  0  0
  153.3079  137.7811  160.8824 H   0  0  0  0  0  0  0  0  0  0  0  0
  153.9422  137.5740  164.2701 H   0  0  0  0  0  0  0  0  0  0  0  0
  156.2904  132.9132  164.4489 H   0  0  0  0  0  0  0  0  0  0  0  0
  154.6060  132.3727  164.3472 H   0  0  0  0  0  0  0  0  0  0  0  0
  155.1175  133.4343  165.6573 H   0  0  0  0  0  0  0  0  0  0  0  0
  154.5646  132.8669  160.9134 H   0  0  0  0  0  0  0  0  0  0  0  0
  155.6452  132.3169  162.1865 H   0  0  0  0  0  0  0  0  0  0  0  0
  156.2466  133.4028  160.9434 H   0  0  0  0  0  0  0  0  0  0  0  0
  151.5927  141.1296  157.1368 H   0  0  0  0  0  0  0  0  0  0  0  0
  152.0466  139.8427  158.2561 H   0  0  0  0  0  0  0  0  0  0  0  0
  153.2983  140.7978  157.4515 H   0  0  0  0  0  0  0  0  0  0  0  0
  150.8319  143.1234  158.1588 H   0  0  0  0  0  0  0  0  0  0  0  0
  1  2  1  0  0  0  0
  1 23  1  0  0  0  0
  1 24  1  0  0  0  0
  1 25  1  0  0  0  0
  2 22  1  0  0  0  0
  2  3  2  0  0  0  0
  3  4  1  0  0  0  0
  3 26  1  0  0  0  0
  4  5  2  0  0  0  0
  4 27  1  0  0  0  0
  5  6  1  0  0  0  0
  5 20  1  0  0  0  0
  6  7  1  0  0  0  0
  7  8  1  0  0  0  0
  7 28  1  0  0  0  0
  7 29  1  0  0  0  0
  8  9  1  0  0  0  0
  8 10  1  0  0  0  0
  8 30  1  0  0  0  0
  9 31  1  0  0  0  0
 10 11  1  0  0  0  0
 10 32  1  0  0  0  0
 10 33  1  0  0  0  0
 11 18  1  0  0  0  0
 11 12  1  0  0  0  0
 12 13  2  0  0  0  0
 12 34  1  0  0  0  0
 13 14  1  0  0  0  0
 14 15  1  0  0  0  0
 14 16  2  0  0  0  0
 15 35  1  0  0  0  0
 15 36  1  0  0  0  0
 15 37  1  0  0  0  0
 16 17  1  0  0  0  0
 16 18  1  0  0  0  0
 17 38  1  0  0  0  0
 17 39  1  0  0  0  0
 17 40  1  0  0  0  0
 18 19  2  0  0  0  0
 20 21  1  0  0  0  0
 20 22  2  0  0  0  0
 21 41  1  0  0  0  0
 21 42  1  0  0  0  0
 21 43  1  0  0  0  0
 22 44  1  0  0  0  0
M  END
> <s_m_source_file>
AV-unprocessed.smi

> <i_m_source_file_index>
2264

> <i_lp_mmshare_version>
43012

> <i_f3d_flags>
0

> <s_epik_input>
W0NIM11jMVtjSF1bY0hdYyhjKFtDSDNdKVtjSF0xKU9bQ0gyXVtDQEhdKFtPSF0pW0NIMl1uMltjSF1uYyhbQ0gzXSljKFtDSDNdKWMyPU8=

> <s_epik_cmdline>
J2VwaWtfcHl0aG9uJywgJy1waCcsICc3LjAnLCAnLXRuJywgJzgnLCAnLW1hJywgJzIwMCcsICctbWV0YWxfYmluZGluZycsICctaW1hZScsICc8aW5maWxlLm1hZT4nLCAnLW9tYWUnLCAnPG91dGZpbGUubWFlPic=

> <r_lp_tautomer_probability>
1

> <r_epik_Ionization_Penalty>
3.7476e-05

> <r_epik_Ionization_Penalty_Charging>
8.44705e-08

> <r_epik_Ionization_Penalty_Neutral>
3.73915e-05

> <r_epik_State_Penalty>
-0

> <r_epik_Charging_Adjusted_Penalty>
8.44705e-08

> <i_epik_Tot_Q>
0

> <i_epik_Tot_abs_Q>
0

> <r_epik_Metal_State_Penalty>
-0

> <b_epik_Metal_Only>
0

> <s_lp_Force_Field>
OPLS_2005

> <r_lp_Energy>
22.0846

> <b_lp_Chiralities_Consistent>
1

> <s_lp_Variant>
AV-unprocessed.smi:2264-2

> <Gold.Version>
5.8.1

> <Gold.Id.Protein>
6NUR|6NUR_protein|mol2

> <Gold.PLP.Fitness>
46.6394

> <Gold.PLP.PLP>
-45.8723

> <Gold.PLP.part.hbond>
-0.6077

> <Gold.PLP.part.metal>
0.0000

> <Gold.PLP.part.buried>
-6.4304

> <Gold.PLP.part.nonpolar>
-39.7061

> <Gold.PLP.part.repulsive>
0.1089

> <Gold.PLP.ligand.clash>
0.0000

> <Gold.PLP.ligand.torsion>
0.6810

> <Gold.PLP.Chemscore.Hbond>
0.6988

> <Gold.PLP.Chemscore.CHOScore>
0.0000

> <Gold.PLP.Chemscore.Metal>
0.0000

> <Gold.PLP.Chemscore.Internal.Correction>
0.0330

> <Gold.Rescore>
     Score         DG    S(hbond)    S(metal)    S(lipo)     H(rot)  DE(clash)    DE(int)     intcor
     17.42     -18.31       0.97        0.00     132.94       2.32       0.25       0.64       ----

> <Gold.Chemscore.Fitness>
17.4177

> <Gold.Chemscore.DG>
-18.3115

> <Gold.Chemscore.ZeroCoef>
-5.4800

> <Gold.Chemscore.Hbond>
0.9658

> <Gold.Chemscore.Metal>
0.0000

> <Gold.Chemscore.Lipo>
132.9425

> <Gold.Chemscore.Internal_Hbond>
0.0000

> <Gold.Chemscore.DEClash>
0.2536

> <Gold.Chemscore.DEInternal>
0.6402

> <Gold.Chemscore.Rot>
2.3236

> <Gold.Chemscore.Internal.Correction>
   9.000000E+99

> <Gold.Chemscore.Hbonds>
donor molecule, donor type, donor heavy atom, donor atom, acceptor molecule, acceptor atom, score
      P1  H  6896  6908       L1    19  0.01

> <Gold.Chemscore.Hbond.Weighted>
-3.2256

> <Gold.Chemscore.Metal.Weighted>
-0.0000

> <Gold.Chemscore.Lipo.Weighted>
-15.5543

> <Gold.Chemscore.Internal_Hbond.Weighted>
0.0000

> <Gold.Chemscore.DEClash.Weighted>
0.2536

> <Gold.Chemscore.DEInternal.Weighted>
0.6402

> <Gold.Chemscore.Rot.Weighted>
5.9484

> <Gold.Chemscore.Internal.Correction.Weighted>
   9.000000E+99

> <Gold.Protein.RotatedTorsions>
[ 6907 6896 6895 6894 ] final  -61.24 input  -60.11 | X-H torsion
[ 7974 7965 7964 7962 ] final  115.20 input  175.53 | X-H torsion
[ 8008 7997 7996 7995 ] final  -85.90 input   59.86 | X-H torsion
[ 10167 10162 10161 10158 ] final  -45.20 input  -65.29 | X-H torsion
[ 10718 10713 10712 10709 ] final   96.29 input   66.30 | X-H torsion
[ 10763 10752 10751 10750 ] final  115.77 input  -60.55 | X-H torsion
[ 11005 11000 10999 10996 ] final -107.46 input  -57.11 | X-H torsion

> <Gold.Protein.ActiveResidues>
 VAL166  LYS551  ARG553  GLY616  TRP617  ASP618  TYR619  PRO620  LYS621  CYS622 
 ASP623  PHE694  ASN695  SER759  ASP760  ASP761  ALA762  ILE779  LEU786  VAL792 
 PHE793  MET794  SER795  GLU796  ALA797  LYS798  CYS799  TRP800  GLU811  SER814 

> <Gold.Protein.RotatedAtoms>
  150.7798  134.6730  159.6401 H   0  0  0  0  0  0  0  0  0  0  0  0  # atno 6907 bound_to 6896
  152.3879  134.6484  160.0127 H   0  0  0  0  0  0  0  0  0  0  0  0  # atno 6908 bound_to 6896
  151.6793  133.3275  159.3252 H   0  0  0  0  0  0  0  0  0  0  0  0  # atno 6909 bound_to 6896
  145.1950  139.2981  143.4348 H   0  0  0  0  0  0  0  0  0  0  0  0  # atno 7974 bound_to 7965
  154.6458  140.0585  156.9899 H   0  0  0  0  0  0  0  0  0  0  0  0  # atno 8008 bound_to 7997
  155.1446  140.3268  155.4426 H   0  0  0  0  0  0  0  0  0  0  0  0  # atno 8009 bound_to 7997
  156.2553  140.1958  156.6560 H   0  0  0  0  0  0  0  0  0  0  0  0  # atno 8010 bound_to 7997
  140.6867  143.2891  151.3605 H   0  0  0  0  0  0  0  0  0  0  0  0  # atno 10167 bound_to 10162
  157.6928  131.0573  150.4469 H   0  0  0  0  0  0  0  0  0  0  0  0  # atno 10718 bound_to 10713
  153.5272  135.3585  155.2659 H   0  0  0  0  0  0  0  0  0  0  0  0  # atno 10763 bound_to 10752
  154.8730  135.4059  154.3193 H   0  0  0  0  0  0  0  0  0  0  0  0  # atno 10764 bound_to 10752
  153.3874  135.7070  153.6587 H   0  0  0  0  0  0  0  0  0  0  0  0  # atno 10765 bound_to 10752
  141.0953  133.8983  157.1978 H   0  0  0  0  0  0  0  0  0  0  0  0  # atno 11005 bound_to 11000
  146.3429  140.2175  142.8591 LP  0  0  0  0  0  0  0  0  0  0  0  0  # atno 17320 bound_to 7965
  145.0004  140.8626  143.5285 LP  0  0  0  0  0  0  0  0  0  0  0  0  # atno 17321 bound_to 7965
  139.6232  144.0866  152.2410 LP  0  0  0  0  0  0  0  0  0  0  0  0  # atno 17342 bound_to 10162
  140.0317  144.6076  150.7483 LP  0  0  0  0  0  0  0  0  0  0  0  0  # atno 17343 bound_to 10162
  156.4824  130.4076  149.6454 LP  0  0  0  0  0  0  0  0  0  0  0  0  # atno 17370 bound_to 10713
  156.3495  130.7424  151.2382 LP  0  0  0  0  0  0  0  0  0  0  0  0  # atno 17371 bound_to 10713
  139.9788  135.0105  156.9697 LP  0  0  0  0  0  0  0  0  0  0  0  0  # atno 17394 bound_to 11000
  140.5155  134.0959  155.7280 LP  0  0  0  0  0  0  0  0  0  0  0  0  # atno 17395 bound_to 11000

$$$$
