#       Name:                AV-unprocessed.smi:553
#       Creating user name   scv26
#       Creation time:       Thu Mar 26 23:39:52 2020


#       File generated by GOLD software.
#

@<TRIPOS>MOLECULE
AV-unprocessed.smi:553
    49    51     1
SMALL
NO_CHARGES


@<TRIPOS>ATOM
      1 ****        -1.9421   2.9108   0.2813 O.2            1 S1                 0.0000
      2 ****        -2.2723   1.7272   0.2658 C.2            1 S1                 0.0000
      3 ****        -1.4143   0.6892   0.2165 N.am           1 S1                 0.0000
      4 ****         0.0069   0.6993   0.2131 C.ar           1 S1                 0.0000
      5 ****         0.8043   1.7966   0.6178 C.ar           1 S1                 0.0000
      6 ****         2.2062   1.6681   0.5833 C.ar           1 S1                 0.0000
      7 ****         2.7688   0.4487   0.1541 C.ar           1 S1                 0.0000
      8 ****         4.1643   0.3180   0.1177 N.3            1 S1                 0.0000
      9 ****         4.6975   0.1772  -1.2315 C.3            1 S1                 0.0000
     10 ****         6.2356   0.1718  -1.1910 C.3            1 S1                 0.0000
     11 ****         6.6875  -0.8606  -0.3188 O.3            1 S1                 0.0000
     12 ****         6.2204  -0.6773   1.0150 C.3            1 S1                 0.0000
     13 ****         4.6820  -0.6949   1.0294 C.3            1 S1                 0.0000
     14 ****         2.0124  -0.6085  -0.2245 N.ar           1 S1                 0.0000
     15 ****         0.6694  -0.4788  -0.1893 C.ar           1 S1                 0.0000
     16 ****        -3.5692   1.3695   0.2694 N.am           1 S1                 0.0000
     17 ****        -4.7487   2.2351   0.3165 C.3            1 S1                 0.0000
     18 ****        -6.0012   1.4893  -0.1803 C.3            1 S1                 0.0000
     19 ****        -7.2434   2.2999   0.2106 C.3            1 S1                 0.0000
     20 ****        -6.8146   3.1671   1.7677 S.o2           1 S1                 0.0000
     21 ****        -6.9637   4.6157   1.5617 O.2            1 S1                 0.0000
     22 ****        -7.4596   2.4924   2.9043 O.2            1 S1                 0.0000
     23 ****        -5.0360   2.7300   1.7434 C.3            1 S1                 0.0000
     24 ****        -1.8362  -0.2238   0.1303 H              1 S1                 0.0000
     25 ****         0.3776   2.7243   0.9647 H              1 S1                 0.0000
     26 ****         2.8359   2.4917   0.8870 H              1 S1                 0.0000
     27 ****         4.3365  -0.7514  -1.6763 H              1 S1                 0.0000
     28 ****         4.3412   0.9960  -1.8578 H              1 S1                 0.0000
     29 ****         6.6377  -0.0043  -2.1888 H              1 S1                 0.0000
     30 ****         6.6196   1.1373  -0.8577 H              1 S1                 0.0000
     31 ****         6.6121  -1.4779   1.6425 H              1 S1                 0.0000
     32 ****         6.6027   0.2615   1.4194 H              1 S1                 0.0000
     33 ****         4.3135  -0.5072   2.0387 H              1 S1                 0.0000
     34 ****         4.3219  -1.6808   0.7311 H              1 S1                 0.0000
     35 ****         0.1045  -1.3470  -0.4966 H              1 S1                 0.0000
     36 ****        -3.7575   0.3790   0.2131 H              1 S1                 0.0000
     37 ****        -4.6058   3.0988  -0.3357 H              1 S1                 0.0000
     38 ****        -5.9659   1.3066  -1.2548 H              1 S1                 0.0000
     39 ****        -6.0552   0.5143   0.3066 H              1 S1                 0.0000
     40 ****        -7.4650   3.0550  -0.5439 H              1 S1                 0.0000
     41 ****        -8.1290   1.6805   0.3540 H              1 S1                 0.0000
     42 ****        -4.8803   1.9358   2.4746 H              1 S1                 0.0000
     43 ****        -4.4342   3.5916   2.0324 H              1 S1                 0.0000
     44 ****        -0.9740   3.1602   0.2566 LP             1 S1                 0.0000
     45 ****        -2.6415   3.6246   0.3186 LP             1 S1                 0.0000
     46 ****         4.5078   1.1922   0.4611 LP             1 S1                 0.0000
     47 ****         7.6875  -0.8631  -0.3129 LP             1 S1                 0.0000
     48 ****         6.3539  -1.7396  -0.6594 LP             1 S1                 0.0000
     49 ****         2.4376  -1.4631  -0.5224 LP             1 S1                 0.0000
@<TRIPOS>BOND
    1    1    2 2     
    2    2    3 am    
    3    2   16 am    
    4    3    4 1     
    5    3   24 1     
    6    4   15 ar    
    7    4    5 ar    
    8    5    6 ar    
    9    5   25 1     
   10    6    7 ar    
   11    6   26 1     
   12    7    8 1     
   13    7   14 ar    
   14    8   13 1     
   15    8    9 1     
   16    9   10 1     
   17    9   27 1     
   18    9   28 1     
   19   10   11 1     
   20   10   29 1     
   21   10   30 1     
   22   11   12 1     
   23   12   13 1     
   24   12   31 1     
   25   12   32 1     
   26   13   33 1     
   27   13   34 1     
   28   14   15 ar    
   29   15   35 1     
   30   16   17 1     
   31   16   36 1     
   32   17   23 1     
   33   17   18 1     
   34   17   37 1     
   35   18   19 1     
   36   18   38 1     
   37   18   39 1     
   38   19   20 1     
   39   19   40 1     
   40   19   41 1     
   41   20   21 2     
   42   20   22 2     
   43   20   23 1     
   44   23   42 1     
   45   23   43 1     
   46    1   44 1     
   47    1   45 1     
   48    8   46 1     
   49   11   47 1     
   50   11   48 1     
   51   14   49 1     
@<TRIPOS>SUBSTRUCTURE
      1 S1             1
@<TRIPOS>SET
LONE_PAIRS      STATIC     ATOMS    <user>   **** ""
8 44 45 46 47 48 49 21 22
DONOR_HYDROGENS      STATIC     ATOMS    <user>   **** ""
2 24 36
ATOM$BLUE        STATIC     ATOMS    COLORGROUP SYSTEM
8 44 45 46 47 48 49 21 22
ATOM$RED        STATIC     ATOMS    COLORGROUP SYSTEM
2 24 36
