AV-unprocessed.smi:283|AV-procd|sdf|2137|dock4
  -GOLD-   2262021463D 1   1.00000     0.00000
 Structure written by MMmdl.
 48 51  0  0  0  0  0  0  0  0  1 V2000
  153.7360  138.6741  158.3435 C   0  0  0  0  0  0  0  0  0  0  0  0
  152.5000  139.5551  158.1189 C   0  0  2  0  0  0  0  0  0  0  0  0
  152.2875  139.7597  156.6869 N   0  0  0  0  0  0  0  0  0  0  0  0
  151.2861  139.1261  156.0361 C   0  0  0  0  0  0  0  0  0  0  0  0
  151.2924  139.0053  154.6826 N   0  0  0  0  0  0  0  0  0  0  0  0
  150.2899  138.3762  154.0628 C   0  0  0  0  0  0  0  0  0  0  0  0
  149.2056  137.8074  154.5952 N   0  0  0  0  0  0  0  0  0  0  0  0
  149.1939  137.9285  155.9546 C   0  0  0  0  0  0  0  0  0  0  0  0
  150.1876  138.5723  156.7425 C   0  0  0  0  0  0  0  0  0  0  0  0
  149.8373  138.5076  158.0838 N   0  0  0  0  0  0  0  0  0  0  0  0
  148.6991  137.8672  158.0821 C   0  0  0  0  0  0  0  0  0  0  0  0
  148.2443  137.4658  156.8409 N   0  0  0  0  0  0  0  0  0  0  0  0
  146.9823  136.7453  156.4576 C   0  0  2  0  0  0  0  0  0  0  0  0
  147.3217  135.4421  156.1103 O   0  0  0  0  0  0  0  0  0  0  0  0
  147.6551  135.3947  154.7303 C   0  0  1  0  0  0  0  0  0  0  0  0
  147.5081  133.9576  154.2075 C   0  0  0  0  0  0  0  0  0  0  0  0
  148.0856  133.8455  152.9244 O   0  0  0  0  0  0  0  0  0  0  0  0
  146.6567  136.3793  154.0991 C   0  0  2  0  0  0  0  0  0  0  0  0
  147.2626  137.0466  153.0094 O   0  0  0  0  0  0  0  0  0  0  0  0
  146.3173  137.3688  155.2194 C   0  0  1  0  0  0  0  0  0  0  0  0
  144.9181  137.4684  155.3903 O   0  0  0  0  0  0  0  0  0  0  0  0
  152.6094  140.8484  158.9301 C   0  0  0  0  0  0  0  0  0  0  0  0
  153.6359  140.9874  159.8933 C   0  0  0  0  0  0  0  0  0  0  0  0
  153.7553  142.1677  160.6505 C   0  0  0  0  0  0  0  0  0  0  0  0
  152.8442  143.2214  160.4571 C   0  0  0  0  0  0  0  0  0  0  0  0
  151.8123  143.0902  159.5096 C   0  0  0  0  0  0  0  0  0  0  0  0
  151.6878  141.9103  158.7485 C   0  0  0  0  0  0  0  0  0  0  0  0
  150.3930  141.8008  157.6079 Cl  0  0  0  0  0  0  0  0  0  0  0  0
  146.3619  136.7753  157.3541 H   0  0  0  0  0  0  0  0  0  0  0  0
  148.6778  135.7513  154.5943 H   0  0  0  0  0  0  0  0  0  0  0  0
  145.7625  135.8535  153.7595 H   0  0  0  0  0  0  0  0  0  0  0  0
  146.7036  138.3729  155.0404 H   0  0  0  0  0  0  0  0  0  0  0  0
  153.8636  138.4416  159.4011 H   0  0  0  0  0  0  0  0  0  0  0  0
  154.6452  139.1685  157.9995 H   0  0  0  0  0  0  0  0  0  0  0  0
  153.6470  137.7284  157.8082 H   0  0  0  0  0  0  0  0  0  0  0  0
  151.6373  138.9903  158.4705 H   0  0  0  0  0  0  0  0  0  0  0  0
  152.8199  140.5093  156.2692 H   0  0  0  0  0  0  0  0  0  0  0  0
  150.3676  138.3207  152.9869 H   0  0  0  0  0  0  0  0  0  0  0  0
  148.1638  137.6740  158.9993 H   0  0  0  0  0  0  0  0  0  0  0  0
  147.9580  133.2375  154.8916 H   0  0  0  0  0  0  0  0  0  0  0  0
  146.4529  133.6998  154.1137 H   0  0  0  0  0  0  0  0  0  0  0  0
  148.3258  134.7091  152.6255 H   0  0  0  0  0  0  0  0  0  0  0  0
  147.9406  136.4930  152.6545 H   0  0  0  0  0  0  0  0  0  0  0  0
  144.5662  137.9936  154.6879 H   0  0  0  0  0  0  0  0  0  0  0  0
  154.3413  140.1859  160.0568 H   0  0  0  0  0  0  0  0  0  0  0  0
  154.5453  142.2635  161.3807 H   0  0  0  0  0  0  0  0  0  0  0  0
  152.9339  144.1280  161.0372 H   0  0  0  0  0  0  0  0  0  0  0  0
  151.1114  143.8994  159.3673 H   0  0  0  0  0  0  0  0  0  0  0  0
  1  2  1  0  0  0  0
  1 33  1  0  0  0  0
  1 34  1  0  0  0  0
  1 35  1  0  0  0  0
  2  3  1  0  0  0  0
  2 22  1  0  0  0  0
  2 36  1  0  0  0  0
  3  4  1  0  0  0  0
  3 37  1  0  0  0  0
  4  9  1  0  0  0  0
  4  5  2  0  0  0  0
  5  6  1  0  0  0  0
  6  7  2  0  0  0  0
  6 38  1  0  0  0  0
  7  8  1  0  0  0  0
  8 12  1  0  0  0  0
  8  9  2  0  0  0  0
  9 10  1  0  0  0  0
 10 11  2  0  0  0  0
 11 12  1  0  0  0  0
 11 39  1  0  0  0  0
 12 13  1  0  0  0  0
 13 29  1  0  0  0  0
 13 20  1  0  0  0  0
 13 14  1  0  0  0  0
 14 15  1  0  0  0  0
 15 30  1  0  0  0  0
 15 16  1  0  0  0  0
 15 18  1  0  0  0  0
 16 17  1  0  0  0  0
 16 40  1  0  0  0  0
 16 41  1  0  0  0  0
 17 42  1  0  0  0  0
 18 31  1  0  0  0  0
 18 19  1  0  0  0  0
 18 20  1  0  0  0  0
 19 43  1  0  0  0  0
 20 32  1  0  0  0  0
 20 21  1  0  0  0  0
 21 44  1  0  0  0  0
 22 27  1  0  0  0  0
 22 23  2  0  0  0  0
 23 24  1  0  0  0  0
 23 45  1  0  0  0  0
 24 25  2  0  0  0  0
 24 46  1  0  0  0  0
 25 26  1  0  0  0  0
 25 47  1  0  0  0  0
 26 27  2  0  0  0  0
 26 48  1  0  0  0  0
 27 28  1  0  0  0  0
M  END
> <s_m_source_file>
AV-unprocessed.smi

> <i_m_source_file_index>
283

> <i_lp_mmshare_version>
43012

> <i_f3d_flags>
0

> <s_epik_input>
Q2xjMVtjSF1bY0hdW2NIXVtjSF1jMVtDQEhdKFtDSDNdKVtOSF1jKG5bY0hdbjIpYyhjMjMpbltjSF1uM1tDQEBIXTRPW0NASF0oW0NIMl1bT0hdKVtDQEBIXShbT0hdKVtDQEhdNFtPSF0=

> <s_epik_cmdline>
J2VwaWtfcHl0aG9uJywgJy1waCcsICc3LjAnLCAnLXRuJywgJzgnLCAnLW1hJywgJzIwMCcsICctbWV0YWxfYmluZGluZycsICctaW1hZScsICc8aW5maWxlLm1hZT4nLCAnLW9tYWUnLCAnPG91dGZpbGUubWFlPic=

> <r_lp_tautomer_probability>
1

> <r_epik_Ionization_Penalty>
0.000266407

> <r_epik_Ionization_Penalty_Charging>
0

> <r_epik_Ionization_Penalty_Neutral>
0.000266407

> <r_epik_State_Penalty>
-0

> <r_epik_Charging_Adjusted_Penalty>
0

> <i_epik_Tot_Q>
0

> <i_epik_Tot_abs_Q>
0

> <r_epik_Metal_State_Penalty>
-0

> <b_epik_Metal_Only>
0

> <s_epik_Chemistry_Notes>
This compound contains an acetal/aminal-like group ( X-CH(R)-Y where X, Y are N, S, or O) that may be acid/base labile, releasing an aldehyde.

> <s_lp_Force_Field>
OPLS_2005

> <r_lp_Energy>
39.6204

> <b_lp_Chiralities_Consistent>
1

> <s_lp_Variant>
AV-unprocessed.smi:283-13

> <Gold.Version>
5.8.1

> <Gold.Id.Protein>
6NUR|6NUR_protein|mol2

> <Gold.PLP.Fitness>
47.9506

> <Gold.PLP.PLP>
-34.4052

> <Gold.PLP.part.hbond>
-3.9739

> <Gold.PLP.part.metal>
0.0000

> <Gold.PLP.part.buried>
-4.9757

> <Gold.PLP.part.nonpolar>
-26.8372

> <Gold.PLP.part.repulsive>
0.4538

> <Gold.PLP.ligand.clash>
0.0000

> <Gold.PLP.ligand.torsion>
0.9575

> <Gold.PLP.Chemscore.Hbond>
3.9670

> <Gold.PLP.Chemscore.CHOScore>
1.1556

> <Gold.PLP.Chemscore.Metal>
0.0000

> <Gold.Chemscore.Hbonds>
donor molecule, donor type, donor heavy atom, donor atom, acceptor molecule, acceptor atom, score
      L1  H    17    42       P1  7948  1.00
      L1  H    19    43       P1  7948  0.46
      P1  H  7989  7998       L1     5  0.50
      L1  C     6    38       P1  7948  0.33
      L1  C     6    38       P1  7949  0.06
      L1  C     6    38       P1  7957  0.80

> <Gold.PLP.Chemscore.Internal.Correction>
0.0927

> <Gold.Rescore>
     Score         DG    S(hbond)    S(metal)    S(lipo)     H(rot)  DE(clash)    DE(int)     intcor
     10.29     -16.43       3.45        0.00      84.64       4.10       0.11       6.03       ----

> <Gold.Chemscore.Fitness>
10.2865

> <Gold.Chemscore.DG>
-16.4301

> <Gold.Chemscore.ZeroCoef>
-5.4800

> <Gold.Chemscore.Hbond>
3.4536

> <Gold.Chemscore.Metal>
0.0000

> <Gold.Chemscore.Lipo>
84.6411

> <Gold.Chemscore.Internal_Hbond>
0.0000

> <Gold.Chemscore.DEClash>
0.1112

> <Gold.Chemscore.DEInternal>
6.0324

> <Gold.Chemscore.Rot>
4.0968

> <Gold.Chemscore.Internal.Correction>
   9.000000E+99

> <Gold.Chemscore.Hbonds>
donor molecule, donor type, donor heavy atom, donor atom, acceptor molecule, acceptor atom, score
      L1  H    17    42       P1  7948  0.35
      L1  H    19    43       P1  7948  0.45
      P1  H  7989  7998       L1     5  0.25

> <Gold.Chemscore.Hbond.Weighted>
-11.5350

> <Gold.Chemscore.Metal.Weighted>
-0.0000

> <Gold.Chemscore.Lipo.Weighted>
-9.9030

> <Gold.Chemscore.Internal_Hbond.Weighted>
0.0000

> <Gold.Chemscore.DEClash.Weighted>
0.1112

> <Gold.Chemscore.DEInternal.Weighted>
6.0324

> <Gold.Chemscore.Rot.Weighted>
10.4879

> <Gold.Chemscore.Internal.Correction.Weighted>
   9.000000E+99

> <Gold.Protein.RotatedTorsions>
[ 6907 6896 6895 6894 ] final   -7.77 input  -60.11 | X-H torsion
[ 7974 7965 7964 7962 ] final    9.10 input  175.53 | X-H torsion
[ 8008 7997 7996 7995 ] final -178.78 input   59.86 | X-H torsion
[ 10167 10162 10161 10158 ] final  173.92 input  -65.29 | X-H torsion
[ 10718 10713 10712 10709 ] final   93.35 input   66.30 | X-H torsion
[ 10763 10752 10751 10750 ] final   26.00 input  -60.55 | X-H torsion
[ 11005 11000 10999 10996 ] final   -2.82 input  -57.11 | X-H torsion

> <Gold.Protein.ActiveResidues>
 VAL166  LYS551  ARG553  GLY616  TRP617  ASP618  TYR619  PRO620  LYS621  CYS622 
 ASP623  PHE694  ASN695  SER759  ASP760  ASP761  ALA762  ILE779  LEU786  VAL792 
 PHE793  MET794  SER795  GLU796  ALA797  LYS798  CYS799  TRP800  GLU811  SER814 

> <Gold.Protein.RotatedAtoms>
  151.4443  135.1023  159.9679 H   0  0  0  0  0  0  0  0  0  0  0  0  # atno 6907 bound_to 6896
  152.4911  133.8499  159.7206 H   0  0  0  0  0  0  0  0  0  0  0  0  # atno 6908 bound_to 6896
  150.9066  133.6991  159.2893 H   0  0  0  0  0  0  0  0  0  0  0  0  # atno 6909 bound_to 6896
  146.2408  139.9834  142.8433 H   0  0  0  0  0  0  0  0  0  0  0  0  # atno 7974 bound_to 7965
  156.0228  140.1265  157.0339 H   0  0  0  0  0  0  0  0  0  0  0  0  # atno 8008 bound_to 7997
  154.4318  140.1065  156.6058 H   0  0  0  0  0  0  0  0  0  0  0  0  # atno 8009 bound_to 7997
  155.5920  140.3469  155.4571 H   0  0  0  0  0  0  0  0  0  0  0  0  # atno 8010 bound_to 7997
  139.5124  144.3206  152.0206 H   0  0  0  0  0  0  0  0  0  0  0  0  # atno 10167 bound_to 10162
  157.6955  131.0475  150.4021 H   0  0  0  0  0  0  0  0  0  0  0  0  # atno 10718 bound_to 10713
  153.0652  135.6570  154.0370 H   0  0  0  0  0  0  0  0  0  0  0  0  # atno 10763 bound_to 10752
  154.0029  135.2935  155.3402 H   0  0  0  0  0  0  0  0  0  0  0  0  # atno 10764 bound_to 10752
  154.7007  135.5245  153.8591 H   0  0  0  0  0  0  0  0  0  0  0  0  # atno 10765 bound_to 10752
  140.6625  133.9307  155.8445 H   0  0  0  0  0  0  0  0  0  0  0  0  # atno 11005 bound_to 11000
  145.1570  140.9653  143.4399 LP  0  0  0  0  0  0  0  0  0  0  0  0  # atno 17320 bound_to 7965
  145.0151  139.3474  143.6100 LP  0  0  0  0  0  0  0  0  0  0  0  0  # atno 17321 bound_to 7965
  140.2648  144.4028  150.6172 LP  0  0  0  0  0  0  0  0  0  0  0  0  # atno 17342 bound_to 10162
  140.6131  143.2170  151.6846 LP  0  0  0  0  0  0  0  0  0  0  0  0  # atno 17343 bound_to 10162
  156.4413  130.3992  149.6695 LP  0  0  0  0  0  0  0  0  0  0  0  0  # atno 17370 bound_to 10713
  156.3878  130.7611  151.2610 LP  0  0  0  0  0  0  0  0  0  0  0  0  # atno 17371 bound_to 10713
  141.0454  134.0561  157.3850 LP  0  0  0  0  0  0  0  0  0  0  0  0  # atno 17394 bound_to 11000
  139.9008  135.0163  156.7259 LP  0  0  0  0  0  0  0  0  0  0  0  0  # atno 17395 bound_to 11000

$$$$
