AV-unprocessed.smi:1234|AV-procd|sdf|5174|dock6
  -GOLD-   22720 4253D 1   1.00000     0.00000
 Structure written by MMmdl.
 32 33  0  0  0  0  0  0  0  0  2 V2000
  151.7092  139.9350  158.8187 O   0  0  0  0  0  0  0  0  0  0  0  0
  152.5764  139.1042  158.5382 C   0  0  0  0  0  0  0  0  0  0  0  0
  153.6887  139.0244  159.2805 N   0  0  0  0  0  0  0  0  0  0  0  0
  153.9934  139.8647  160.4317 C   0  0  0  0  0  0  0  0  0  0  0  0
  154.1509  141.3330  159.9978 C   0  0  0  0  0  0  0  0  0  0  0  0
  153.3726  142.3274  160.8763 C   0  0  0  0  0  0  0  0  0  0  0  0
  153.4225  142.2344  162.1038 O   0  0  0  0  0  0  0  0  0  0  0  0
  152.6486  143.2864  160.2622 N   0  0  0  0  0  0  0  0  0  0  0  0
  151.8803  144.3021  160.9795 C   0  0  0  0  0  0  0  0  0  0  0  0
  151.4535  145.3216  159.9235 C   0  0  0  0  0  0  0  0  0  0  0  0
  151.4360  144.5275  158.6248 C   0  0  0  0  0  0  0  0  0  0  0  0
  152.5222  143.4682  158.8162 C   0  0  0  0  0  0  0  0  0  0  0  0
  152.5374  138.2177  157.5173 N   0  5  0  0  0  0  0  0  0  0  0  0
  151.7181  138.4305  156.4743 C   0  0  0  0  0  0  0  0  0  0  0  0
  151.3194  139.6615  156.1150 N   0  0  0  0  0  0  0  0  0  0  0  0
  150.4793  139.6626  155.0097 N   0  0  0  0  0  0  0  0  0  0  0  0
  150.2715  138.4265  154.5565 C   0  0  0  0  0  0  0  0  0  0  0  0
  151.0858  137.1497  155.4358 S   0  0  0  0  0  0  0  0  0  0  0  0
  154.3748  138.3312  159.0205 H   0  0  0  0  0  0  0  0  0  0  0  0
  153.1922  139.7719  161.1671 H   0  0  0  0  0  0  0  0  0  0  0  0
  154.9107  139.5043  160.9005 H   0  0  0  0  0  0  0  0  0  0  0  0
  155.2082  141.6005  160.0148 H   0  0  0  0  0  0  0  0  0  0  0  0
  153.8103  141.4415  158.9675 H   0  0  0  0  0  0  0  0  0  0  0  0
  151.0069  143.8306  161.4330 H   0  0  0  0  0  0  0  0  0  0  0  0
  152.4618  144.7735  161.7733 H   0  0  0  0  0  0  0  0  0  0  0  0
  150.4935  145.7870  160.1489 H   0  0  0  0  0  0  0  0  0  0  0  0
  152.2009  146.1135  159.8564 H   0  0  0  0  0  0  0  0  0  0  0  0
  150.4666  144.0406  158.5093 H   0  0  0  0  0  0  0  0  0  0  0  0
  151.6031  145.1506  157.7459 H   0  0  0  0  0  0  0  0  0  0  0  0
  153.4734  143.8221  158.4164 H   0  0  0  0  0  0  0  0  0  0  0  0
  152.2585  142.5427  158.3027 H   0  0  0  0  0  0  0  0  0  0  0  0
  149.6373  138.2659  153.6976 H   0  0  0  0  0  0  0  0  0  0  0  0
  1  2  2  0  0  0  0
  2  3  1  0  0  0  0
  2 13  1  0  0  0  0
  3  4  1  0  0  0  0
  3 19  1  0  0  0  0
  4  5  1  0  0  0  0
  4 20  1  0  0  0  0
  4 21  1  0  0  0  0
  5  6  1  0  0  0  0
  5 22  1  0  0  0  0
  5 23  1  0  0  0  0
  6  7  2  0  0  0  0
  6  8  1  0  0  0  0
  8 12  1  0  0  0  0
  8  9  1  0  0  0  0
  9 10  1  0  0  0  0
  9 24  1  0  0  0  0
  9 25  1  0  0  0  0
 10 11  1  0  0  0  0
 10 26  1  0  0  0  0
 10 27  1  0  0  0  0
 11 12  1  0  0  0  0
 11 28  1  0  0  0  0
 11 29  1  0  0  0  0
 12 30  1  0  0  0  0
 12 31  1  0  0  0  0
 13 14  1  0  0  0  0
 14 18  1  0  0  0  0
 14 15  2  0  0  0  0
 15 16  1  0  0  0  0
 16 17  2  0  0  0  0
 17 18  1  0  0  0  0
 17 32  1  0  0  0  0
M  CHG  1  13  -1
M  END
> <s_m_source_file>
AV-unprocessed.smi

> <i_m_source_file_index>
1234

> <i_lp_mmshare_version>
43012

> <i_f3d_flags>
0

> <s_epik_input>
czFbY0hdbm5jMVtOSF1DKD1PKVtOSF1bQ0gyXVtDSDJdQyg9TylOMltDSDJdW0NIMl1bQ0gyXVtDSDJdMg==

> <s_epik_cmdline>
J2VwaWtfcHl0aG9uJywgJy1waCcsICc3LjAnLCAnLXRuJywgJzgnLCAnLW1hJywgJzIwMCcsICctbWV0YWxfYmluZGluZycsICctaW1hZScsICc8aW5maWxlLm1hZT4nLCAnLW9tYWUnLCAnPG91dGZpbGUubWFlPic=

> <r_lp_tautomer_probability>
1

> <r_epik_Ionization_Penalty>
3.2941

> <r_epik_Ionization_Penalty_Charging>
3.25456

> <r_epik_Ionization_Penalty_Neutral>
0.039538

> <r_epik_State_Penalty>
3.25212

> <r_epik_Charging_Adjusted_Penalty>
6.50668

> <i_epik_Tot_Q>
-1

> <i_epik_Tot_abs_Q>
1

> <r_epik_Metal_State_Penalty>
0.477003

> <b_epik_Metal_Only>
1

> <s_lp_Force_Field>
OPLS_2005

> <r_lp_Energy>
26.7799

> <b_lp_Chiralities_Consistent>
1

> <s_lp_Variant>
AV-unprocessed.smi:1234-2

> <Gold.Version>
5.8.1

> <Gold.Id.Protein>
6NUR|6NUR_protein|mol2

> <Gold.PLP.Fitness>
47.4222

> <Gold.PLP.PLP>
-42.8792

> <Gold.PLP.part.hbond>
-1.0000

> <Gold.PLP.part.metal>
0.0000

> <Gold.PLP.part.buried>
-6.2020

> <Gold.PLP.part.nonpolar>
-35.1024

> <Gold.PLP.part.repulsive>
0.2102

> <Gold.PLP.ligand.clash>
0.0000

> <Gold.PLP.ligand.torsion>
0.7451

> <Gold.PLP.Chemscore.Hbond>
1.0000

> <Gold.PLP.Chemscore.CHOScore>
1.0000

> <Gold.PLP.Chemscore.Metal>
0.0000

> <Gold.Chemscore.Hbonds>
donor molecule, donor type, donor heavy atom, donor atom, acceptor molecule, acceptor atom, score
      P1  H  7989  7998       L1    16  0.46
      L1  C    17    32       P1  7948  0.35

> <Gold.PLP.Chemscore.Internal.Correction>
0.0333

> <Gold.Rescore>
     Score         DG    S(hbond)    S(metal)    S(lipo)     H(rot)  DE(clash)    DE(int)     intcor
     12.07     -14.28       0.99        0.00      85.53       1.76       0.10       2.11       ----

> <Gold.Chemscore.Fitness>
12.0680

> <Gold.Chemscore.DG>
-14.2754

> <Gold.Chemscore.ZeroCoef>
-5.4800

> <Gold.Chemscore.Hbond>
0.9860

> <Gold.Chemscore.Metal>
0.0000

> <Gold.Chemscore.Lipo>
85.5287

> <Gold.Chemscore.Internal_Hbond>
0.0000

> <Gold.Chemscore.DEClash>
0.0984

> <Gold.Chemscore.DEInternal>
2.1089

> <Gold.Chemscore.Rot>
1.7596

> <Gold.Chemscore.Internal.Correction>
   9.000000E+99

> <Gold.Chemscore.Hbonds>
donor molecule, donor type, donor heavy atom, donor atom, acceptor molecule, acceptor atom, score
      P1  H  7989  7998       L1    16  0.13

> <Gold.Chemscore.Hbond.Weighted>
-3.2931

> <Gold.Chemscore.Metal.Weighted>
-0.0000

> <Gold.Chemscore.Lipo.Weighted>
-10.0069

> <Gold.Chemscore.Internal_Hbond.Weighted>
0.0000

> <Gold.Chemscore.DEClash.Weighted>
0.0984

> <Gold.Chemscore.DEInternal.Weighted>
2.1089

> <Gold.Chemscore.Rot.Weighted>
4.5046

> <Gold.Chemscore.Internal.Correction.Weighted>
   9.000000E+99

> <Gold.Protein.RotatedTorsions>
[ 6907 6896 6895 6894 ] final  135.93 input  -60.11 | X-H torsion
[ 7974 7965 7964 7962 ] final  100.71 input  175.53 | X-H torsion
[ 8008 7997 7996 7995 ] final  173.85 input   59.86 | X-H torsion
[ 10167 10162 10161 10158 ] final  150.08 input  -65.29 | X-H torsion
[ 10718 10713 10712 10709 ] final  156.65 input   66.30 | X-H torsion
[ 10763 10752 10751 10750 ] final  -29.97 input  -60.55 | X-H torsion
[ 11005 11000 10999 10996 ] final   47.95 input  -57.11 | X-H torsion

> <Gold.Protein.ActiveResidues>
 VAL166  LYS551  ARG553  GLY616  TRP617  ASP618  TYR619  PRO620  LYS621  CYS622 
 ASP623  PHE694  ASN695  SER759  ASP760  ASP761  ALA762  ILE779  LEU786  VAL792 
 PHE793  MET794  SER795  GLU796  ALA797  LYS798  CYS799  TRP800  GLU811  SER814 

> <Gold.Protein.RotatedAtoms>
  152.2950  133.5599  159.5581 H   0  0  0  0  0  0  0  0  0  0  0  0  # atno 6907 bound_to 6896
  150.7252  134.0373  159.3763 H   0  0  0  0  0  0  0  0  0  0  0  0  # atno 6908 bound_to 6896
  151.8277  135.0632  160.0484 H   0  0  0  0  0  0  0  0  0  0  0  0  # atno 6909 bound_to 6896
  145.3819  139.2378  143.3398 H   0  0  0  0  0  0  0  0  0  0  0  0  # atno 7974 bound_to 7965
  156.1034  140.1449  156.9437 H   0  0  0  0  0  0  0  0  0  0  0  0  # atno 8008 bound_to 7997
  154.4717  140.0907  156.7206 H   0  0  0  0  0  0  0  0  0  0  0  0  # atno 8009 bound_to 7997
  155.4722  140.3442  155.4329 H   0  0  0  0  0  0  0  0  0  0  0  0  # atno 8010 bound_to 7997
  139.4854  144.5551  151.7332 H   0  0  0  0  0  0  0  0  0  0  0  0  # atno 10167 bound_to 10162
  157.2021  131.0678  151.2019 H   0  0  0  0  0  0  0  0  0  0  0  0  # atno 10718 bound_to 10713
  153.7733  135.6910  153.4902 H   0  0  0  0  0  0  0  0  0  0  0  0  # atno 10763 bound_to 10752
  153.1860  135.4488  155.0088 H   0  0  0  0  0  0  0  0  0  0  0  0  # atno 10764 bound_to 10752
  154.8109  135.3377  154.7241 H   0  0  0  0  0  0  0  0  0  0  0  0  # atno 10765 bound_to 10752
  140.1234  134.4800  155.8579 H   0  0  0  0  0  0  0  0  0  0  0  0  # atno 11005 bound_to 11000
  146.2838  140.4488  142.8766 LP  0  0  0  0  0  0  0  0  0  0  0  0  # atno 17320 bound_to 7965
  144.8501  140.6988  143.6173 LP  0  0  0  0  0  0  0  0  0  0  0  0  # atno 17321 bound_to 7965
  140.5111  144.1024  150.5995 LP  0  0  0  0  0  0  0  0  0  0  0  0  # atno 17342 bound_to 10162
  140.3950  143.2733  152.0016 LP  0  0  0  0  0  0  0  0  0  0  0  0  # atno 17343 bound_to 10162
  157.3756  130.7204  149.6595 LP  0  0  0  0  0  0  0  0  0  0  0  0  # atno 17370 bound_to 10713
  155.9699  130.4186  150.4337 LP  0  0  0  0  0  0  0  0  0  0  0  0  # atno 17371 bound_to 10713
  141.2156  133.6769  156.6931 LP  0  0  0  0  0  0  0  0  0  0  0  0  # atno 17394 bound_to 11000
  140.2936  134.8221  157.4038 LP  0  0  0  0  0  0  0  0  0  0  0  0  # atno 17395 bound_to 11000

$$$$
