AV-unprocessed.smi:2232|AV-procd|sdf|9038|dock7
  -GOLD-   2272012243D 1   1.00000     0.00000
 Structure written by MMmdl.
 42 43  0  0  0  0  0  0  0  0  1 V2000
  151.9720  145.9554  160.3802 C   0  0  0  0  0  0  0  0  0  0  0  0
  151.9578  144.5681  159.7732 C   0  0  0  0  0  0  0  0  0  0  0  0
  152.7199  143.5258  160.3345 C   0  0  0  0  0  0  0  0  0  0  0  0
  152.6625  142.2574  159.7247 C   0  0  0  0  0  0  0  0  0  0  0  0
  153.4552  141.0915  160.2773 C   0  0  0  0  0  0  0  0  0  0  0  0
  151.9156  141.9994  158.6299 N   0  0  0  0  0  0  0  0  0  0  0  0
  151.1781  142.9959  158.0801 C   0  0  0  0  0  0  0  0  0  0  0  0
  150.3556  142.8267  156.9346 N   0  0  0  0  0  0  0  0  0  0  0  0
  150.1622  141.7113  156.2087 C   0  0  0  0  0  0  0  0  0  0  0  0
  150.7062  140.6251  156.4114 O   0  0  0  0  0  0  0  0  0  0  0  0
  149.2887  141.9248  155.2138 N   0  0  0  0  0  0  0  0  0  0  0  0
  148.8632  140.9222  154.2443 C   0  0  0  0  0  0  0  0  0  0  0  0
  147.4809  141.2612  153.6541 C   0  0  0  0  0  0  0  0  0  0  0  0
  146.6789  142.1861  154.4535 N   0  0  0  0  0  0  0  0  0  0  0  0
  145.8513  141.5020  155.4453 C   0  0  0  0  0  0  0  0  0  0  0  0
  144.9860  142.4864  156.2525 C   0  0  0  0  0  0  0  0  0  0  0  0
  144.1862  143.2618  155.3660 O   0  0  0  0  0  0  0  0  0  0  0  0
  144.9642  143.9847  154.4179 C   0  0  0  0  0  0  0  0  0  0  0  0
  145.8203  143.0017  153.6010 C   0  0  0  0  0  0  0  0  0  0  0  0
  151.1773  144.2969  158.6314 C   0  0  0  0  0  0  0  0  0  0  0  0
  152.5572  145.9797  161.3001 H   0  0  0  0  0  0  0  0  0  0  0  0
  150.9567  146.2761  160.6144 H   0  0  0  0  0  0  0  0  0  0  0  0
  152.4058  146.6695  159.6798 H   0  0  0  0  0  0  0  0  0  0  0  0
  153.3311  143.6934  161.2093 H   0  0  0  0  0  0  0  0  0  0  0  0
  153.8874  141.3333  161.2487 H   0  0  0  0  0  0  0  0  0  0  0  0
  154.2667  140.8306  159.5978 H   0  0  0  0  0  0  0  0  0  0  0  0
  152.8145  140.2178  160.4001 H   0  0  0  0  0  0  0  0  0  0  0  0
  149.8513  143.6488  156.6378 H   0  0  0  0  0  0  0  0  0  0  0  0
  148.8901  142.8474  155.1189 H   0  0  0  0  0  0  0  0  0  0  0  0
  149.6211  140.8876  153.4626 H   0  0  0  0  0  0  0  0  0  0  0  0
  148.8484  139.9353  154.7099 H   0  0  0  0  0  0  0  0  0  0  0  0
  147.6371  141.7018  152.6684 H   0  0  0  0  0  0  0  0  0  0  0  0
  146.9195  140.3411  153.4830 H   0  0  0  0  0  0  0  0  0  0  0  0
  145.2038  140.7765  154.9504 H   0  0  0  0  0  0  0  0  0  0  0  0
  146.4762  140.9414  156.1396 H   0  0  0  0  0  0  0  0  0  0  0  0
  144.3348  141.9446  156.9386 H   0  0  0  0  0  0  0  0  0  0  0  0
  145.6115  143.1443  156.8577 H   0  0  0  0  0  0  0  0  0  0  0  0
  144.2985  144.5448  153.7612 H   0  0  0  0  0  0  0  0  0  0  0  0
  145.5947  144.7119  154.9319 H   0  0  0  0  0  0  0  0  0  0  0  0
  146.4292  143.5618  152.8904 H   0  0  0  0  0  0  0  0  0  0  0  0
  145.1654  142.3587  153.0109 H   0  0  0  0  0  0  0  0  0  0  0  0
  150.5850  145.0824  158.1844 H   0  0  0  0  0  0  0  0  0  0  0  0
  1  2  1  0  0  0  0
  1 21  1  0  0  0  0
  1 22  1  0  0  0  0
  1 23  1  0  0  0  0
  2 20  1  0  0  0  0
  2  3  2  0  0  0  0
  3  4  1  0  0  0  0
  3 24  1  0  0  0  0
  4  5  1  0  0  0  0
  4  6  2  0  0  0  0
  5 25  1  0  0  0  0
  5 26  1  0  0  0  0
  5 27  1  0  0  0  0
  6  7  1  0  0  0  0
  7  8  1  0  0  0  0
  7 20  2  0  0  0  0
  8  9  1  0  0  0  0
  8 28  1  0  0  0  0
  9 10  2  0  0  0  0
  9 11  1  0  0  0  0
 11 12  1  0  0  0  0
 11 29  1  0  0  0  0
 12 13  1  0  0  0  0
 12 30  1  0  0  0  0
 12 31  1  0  0  0  0
 13 14  1  0  0  0  0
 13 32  1  0  0  0  0
 13 33  1  0  0  0  0
 14 19  1  0  0  0  0
 14 15  1  0  0  0  0
 15 16  1  0  0  0  0
 15 34  1  0  0  0  0
 15 35  1  0  0  0  0
 16 17  1  0  0  0  0
 16 36  1  0  0  0  0
 16 37  1  0  0  0  0
 17 18  1  0  0  0  0
 18 19  1  0  0  0  0
 18 38  1  0  0  0  0
 18 39  1  0  0  0  0
 19 40  1  0  0  0  0
 19 41  1  0  0  0  0
 20 42  1  0  0  0  0
M  END
> <s_m_source_file>
AV-unprocessed.smi

> <i_m_source_file_index>
2232

> <i_lp_mmshare_version>
43012

> <i_f3d_flags>
0

> <s_epik_input>
W0NIM11jMVtjSF1jKFtDSDNdKW5jKFtjSF0xKVtOSF1DKD1PKVtOSF1bQ0gyXVtDSDJdTjJbQ0gyXVtDSDJdT1tDSDJdW0NIMl0y

> <s_epik_cmdline>
J2VwaWtfcHl0aG9uJywgJy1waCcsICc3LjAnLCAnLXRuJywgJzgnLCAnLW1hJywgJzIwMCcsICctbWV0YWxfYmluZGluZycsICctaW1hZScsICc8aW5maWxlLm1hZT4nLCAnLW9tYWUnLCAnPG91dGZpbGUubWFlPic=

> <r_epik_Ionization_Penalty>
0.26623

> <r_epik_Ionization_Penalty_Charging>
0

> <r_epik_Ionization_Penalty_Neutral>
0.26623

> <r_epik_State_Penalty>
0.257924

> <r_epik_Charging_Adjusted_Penalty>
0.257924

> <i_epik_Tot_Q>
0

> <i_epik_Tot_abs_Q>
0

> <r_epik_Metal_State_Penalty>
0.257909

> <b_epik_Metal_Only>
0

> <s_lp_Force_Field>
OPLS_2005

> <r_lp_Energy>
21.9386

> <b_lp_Chiralities_Consistent>
1

> <s_lp_Variant>
AV-unprocessed.smi:2232-1

> <Gold.Version>
5.8.1

> <Gold.Id.Protein>
6NUR|6NUR_protein|mol2

> <Gold.PLP.Fitness>
48.9538

> <Gold.PLP.PLP>
-44.6279

> <Gold.PLP.part.hbond>
-2.0000

> <Gold.PLP.part.metal>
0.0000

> <Gold.PLP.part.buried>
-7.6082

> <Gold.PLP.part.nonpolar>
-35.8189

> <Gold.PLP.part.repulsive>
0.5665

> <Gold.PLP.ligand.clash>
0.0000

> <Gold.PLP.ligand.torsion>
0.8285

> <Gold.PLP.Chemscore.Hbond>
1.9920

> <Gold.PLP.Chemscore.CHOScore>
0.0000

> <Gold.PLP.Chemscore.Metal>
0.0000

> <Gold.Chemscore.Hbonds>
donor molecule, donor type, donor heavy atom, donor atom, acceptor molecule, acceptor atom, score
      L1  H     8    28       P1  8028  1.00
      L1  H    11    29       P1  8028  0.99

> <Gold.PLP.Chemscore.Internal.Correction>
0.0070

> <Gold.Rescore>
     Score         DG    S(hbond)    S(metal)    S(lipo)     H(rot)  DE(clash)    DE(int)     intcor
     18.40     -20.58       1.93        0.00     105.70       1.44       0.05       2.13       ----

> <Gold.Chemscore.Fitness>
18.4033

> <Gold.Chemscore.DG>
-20.5846

> <Gold.Chemscore.ZeroCoef>
-5.4800

> <Gold.Chemscore.Hbond>
1.9259

> <Gold.Chemscore.Metal>
0.0000

> <Gold.Chemscore.Lipo>
105.6996

> <Gold.Chemscore.Internal_Hbond>
0.0000

> <Gold.Chemscore.DEClash>
0.0535

> <Gold.Chemscore.DEInternal>
2.1278

> <Gold.Chemscore.Rot>
1.4433

> <Gold.Chemscore.Internal.Correction>
   9.000000E+99

> <Gold.Chemscore.Hbonds>
donor molecule, donor type, donor heavy atom, donor atom, acceptor molecule, acceptor atom, score
      L1  H     8    28       P1  8028  1.00
      L1  H    11    29       P1  8028  0.94

> <Gold.Chemscore.Hbond.Weighted>
-6.4325

> <Gold.Chemscore.Metal.Weighted>
-0.0000

> <Gold.Chemscore.Lipo.Weighted>
-12.3669

> <Gold.Chemscore.Internal_Hbond.Weighted>
0.0000

> <Gold.Chemscore.DEClash.Weighted>
0.0535

> <Gold.Chemscore.DEInternal.Weighted>
2.1278

> <Gold.Chemscore.Rot.Weighted>
3.6948

> <Gold.Chemscore.Internal.Correction.Weighted>
   9.000000E+99

> <Gold.Protein.RotatedTorsions>
[ 6907 6896 6895 6894 ] final    4.70 input  -60.11 | X-H torsion
[ 7974 7965 7964 7962 ] final  -17.72 input  175.53 | X-H torsion
[ 8008 7997 7996 7995 ] final  127.17 input   59.86 | X-H torsion
[ 10167 10162 10161 10158 ] final  162.57 input  -65.29 | X-H torsion
[ 10718 10713 10712 10709 ] final   23.25 input   66.30 | X-H torsion
[ 10763 10752 10751 10750 ] final   39.57 input  -60.55 | X-H torsion
[ 11005 11000 10999 10996 ] final   40.36 input  -57.11 | X-H torsion

> <Gold.Protein.ActiveResidues>
 VAL166  LYS551  ARG553  GLY616  TRP617  ASP618  TYR619  PRO620  LYS621  CYS622 
 ASP623  PHE694  ASN695  SER759  ASP760  ASP761  ALA762  ILE779  LEU786  VAL792 
 PHE793  MET794  SER795  GLU796  ALA797  LYS798  CYS799  TRP800  GLU811  SER814 

> <Gold.Protein.RotatedAtoms>
  151.6455  135.1008  160.0149 H   0  0  0  0  0  0  0  0  0  0  0  0  # atno 6907 bound_to 6896
  152.4030  133.6842  159.6341 H   0  0  0  0  0  0  0  0  0  0  0  0  # atno 6908 bound_to 6896
  150.7928  133.8675  159.3290 H   0  0  0  0  0  0  0  0  0  0  0  0  # atno 6909 bound_to 6896
  146.1927  140.3820  142.8452 H   0  0  0  0  0  0  0  0  0  0  0  0  # atno 7974 bound_to 7965
  156.2884  140.2675  156.2230 H   0  0  0  0  0  0  0  0  0  0  0  0  # atno 8008 bound_to 7997
  155.0149  140.0387  157.2432 H   0  0  0  0  0  0  0  0  0  0  0  0  # atno 8009 bound_to 7997
  154.7485  140.2738  155.6317 H   0  0  0  0  0  0  0  0  0  0  0  0  # atno 8010 bound_to 7997
  139.4862  144.4424  151.8935 H   0  0  0  0  0  0  0  0  0  0  0  0  # atno 10167 bound_to 10162
  157.1635  130.6727  149.6052 H   0  0  0  0  0  0  0  0  0  0  0  0  # atno 10718 bound_to 10713
  152.9963  135.6217  154.2486 H   0  0  0  0  0  0  0  0  0  0  0  0  # atno 10763 bound_to 10752
  154.2225  135.2795  155.2921 H   0  0  0  0  0  0  0  0  0  0  0  0  # atno 10764 bound_to 10752
  154.5516  135.5731  153.6986 H   0  0  0  0  0  0  0  0  0  0  0  0  # atno 10765 bound_to 10752
  140.1938  134.3954  155.8132 H   0  0  0  0  0  0  0  0  0  0  0  0  # atno 11005 bound_to 11000
  144.8518  140.7013  143.6163 LP  0  0  0  0  0  0  0  0  0  0  0  0  # atno 17320 bound_to 7965
  145.3742  139.1651  143.4316 LP  0  0  0  0  0  0  0  0  0  0  0  0  # atno 17321 bound_to 7965
  140.3877  144.2656  150.5902 LP  0  0  0  0  0  0  0  0  0  0  0  0  # atno 17342 bound_to 10162
  140.5175  143.2274  151.8440 LP  0  0  0  0  0  0  0  0  0  0  0  0  # atno 17343 bound_to 10162
  155.9750  130.4703  150.6426 LP  0  0  0  0  0  0  0  0  0  0  0  0  # atno 17370 bound_to 10713
  157.4110  131.0823  151.1221 LP  0  0  0  0  0  0  0  0  0  0  0  0  # atno 17371 bound_to 10713
  141.2227  133.7059  156.8141 LP  0  0  0  0  0  0  0  0  0  0  0  0  # atno 17394 bound_to 11000
  140.2130  134.8813  157.3295 LP  0  0  0  0  0  0  0  0  0  0  0  0  # atno 17395 bound_to 11000

$$$$
