AV-unprocessed.smi:826|AV-procd|sdf|3852|dock4
  -GOLD-   22720 1303D 1   1.00000     0.00000
 Structure written by MMmdl.
 39 40  0  0  0  0  0  0  0  0  1 V2000
  145.5718  129.0863  152.0331 C   0  0  0  0  0  0  0  0  0  0  0  0
  146.1623  130.4425  152.2157 C   0  0  0  0  0  0  0  0  0  0  0  0
  147.2874  130.6506  152.9099 N   0  0  0  0  0  0  0  0  0  0  0  0
  147.6422  131.9921  152.9469 N   0  0  0  0  0  0  0  0  0  0  0  0
  146.7711  132.7583  152.2763 C   0  0  0  0  0  0  0  0  0  0  0  0
  146.8872  134.1684  152.1586 N   0  0  0  0  0  0  0  0  0  0  0  0
  145.9047  135.0855  152.1211 C   0  0  0  0  0  0  0  0  0  0  0  0
  144.7004  134.8450  152.2135 O   0  0  0  0  0  0  0  0  0  0  0  0
  146.4016  136.3225  151.9706 N   0  0  0  0  0  0  0  0  0  0  0  0
  145.6062  137.5478  151.9132 C   0  0  2  0  0  0  0  0  0  0  0  0
  146.5679  138.7449  151.9962 C   0  0  0  0  0  0  0  0  0  0  0  0
  144.6473  137.6181  153.1117 C   0  0  0  0  0  0  0  0  0  0  0  0
  145.0851  137.7017  154.2605 O   0  0  0  0  0  0  0  0  0  0  0  0
  143.3372  137.5916  152.8244 N   0  0  0  0  0  0  0  0  0  0  0  0
  142.2625  137.6346  153.8116 C   0  0  0  0  0  0  0  0  0  0  0  0
  141.3804  136.3693  153.7516 C   0  0  0  0  0  0  0  0  0  0  0  0
  139.9342  136.8627  153.6803 C   0  0  0  0  0  0  0  0  0  0  0  0
  140.0328  138.2160  152.9836 C   0  0  0  0  0  0  0  0  0  0  0  0
  141.3225  138.8225  153.5364 C   0  0  0  0  0  0  0  0  0  0  0  0
  145.4363  131.8932  151.5342 S   0  0  0  0  0  0  0  0  0  0  0  0
  145.5168  128.5678  152.9905 H   0  0  0  0  0  0  0  0  0  0  0  0
  146.1869  128.5003  151.3499 H   0  0  0  0  0  0  0  0  0  0  0  0
  144.5654  129.1621  151.6208 H   0  0  0  0  0  0  0  0  0  0  0  0
  147.8300  134.5196  152.0811 H   0  0  0  0  0  0  0  0  0  0  0  0
  147.4035  136.4303  151.9119 H   0  0  0  0  0  0  0  0  0  0  0  0
  145.0487  137.5900  150.9752 H   0  0  0  0  0  0  0  0  0  0  0  0
  146.0265  139.6912  151.9609 H   0  0  0  0  0  0  0  0  0  0  0  0
  147.2659  138.7409  151.1584 H   0  0  0  0  0  0  0  0  0  0  0  0
  147.1567  138.7320  152.9151 H   0  0  0  0  0  0  0  0  0  0  0  0
  143.0649  137.5191  151.8547 H   0  0  0  0  0  0  0  0  0  0  0  0
  142.6934  137.7495  154.8080 H   0  0  0  0  0  0  0  0  0  0  0  0
  141.6006  135.7877  152.8547 H   0  0  0  0  0  0  0  0  0  0  0  0
  141.5451  135.7133  154.6068 H   0  0  0  0  0  0  0  0  0  0  0  0
  139.2782  136.1666  153.1573 H   0  0  0  0  0  0  0  0  0  0  0  0
  139.5416  136.9977  154.6891 H   0  0  0  0  0  0  0  0  0  0  0  0
  140.1260  138.0696  151.9066 H   0  0  0  0  0  0  0  0  0  0  0  0
  139.1613  138.8467  153.1619 H   0  0  0  0  0  0  0  0  0  0  0  0
  141.1022  139.3299  154.4766 H   0  0  0  0  0  0  0  0  0  0  0  0
  141.7486  139.5685  152.8642 H   0  0  0  0  0  0  0  0  0  0  0  0
  1  2  1  0  0  0  0
  1 21  1  0  0  0  0
  1 22  1  0  0  0  0
  1 23  1  0  0  0  0
  2 20  1  0  0  0  0
  2  3  2  0  0  0  0
  3  4  1  0  0  0  0
  4  5  2  0  0  0  0
  5  6  1  0  0  0  0
  5 20  1  0  0  0  0
  6  7  1  0  0  0  0
  6 24  1  0  0  0  0
  7  8  2  0  0  0  0
  7  9  1  0  0  0  0
  9 10  1  0  0  0  0
  9 25  1  0  0  0  0
 10 11  1  0  0  0  0
 10 12  1  0  0  0  0
 10 26  1  0  0  0  0
 11 27  1  0  0  0  0
 11 28  1  0  0  0  0
 11 29  1  0  0  0  0
 12 13  2  0  0  0  0
 12 14  1  0  0  0  0
 14 15  1  0  0  0  0
 14 30  1  0  0  0  0
 15 19  1  0  0  0  0
 15 16  1  0  0  0  0
 15 31  1  0  0  0  0
 16 17  1  0  0  0  0
 16 32  1  0  0  0  0
 16 33  1  0  0  0  0
 17 18  1  0  0  0  0
 17 34  1  0  0  0  0
 17 35  1  0  0  0  0
 18 19  1  0  0  0  0
 18 36  1  0  0  0  0
 18 37  1  0  0  0  0
 19 38  1  0  0  0  0
 19 39  1  0  0  0  0
M  END
> <s_m_source_file>
AV-unprocessed.smi

> <i_m_source_file_index>
826

> <i_lp_mmshare_version>
43012

> <i_f3d_flags>
0

> <s_epik_input>
W0NIM11jMW5uYyhzMSlbTkhdQyg9TylbTkhdW0NASF0oW0NIM10pQyg9TylbTkhdW0NIXTJbQ0gyXVtDSDJdW0NIMl1bQ0gyXTI=

> <s_epik_cmdline>
J2VwaWtfcHl0aG9uJywgJy1waCcsICc3LjAnLCAnLXRuJywgJzgnLCAnLW1hJywgJzIwMCcsICctbWV0YWxfYmluZGluZycsICctaW1hZScsICc8aW5maWxlLm1hZT4nLCAnLW9tYWUnLCAnPG91dGZpbGUubWFlPic=

> <r_lp_tautomer_probability>
1

> <r_epik_Ionization_Penalty>
0.00368568

> <r_epik_Ionization_Penalty_Charging>
0

> <r_epik_Ionization_Penalty_Neutral>
0.00368568

> <r_epik_State_Penalty>
-0

> <r_epik_Charging_Adjusted_Penalty>
0

> <i_epik_Tot_Q>
0

> <i_epik_Tot_abs_Q>
0

> <r_epik_Metal_State_Penalty>
0.369753

> <b_epik_Metal_Only>
0

> <s_lp_Force_Field>
OPLS_2005

> <r_lp_Energy>
15.7146

> <b_lp_Chiralities_Consistent>
1

> <s_lp_Variant>
AV-unprocessed.smi:826-1

> <Gold.Version>
5.8.1

> <Gold.Id.Protein>
6NUR|6NUR_protein|mol2

> <Gold.PLP.Fitness>
38.7768

> <Gold.PLP.PLP>
-33.7902

> <Gold.PLP.part.hbond>
-3.3527

> <Gold.PLP.part.metal>
0.0000

> <Gold.PLP.part.buried>
-1.4892

> <Gold.PLP.part.nonpolar>
-28.9828

> <Gold.PLP.part.repulsive>
0.7903

> <Gold.PLP.ligand.clash>
0.0000

> <Gold.PLP.ligand.torsion>
0.3862

> <Gold.PLP.Chemscore.Hbond>
1.9120

> <Gold.PLP.Chemscore.CHOScore>
0.0000

> <Gold.PLP.Chemscore.Metal>
0.0000

> <Gold.Chemscore.Hbonds>
donor molecule, donor type, donor heavy atom, donor atom, acceptor molecule, acceptor atom, score
      L1  H     6    24       P1  7948  0.90
      L1  H     9    25       P1  7948  1.00
      L1  H    14    30       P1 10171  0.02

> <Gold.PLP.Chemscore.Internal.Correction>
0.0229

> <Gold.Rescore>
     Score         DG    S(hbond)    S(metal)    S(lipo)     H(rot)  DE(clash)    DE(int)     intcor
     13.51     -15.01       1.67        0.00      69.77       1.65       0.08       1.42       ----

> <Gold.Chemscore.Fitness>
13.5136

> <Gold.Chemscore.DG>
-15.0113

> <Gold.Chemscore.ZeroCoef>
-5.4800

> <Gold.Chemscore.Hbond>
1.6710

> <Gold.Chemscore.Metal>
0.0000

> <Gold.Chemscore.Lipo>
69.7721

> <Gold.Chemscore.Internal_Hbond>
0.0000

> <Gold.Chemscore.DEClash>
0.0779

> <Gold.Chemscore.DEInternal>
1.4198

> <Gold.Chemscore.Rot>
1.6458

> <Gold.Chemscore.Internal.Correction>
   9.000000E+99

> <Gold.Chemscore.Hbonds>
donor molecule, donor type, donor heavy atom, donor atom, acceptor molecule, acceptor atom, score
      L1  H     6    24       P1  7948  0.29
      L1  H     9    25       P1  7948  0.94
      L1  H    14    30       P1 10171  0.04

> <Gold.Chemscore.Hbond.Weighted>
-5.5813

> <Gold.Chemscore.Metal.Weighted>
-0.0000

> <Gold.Chemscore.Lipo.Weighted>
-8.1633

> <Gold.Chemscore.Internal_Hbond.Weighted>
0.0000

> <Gold.Chemscore.DEClash.Weighted>
0.0779

> <Gold.Chemscore.DEInternal.Weighted>
1.4198

> <Gold.Chemscore.Rot.Weighted>
4.2133

> <Gold.Chemscore.Internal.Correction.Weighted>
   9.000000E+99

> <Gold.Protein.RotatedTorsions>
[ 6907 6896 6895 6894 ] final  152.99 input  -60.11 | X-H torsion
[ 7974 7965 7964 7962 ] final    0.85 input  175.53 | X-H torsion
[ 8008 7997 7996 7995 ] final   10.71 input   59.86 | X-H torsion
[ 10167 10162 10161 10158 ] final -112.99 input  -65.29 | X-H torsion
[ 10718 10713 10712 10709 ] final  -51.99 input   66.30 | X-H torsion
[ 10763 10752 10751 10750 ] final   21.99 input  -60.55 | X-H torsion
[ 11005 11000 10999 10996 ] final   71.03 input  -57.11 | X-H torsion

> <Gold.Protein.ActiveResidues>
 VAL166  LYS551  ARG553  GLY616  TRP617  ASP618  TYR619  PRO620  LYS621  CYS622 
 ASP623  PHE694  ASN695  SER759  ASP760  ASP761  ALA762  ILE779  LEU786  VAL792 
 PHE793  MET794  SER795  GLU796  ALA797  LYS798  CYS799  TRP800  GLU811  SER814 

> <Gold.Protein.RotatedAtoms>
  152.0789  133.4143  159.4492 H   0  0  0  0  0  0  0  0  0  0  0  0  # atno 6907 bound_to 6896
  150.6862  134.3005  159.4713 H   0  0  0  0  0  0  0  0  0  0  0  0  # atno 6908 bound_to 6896
  152.0844  134.9449  160.0623 H   0  0  0  0  0  0  0  0  0  0  0  0  # atno 6909 bound_to 6896
  146.2437  140.1075  142.8345 H   0  0  0  0  0  0  0  0  0  0  0  0  # atno 7974 bound_to 7965
  154.7971  140.2845  155.5948 H   0  0  0  0  0  0  0  0  0  0  0  0  # atno 8008 bound_to 7997
  156.2972  140.2593  156.2760 H   0  0  0  0  0  0  0  0  0  0  0  0  # atno 8009 bound_to 7997
  154.9601  140.0378  157.2175 H   0  0  0  0  0  0  0  0  0  0  0  0  # atno 8010 bound_to 7997
  140.1168  143.4479  152.1717 H   0  0  0  0  0  0  0  0  0  0  0  0  # atno 10167 bound_to 10162
  156.1661  130.4149  149.9718 H   0  0  0  0  0  0  0  0  0  0  0  0  # atno 10718 bound_to 10713
  153.0951  135.6657  153.9779 H   0  0  0  0  0  0  0  0  0  0  0  0  # atno 10763 bound_to 10752
  153.9365  135.2998  155.3445 H   0  0  0  0  0  0  0  0  0  0  0  0  # atno 10764 bound_to 10752
  154.7369  135.5097  153.9130 H   0  0  0  0  0  0  0  0  0  0  0  0  # atno 10765 bound_to 10752
  139.9565  134.7135  156.0741 H   0  0  0  0  0  0  0  0  0  0  0  0  # atno 11005 bound_to 11000
  145.0515  140.9021  143.4992 LP  0  0  0  0  0  0  0  0  0  0  0  0  # atno 17320 bound_to 7965
  145.1174  139.2716  143.5606 LP  0  0  0  0  0  0  0  0  0  0  0  0  # atno 17321 bound_to 7965
  139.5590  144.7393  151.4210 LP  0  0  0  0  0  0  0  0  0  0  0  0  # atno 17342 bound_to 10162
  140.6895  143.7895  150.7234 LP  0  0  0  0  0  0  0  0  0  0  0  0  # atno 17343 bound_to 10162
  156.7533  130.9123  151.3638 LP  0  0  0  0  0  0  0  0  0  0  0  0  # atno 17370 bound_to 10713
  157.6769  130.9102  150.0171 LP  0  0  0  0  0  0  0  0  0  0  0  0  # atno 17371 bound_to 10713
  141.1237  133.6605  156.3282 LP  0  0  0  0  0  0  0  0  0  0  0  0  # atno 17394 bound_to 11000
  140.5597  134.5947  157.5430 LP  0  0  0  0  0  0  0  0  0  0  0  0  # atno 17395 bound_to 11000

$$$$
