AV-unprocessed.smi:1419|AV-procd|sdf|5776|dock7
  -GOLD-   22720 5423D 1   1.00000     0.00000
 Structure written by MMmdl.
 42 43  0  0  0  0  0  0  0  0  2 V2000
  148.6343  133.5889  153.5956 C   0  0  0  0  0  0  0  0  0  0  0  0
  147.6863  132.9182  152.5927 C   0  0  2  0  0  0  0  0  0  0  0  0
  146.2297  133.3848  152.8002 C   0  0  0  0  0  0  0  0  0  0  0  0
  145.3786  133.1367  151.6310 N   0  0  0  0  0  0  0  0  0  0  0  0
  145.6242  132.2737  150.5939 C   0  0  0  0  0  0  0  0  0  0  0  0
  144.5514  132.3673  149.7452 C   0  0  0  0  0  0  0  0  0  0  0  0
  143.7011  133.2888  150.2950 N   0  3  0  0  0  0  0  0  0  0  0  0
  144.2076  133.7588  151.4398 C   0  0  0  0  0  0  0  0  0  0  0  0
  147.7946  131.4672  152.7379 N   0  0  0  0  0  0  0  0  0  0  0  0
  147.7117  130.7787  153.8899 C   0  0  0  0  0  0  0  0  0  0  0  0
  147.4956  131.3290  154.9705 O   0  0  0  0  0  0  0  0  0  0  0  0
  147.8809  129.4398  153.7615 N   0  0  0  0  0  0  0  0  0  0  0  0
  147.9107  128.4489  154.8449 C   0  0  0  0  0  0  0  0  0  0  0  0
  146.5866  127.6617  154.8080 C   0  0  2  0  0  0  0  0  0  0  0  0
  146.5429  126.5561  155.8681 C   0  0  0  0  0  0  0  0  0  0  0  0
  146.4325  127.0488  153.5251 O   0  0  0  0  0  0  0  0  0  0  0  0
  146.5084  127.9296  152.3992 C   0  0  1  0  0  0  0  0  0  0  0  0
  145.2311  128.7785  152.2676 C   0  0  0  0  0  0  0  0  0  0  0  0
  147.8106  128.7567  152.4676 C   0  0  0  0  0  0  0  0  0  0  0  0
  148.6031  134.6745  153.4993 H   0  0  0  0  0  0  0  0  0  0  0  0
  149.6657  133.2753  153.4312 H   0  0  0  0  0  0  0  0  0  0  0  0
  148.3697  133.3386  154.6237 H   0  0  0  0  0  0  0  0  0  0  0  0
  148.0129  133.2160  151.5947 H   0  0  0  0  0  0  0  0  0  0  0  0
  145.7842  132.8963  153.6688 H   0  0  0  0  0  0  0  0  0  0  0  0
  146.2009  134.4581  152.9931 H   0  0  0  0  0  0  0  0  0  0  0  0
  146.5165  131.6665  150.5432 H   0  0  0  0  0  0  0  0  0  0  0  0
  144.3355  131.8604  148.8158 H   0  0  0  0  0  0  0  0  0  0  0  0
  143.7536  134.4882  152.0869 H   0  0  0  0  0  0  0  0  0  0  0  0
  147.9551  130.9402  151.8917 H   0  0  0  0  0  0  0  0  0  0  0  0
  148.7542  127.7739  154.6913 H   0  0  0  0  0  0  0  0  0  0  0  0
  148.0607  128.8807  155.8344 H   0  0  0  0  0  0  0  0  0  0  0  0
  145.7526  128.3403  154.9908 H   0  0  0  0  0  0  0  0  0  0  0  0
  146.6417  126.9695  156.8721 H   0  0  0  0  0  0  0  0  0  0  0  0
  147.3488  125.8365  155.7212 H   0  0  0  0  0  0  0  0  0  0  0  0
  145.5986  126.0127  155.8243 H   0  0  0  0  0  0  0  0  0  0  0  0
  146.5623  127.2939  151.5150 H   0  0  0  0  0  0  0  0  0  0  0  0
  145.2633  129.3876  151.3641 H   0  0  0  0  0  0  0  0  0  0  0  0
  145.0940  129.4541  153.1100 H   0  0  0  0  0  0  0  0  0  0  0  0
  144.3481  128.1425  152.2058 H   0  0  0  0  0  0  0  0  0  0  0  0
  147.8691  129.4423  151.6207 H   0  0  0  0  0  0  0  0  0  0  0  0
  148.6732  128.0959  152.3693 H   0  0  0  0  0  0  0  0  0  0  0  0
  142.8156  133.5741  149.8955 H   0  0  0  0  0  0  0  0  0  0  0  0
  1  2  1  0  0  0  0
  1 20  1  0  0  0  0
  1 21  1  0  0  0  0
  1 22  1  0  0  0  0
  2  3  1  0  0  0  0
  2  9  1  0  0  0  0
  2 23  1  0  0  0  0
  3  4  1  0  0  0  0
  3 24  1  0  0  0  0
  3 25  1  0  0  0  0
  4  8  1  0  0  0  0
  4  5  1  0  0  0  0
  5  6  2  0  0  0  0
  5 26  1  0  0  0  0
  6  7  1  0  0  0  0
  6 27  1  0  0  0  0
  7  8  2  0  0  0  0
  7 42  1  0  0  0  0
  8 28  1  0  0  0  0
  9 10  1  0  0  0  0
  9 29  1  0  0  0  0
 10 11  2  0  0  0  0
 10 12  1  0  0  0  0
 12 19  1  0  0  0  0
 12 13  1  0  0  0  0
 13 14  1  0  0  0  0
 13 30  1  0  0  0  0
 13 31  1  0  0  0  0
 14 15  1  0  0  0  0
 14 16  1  0  0  0  0
 14 32  1  0  0  0  0
 15 33  1  0  0  0  0
 15 34  1  0  0  0  0
 15 35  1  0  0  0  0
 16 17  1  0  0  0  0
 17 18  1  0  0  0  0
 17 19  1  0  0  0  0
 17 36  1  0  0  0  0
 18 37  1  0  0  0  0
 18 38  1  0  0  0  0
 18 39  1  0  0  0  0
 19 40  1  0  0  0  0
 19 41  1  0  0  0  0
M  CHG  1   7   1
M  END
> <s_m_source_file>
AV-unprocessed.smi

> <i_m_source_file_index>
1419

> <i_lp_mmshare_version>
43012

> <i_f3d_flags>
0

> <s_epik_input>
W2NIXTFuW2NIXVtjSF1uMVtDSDJdW0NAQEhdKFtDSDNdKVtOSF1DKD1PKU4yW0NIMl1bQ0BASF0oW0NIM10pT1tDQEBIXShbQ0gzXSlbQ0gyXTI=

> <s_epik_cmdline>
J2VwaWtfcHl0aG9uJywgJy1waCcsICc3LjAnLCAnLXRuJywgJzgnLCAnLW1hJywgJzIwMCcsICctbWV0YWxfYmluZGluZycsICctaW1hZScsICc8aW5maWxlLm1hZT4nLCAnLW9tYWUnLCAnPG91dGZpbGUubWFlPic=

> <r_lp_tautomer_probability>
1

> <r_epik_Ionization_Penalty>
0.253607

> <r_epik_Ionization_Penalty_Charging>
0

> <r_epik_Ionization_Penalty_Neutral>
0.253607

> <r_epik_State_Penalty>
0.245018

> <r_epik_Charging_Adjusted_Penalty>
0.245018

> <i_epik_Tot_Q>
1

> <i_epik_Tot_abs_Q>
1

> <r_epik_Metal_State_Penalty>
0.535379

> <b_epik_Metal_Only>
0

> <s_lp_Force_Field>
OPLS_2005

> <r_lp_Energy>
31.3779

> <b_lp_Chiralities_Consistent>
1

> <s_lp_Variant>
AV-unprocessed.smi:1419-3

> <Gold.Version>
5.8.1

> <Gold.Id.Protein>
6NUR|6NUR_protein|mol2

> <Gold.PLP.Fitness>
40.5990

> <Gold.PLP.PLP>
-30.7910

> <Gold.PLP.part.hbond>
-3.0000

> <Gold.PLP.part.metal>
0.0000

> <Gold.PLP.part.buried>
-1.6013

> <Gold.PLP.part.nonpolar>
-26.4248

> <Gold.PLP.part.repulsive>
0.0799

> <Gold.PLP.ligand.clash>
0.9393

> <Gold.PLP.ligand.torsion>
0.5747

> <Gold.PLP.Chemscore.Hbond>
2.9825

> <Gold.PLP.Chemscore.CHOScore>
0.9652

> <Gold.PLP.Chemscore.Metal>
0.0000

> <Gold.Chemscore.Hbonds>
donor molecule, donor type, donor heavy atom, donor atom, acceptor molecule, acceptor atom, score
      L1  H     7    42       P1 10186  2.00
      L1  H     9    29       P1 10747  0.90
      L1  C     5    26       P1 10747  0.83

> <Gold.PLP.Chemscore.Internal.Correction>
0.0536

> <Gold.Rescore>
     Score         DG    S(hbond)    S(metal)    S(lipo)     H(rot)  DE(clash)    DE(int)     intcor
     13.56     -15.80       1.96        0.00      67.89       1.63       0.34       1.90       ----

> <Gold.Chemscore.Fitness>
13.5564

> <Gold.Chemscore.DG>
-15.7972

> <Gold.Chemscore.ZeroCoef>
-5.4800

> <Gold.Chemscore.Hbond>
1.9581

> <Gold.Chemscore.Metal>
0.0000

> <Gold.Chemscore.Lipo>
67.8882

> <Gold.Chemscore.Internal_Hbond>
0.0000

> <Gold.Chemscore.DEClash>
0.3403

> <Gold.Chemscore.DEInternal>
1.9005

> <Gold.Chemscore.Rot>
1.6273

> <Gold.Chemscore.Internal.Correction>
   9.000000E+99

> <Gold.Chemscore.Hbonds>
donor molecule, donor type, donor heavy atom, donor atom, acceptor molecule, acceptor atom, score
      L1  H     7    42       P1 10186  0.93
      L1  H     9    29       P1 10747  0.88

> <Gold.Chemscore.Hbond.Weighted>
-6.5401

> <Gold.Chemscore.Metal.Weighted>
-0.0000

> <Gold.Chemscore.Lipo.Weighted>
-7.9429

> <Gold.Chemscore.Internal_Hbond.Weighted>
0.0000

> <Gold.Chemscore.DEClash.Weighted>
0.3403

> <Gold.Chemscore.DEInternal.Weighted>
1.9005

> <Gold.Chemscore.Rot.Weighted>
4.1658

> <Gold.Chemscore.Internal.Correction.Weighted>
   9.000000E+99

> <Gold.Protein.RotatedTorsions>
[ 6907 6896 6895 6894 ] final    4.32 input  -60.11 | X-H torsion
[ 7974 7965 7964 7962 ] final  -42.93 input  175.53 | X-H torsion
[ 8008 7997 7996 7995 ] final   99.50 input   59.86 | X-H torsion
[ 10167 10162 10161 10158 ] final -132.53 input  -65.29 | X-H torsion
[ 10718 10713 10712 10709 ] final  112.40 input   66.30 | X-H torsion
[ 10763 10752 10751 10750 ] final  107.04 input  -60.55 | X-H torsion
[ 11005 11000 10999 10996 ] final -137.78 input  -57.11 | X-H torsion

> <Gold.Protein.ActiveResidues>
 VAL166  LYS551  ARG553  GLY616  TRP617  ASP618  TYR619  PRO620  LYS621  CYS622 
 ASP623  PHE694  ASN695  SER759  ASP760  ASP761  ALA762  ILE779  LEU786  VAL792 
 PHE793  MET794  SER795  GLU796  ALA797  LYS798  CYS799  TRP800  GLU811  SER814 

> <Gold.Protein.RotatedAtoms>
  151.6394  135.1014  160.0138 H   0  0  0  0  0  0  0  0  0  0  0  0  # atno 6907 bound_to 6896
  152.4062  133.6889  159.6367 H   0  0  0  0  0  0  0  0  0  0  0  0  # atno 6908 bound_to 6896
  150.7956  133.8621  159.3276 H   0  0  0  0  0  0  0  0  0  0  0  0  # atno 6909 bound_to 6896
  146.0068  140.7010  142.9243 H   0  0  0  0  0  0  0  0  0  0  0  0  # atno 7974 bound_to 7965
  156.1111  140.3227  155.8074 H   0  0  0  0  0  0  0  0  0  0  0  0  # atno 8008 bound_to 7997
  155.4670  140.0544  157.3001 H   0  0  0  0  0  0  0  0  0  0  0  0  # atno 8009 bound_to 7997
  154.4761  140.2033  155.9890 H   0  0  0  0  0  0  0  0  0  0  0  0  # atno 8010 bound_to 7997
  139.9076  143.6532  152.2582 H   0  0  0  0  0  0  0  0  0  0  0  0  # atno 10167 bound_to 10162
  157.6394  131.0967  150.6890 H   0  0  0  0  0  0  0  0  0  0  0  0  # atno 10718 bound_to 10713
  153.4012  135.3857  155.1989 H   0  0  0  0  0  0  0  0  0  0  0  0  # atno 10763 bound_to 10752
  154.8729  135.3772  154.4616 H   0  0  0  0  0  0  0  0  0  0  0  0  # atno 10764 bound_to 10752
  153.5114  135.7087  153.5841 H   0  0  0  0  0  0  0  0  0  0  0  0  # atno 10765 bound_to 10752
  140.8678  134.2088  157.4669 H   0  0  0  0  0  0  0  0  0  0  0  0  # atno 11005 bound_to 11000
  144.6938  140.3329  143.7213 LP  0  0  0  0  0  0  0  0  0  0  0  0  # atno 17320 bound_to 7965
  145.7403  139.1762  143.2380 LP  0  0  0  0  0  0  0  0  0  0  0  0  # atno 17321 bound_to 7965
  139.6970  144.7640  151.1338 LP  0  0  0  0  0  0  0  0  0  0  0  0  # atno 17342 bound_to 10162
  140.7693  143.5509  150.9205 LP  0  0  0  0  0  0  0  0  0  0  0  0  # atno 17343 bound_to 10162
  156.7216  130.4682  149.5521 LP  0  0  0  0  0  0  0  0  0  0  0  0  # atno 17370 bound_to 10713
  156.1662  130.6406  151.0780 LP  0  0  0  0  0  0  0  0  0  0  0  0  # atno 17371 bound_to 10713
  139.8710  134.9760  156.4905 LP  0  0  0  0  0  0  0  0  0  0  0  0  # atno 17394 bound_to 11000
  140.8608  133.8061  155.9263 LP  0  0  0  0  0  0  0  0  0  0  0  0  # atno 17395 bound_to 11000

$$$$
