AV-unprocessed.smi:159|AV-procd|sdf|1340|dock1
  -GOLD-   2262019 33D 1   1.00000     0.00000
 Structure written by MMmdl.
 28 29  0  0  0  0  0  0  0  0  1 V2000
  148.8314  140.3426  153.6407 N   0  0  0  0  0  0  0  0  0  0  0  0
  149.6124  140.6078  154.6971 C   0  0  0  0  0  0  0  0  0  0  0  0
  149.1613  141.5131  155.7289 C   0  0  0  0  0  0  0  0  0  0  0  0
  150.0026  141.7282  156.7643 C   0  0  0  0  0  0  0  0  0  0  0  0
  151.2429  141.1068  156.8529 N   0  0  0  0  0  0  0  0  0  0  0  0
  152.1990  141.3550  158.0047 C   0  0  2  0  0  0  0  0  0  0  0  0
  151.5779  140.9056  159.3413 C   0  0  0  0  0  0  0  0  0  0  0  0
  151.7165  142.1439  160.2046 C   0  0  0  0  0  0  0  0  0  0  0  0
  151.6519  143.2631  159.1713 C   0  0  1  0  0  0  0  0  0  0  0  0
  152.2360  144.5932  159.6663 C   0  0  0  0  0  0  0  0  0  0  0  0
  151.5869  144.9901  160.8552 O   0  0  0  0  0  0  0  0  0  0  0  0
  152.4557  142.7244  158.1283 O   0  0  0  0  0  0  0  0  0  0  0  0
  151.6614  140.2380  155.8160 C   0  0  0  0  0  0  0  0  0  0  0  0
  152.7604  139.6847  155.8405 O   0  0  0  0  0  0  0  0  0  0  0  0
  150.7957  140.0313  154.7759 N   0  0  0  0  0  0  0  0  0  0  0  0
  153.1206  140.8338  157.7391 H   0  0  0  0  0  0  0  0  0  0  0  0
  150.6198  143.3861  158.8369 H   0  0  0  0  0  0  0  0  0  0  0  0
  149.1496  139.7108  152.9201 H   0  0  0  0  0  0  0  0  0  0  0  0
  147.9227  140.7768  153.5682 H   0  0  0  0  0  0  0  0  0  0  0  0
  148.2024  142.0109  155.7045 H   0  0  0  0  0  0  0  0  0  0  0  0
  149.6675  142.4098  157.5314 H   0  0  0  0  0  0  0  0  0  0  0  0
  150.5252  140.6522  159.2060 H   0  0  0  0  0  0  0  0  0  0  0  0
  152.1027  140.0399  159.7462 H   0  0  0  0  0  0  0  0  0  0  0  0
  150.9394  142.2207  160.9656 H   0  0  0  0  0  0  0  0  0  0  0  0
  152.6864  142.1425  160.7042 H   0  0  0  0  0  0  0  0  0  0  0  0
  153.2956  144.4757  159.8947 H   0  0  0  0  0  0  0  0  0  0  0  0
  152.1509  145.3715  158.9073 H   0  0  0  0  0  0  0  0  0  0  0  0
  151.1975  145.8399  160.7162 H   0  0  0  0  0  0  0  0  0  0  0  0
  1  2  1  0  0  0  0
  1 18  1  0  0  0  0
  1 19  1  0  0  0  0
  2 15  2  0  0  0  0
  2  3  1  0  0  0  0
  3  4  2  0  0  0  0
  3 20  1  0  0  0  0
  4  5  1  0  0  0  0
  4 21  1  0  0  0  0
  5  6  1  0  0  0  0
  5 13  1  0  0  0  0
  6 16  1  0  0  0  0
  6 12  1  0  0  0  0
  6  7  1  0  0  0  0
  7  8  1  0  0  0  0
  7 22  1  0  0  0  0
  7 23  1  0  0  0  0
  8  9  1  0  0  0  0
  8 24  1  0  0  0  0
  8 25  1  0  0  0  0
  9 17  1  0  0  0  0
  9 10  1  0  0  0  0
  9 12  1  0  0  0  0
 10 11  1  0  0  0  0
 10 26  1  0  0  0  0
 10 27  1  0  0  0  0
 11 28  1  0  0  0  0
 13 14  2  0  0  0  0
 13 15  1  0  0  0  0
M  END
> <s_m_source_file>
AV-unprocessed.smi

> <i_m_source_file_index>
159

> <i_lp_mmshare_version>
43012

> <i_f3d_flags>
0

> <s_epik_input>
W05IMl1jMVtjSF1bY0hdbihjKD1PKW4xKVtDQEhdMltDSDJdW0NIMl1bQ0BIXShPMilbQ0gyXVtPSF0=

> <s_epik_cmdline>
J2VwaWtfcHl0aG9uJywgJy1waCcsICc3LjAnLCAnLXRuJywgJzgnLCAnLW1hJywgJzIwMCcsICctbWV0YWxfYmluZGluZycsICctaW1hZScsICc8aW5maWxlLm1hZT4nLCAnLW9tYWUnLCAnPG91dGZpbGUubWFlPic=

> <r_lp_tautomer_probability>
0.99996

> <r_epik_Ionization_Penalty>
0.00126102

> <r_epik_Ionization_Penalty_Charging>
4.46248e-08

> <r_epik_Ionization_Penalty_Neutral>
0.00126097

> <r_epik_State_Penalty>
1.15523e-05

> <r_epik_Charging_Adjusted_Penalty>
1.1597e-05

> <i_epik_Tot_Q>
0

> <i_epik_Tot_abs_Q>
0

> <r_epik_Metal_State_Penalty>
-0

> <b_epik_Metal_Only>
0

> <s_epik_Chemistry_Notes>
This compound contains an acetal/aminal-like group ( X-CH(R)-Y where X, Y are N, S, or O) that may be acid/base labile, releasing an aldehyde.

> <s_lp_Force_Field>
OPLS_2005

> <r_lp_Energy>
23.8013

> <b_lp_Chiralities_Consistent>
1

> <s_lp_Variant>
AV-unprocessed.smi:159-2

> <Gold.Version>
5.8.1

> <Gold.Id.Protein>
6NUR|6NUR_protein|mol2

> <Gold.PLP.Fitness>
32.7177

> <Gold.PLP.PLP>
-24.9283

> <Gold.PLP.part.hbond>
-3.9733

> <Gold.PLP.part.metal>
0.0000

> <Gold.PLP.part.buried>
0.7476

> <Gold.PLP.part.nonpolar>
-21.2681

> <Gold.PLP.part.repulsive>
0.2292

> <Gold.PLP.ligand.clash>
0.0000

> <Gold.PLP.ligand.torsion>
0.0528

> <Gold.PLP.Chemscore.Hbond>
2.6240

> <Gold.PLP.Chemscore.CHOScore>
0.0000

> <Gold.PLP.Chemscore.Metal>
0.0000

> <Gold.Chemscore.Hbonds>
donor molecule, donor type, donor heavy atom, donor atom, acceptor molecule, acceptor atom, score
      L1  H     1    18       P1  7957  0.61
      P1  H  7989  7998       L1    15  1.00
      P1  H  7997  8010       L1    14  1.00

> <Gold.PLP.Chemscore.Internal.Correction>
0.0230

> <Gold.Rescore>
     Score         DG    S(hbond)    S(metal)    S(lipo)     H(rot)  DE(clash)    DE(int)     intcor
     11.21     -12.49       1.97        0.00      49.56       2.09       1.18       0.10       ----

> <Gold.Chemscore.Fitness>
11.2117

> <Gold.Chemscore.DG>
-12.4898

> <Gold.Chemscore.ZeroCoef>
-5.4800

> <Gold.Chemscore.Hbond>
1.9673

> <Gold.Chemscore.Metal>
0.0000

> <Gold.Chemscore.Lipo>
49.5581

> <Gold.Chemscore.Internal_Hbond>
0.0000

> <Gold.Chemscore.DEClash>
1.1814

> <Gold.Chemscore.DEInternal>
0.0968

> <Gold.Chemscore.Rot>
2.0935

> <Gold.Chemscore.Internal.Correction>
   9.000000E+99

> <Gold.Chemscore.Hbonds>
donor molecule, donor type, donor heavy atom, donor atom, acceptor molecule, acceptor atom, score
      L1  H     1    18       P1  7957  0.62
      P1  H  7989  7998       L1    15  0.07
      P1  H  7997  8010       L1    14  1.00

> <Gold.Chemscore.Hbond.Weighted>
-6.5709

> <Gold.Chemscore.Metal.Weighted>
-0.0000

> <Gold.Chemscore.Lipo.Weighted>
-5.7983

> <Gold.Chemscore.Internal_Hbond.Weighted>
0.0000

> <Gold.Chemscore.DEClash.Weighted>
1.1814

> <Gold.Chemscore.DEInternal.Weighted>
0.0968

> <Gold.Chemscore.Rot.Weighted>
5.3594

> <Gold.Chemscore.Internal.Correction.Weighted>
   9.000000E+99

> <Gold.Protein.RotatedTorsions>
[ 6907 6896 6895 6894 ] final   13.89 input  -60.11 | X-H torsion
[ 7974 7965 7964 7962 ] final  -51.43 input  175.53 | X-H torsion
[ 8008 7997 7996 7995 ] final   86.96 input   59.86 | X-H torsion
[ 10167 10162 10161 10158 ] final -142.76 input  -65.29 | X-H torsion
[ 10718 10713 10712 10709 ] final   32.10 input   66.30 | X-H torsion
[ 10763 10752 10751 10750 ] final  -42.88 input  -60.55 | X-H torsion
[ 11005 11000 10999 10996 ] final -119.53 input  -57.11 | X-H torsion

> <Gold.Protein.ActiveResidues>
 VAL166  LYS551  ARG553  GLY616  TRP617  ASP618  TYR619  PRO620  LYS621  CYS622 
 ASP623  PHE694  ASN695  SER759  ASP760  ASP761  ALA762  ILE779  LEU786  VAL792 
 PHE793  MET794  SER795  GLU796  ALA797  LYS798  CYS799  TRP800  GLU811  SER814 

> <Gold.Protein.RotatedAtoms>
  151.7934  135.0729  160.0390 H   0  0  0  0  0  0  0  0  0  0  0  0  # atno 6907 bound_to 6896
  152.3140  133.5778  159.5708 H   0  0  0  0  0  0  0  0  0  0  0  0  # atno 6908 bound_to 6896
  150.7334  134.0026  159.3685 H   0  0  0  0  0  0  0  0  0  0  0  0  # atno 6909 bound_to 6896
  145.9190  140.7850  142.9657 H   0  0  0  0  0  0  0  0  0  0  0  0  # atno 7974 bound_to 7965
  155.9694  140.3387  155.6561 H   0  0  0  0  0  0  0  0  0  0  0  0  # atno 8008 bound_to 7997
  155.6695  140.0725  157.2543 H   0  0  0  0  0  0  0  0  0  0  0  0  # atno 8009 bound_to 7997
  154.4162  140.1694  156.1851 H   0  0  0  0  0  0  0  0  0  0  0  0  # atno 8010 bound_to 7997
  139.8058  143.7771  152.2661 H   0  0  0  0  0  0  0  0  0  0  0  0  # atno 10167 bound_to 10162
  157.2810  130.7255  149.6556 H   0  0  0  0  0  0  0  0  0  0  0  0  # atno 10718 bound_to 10713
  153.9863  135.6711  153.4752 H   0  0  0  0  0  0  0  0  0  0  0  0  # atno 10763 bound_to 10752
  153.0725  135.4966  154.8332 H   0  0  0  0  0  0  0  0  0  0  0  0  # atno 10764 bound_to 10752
  154.7135  135.3102  154.9122 H   0  0  0  0  0  0  0  0  0  0  0  0  # atno 10765 bound_to 10752
  141.0209  134.0126  157.3284 H   0  0  0  0  0  0  0  0  0  0  0  0  # atno 11005 bound_to 11000
  144.6751  140.1946  143.7393 LP  0  0  0  0  0  0  0  0  0  0  0  0  # atno 17320 bound_to 7965
  145.8574  139.2205  143.1736 LP  0  0  0  0  0  0  0  0  0  0  0  0  # atno 17321 bound_to 7965
  139.7905  144.7412  150.9962 LP  0  0  0  0  0  0  0  0  0  0  0  0  # atno 17342 bound_to 10162
  140.7819  143.4447  151.0499 LP  0  0  0  0  0  0  0  0  0  0  0  0  # atno 17343 bound_to 10162
  155.9664  130.4338  150.5022 LP  0  0  0  0  0  0  0  0  0  0  0  0  # atno 17370 bound_to 10713
  157.2966  131.0637  151.2097 LP  0  0  0  0  0  0  0  0  0  0  0  0  # atno 17371 bound_to 10713
  139.9145  135.0195  156.7827 LP  0  0  0  0  0  0  0  0  0  0  0  0  # atno 17394 bound_to 11000
  140.6575  133.9675  155.7787 LP  0  0  0  0  0  0  0  0  0  0  0  0  # atno 17395 bound_to 11000

$$$$
