AV-unprocessed.smi:701|AV-procd|sdf|3414|dock7
  -GOLD-   22720 0393D 1   1.00000     0.00000
 Structure written by MMmdl.
 48 50  0  0  0  0  0  0  0  0  2 V2000
  150.5902  138.5453  154.0821 C   0  0  0  0  0  0  0  0  0  0  0  0
  151.7719  139.0484  154.9137 C   0  0  0  0  0  0  0  0  0  0  0  0
  151.2746  139.8790  155.9485 O   0  0  0  0  0  0  0  0  0  0  0  0
  152.2158  140.1098  156.9891 C   0  0  2  0  0  0  0  0  0  0  0  0
  152.7073  138.8001  157.6179 C   0  0  0  0  0  0  0  0  0  0  0  0
  151.5977  138.9457  158.6646 C   0  0  2  0  0  0  0  0  0  0  0  0
  150.4059  138.1962  158.2685 N   0  0  0  0  0  0  0  0  0  0  0  0
  149.8093  137.2578  159.0169 C   0  0  0  0  0  0  0  0  0  0  0  0
  150.2353  136.8986  160.1153 O   0  0  0  0  0  0  0  0  0  0  0  0
  148.5491  136.6178  158.4226 C   0  0  0  0  0  0  0  0  0  0  0  0
  147.9238  135.6572  159.3445 N   0  0  0  0  0  0  0  0  0  0  0  0
  147.8114  134.3209  158.9220 C   0  0  0  0  0  0  0  0  0  0  0  0
  147.2589  133.3732  159.7030 C   0  0  0  0  0  0  0  0  0  0  0  0
  146.7690  133.7628  161.0195 C   0  0  0  0  0  0  0  0  0  0  0  0
  146.2559  132.9119  161.7436 O   0  0  0  0  0  0  0  0  0  0  0  0
  146.9060  135.0707  161.3862 N   0  5  0  0  0  0  0  0  0  0  0  0
  147.4730  136.0233  160.5825 C   0  0  0  0  0  0  0  0  0  0  0  0
  147.5893  137.1978  160.9343 O   0  0  0  0  0  0  0  0  0  0  0  0
  151.5343  140.4657  158.3371 C   0  0  0  0  0  0  0  0  0  0  0  0
  152.3890  141.3357  159.2831 C   0  0  0  0  0  0  0  0  0  0  0  0
  152.5002  142.8027  158.8313 C   0  0  0  0  0  0  0  0  0  0  0  0
  151.1166  143.4444  158.6741 C   0  0  0  0  0  0  0  0  0  0  0  0
  150.2156  142.5967  157.7689 C   0  0  0  0  0  0  0  0  0  0  0  0
  150.1464  141.1419  158.2607 C   0  0  0  0  0  0  0  0  0  0  0  0
  150.9302  137.9095  153.2646 H   0  0  0  0  0  0  0  0  0  0  0  0
  150.0334  139.3774  153.6502 H   0  0  0  0  0  0  0  0  0  0  0  0
  149.9009  137.9635  154.6948 H   0  0  0  0  0  0  0  0  0  0  0  0
  152.3208  138.2024  155.3288 H   0  0  0  0  0  0  0  0  0  0  0  0
  152.4607  139.6115  154.2824 H   0  0  0  0  0  0  0  0  0  0  0  0
  153.0124  140.7976  156.7027 H   0  0  0  0  0  0  0  0  0  0  0  0
  152.6323  137.9175  156.9817 H   0  0  0  0  0  0  0  0  0  0  0  0
  153.7052  138.8916  158.0487 H   0  0  0  0  0  0  0  0  0  0  0  0
  151.9425  138.7259  159.6765 H   0  0  0  0  0  0  0  0  0  0  0  0
  149.9837  138.4391  157.3839 H   0  0  0  0  0  0  0  0  0  0  0  0
  147.8311  137.3898  158.1382 H   0  0  0  0  0  0  0  0  0  0  0  0
  148.8258  136.1269  157.4887 H   0  0  0  0  0  0  0  0  0  0  0  0
  148.2051  134.1155  157.9374 H   0  0  0  0  0  0  0  0  0  0  0  0
  147.1839  132.3502  159.3650 H   0  0  0  0  0  0  0  0  0  0  0  0
  151.9687  141.3063  160.2895 H   0  0  0  0  0  0  0  0  0  0  0  0
  153.3946  140.9251  159.3785 H   0  0  0  0  0  0  0  0  0  0  0  0
  153.0905  143.3694  159.5520 H   0  0  0  0  0  0  0  0  0  0  0  0
  153.0375  142.8585  157.8844 H   0  0  0  0  0  0  0  0  0  0  0  0
  150.6505  143.5455  159.6551 H   0  0  0  0  0  0  0  0  0  0  0  0
  151.2134  144.4528  158.2712 H   0  0  0  0  0  0  0  0  0  0  0  0
  149.2136  143.0255  157.7363 H   0  0  0  0  0  0  0  0  0  0  0  0
  150.5952  142.6190  156.7466 H   0  0  0  0  0  0  0  0  0  0  0  0
  149.4767  140.5945  157.5976 H   0  0  0  0  0  0  0  0  0  0  0  0
  149.6660  141.1171  159.2397 H   0  0  0  0  0  0  0  0  0  0  0  0
  1  2  1  0  0  0  0
  1 25  1  0  0  0  0
  1 26  1  0  0  0  0
  1 27  1  0  0  0  0
  2  3  1  0  0  0  0
  2 28  1  0  0  0  0
  2 29  1  0  0  0  0
  3  4  1  0  0  0  0
  4 19  1  0  0  0  0
  4  5  1  0  0  0  0
  4 30  1  0  0  0  0
  5  6  1  0  0  0  0
  5 31  1  0  0  0  0
  5 32  1  0  0  0  0
  6  7  1  0  0  0  0
  6 19  1  0  0  0  0
  6 33  1  0  0  0  0
  7  8  1  0  0  0  0
  7 34  1  0  0  0  0
  8  9  2  0  0  0  0
  8 10  1  0  0  0  0
 10 11  1  0  0  0  0
 10 35  1  0  0  0  0
 10 36  1  0  0  0  0
 11 17  1  0  0  0  0
 11 12  1  0  0  0  0
 12 13  2  0  0  0  0
 12 37  1  0  0  0  0
 13 14  1  0  0  0  0
 13 38  1  0  0  0  0
 14 15  2  0  0  0  0
 14 16  1  0  0  0  0
 16 17  1  0  0  0  0
 17 18  2  0  0  0  0
 19 24  1  0  0  0  0
 19 20  1  0  0  0  0
 20 21  1  0  0  0  0
 20 39  1  0  0  0  0
 20 40  1  0  0  0  0
 21 22  1  0  0  0  0
 21 41  1  0  0  0  0
 21 42  1  0  0  0  0
 22 23  1  0  0  0  0
 22 43  1  0  0  0  0
 22 44  1  0  0  0  0
 23 24  1  0  0  0  0
 23 45  1  0  0  0  0
 23 46  1  0  0  0  0
 24 47  1  0  0  0  0
 24 48  1  0  0  0  0
M  CHG  1  16  -1
M  END
> <s_m_source_file>
AV-unprocessed.smi

> <i_m_source_file_index>
701

> <i_lp_mmshare_version>
43012

> <i_f3d_flags>
0

> <s_epik_input>
W0NIMl0xW0NIMl1bQ0gyXVtDSDJdW0NIMl1DMTJbQ0BIXShPW0NIMl1bQ0gzXSlbQ0gyXVtDQEhdMltOSF1DKD1PKVtDSDJdbjNbY0hdW2NIXWMoPU8pW25IXWMzPU8=

> <s_epik_cmdline>
J2VwaWtfcHl0aG9uJywgJy1waCcsICc3LjAnLCAnLXRuJywgJzgnLCAnLW1hJywgJzIwMCcsICctbWV0YWxfYmluZGluZycsICctaW1hZScsICc8aW5maWxlLm1hZT4nLCAnLW9tYWUnLCAnPG91dGZpbGUubWFlPic=

> <r_lp_tautomer_probability>
0.999537

> <r_epik_Ionization_Penalty>
3.12423

> <r_epik_Ionization_Penalty_Charging>
2.92877e-08

> <r_epik_Ionization_Penalty_Neutral>
3.12423

> <r_epik_State_Penalty>
3.12332

> <r_epik_Charging_Adjusted_Penalty>
3.12332

> <i_epik_Tot_Q>
-1

> <i_epik_Tot_abs_Q>
1

> <r_epik_Metal_State_Penalty>
0.463873

> <b_epik_Metal_Only>
1

> <s_lp_Force_Field>
OPLS_2005

> <r_lp_Energy>
38.2445

> <b_lp_Chiralities_Consistent>
1

> <s_lp_Variant>
AV-unprocessed.smi:701-7

> <Gold.Version>
5.8.1

> <Gold.Id.Protein>
6NUR|6NUR_protein|mol2

> <Gold.PLP.Fitness>
44.1102

> <Gold.PLP.PLP>
-36.0164

> <Gold.PLP.part.hbond>
-4.0000

> <Gold.PLP.part.metal>
0.0000

> <Gold.PLP.part.buried>
-3.3498

> <Gold.PLP.part.nonpolar>
-28.6779

> <Gold.PLP.part.repulsive>
0.1424

> <Gold.PLP.ligand.clash>
0.0000

> <Gold.PLP.ligand.torsion>
0.3387

> <Gold.PLP.Chemscore.Hbond>
2.8080

> <Gold.PLP.Chemscore.CHOScore>
0.0000

> <Gold.PLP.Chemscore.Metal>
0.0000

> <Gold.Chemscore.Hbonds>
donor molecule, donor type, donor heavy atom, donor atom, acceptor molecule, acceptor atom, score
      P1  H  6896  6909       L1     9  0.98
      P1  H  6931  6943       L1    18  0.85
      P1  H  6934  6947       L1    18  0.96

> <Gold.PLP.Chemscore.Internal.Correction>
0.3472

> <Gold.Rescore>
     Score         DG    S(hbond)    S(metal)    S(lipo)     H(rot)  DE(clash)    DE(int)     intcor
     18.73     -19.45       2.71        0.00      86.82       2.04       0.24       0.47       ----

> <Gold.Chemscore.Fitness>
18.7348

> <Gold.Chemscore.DG>
-19.4539

> <Gold.Chemscore.ZeroCoef>
-5.4800

> <Gold.Chemscore.Hbond>
2.7062

> <Gold.Chemscore.Metal>
0.0000

> <Gold.Chemscore.Lipo>
86.8154

> <Gold.Chemscore.Internal_Hbond>
0.0000

> <Gold.Chemscore.DEClash>
0.2443

> <Gold.Chemscore.DEInternal>
0.4747

> <Gold.Chemscore.Rot>
2.0399

> <Gold.Chemscore.Internal.Correction>
   9.000000E+99

> <Gold.Chemscore.Hbonds>
donor molecule, donor type, donor heavy atom, donor atom, acceptor molecule, acceptor atom, score
      P1  H  6896  6909       L1     9  0.55
      P1  H  6931  6943       L1    18  0.79
      P1  H  6934  6947       L1    18  0.92

> <Gold.Chemscore.Hbond.Weighted>
-9.0386

> <Gold.Chemscore.Metal.Weighted>
-0.0000

> <Gold.Chemscore.Lipo.Weighted>
-10.1574

> <Gold.Chemscore.Internal_Hbond.Weighted>
0.0000

> <Gold.Chemscore.DEClash.Weighted>
0.2443

> <Gold.Chemscore.DEInternal.Weighted>
0.4747

> <Gold.Chemscore.Rot.Weighted>
5.2222

> <Gold.Chemscore.Internal.Correction.Weighted>
   9.000000E+99

> <Gold.Protein.RotatedTorsions>
[ 6907 6896 6895 6894 ] final   87.27 input  -60.11 | X-H torsion
[ 7974 7965 7964 7962 ] final  -62.24 input  175.53 | X-H torsion
[ 8008 7997 7996 7995 ] final    0.54 input   59.86 | X-H torsion
[ 10167 10162 10161 10158 ] final -139.09 input  -65.29 | X-H torsion
[ 10718 10713 10712 10709 ] final   79.48 input   66.30 | X-H torsion
[ 10763 10752 10751 10750 ] final  179.67 input  -60.55 | X-H torsion
[ 11005 11000 10999 10996 ] final   98.83 input  -57.11 | X-H torsion

> <Gold.Protein.ActiveResidues>
 VAL166  LYS551  ARG553  GLY616  TRP617  ASP618  TYR619  PRO620  LYS621  CYS622 
 ASP623  PHE694  ASN695  SER759  ASP760  ASP761  ALA762  ILE779  LEU786  VAL792 
 PHE793  MET794  SER795  GLU796  ALA797  LYS798  CYS799  TRP800  GLU811  SER814 

> <Gold.Protein.RotatedAtoms>
  152.5408  134.2302  159.8821 H   0  0  0  0  0  0  0  0  0  0  0  0  # atno 6907 bound_to 6896
  151.2275  133.4462  159.2610 H   0  0  0  0  0  0  0  0  0  0  0  0  # atno 6908 bound_to 6896
  151.0747  134.9834  159.8382 H   0  0  0  0  0  0  0  0  0  0  0  0  # atno 6909 bound_to 6896
  145.7937  140.8695  143.0267 H   0  0  0  0  0  0  0  0  0  0  0  0  # atno 7974 bound_to 7965
  154.6692  140.2608  155.7025 H   0  0  0  0  0  0  0  0  0  0  0  0  # atno 8008 bound_to 7997
  156.2652  140.2833  156.1117 H   0  0  0  0  0  0  0  0  0  0  0  0  # atno 8009 bound_to 7997
  155.1193  140.0377  157.2736 H   0  0  0  0  0  0  0  0  0  0  0  0  # atno 8010 bound_to 7997
  139.8414  143.7317  152.2663 H   0  0  0  0  0  0  0  0  0  0  0  0  # atno 10167 bound_to 10162
  157.6778  130.9916  150.1939 H   0  0  0  0  0  0  0  0  0  0  0  0  # atno 10718 bound_to 10713
  154.5237  135.2795  155.1241 H   0  0  0  0  0  0  0  0  0  0  0  0  # atno 10763 bound_to 10752
  154.2788  135.6289  153.5342 H   0  0  0  0  0  0  0  0  0  0  0  0  # atno 10764 bound_to 10752
  152.9942  135.5646  154.5732 H   0  0  0  0  0  0  0  0  0  0  0  0  # atno 10765 bound_to 10752
  139.8771  134.9067  156.4514 H   0  0  0  0  0  0  0  0  0  0  0  0  # atno 11005 bound_to 11000
  144.6778  140.0160  143.7484 LP  0  0  0  0  0  0  0  0  0  0  0  0  # atno 17320 bound_to 7965
  145.9950  139.3045  143.0962 LP  0  0  0  0  0  0  0  0  0  0  0  0  # atno 17321 bound_to 7965
  139.7555  144.7522  151.0441 LP  0  0  0  0  0  0  0  0  0  0  0  0  # atno 17342 bound_to 10162
  140.7797  143.4810  151.0018 LP  0  0  0  0  0  0  0  0  0  0  0  0  # atno 17343 bound_to 10162
  156.2644  130.3714  149.8096 LP  0  0  0  0  0  0  0  0  0  0  0  0  # atno 17370 bound_to 10713
  156.5832  130.8474  151.3388 LP  0  0  0  0  0  0  0  0  0  0  0  0  # atno 17371 bound_to 10713
  140.8929  133.7835  155.9592 LP  0  0  0  0  0  0  0  0  0  0  0  0  # atno 17394 bound_to 11000
  140.8734  134.2698  157.5179 LP  0  0  0  0  0  0  0  0  0  0  0  0  # atno 17395 bound_to 11000

$$$$
