#       Name:                AV-unprocessed.smi:1399
#       Creating user name   scv26
#       Creation time:       Fri Mar 27 05:30:59 2020


#       File generated by GOLD software.
#

@<TRIPOS>MOLECULE
AV-unprocessed.smi:1399
    43    44     1
SMALL
NO_CHARGES


@<TRIPOS>ATOM
      1 ****        -5.2942   2.7290  -0.3353 N.pl3          1 S1                -1.0000
      2 ****        -4.6361   2.1454  -1.3550 C.2            1 S1                 0.0000
      3 ****        -4.2875   2.6534  -2.4188 O.2            1 S1                 0.0000
      4 ****        -4.2964   0.6786  -1.0701 C.3            1 S1                 0.0000
      5 ****        -2.8250   0.4996  -0.9954 N.4            1 S1                 1.0000
      6 ****        -2.4066  -0.8830  -1.3398 C.3            1 S1                 0.0000
      7 ****        -0.8741  -1.0033  -1.3953 C.3            1 S1                 0.0000
      8 ****        -0.2341  -0.5624  -0.0693 C.3            1 S1                 0.0000
      9 ****         1.2212  -0.6071  -0.1783 N.am           1 S1                 0.0000
     10 ****         2.0666  -0.7515   0.8526 C.2            1 S1                 0.0000
     11 ****         1.6992  -0.8715   2.0213 O.2            1 S1                 0.0000
     12 ****         3.3451  -0.7404   0.4421 N.am           1 S1                 0.0000
     13 ****         4.5043  -0.8709   1.2475 C.2            1 S1                 0.0000
     14 ****         4.6073  -1.1023   2.6509 C.2            1 S1                 0.0000
     15 ****         5.8745  -1.1660   3.0346 N.2            1 S1                 0.0000
     16 ****         6.5784  -0.9792   1.8955 N.pl3          1 S1                 0.0000
     17 ****         5.7842  -0.7975   0.7848 C.2            1 S1                 0.0000
     18 ****        -0.7119   0.8574   0.2845 C.3            1 S1                 0.0000
     19 ****        -2.2470   0.9389   0.3034 C.3            1 S1                 0.0000
     20 ****         7.5886  -0.9779   1.8931 H              1 S1                 0.0000
     21 ****        -5.5699   3.7143  -0.4261 H              1 S1                 0.0000
     22 ****        -4.7750   0.3008  -0.1638 H              1 S1                 0.0000
     23 ****        -4.7015   0.0962  -1.8987 H              1 S1                 0.0000
     24 ****        -2.8144  -1.5804  -0.6063 H              1 S1                 0.0000
     25 ****        -2.8212  -1.1624  -2.3091 H              1 S1                 0.0000
     26 ****        -0.5943  -2.0328  -1.6218 H              1 S1                 0.0000
     27 ****        -0.4934  -0.3913  -2.2147 H              1 S1                 0.0000
     28 ****        -0.5577  -1.2529   0.7123 H              1 S1                 0.0000
     29 ****         1.6125  -0.5156  -1.1045 H              1 S1                 0.0000
     30 ****         3.5075  -0.6202  -0.5469 H              1 S1                 0.0000
     31 ****         3.8325  -1.2257   3.3926 H              1 S1                 0.0000
     32 ****         6.1879  -0.6357  -0.2037 H              1 S1                 0.0000
     33 ****        -0.3188   1.1569   1.2568 H              1 S1                 0.0000
     34 ****        -0.3209   1.5731  -0.4404 H              1 S1                 0.0000
     35 ****        -2.5443   1.9649   0.5215 H              1 S1                 0.0000
     36 ****        -2.6450   0.3189   1.1082 H              1 S1                 0.0000
     37 ****        -2.4397   1.1018  -1.7090 H              1 S1                 0.0000
     38 ****        -5.5102   2.2134   0.4939 LP             1 S1                 0.0000
     39 ****        -4.4909   3.6148  -2.6041 LP             1 S1                 0.0000
     40 ****        -3.8006   2.1053  -3.0988 LP             1 S1                 0.0000
     41 ****         0.7239  -0.8643   2.2421 LP             1 S1                 0.0000
     42 ****         2.3760  -0.9762   2.7500 LP             1 S1                 0.0000
     43 ****         6.2293  -1.3177   3.9572 LP             1 S1                 0.0000
@<TRIPOS>BOND
    1    1    2 1     
    2    1   21 1     
    3    2    3 2     
    4    2    4 1     
    5    4    5 1     
    6    4   22 1     
    7    4   23 1     
    8    5   19 1     
    9    5    6 1     
   10    5   37 1     
   11    6    7 1     
   12    6   24 1     
   13    6   25 1     
   14    7    8 1     
   15    7   26 1     
   16    7   27 1     
   17    8    9 1     
   18    8   18 1     
   19    8   28 1     
   20    9   10 am    
   21    9   29 1     
   22   10   11 2     
   23   10   12 am    
   24   12   13 1     
   25   12   30 1     
   26   13   17 2     
   27   13   14 1     
   28   14   15 2     
   29   14   31 1     
   30   15   16 1     
   31   16   20 1     
   32   16   17 1     
   33   17   32 1     
   34   18   19 1     
   35   18   33 1     
   36   18   34 1     
   37   19   35 1     
   38   19   36 1     
   39    1   38 1     
   40    3   39 1     
   41    3   40 1     
   42   11   41 1     
   43   11   42 1     
   44   15   43 1     
@<TRIPOS>SUBSTRUCTURE
      1 S1             1
@<TRIPOS>SET
LONE_PAIRS      STATIC     ATOMS    <user>   **** ""
6 38 39 40 41 42 43
DONOR_HYDROGENS      STATIC     ATOMS    <user>   **** ""
5 21 37 29 30 20
ATOM$BLUE        STATIC     ATOMS    COLORGROUP SYSTEM
6 38 39 40 41 42 43
ATOM$RED        STATIC     ATOMS    COLORGROUP SYSTEM
5 21 37 29 30 20
