AV-unprocessed.smi:2759|AV-procd|sdf|10626|dock1
  -GOLD-   2272015 73D 1   1.00000     0.00000
 Structure written by MMmdl.
 43 44  0  0  0  0  0  0  0  0  1 V2000
  146.2045  142.3790  153.8943 C   0  0  0  0  0  0  0  0  0  0  0  0
  147.2488  141.3141  153.5054 C   0  0  0  0  0  0  0  0  0  0  0  0
  146.5247  139.9828  153.2302 C   0  0  0  0  0  0  0  0  0  0  0  0
  148.3620  141.1800  154.5788 C   0  0  2  0  0  0  0  0  0  0  0  0
  149.2041  142.3167  154.5062 O   0  0  0  0  0  0  0  0  0  0  0  0
  149.2603  139.9343  154.4103 C   0  0  0  0  0  0  0  0  0  0  0  0
  150.4606  139.9626  155.2991 C   0  0  0  0  0  0  0  0  0  0  0  0
  150.4845  140.2047  156.6074 N   0  0  0  0  0  0  0  0  0  0  0  0
  151.8032  140.0063  156.8866 C   0  0  0  0  0  0  0  0  0  0  0  0
  152.3663  140.1323  158.2667 C   0  0  0  0  0  0  0  0  0  0  0  0
  152.0645  141.5154  158.8488 C   0  0  0  0  0  0  0  0  0  0  0  0
  150.9013  141.8479  159.0750 O   0  0  0  0  0  0  0  0  0  0  0  0
  153.1203  142.3092  159.0898 N   0  0  0  0  0  0  0  0  0  0  0  0
  153.0502  143.6754  159.5989 C   0  0  0  0  0  0  0  0  0  0  0  0
  152.0413  143.7723  160.7595 C   0  0  0  0  0  0  0  0  0  0  0  0
  151.1595  144.9841  160.4540 C   0  0  0  0  0  0  0  0  0  0  0  0
  151.1427  145.0641  158.9308 C   0  0  0  0  0  0  0  0  0  0  0  0
  152.5583  144.6593  158.5188 C   0  0  0  0  0  0  0  0  0  0  0  0
  152.5694  139.6731  155.8540 N   0  0  0  0  0  0  0  0  0  0  0  0
  151.6665  139.6254  154.7823 O   0  0  0  0  0  0  0  0  0  0  0  0
  145.7238  142.1339  154.8419 H   0  0  0  0  0  0  0  0  0  0  0  0
  145.4231  142.4586  153.1379 H   0  0  0  0  0  0  0  0  0  0  0  0
  146.6503  143.3689  153.9933 H   0  0  0  0  0  0  0  0  0  0  0  0
  147.7116  141.6355  152.5710 H   0  0  0  0  0  0  0  0  0  0  0  0
  146.1210  139.5541  154.1480 H   0  0  0  0  0  0  0  0  0  0  0  0
  147.1815  139.2441  152.7729 H   0  0  0  0  0  0  0  0  0  0  0  0
  145.6927  140.1250  152.5399 H   0  0  0  0  0  0  0  0  0  0  0  0
  147.8952  141.1588  155.5648 H   0  0  0  0  0  0  0  0  0  0  0  0
  148.8152  143.0126  155.0142 H   0  0  0  0  0  0  0  0  0  0  0  0
  148.7145  139.0256  154.6573 H   0  0  0  0  0  0  0  0  0  0  0  0
  149.5810  139.8250  153.3734 H   0  0  0  0  0  0  0  0  0  0  0  0
  151.9456  139.3574  158.9091 H   0  0  0  0  0  0  0  0  0  0  0  0
  153.4451  139.9733  158.2411 H   0  0  0  0  0  0  0  0  0  0  0  0
  154.0403  141.9485  158.8810 H   0  0  0  0  0  0  0  0  0  0  0  0
  154.0360  143.9855  159.9507 H   0  0  0  0  0  0  0  0  0  0  0  0
  151.4141  142.8801  160.8008 H   0  0  0  0  0  0  0  0  0  0  0  0
  152.5347  143.8617  161.7278 H   0  0  0  0  0  0  0  0  0  0  0  0
  150.1603  144.8954  160.8813 H   0  0  0  0  0  0  0  0  0  0  0  0
  151.6183  145.8853  160.8632 H   0  0  0  0  0  0  0  0  0  0  0  0
  150.4242  144.3461  158.5329 H   0  0  0  0  0  0  0  0  0  0  0  0
  150.8656  146.0528  158.5639 H   0  0  0  0  0  0  0  0  0  0  0  0
  153.1990  145.5418  158.5216 H   0  0  0  0  0  0  0  0  0  0  0  0
  152.5869  144.2483  157.5087 H   0  0  0  0  0  0  0  0  0  0  0  0
  1  2  1  0  0  0  0
  1 21  1  0  0  0  0
  1 22  1  0  0  0  0
  1 23  1  0  0  0  0
  2  3  1  0  0  0  0
  2  4  1  0  0  0  0
  2 24  1  0  0  0  0
  3 25  1  0  0  0  0
  3 26  1  0  0  0  0
  3 27  1  0  0  0  0
  4  5  1  0  0  0  0
  4  6  1  0  0  0  0
  4 28  1  0  0  0  0
  5 29  1  0  0  0  0
  6  7  1  0  0  0  0
  6 30  1  0  0  0  0
  6 31  1  0  0  0  0
  7 20  1  0  0  0  0
  7  8  2  0  0  0  0
  8  9  1  0  0  0  0
  9 10  1  0  0  0  0
  9 19  2  0  0  0  0
 10 11  1  0  0  0  0
 10 32  1  0  0  0  0
 10 33  1  0  0  0  0
 11 12  2  0  0  0  0
 11 13  1  0  0  0  0
 13 14  1  0  0  0  0
 13 34  1  0  0  0  0
 14 18  1  0  0  0  0
 14 15  1  0  0  0  0
 14 35  1  0  0  0  0
 15 16  1  0  0  0  0
 15 36  1  0  0  0  0
 15 37  1  0  0  0  0
 16 17  1  0  0  0  0
 16 38  1  0  0  0  0
 16 39  1  0  0  0  0
 17 18  1  0  0  0  0
 17 40  1  0  0  0  0
 17 41  1  0  0  0  0
 18 42  1  0  0  0  0
 18 43  1  0  0  0  0
 19 20  1  0  0  0  0
M  END
> <s_m_source_file>
AV-unprocessed.smi

> <i_m_source_file_index>
2759

> <i_lp_mmshare_version>
43012

> <i_f3d_flags>
0

> <s_epik_input>
W0NIM11bQ0hdKFtDSDNdKVtDQEhdKFtPSF0pW0NIMl1jMW5jKG5vMSlbQ0gyXUMoPU8pW05IXVtDSF0yW0NIMl1bQ0gyXVtDSDJdW0NIMl0y

> <s_epik_cmdline>
J2VwaWtfcHl0aG9uJywgJy1waCcsICc3LjAnLCAnLXRuJywgJzgnLCAnLW1hJywgJzIwMCcsICctbWV0YWxfYmluZGluZycsICctaW1hZScsICc8aW5maWxlLm1hZT4nLCAnLW9tYWUnLCAnPG91dGZpbGUubWFlPic=

> <r_lp_tautomer_probability>
1

> <r_epik_Ionization_Penalty>
1.20032e-07

> <r_epik_Ionization_Penalty_Charging>
0

> <r_epik_Ionization_Penalty_Neutral>
1.20032e-07

> <r_epik_State_Penalty>
-0

> <r_epik_Charging_Adjusted_Penalty>
0

> <i_epik_Tot_Q>
0

> <i_epik_Tot_abs_Q>
0

> <r_epik_Metal_State_Penalty>
-0

> <b_epik_Metal_Only>
0

> <s_lp_Force_Field>
OPLS_2005

> <r_lp_Energy>
19.5735

> <b_lp_Chiralities_Consistent>
1

> <s_lp_Variant>
AV-unprocessed.smi:2759-1

> <Gold.Version>
5.8.1

> <Gold.Id.Protein>
6NUR|6NUR_protein|mol2

> <Gold.PLP.Fitness>
52.9403

> <Gold.PLP.PLP>
-45.5854

> <Gold.PLP.part.hbond>
-4.5711

> <Gold.PLP.part.metal>
0.0000

> <Gold.PLP.part.buried>
-3.9905

> <Gold.PLP.part.nonpolar>
-36.8420

> <Gold.PLP.part.repulsive>
0.1159

> <Gold.PLP.ligand.clash>
0.0000

> <Gold.PLP.ligand.torsion>
0.6288

> <Gold.PLP.Chemscore.Hbond>
2.8082

> <Gold.PLP.Chemscore.CHOScore>
0.0000

> <Gold.PLP.Chemscore.Metal>
0.0000

> <Gold.Chemscore.Hbonds>
donor molecule, donor type, donor heavy atom, donor atom, acceptor molecule, acceptor atom, score
      L1  H     5    29       P1  8028  0.99
      P1  H  7989  7998       L1    20  0.80
      P1  H  7997  8010       L1    19  1.00
      P1  H  8011  8017       L1     5  0.09

> <Gold.PLP.Chemscore.Internal.Correction>
0.1880

> <Gold.Rescore>
     Score         DG    S(hbond)    S(metal)    S(lipo)     H(rot)  DE(clash)    DE(int)     intcor
     14.16     -17.26       2.03        0.00     100.72       2.65       0.29       2.82       ----

> <Gold.Chemscore.Fitness>
14.1591

> <Gold.Chemscore.DG>
-17.2625

> <Gold.Chemscore.ZeroCoef>
-5.4800

> <Gold.Chemscore.Hbond>
2.0339

> <Gold.Chemscore.Metal>
0.0000

> <Gold.Chemscore.Lipo>
100.7207

> <Gold.Chemscore.Internal_Hbond>
0.0000

> <Gold.Chemscore.DEClash>
0.2884

> <Gold.Chemscore.DEInternal>
2.8150

> <Gold.Chemscore.Rot>
2.6543

> <Gold.Chemscore.Internal.Correction>
   9.000000E+99

> <Gold.Chemscore.Hbonds>
donor molecule, donor type, donor heavy atom, donor atom, acceptor molecule, acceptor atom, score
      L1  H     5    29       P1  8028  0.94
      P1  H  7989  7998       L1    20  0.12
      P1  H  7997  8010       L1    19  0.33
      P1  H  8011  8017       L1     5  0.05

> <Gold.Chemscore.Hbond.Weighted>
-6.7931

> <Gold.Chemscore.Metal.Weighted>
-0.0000

> <Gold.Chemscore.Lipo.Weighted>
-11.7843

> <Gold.Chemscore.Internal_Hbond.Weighted>
0.0000

> <Gold.Chemscore.DEClash.Weighted>
0.2884

> <Gold.Chemscore.DEInternal.Weighted>
2.8150

> <Gold.Chemscore.Rot.Weighted>
6.7950

> <Gold.Chemscore.Internal.Correction.Weighted>
   9.000000E+99

> <Gold.Protein.RotatedTorsions>
[ 6907 6896 6895 6894 ] final  -54.55 input  -60.11 | X-H torsion
[ 7974 7965 7964 7962 ] final   31.11 input  175.53 | X-H torsion
[ 8008 7997 7996 7995 ] final   64.92 input   59.86 | X-H torsion
[ 10167 10162 10161 10158 ] final   -3.03 input  -65.29 | X-H torsion
[ 10718 10713 10712 10709 ] final   74.90 input   66.30 | X-H torsion
[ 10763 10752 10751 10750 ] final  169.19 input  -60.55 | X-H torsion
[ 11005 11000 10999 10996 ] final   15.60 input  -57.11 | X-H torsion

> <Gold.Protein.ActiveResidues>
 VAL166  LYS551  ARG553  GLY616  TRP617  ASP618  TYR619  PRO620  LYS621  CYS622 
 ASP623  PHE694  ASN695  SER759  ASP760  ASP761  ALA762  ILE779  LEU786  VAL792 
 PHE793  MET794  SER795  GLU796  ALA797  LYS798  CYS799  TRP800  GLU811  SER814 

> <Gold.Protein.RotatedAtoms>
  150.8328  134.7589  159.6867 H   0  0  0  0  0  0  0  0  0  0  0  0  # atno 6907 bound_to 6896
  152.4430  134.5549  159.9887 H   0  0  0  0  0  0  0  0  0  0  0  0  # atno 6908 bound_to 6896
  151.5706  133.3353  159.3024 H   0  0  0  0  0  0  0  0  0  0  0  0  # atno 6909 bound_to 6896
  146.1570  139.6699  142.9059 H   0  0  0  0  0  0  0  0  0  0  0  0  # atno 7974 bound_to 7965
  155.6536  140.3497  155.4757 H   0  0  0  0  0  0  0  0  0  0  0  0  # atno 8008 bound_to 7997
  155.9827  140.1178  157.0734 H   0  0  0  0  0  0  0  0  0  0  0  0  # atno 8009 bound_to 7997
  154.4196  140.1135  156.5444 H   0  0  0  0  0  0  0  0  0  0  0  0  # atno 8010 bound_to 7997
  140.6874  143.6588  150.8285 H   0  0  0  0  0  0  0  0  0  0  0  0  # atno 10167 bound_to 10162
  157.6611  130.9700  150.1276 H   0  0  0  0  0  0  0  0  0  0  0  0  # atno 10718 bound_to 10713
  154.3796  135.2753  155.2219 H   0  0  0  0  0  0  0  0  0  0  0  0  # atno 10763 bound_to 10752
  154.4331  135.5972  153.6085 H   0  0  0  0  0  0  0  0  0  0  0  0  # atno 10764 bound_to 10752
  152.9835  135.6000  154.4037 H   0  0  0  0  0  0  0  0  0  0  0  0  # atno 10765 bound_to 10752
  140.4565  134.1171  155.7710 H   0  0  0  0  0  0  0  0  0  0  0  0  # atno 11005 bound_to 11000
  145.4683  141.0435  143.2713 LP  0  0  0  0  0  0  0  0  0  0  0  0  # atno 17320 bound_to 7965
  144.7977  139.6202  143.7085 LP  0  0  0  0  0  0  0  0  0  0  0  0  # atno 17321 bound_to 7965
  140.0296  143.5457  152.2765 LP  0  0  0  0  0  0  0  0  0  0  0  0  # atno 17342 bound_to 10162
  139.6245  144.7635  151.2669 LP  0  0  0  0  0  0  0  0  0  0  0  0  # atno 17343 bound_to 10162
  156.2131  130.3668  149.8646 LP  0  0  0  0  0  0  0  0  0  0  0  0  # atno 17370 bound_to 10713
  156.6519  130.8747  151.3533 LP  0  0  0  0  0  0  0  0  0  0  0  0  # atno 17371 bound_to 10713
  141.1641  133.8737  157.1766 LP  0  0  0  0  0  0  0  0  0  0  0  0  # atno 17394 bound_to 11000
  139.9973  135.0042  157.0111 LP  0  0  0  0  0  0  0  0  0  0  0  0  # atno 17395 bound_to 11000

$$$$
