AV-unprocessed.smi:2777|AV-procd|sdf|10709|dock8
  -GOLD-   2272015143D 1   1.00000     0.00000
 Structure written by MMmdl.
 31 32  0  0  0  0  0  0  0  0  1 V2000
  154.4740  139.7058  160.1996 C   0  0  0  0  0  0  0  0  0  0  0  0
  153.5776  140.8646  160.0260 N   0  0  0  0  0  0  0  0  0  0  0  0
  152.8653  140.9640  158.8595 C   0  0  0  0  0  0  0  0  0  0  0  0
  152.9192  140.1570  157.9313 O   0  0  0  0  0  0  0  0  0  0  0  0
  152.0027  142.1483  158.7896 C   0  0  0  0  0  0  0  0  0  0  0  0
  151.9261  143.0625  159.7870 C   0  0  0  0  0  0  0  0  0  0  0  0
  151.0428  144.0878  159.4692 N   0  0  0  0  0  0  0  0  0  0  0  0
  150.6194  143.7239  158.2582 C   0  0  0  0  0  0  0  0  0  0  0  0
  151.1434  142.5777  157.7780 N   0  0  0  0  0  0  0  0  0  0  0  0
  150.8410  141.9748  156.4884 C   0  0  0  0  0  0  0  0  0  0  0  0
  149.7686  140.8700  156.5850 C   0  0  1  0  0  0  0  0  0  0  0  0
  148.5832  141.3886  157.1584 O   0  0  0  0  0  0  0  0  0  0  0  0
  149.4364  140.2428  155.2178 C   0  0  0  0  0  0  0  0  0  0  0  0
  148.4766  139.3275  155.3530 F   0  0  0  0  0  0  0  0  0  0  0  0
  149.0468  141.1742  154.3464 F   0  0  0  0  0  0  0  0  0  0  0  0
  150.5195  139.6341  154.7349 F   0  0  0  0  0  0  0  0  0  0  0  0
  152.7089  142.8669  160.9514 N   0  0  0  0  0  0  0  0  0  0  0  0
  152.6007  143.8784  162.0068 C   0  0  0  0  0  0  0  0  0  0  0  0
  153.5295  141.7714  161.0717 C   0  0  0  0  0  0  0  0  0  0  0  0
  154.2080  141.6012  162.0883 O   0  0  0  0  0  0  0  0  0  0  0  0
  154.4907  139.0072  159.3625 H   0  0  0  0  0  0  0  0  0  0  0  0
  154.1821  139.1279  161.0779 H   0  0  0  0  0  0  0  0  0  0  0  0
  155.5029  140.0392  160.3447 H   0  0  0  0  0  0  0  0  0  0  0  0
  149.9044  144.3109  157.7006 H   0  0  0  0  0  0  0  0  0  0  0  0
  150.5439  142.7508  155.7846 H   0  0  0  0  0  0  0  0  0  0  0  0
  151.7655  141.5542  156.0913 H   0  0  0  0  0  0  0  0  0  0  0  0
  150.1315  140.0848  157.2497 H   0  0  0  0  0  0  0  0  0  0  0  0
  148.6407  142.3316  157.1670 H   0  0  0  0  0  0  0  0  0  0  0  0
  153.2151  143.6814  162.8857 H   0  0  0  0  0  0  0  0  0  0  0  0
  151.5667  143.9528  162.3453 H   0  0  0  0  0  0  0  0  0  0  0  0
  152.8956  144.8535  161.6174 H   0  0  0  0  0  0  0  0  0  0  0  0
  1  2  1  0  0  0  0
  1 21  1  0  0  0  0
  1 22  1  0  0  0  0
  1 23  1  0  0  0  0
  2 19  1  0  0  0  0
  2  3  1  0  0  0  0
  3  4  2  0  0  0  0
  3  5  1  0  0  0  0
  5  9  1  0  0  0  0
  5  6  2  0  0  0  0
  6  7  1  0  0  0  0
  6 17  1  0  0  0  0
  7  8  2  0  0  0  0
  8  9  1  0  0  0  0
  8 24  1  0  0  0  0
  9 10  1  0  0  0  0
 10 11  1  0  0  0  0
 10 25  1  0  0  0  0
 10 26  1  0  0  0  0
 11 12  1  0  0  0  0
 11 13  1  0  0  0  0
 11 27  1  0  0  0  0
 12 28  1  0  0  0  0
 13 14  1  0  0  0  0
 13 15  1  0  0  0  0
 13 16  1  0  0  0  0
 17 18  1  0  0  0  0
 17 19  1  0  0  0  0
 18 29  1  0  0  0  0
 18 30  1  0  0  0  0
 18 31  1  0  0  0  0
 19 20  2  0  0  0  0
M  END
> <s_m_source_file>
AV-unprocessed.smi

> <i_m_source_file_index>
2777

> <i_lp_mmshare_version>
43012

> <i_f3d_flags>
0

> <s_epik_input>
Tz1jMW4oW0NIM10pYyg9TyluKFtDSDNdKWMoYzEyKW5bY0hdbjJbQ0gyXVtDQEhdKFtPSF0pQyhGKShGKUY=

> <s_epik_cmdline>
J2VwaWtfcHl0aG9uJywgJy1waCcsICc3LjAnLCAnLXRuJywgJzgnLCAnLW1hJywgJzIwMCcsICctbWV0YWxfYmluZGluZycsICctaW1hZScsICc8aW5maWxlLm1hZT4nLCAnLW9tYWUnLCAnPG91dGZpbGUubWFlPic=

> <r_epik_Ionization_Penalty>
0.000551612

> <r_epik_Ionization_Penalty_Charging>
2.619e-09

> <r_epik_Ionization_Penalty_Neutral>
0.00055161

> <r_epik_State_Penalty>
0.000345115

> <r_epik_Charging_Adjusted_Penalty>
0.000345118

> <i_epik_Tot_Q>
0

> <i_epik_Tot_abs_Q>
0

> <r_epik_Metal_State_Penalty>
-0

> <b_epik_Metal_Only>
0

> <s_lp_Force_Field>
OPLS_2005

> <r_lp_Energy>
33.5503

> <b_lp_Chiralities_Consistent>
1

> <s_lp_Variant>
AV-unprocessed.smi:2777-2

> <Gold.Version>
5.8.1

> <Gold.Id.Protein>
6NUR|6NUR_protein|mol2

> <Gold.PLP.Fitness>
47.5410

> <Gold.PLP.PLP>
-41.9510

> <Gold.PLP.part.hbond>
-2.0000

> <Gold.PLP.part.metal>
0.0000

> <Gold.PLP.part.buried>
-3.1282

> <Gold.PLP.part.nonpolar>
-35.9579

> <Gold.PLP.part.repulsive>
0.0840

> <Gold.PLP.ligand.clash>
0.0000

> <Gold.PLP.ligand.torsion>
0.3621

> <Gold.PLP.Chemscore.Hbond>
0.9760

> <Gold.PLP.Chemscore.CHOScore>
1.1253

> <Gold.PLP.Chemscore.Metal>
0.0000

> <Gold.Chemscore.Hbonds>
donor molecule, donor type, donor heavy atom, donor atom, acceptor molecule, acceptor atom, score
      P1  H  7997  8010       L1     4  0.94
      L1  C     8    24       P1  8028  0.94
      L1  C     8    24       P1  8029  0.16

> <Gold.PLP.Chemscore.Internal.Correction>
0.0105

> <Gold.Rescore>
     Score         DG    S(hbond)    S(metal)    S(lipo)     H(rot)  DE(clash)    DE(int)     intcor
      7.96      -8.48       0.91        0.00      47.84       2.20       0.26       0.27       ----

> <Gold.Chemscore.Fitness>
7.9559

> <Gold.Chemscore.DG>
-8.4806

> <Gold.Chemscore.ZeroCoef>
-5.4800

> <Gold.Chemscore.Hbond>
0.9063

> <Gold.Chemscore.Metal>
0.0000

> <Gold.Chemscore.Lipo>
47.8413

> <Gold.Chemscore.Internal_Hbond>
0.0000

> <Gold.Chemscore.DEClash>
0.2588

> <Gold.Chemscore.DEInternal>
0.2659

> <Gold.Chemscore.Rot>
2.1969

> <Gold.Chemscore.Internal.Correction>
   9.000000E+99

> <Gold.Chemscore.Hbonds>
donor molecule, donor type, donor heavy atom, donor atom, acceptor molecule, acceptor atom, score
      P1  H  7997  8010       L1     4  0.85

> <Gold.Chemscore.Hbond.Weighted>
-3.0272

> <Gold.Chemscore.Metal.Weighted>
-0.0000

> <Gold.Chemscore.Lipo.Weighted>
-5.5974

> <Gold.Chemscore.Internal_Hbond.Weighted>
0.0000

> <Gold.Chemscore.DEClash.Weighted>
0.2588

> <Gold.Chemscore.DEInternal.Weighted>
0.2659

> <Gold.Chemscore.Rot.Weighted>
5.6239

> <Gold.Chemscore.Internal.Correction.Weighted>
   9.000000E+99

> <Gold.Protein.RotatedTorsions>
[ 6907 6896 6895 6894 ] final   42.06 input  -60.11 | X-H torsion
[ 7974 7965 7964 7962 ] final -119.61 input  175.53 | X-H torsion
[ 8008 7997 7996 7995 ] final   34.49 input   59.86 | X-H torsion
[ 10167 10162 10161 10158 ] final  -42.38 input  -65.29 | X-H torsion
[ 10718 10713 10712 10709 ] final  -96.16 input   66.30 | X-H torsion
[ 10763 10752 10751 10750 ] final  142.86 input  -60.55 | X-H torsion
[ 11005 11000 10999 10996 ] final   77.12 input  -57.11 | X-H torsion

> <Gold.Protein.ActiveResidues>
 VAL166  LYS551  ARG553  GLY616  TRP617  ASP618  TYR619  PRO620  LYS621  CYS622 
 ASP623  PHE694  ASN695  SER759  ASP760  ASP761  ALA762  ILE779  LEU786  VAL792 
 PHE793  MET794  SER795  GLU796  ALA797  LYS798  CYS799  TRP800  GLU811  SER814 

> <Gold.Protein.RotatedAtoms>
  152.2031  134.8570  160.0505 H   0  0  0  0  0  0  0  0  0  0  0  0  # atno 6907 bound_to 6896
  151.9416  133.3634  159.3975 H   0  0  0  0  0  0  0  0  0  0  0  0  # atno 6908 bound_to 6896
  150.6959  134.4357  159.5313 H   0  0  0  0  0  0  0  0  0  0  0  0  # atno 6909 bound_to 6896
  145.0606  140.8287  143.4155 H   0  0  0  0  0  0  0  0  0  0  0  0  # atno 7974 bound_to 7965
  155.1556  140.3279  155.4422 H   0  0  0  0  0  0  0  0  0  0  0  0  # atno 8008 bound_to 7997
  156.2560  140.1969  156.6616 H   0  0  0  0  0  0  0  0  0  0  0  0  # atno 8009 bound_to 7997
  154.6442  140.0566  156.9867 H   0  0  0  0  0  0  0  0  0  0  0  0  # atno 8010 bound_to 7997
  140.6971  143.3041  151.3200 H   0  0  0  0  0  0  0  0  0  0  0  0  # atno 10167 bound_to 10162
  156.0057  130.5139  150.6184 H   0  0  0  0  0  0  0  0  0  0  0  0  # atno 10718 bound_to 10713
  153.9628  135.2958  155.3432 H   0  0  0  0  0  0  0  0  0  0  0  0  # atno 10763 bound_to 10752
  154.7365  135.5044  153.9053 H   0  0  0  0  0  0  0  0  0  0  0  0  # atno 10764 bound_to 10752
  153.0938  135.6715  153.9913 H   0  0  0  0  0  0  0  0  0  0  0  0  # atno 10765 bound_to 10752
  139.9268  134.7657  156.1482 H   0  0  0  0  0  0  0  0  0  0  0  0  # atno 11005 bound_to 11000
  145.1414  139.2570  143.5488 LP  0  0  0  0  0  0  0  0  0  0  0  0  # atno 17320 bound_to 7965
  146.3524  140.1092  142.8604 LP  0  0  0  0  0  0  0  0  0  0  0  0  # atno 17321 bound_to 7965
  139.6440  144.0485  152.2577 LP  0  0  0  0  0  0  0  0  0  0  0  0  # atno 17342 bound_to 10162
  140.0000  144.6300  150.7738 LP  0  0  0  0  0  0  0  0  0  0  0  0  # atno 17343 bound_to 10162
  157.4004  131.0809  151.1314 LP  0  0  0  0  0  0  0  0  0  0  0  0  # atno 17370 bound_to 10713
  157.1977  130.6380  149.5727 LP  0  0  0  0  0  0  0  0  0  0  0  0  # atno 17371 bound_to 10713
  141.0831  133.6746  156.2378 LP  0  0  0  0  0  0  0  0  0  0  0  0  # atno 17394 bound_to 11000
  140.6313  134.5260  157.5560 LP  0  0  0  0  0  0  0  0  0  0  0  0  # atno 17395 bound_to 11000

$$$$
