#       Name:                AV-unprocessed.smi:2264
#       Creating user name   scv26
#       Creation time:       Fri Mar 27 12:34:52 2020


#       File generated by GOLD software.
#

@<TRIPOS>MOLECULE
AV-unprocessed.smi:2264
    51    52     1
SMALL
NO_CHARGES


@<TRIPOS>ATOM
      1 ****        -6.7311   1.9466   0.8962 C.3            1 S1                 0.0000
      2 ****        -5.3371   1.3573   0.8306 C.ar           1 S1                 0.0000
      3 ****        -5.1488  -0.0382   0.8531 C.ar           1 S1                 0.0000
      4 ****        -3.8506  -0.5792   0.7918 C.ar           1 S1                 0.0000
      5 ****        -2.7193   0.2709   0.7067 C.ar           1 S1                 0.0000
      6 ****        -1.4204  -0.1869   0.6443 O.3            1 S1                 0.0000
      7 ****        -1.1949  -1.5851   0.5265 C.3            1 S1                 0.0000
      8 ****         0.3152  -1.8128   0.3624 C.3            1 S1                 0.0000
      9 ****         0.5392  -3.2068   0.4186 O.3            1 S1                 0.0000
     10 ****         0.8454  -1.2694  -0.9853 C.3            1 S1                 0.0000
     11 ****         2.2231  -0.7657  -0.8695 N.am           1 S1                 0.0000
     12 ****         2.3656   0.5660  -0.4439 C.2            1 S1                 0.0000
     13 ****         3.5284   1.1131  -0.3035 N.2            1 S1                 0.0000
     14 ****         4.6834   0.3742  -0.5758 C.2            1 S1                 0.0000
     15 ****         5.9955   1.1148  -0.3861 C.3            1 S1                 0.0000
     16 ****         4.6137  -0.9227  -0.9830 C.2            1 S1                 0.0000
     17 ****         5.8372  -1.7750  -1.2959 C.3            1 S1                 0.0000
     18 ****         3.2969  -1.5619  -1.1394 C.2            1 S1                 0.0000
     19 ****         3.1613  -2.7350  -1.4922 O.2            1 S1                 0.0000
     20 ****        -2.9157   1.6709   0.6873 C.ar           1 S1                 0.0000
     21 ****        -1.7221   2.6035   0.5951 C.3            1 S1                 0.0000
     22 ****        -4.2184   2.2084   0.7486 C.ar           1 S1                 0.0000
     23 ****        -7.4948   1.1701   0.8423 H              1 S1                 0.0000
     24 ****        -6.8900   2.6372   0.0676 H              1 S1                 0.0000
     25 ****        -6.8660   2.4934   1.8298 H              1 S1                 0.0000
     26 ****        -5.9994  -0.7011   0.9183 H              1 S1                 0.0000
     27 ****        -3.7489  -1.6534   0.8147 H              1 S1                 0.0000
     28 ****        -1.5509  -2.0869   1.4279 H              1 S1                 0.0000
     29 ****        -1.7332  -1.9964  -0.3295 H              1 S1                 0.0000
     30 ****         0.8316  -1.3480   1.2036 H              1 S1                 0.0000
     31 ****         0.0976  -3.6127  -0.3116 H              1 S1                 0.0000
     32 ****         0.7509  -2.0198  -1.7727 H              1 S1                 0.0000
     33 ****         0.2071  -0.4541  -1.3320 H              1 S1                 0.0000
     34 ****         1.4332   1.0951  -0.2381 H              1 S1                 0.0000
     35 ****         6.5393   1.1752  -1.3291 H              1 S1                 0.0000
     36 ****         6.6214   0.6042   0.3462 H              1 S1                 0.0000
     37 ****         5.8290   2.1324  -0.0303 H              1 S1                 0.0000
     38 ****         5.8729  -2.6392  -0.6320 H              1 S1                 0.0000
     39 ****         6.7765  -1.2358  -1.1841 H              1 S1                 0.0000
     40 ****         5.7892  -2.1384  -2.3229 H              1 S1                 0.0000
     41 ****        -2.0327   3.6478   0.5532 H              1 S1                 0.0000
     42 ****        -1.1406   2.3876  -0.3017 H              1 S1                 0.0000
     43 ****        -1.0747   2.4761   1.4630 H              1 S1                 0.0000
     44 ****        -4.3631   3.2790   0.7322 H              1 S1                 0.0000
     45 ****        -0.9610   0.1161   1.4792 LP             1 S1                 0.0000
     46 ****        -0.9927   0.2481  -0.1481 LP             1 S1                 0.0000
     47 ****         0.1773  -3.5719   1.2763 LP             1 S1                 0.0000
     48 ****         1.5202  -3.3928   0.3647 LP             1 S1                 0.0000
     49 ****         3.6015   2.0633  -0.0006 LP             1 S1                 0.0000
     50 ****         2.2458  -3.1259  -1.5871 LP             1 S1                 0.0000
     51 ****         3.9668  -3.2958  -1.6836 LP             1 S1                 0.0000
@<TRIPOS>BOND
    1    1    2 1     
    2    1   23 1     
    3    1   24 1     
    4    1   25 1     
    5    2   22 ar    
    6    2    3 ar    
    7    3    4 ar    
    8    3   26 1     
    9    4    5 ar    
   10    4   27 1     
   11    5    6 1     
   12    5   20 ar    
   13    6    7 1     
   14    7    8 1     
   15    7   28 1     
   16    7   29 1     
   17    8    9 1     
   18    8   10 1     
   19    8   30 1     
   20    9   31 1     
   21   10   11 1     
   22   10   32 1     
   23   10   33 1     
   24   11   18 am    
   25   11   12 1     
   26   12   13 2     
   27   12   34 1     
   28   13   14 1     
   29   14   15 1     
   30   14   16 2     
   31   15   35 1     
   32   15   36 1     
   33   15   37 1     
   34   16   17 1     
   35   16   18 1     
   36   17   38 1     
   37   17   39 1     
   38   17   40 1     
   39   18   19 2     
   40   20   21 1     
   41   20   22 ar    
   42   21   41 1     
   43   21   42 1     
   44   21   43 1     
   45   22   44 1     
   46    6   45 1     
   47    6   46 1     
   48    9   47 1     
   49    9   48 1     
   50   13   49 1     
   51   19   50 1     
   52   19   51 1     
@<TRIPOS>SUBSTRUCTURE
      1 S1             1
@<TRIPOS>SET
LONE_PAIRS      STATIC     ATOMS    <user>   **** ""
7 45 46 47 48 49 50 51
DONOR_HYDROGENS      STATIC     ATOMS    <user>   **** ""
1 31
ATOM$BLUE        STATIC     ATOMS    COLORGROUP SYSTEM
7 45 46 47 48 49 50 51
ATOM$RED        STATIC     ATOMS    COLORGROUP SYSTEM
1 31
