AV-unprocessed.smi:2527|AV-procd|sdf|9945|dock1
  -GOLD-   2272013583D 1   1.00000     0.00000
 Structure written by MMmdl.
 35 37  0  0  0  0  0  0  0  0  2 V2000
  154.8276  136.2346  160.8237 C   0  0  0  0  0  0  0  0  0  0  0  0
  153.8788  136.0039  159.7980 O   0  0  0  0  0  0  0  0  0  0  0  0
  153.5442  137.1859  159.0884 C   0  0  0  0  0  0  0  0  0  0  0  0
  153.0659  138.2608  160.0746 C   0  0  0  0  0  0  0  0  0  0  0  0
  152.2166  139.2531  159.4318 N   0  0  0  0  0  0  0  0  0  0  0  0
  151.0309  139.0536  158.8034 C   0  0  0  0  0  0  0  0  0  0  0  0
  150.3152  137.4392  158.6845 S   0  0  0  0  0  0  0  0  0  0  0  0
  150.1524  137.2870  156.8811 C   0  0  0  0  0  0  0  0  0  0  0  0
  150.9102  138.3412  156.1053 C   0  0  0  0  0  0  0  0  0  0  0  0
  152.1780  138.0489  155.6934 N   0  0  0  0  0  0  0  0  0  0  0  0
  152.6170  139.1184  155.0376 C   0  0  0  0  0  0  0  0  0  0  0  0
  153.7380  139.1716  154.5363 O   0  0  0  0  0  0  0  0  0  0  0  0
  151.6430  140.0614  155.0390 N   0  5  0  0  0  0  0  0  0  0  0  0
  150.5279  139.5134  155.7530 N   0  0  0  0  0  0  0  0  0  0  0  0
  150.4590  140.1509  158.3032 N   0  0  0  0  0  0  0  0  0  0  0  0
  151.3513  141.1482  158.6398 C   0  0  0  0  0  0  0  0  0  0  0  0
  151.3104  142.5388  158.3923 C   0  0  0  0  0  0  0  0  0  0  0  0
  152.3520  143.3752  158.8450 C   0  0  0  0  0  0  0  0  0  0  0  0
  152.2856  145.0713  158.5363 Cl  0  0  0  0  0  0  0  0  0  0  0  0
  153.4466  142.8325  159.5496 C   0  0  0  0  0  0  0  0  0  0  0  0
  153.5069  141.4491  159.8050 C   0  0  0  0  0  0  0  0  0  0  0  0
  152.4646  140.6196  159.3501 C   0  0  0  0  0  0  0  0  0  0  0  0
  152.6741  137.1863  155.8599 H   0  0  0  0  0  0  0  0  0  0  0  0
  155.0465  135.2980  161.3365 H   0  0  0  0  0  0  0  0  0  0  0  0
  154.4467  136.9416  161.5618 H   0  0  0  0  0  0  0  0  0  0  0  0
  155.7623  136.6220  160.4162 H   0  0  0  0  0  0  0  0  0  0  0  0
  154.4139  137.5503  158.5398 H   0  0  0  0  0  0  0  0  0  0  0  0
  152.7625  136.9744  158.3570 H   0  0  0  0  0  0  0  0  0  0  0  0
  152.5061  137.7969  160.8871 H   0  0  0  0  0  0  0  0  0  0  0  0
  153.9163  138.7593  160.5399 H   0  0  0  0  0  0  0  0  0  0  0  0
  150.4979  136.2972  156.5801 H   0  0  0  0  0  0  0  0  0  0  0  0
  149.0980  137.3529  156.6110 H   0  0  0  0  0  0  0  0  0  0  0  0
  150.4747  142.9617  157.8546 H   0  0  0  0  0  0  0  0  0  0  0  0
  154.2404  143.4781  159.8959 H   0  0  0  0  0  0  0  0  0  0  0  0
  154.3420  141.0320  160.3478 H   0  0  0  0  0  0  0  0  0  0  0  0
  1  2  1  0  0  0  0
  1 24  1  0  0  0  0
  1 25  1  0  0  0  0
  1 26  1  0  0  0  0
  2  3  1  0  0  0  0
  3  4  1  0  0  0  0
  3 27  1  0  0  0  0
  3 28  1  0  0  0  0
  4  5  1  0  0  0  0
  4 29  1  0  0  0  0
  4 30  1  0  0  0  0
  5 22  1  0  0  0  0
  5  6  1  0  0  0  0
  6  7  1  0  0  0  0
  6 15  2  0  0  0  0
  7  8  1  0  0  0  0
  8 31  1  0  0  0  0
  8 32  1  0  0  0  0
  8  9  1  0  0  0  0
  9 14  2  0  0  0  0
  9 10  1  0  0  0  0
 10 11  1  0  0  0  0
 10 23  1  0  0  0  0
 11 13  1  0  0  0  0
 11 12  2  0  0  0  0
 13 14  1  0  0  0  0
 15 16  1  0  0  0  0
 16 22  2  0  0  0  0
 16 17  1  0  0  0  0
 17 18  2  0  0  0  0
 17 33  1  0  0  0  0
 18 19  1  0  0  0  0
 18 20  1  0  0  0  0
 20 21  2  0  0  0  0
 20 34  1  0  0  0  0
 21 22  1  0  0  0  0
 21 35  1  0  0  0  0
M  CHG  1  13  -1
M  END
> <s_m_source_file>
AV-unprocessed.smi

> <i_m_source_file_index>
2527

> <i_lp_mmshare_version>
43012

> <i_f3d_flags>
0

> <s_epik_input>
W2NIXTFjKENsKVtjSF1bY0hdYyhjMTIpbihbQ0gyXVtDSDJdT1tDSDNdKWMobjIpU1tDSDJdYzNuYyg9TylbbkhdW25IXTM=

> <s_epik_cmdline>
J2VwaWtfcHl0aG9uJywgJy1waCcsICc3LjAnLCAnLXRuJywgJzgnLCAnLW1hJywgJzIwMCcsICctbWV0YWxfYmluZGluZycsICctaW1hZScsICc8aW5maWxlLm1hZT4nLCAnLW9tYWUnLCAnPG91dGZpbGUubWFlPic=

> <r_lp_tautomer_probability>
0.999897

> <r_epik_Ionization_Penalty>
2.94119

> <r_epik_Ionization_Penalty_Charging>
1.40065e-06

> <r_epik_Ionization_Penalty_Neutral>
2.94119

> <r_epik_State_Penalty>
4.57578

> <r_epik_Charging_Adjusted_Penalty>
4.57578

> <i_epik_Tot_Q>
-1

> <i_epik_Tot_abs_Q>
1

> <r_epik_Metal_State_Penalty>
2.1052

> <b_epik_Metal_Only>
1

> <s_lp_Force_Field>
OPLS_2005

> <r_lp_Energy>
14.3955

> <b_lp_Chiralities_Consistent>
1

> <s_lp_Variant>
AV-unprocessed.smi:2527-4

> <Gold.Version>
5.8.1

> <Gold.Id.Protein>
6NUR|6NUR_protein|mol2

> <Gold.PLP.Fitness>
46.2281

> <Gold.PLP.PLP>
-38.7868

> <Gold.PLP.part.hbond>
-3.0000

> <Gold.PLP.part.metal>
0.0000

> <Gold.PLP.part.buried>
-6.7287

> <Gold.PLP.part.nonpolar>
-29.6896

> <Gold.PLP.part.repulsive>
0.2293

> <Gold.PLP.ligand.clash>
0.0000

> <Gold.PLP.ligand.torsion>
0.8422

> <Gold.PLP.Chemscore.Hbond>
2.9920

> <Gold.PLP.Chemscore.CHOScore>
0.0000

> <Gold.PLP.Chemscore.Metal>
0.0000

> <Gold.Chemscore.Hbonds>
donor molecule, donor type, donor heavy atom, donor atom, acceptor molecule, acceptor atom, score
      P1  H  6896  6909       L1     2  1.00
      P1  H  7989  7998       L1    13  1.00
      P1  H  7997  8009       L1    12  1.00

> <Gold.PLP.Chemscore.Internal.Correction>
0.1498

> <Gold.Rescore>
     Score         DG    S(hbond)    S(metal)    S(lipo)     H(rot)  DE(clash)    DE(int)     intcor
     14.99     -18.43       2.81        0.00      91.83       2.81       0.00       3.43       ----

> <Gold.Chemscore.Fitness>
14.9941

> <Gold.Chemscore.DG>
-18.4264

> <Gold.Chemscore.ZeroCoef>
-5.4800

> <Gold.Chemscore.Hbond>
2.8124

> <Gold.Chemscore.Metal>
0.0000

> <Gold.Chemscore.Lipo>
91.8335

> <Gold.Chemscore.Internal_Hbond>
0.0000

> <Gold.Chemscore.DEClash>
0.0048

> <Gold.Chemscore.DEInternal>
3.4275

> <Gold.Chemscore.Rot>
2.8092

> <Gold.Chemscore.Internal.Correction>
   9.000000E+99

> <Gold.Chemscore.Hbonds>
donor molecule, donor type, donor heavy atom, donor atom, acceptor molecule, acceptor atom, score
      P1  H  6896  6909       L1     2  0.92
      P1  H  7989  7998       L1    13  0.62
      P1  H  7997  8009       L1    12  0.68

> <Gold.Chemscore.Hbond.Weighted>
-9.3936

> <Gold.Chemscore.Metal.Weighted>
-0.0000

> <Gold.Chemscore.Lipo.Weighted>
-10.7445

> <Gold.Chemscore.Internal_Hbond.Weighted>
0.0000

> <Gold.Chemscore.DEClash.Weighted>
0.0048

> <Gold.Chemscore.DEInternal.Weighted>
3.4275

> <Gold.Chemscore.Rot.Weighted>
7.1916

> <Gold.Chemscore.Internal.Correction.Weighted>
   9.000000E+99

> <Gold.Protein.RotatedTorsions>
[ 6907 6896 6895 6894 ] final -173.06 input  -60.11 | X-H torsion
[ 7974 7965 7964 7962 ] final  174.45 input  175.53 | X-H torsion
[ 8008 7997 7996 7995 ] final -106.60 input   59.86 | X-H torsion
[ 10167 10162 10161 10158 ] final  -66.56 input  -65.29 | X-H torsion
[ 10718 10713 10712 10709 ] final    7.24 input   66.30 | X-H torsion
[ 10763 10752 10751 10750 ] final -154.69 input  -60.55 | X-H torsion
[ 11005 11000 10999 10996 ] final   49.42 input  -57.11 | X-H torsion

> <Gold.Protein.ActiveResidues>
 VAL166  LYS551  ARG553  GLY616  TRP617  ASP618  TYR619  PRO620  LYS621  CYS622 
 ASP623  PHE694  ASN695  SER759  ASP760  ASP761  ALA762  ILE779  LEU786  VAL792 
 PHE793  MET794  SER795  GLU796  ALA797  LYS798  CYS799  TRP800  GLU811  SER814 

> <Gold.Protein.RotatedAtoms>
  151.5501  133.3419  159.2951 H   0  0  0  0  0  0  0  0  0  0  0  0  # atno 6907 bound_to 6896
  150.8484  134.7803  159.7000 H   0  0  0  0  0  0  0  0  0  0  0  0  # atno 6908 bound_to 6896
  152.4536  134.5348  159.9873 H   0  0  0  0  0  0  0  0  0  0  0  0  # atno 6909 bound_to 6896
  144.7221  139.9800  143.6438 H   0  0  0  0  0  0  0  0  0  0  0  0  # atno 7974 bound_to 7965
  154.9170  140.0408  157.1977 H   0  0  0  0  0  0  0  0  0  0  0  0  # atno 8008 bound_to 7997
  154.8292  140.2896  155.5712 H   0  0  0  0  0  0  0  0  0  0  0  0  # atno 8009 bound_to 7997
  156.2985  140.2504  156.3214 H   0  0  0  0  0  0  0  0  0  0  0  0  # atno 8010 bound_to 7997
  140.5648  143.2314  151.6657 H   0  0  0  0  0  0  0  0  0  0  0  0  # atno 10167 bound_to 10162
  156.9339  130.5836  149.5650 H   0  0  0  0  0  0  0  0  0  0  0  0  # atno 10718 bound_to 10713
  154.7841  135.3184  154.7925 H   0  0  0  0  0  0  0  0  0  0  0  0  # atno 10763 bound_to 10752
  153.8629  135.6851  153.4785 H   0  0  0  0  0  0  0  0  0  0  0  0  # atno 10764 bound_to 10752
  153.1487  135.4708  154.9542 H   0  0  0  0  0  0  0  0  0  0  0  0  # atno 10765 bound_to 10752
  140.1105  134.4961  155.8682 H   0  0  0  0  0  0  0  0  0  0  0  0  # atno 11005 bound_to 11000
  146.0495  139.3498  143.0648 LP  0  0  0  0  0  0  0  0  0  0  0  0  # atno 17320 bound_to 7965
  145.8232  140.9668  143.0888 LP  0  0  0  0  0  0  0  0  0  0  0  0  # atno 17321 bound_to 7965
  139.5087  144.3601  152.0570 LP  0  0  0  0  0  0  0  0  0  0  0  0  # atno 17342 bound_to 10162
  140.2731  144.3942  150.6144 LP  0  0  0  0  0  0  0  0  0  0  0  0  # atno 17343 bound_to 10162
  156.0434  130.5514  150.8825 LP  0  0  0  0  0  0  0  0  0  0  0  0  # atno 17370 bound_to 10713
  157.5829  131.0946  150.9243 LP  0  0  0  0  0  0  0  0  0  0  0  0  # atno 17371 bound_to 10713
  141.2129  133.6726  156.6696 LP  0  0  0  0  0  0  0  0  0  0  0  0  # atno 17394 bound_to 11000
  140.3097  134.8096  157.4166 LP  0  0  0  0  0  0  0  0  0  0  0  0  # atno 17395 bound_to 11000

$$$$
