AV-unprocessed.smi:775|AV-procd|sdf|3695|dock8
  -GOLD-   22720 1113D 1   1.00000     0.00000
 Structure written by MMmdl.
 39 40  0  0  0  0  0  0  0  0  2 V2000
  147.5313  140.5687  153.7667 C   0  0  0  0  0  0  0  0  0  0  0  0
  148.0284  139.1154  153.8195 C   0  0  2  0  0  0  0  0  0  0  0  0
  149.4762  138.9979  154.3560 C   0  0  0  0  0  0  0  0  0  0  0  0
  149.7689  139.9062  155.4532 N   0  0  0  0  0  0  0  0  0  0  0  0
  149.1258  140.0169  156.6691 C   0  0  0  0  0  0  0  0  0  0  0  0
  149.7506  141.0072  157.3712 C   0  0  0  0  0  0  0  0  0  0  0  0
  150.7726  141.4546  156.4882 C   0  0  0  0  0  0  0  0  0  0  0  0
  150.7793  140.7950  155.3412 N   0  0  0  0  0  0  0  0  0  0  0  0
  147.8734  138.4944  152.4841 N   0  3  0  0  0  0  0  0  0  0  0  0
  146.4860  138.4021  151.9765 C   0  0  0  0  0  0  0  0  0  0  0  0
  145.6015  137.5005  152.8519 C   0  0  0  0  0  0  0  0  0  0  0  0
  145.1209  137.9718  153.8842 O   0  0  0  0  0  0  0  0  0  0  0  0
  145.3757  136.2202  152.4647 N   0  0  0  0  0  0  0  0  0  0  0  0
  145.8911  135.6196  151.2299 C   0  0  0  0  0  0  0  0  0  0  0  0
  144.7064  135.3819  150.2773 C   0  0  0  0  0  0  0  0  0  0  0  0
  143.5708  134.7540  150.9553 N   0  0  0  0  0  0  0  0  0  0  0  0
  143.3989  134.6925  152.2890 C   0  0  0  0  0  0  0  0  0  0  0  0
  142.4212  134.1415  152.7888 O   0  0  0  0  0  0  0  0  0  0  0  0
  144.4609  135.3341  153.2031 C   0  0  0  0  0  0  0  0  0  0  0  0
  147.6404  141.0566  154.7356 H   0  0  0  0  0  0  0  0  0  0  0  0
  146.4755  140.6109  153.4962 H   0  0  0  0  0  0  0  0  0  0  0  0
  148.0804  141.1590  153.0326 H   0  0  0  0  0  0  0  0  0  0  0  0
  147.3727  138.5808  154.5082 H   0  0  0  0  0  0  0  0  0  0  0  0
  149.6589  137.9773  154.6960 H   0  0  0  0  0  0  0  0  0  0  0  0
  150.2028  139.1740  153.5628 H   0  0  0  0  0  0  0  0  0  0  0  0
  148.2871  139.3891  156.9325 H   0  0  0  0  0  0  0  0  0  0  0  0
  149.5117  141.3616  158.3631 H   0  0  0  0  0  0  0  0  0  0  0  0
  151.5039  142.2340  156.6448 H   0  0  0  0  0  0  0  0  0  0  0  0
  148.3966  139.0497  151.8220 H   0  0  0  0  0  0  0  0  0  0  0  0
  146.0460  139.3985  151.9458 H   0  0  0  0  0  0  0  0  0  0  0  0
  146.5068  138.0066  150.9602 H   0  0  0  0  0  0  0  0  0  0  0  0
  146.6689  136.1946  150.7302 H   0  0  0  0  0  0  0  0  0  0  0  0
  146.3551  134.6647  151.4825 H   0  0  0  0  0  0  0  0  0  0  0  0
  144.3690  136.3310  149.8590 H   0  0  0  0  0  0  0  0  0  0  0  0
  145.0144  134.7575  149.4383 H   0  0  0  0  0  0  0  0  0  0  0  0
  142.8666  134.3282  150.3695 H   0  0  0  0  0  0  0  0  0  0  0  0
  145.0455  134.5374  153.6641 H   0  0  0  0  0  0  0  0  0  0  0  0
  143.9387  135.8392  154.0170 H   0  0  0  0  0  0  0  0  0  0  0  0
  148.2777  137.5687  152.5059 H   0  0  0  0  0  0  0  0  0  0  0  0
  1  2  1  0  0  0  0
  1 20  1  0  0  0  0
  1 21  1  0  0  0  0
  1 22  1  0  0  0  0
  2  3  1  0  0  0  0
  2  9  1  0  0  0  0
  2 23  1  0  0  0  0
  3  4  1  0  0  0  0
  3 24  1  0  0  0  0
  3 25  1  0  0  0  0
  4  8  1  0  0  0  0
  4  5  1  0  0  0  0
  5  6  2  0  0  0  0
  5 26  1  0  0  0  0
  6  7  1  0  0  0  0
  6 27  1  0  0  0  0
  7  8  2  0  0  0  0
  7 28  1  0  0  0  0
  9 10  1  0  0  0  0
  9 29  1  0  0  0  0
  9 39  1  0  0  0  0
 10 11  1  0  0  0  0
 10 30  1  0  0  0  0
 10 31  1  0  0  0  0
 11 12  2  0  0  0  0
 11 13  1  0  0  0  0
 13 19  1  0  0  0  0
 13 14  1  0  0  0  0
 14 15  1  0  0  0  0
 14 32  1  0  0  0  0
 14 33  1  0  0  0  0
 15 16  1  0  0  0  0
 15 34  1  0  0  0  0
 15 35  1  0  0  0  0
 16 17  1  0  0  0  0
 16 36  1  0  0  0  0
 17 18  2  0  0  0  0
 17 19  1  0  0  0  0
 19 37  1  0  0  0  0
 19 38  1  0  0  0  0
M  CHG  1   9   1
M  END
> <s_m_source_file>
AV-unprocessed.smi

> <i_m_source_file_index>
775

> <i_lp_mmshare_version>
43012

> <i_f3d_flags>
0

> <s_epik_input>
bjFbY0hdW2NIXVtjSF1uMVtDSDJdW0NAQEhdKFtDSDNdKVtOSF1bQ0gyXUMoPU8pTjJbQ0gyXVtDSDJdW05IXUMoPU8pW0NIMl0y

> <s_epik_cmdline>
J2VwaWtfcHl0aG9uJywgJy1waCcsICc3LjAnLCAnLXRuJywgJzgnLCAnLW1hJywgJzIwMCcsICctbWV0YWxfYmluZGluZycsICctaW1hZScsICc8aW5maWxlLm1hZT4nLCAnLW9tYWUnLCAnPG91dGZpbGUubWFlPic=

> <r_lp_tautomer_probability>
1

> <r_epik_Ionization_Penalty>
0.165651

> <r_epik_Ionization_Penalty_Charging>
0.165647

> <r_epik_Ionization_Penalty_Neutral>
3.4358e-06

> <r_epik_State_Penalty>
0.15499

> <r_epik_Charging_Adjusted_Penalty>
0.320637

> <i_epik_Tot_Q>
1

> <i_epik_Tot_abs_Q>
1

> <r_epik_Metal_State_Penalty>
0.155003

> <b_epik_Metal_Only>
0

> <s_lp_Force_Field>
OPLS_2005

> <r_lp_Energy>
21.6432

> <b_lp_Chiralities_Consistent>
1

> <s_lp_Variant>
AV-unprocessed.smi:775-1

> <Gold.Version>
5.8.1

> <Gold.Id.Protein>
6NUR|6NUR_protein|mol2

> <Gold.PLP.Fitness>
43.7926

> <Gold.PLP.PLP>
-30.2859

> <Gold.PLP.part.hbond>
-4.0000

> <Gold.PLP.part.metal>
0.0000

> <Gold.PLP.part.buried>
-2.8809

> <Gold.PLP.part.nonpolar>
-25.2030

> <Gold.PLP.part.repulsive>
0.7081

> <Gold.PLP.ligand.clash>
0.0000

> <Gold.PLP.ligand.torsion>
0.4954

> <Gold.PLP.Chemscore.Hbond>
4.8160

> <Gold.PLP.Chemscore.CHOScore>
0.0000

> <Gold.PLP.Chemscore.Metal>
0.0000

> <Gold.Chemscore.Hbonds>
donor molecule, donor type, donor heavy atom, donor atom, acceptor molecule, acceptor atom, score
      L1  H     9    29       P1  7957  1.00
      L1  H     9    39       P1  7948  2.00
      L1  H    16    36       P1 10186  0.94
      P1  H  7989  7998       L1     8  0.82

> <Gold.PLP.Chemscore.Internal.Correction>
0.0494

> <Gold.Rescore>
     Score         DG    S(hbond)    S(metal)    S(lipo)     H(rot)  DE(clash)    DE(int)     intcor
     16.47     -17.07       3.13        0.00      57.34       2.18       0.06       0.53       ----

> <Gold.Chemscore.Fitness>
16.4717

> <Gold.Chemscore.DG>
-17.0652

> <Gold.Chemscore.ZeroCoef>
-5.4800

> <Gold.Chemscore.Hbond>
3.1329

> <Gold.Chemscore.Metal>
0.0000

> <Gold.Chemscore.Lipo>
57.3441

> <Gold.Chemscore.Internal_Hbond>
0.0000

> <Gold.Chemscore.DEClash>
0.0595

> <Gold.Chemscore.DEInternal>
0.5340

> <Gold.Chemscore.Rot>
2.1828

> <Gold.Chemscore.Internal.Correction>
   9.000000E+99

> <Gold.Chemscore.Hbonds>
donor molecule, donor type, donor heavy atom, donor atom, acceptor molecule, acceptor atom, score
      L1  H     9    29       P1  7957  0.94
      L1  H     9    39       P1  7948  0.97
      L1  H    16    36       P1 10186  0.68
      P1  H  7989  7998       L1     8  0.69

> <Gold.Chemscore.Hbond.Weighted>
-10.4639

> <Gold.Chemscore.Metal.Weighted>
-0.0000

> <Gold.Chemscore.Lipo.Weighted>
-6.7093

> <Gold.Chemscore.Internal_Hbond.Weighted>
0.0000

> <Gold.Chemscore.DEClash.Weighted>
0.0595

> <Gold.Chemscore.DEInternal.Weighted>
0.5340

> <Gold.Chemscore.Rot.Weighted>
5.5880

> <Gold.Chemscore.Internal.Correction.Weighted>
   9.000000E+99

> <Gold.Protein.RotatedTorsions>
[ 6907 6896 6895 6894 ] final -146.31 input  -60.11 | X-H torsion
[ 7974 7965 7964 7962 ] final  -27.58 input  175.53 | X-H torsion
[ 8008 7997 7996 7995 ] final   88.99 input   59.86 | X-H torsion
[ 10167 10162 10161 10158 ] final -153.82 input  -65.29 | X-H torsion
[ 10718 10713 10712 10709 ] final   85.32 input   66.30 | X-H torsion
[ 10763 10752 10751 10750 ] final  125.07 input  -60.55 | X-H torsion
[ 11005 11000 10999 10996 ] final   26.73 input  -57.11 | X-H torsion

> <Gold.Protein.ActiveResidues>
 VAL166  LYS551  ARG553  GLY616  TRP617  ASP618  TYR619  PRO620  LYS621  CYS622 
 ASP623  PHE694  ASN695  SER759  ASP760  ASP761  ALA762  ILE779  LEU786  VAL792 
 PHE793  MET794  SER795  GLU796  ALA797  LYS798  CYS799  TRP800  GLU811  SER814 

> <Gold.Protein.RotatedAtoms>
  151.1399  133.4978  159.2596 H   0  0  0  0  0  0  0  0  0  0  0  0  # atno 6907 bound_to 6896
  151.1666  135.0298  159.8743 H   0  0  0  0  0  0  0  0  0  0  0  0  # atno 6908 bound_to 6896
  152.5462  134.1267  159.8475 H   0  0  0  0  0  0  0  0  0  0  0  0  # atno 6909 bound_to 6896
  146.1348  140.5171  142.8678 H   0  0  0  0  0  0  0  0  0  0  0  0  # atno 7974 bound_to 7965
  155.9945  140.3365  155.6785 H   0  0  0  0  0  0  0  0  0  0  0  0  # atno 8008 bound_to 7997
  155.6375  140.0691  157.2647 H   0  0  0  0  0  0  0  0  0  0  0  0  # atno 8009 bound_to 7997
  154.4230  140.1748  156.1525 H   0  0  0  0  0  0  0  0  0  0  0  0  # atno 8010 bound_to 7997
  139.7065  143.9178  152.2451 H   0  0  0  0  0  0  0  0  0  0  0  0  # atno 10167 bound_to 10162
  157.6913  131.0170  150.2805 H   0  0  0  0  0  0  0  0  0  0  0  0  # atno 10718 bound_to 10713
  153.6714  135.3329  155.3154 H   0  0  0  0  0  0  0  0  0  0  0  0  # atno 10763 bound_to 10752
  154.8490  135.4387  154.1701 H   0  0  0  0  0  0  0  0  0  0  0  0  # atno 10764 bound_to 10752
  153.2693  135.6999  153.7573 H   0  0  0  0  0  0  0  0  0  0  0  0  # atno 10765 bound_to 10752
  140.3338  134.2408  155.7698 H   0  0  0  0  0  0  0  0  0  0  0  0  # atno 11005 bound_to 11000
  144.7728  140.5674  143.6659 LP  0  0  0  0  0  0  0  0  0  0  0  0  # atno 17320 bound_to 7965
  145.5181  139.1477  143.3567 LP  0  0  0  0  0  0  0  0  0  0  0  0  # atno 17321 bound_to 7965
  139.9035  144.6898  150.8639 LP  0  0  0  0  0  0  0  0  0  0  0  0  # atno 17342 bound_to 10162
  140.7723  143.3496  151.2041 LP  0  0  0  0  0  0  0  0  0  0  0  0  # atno 17343 bound_to 10162
  156.3353  130.3806  149.7456 LP  0  0  0  0  0  0  0  0  0  0  0  0  # atno 17370 bound_to 10713
  156.4982  130.8116  151.3122 LP  0  0  0  0  0  0  0  0  0  0  0  0  # atno 17371 bound_to 10713
  141.2056  133.7855  157.0222 LP  0  0  0  0  0  0  0  0  0  0  0  0  # atno 17394 bound_to 11000
  140.0838  134.9633  157.1667 LP  0  0  0  0  0  0  0  0  0  0  0  0  # atno 17395 bound_to 11000

$$$$
