AV-unprocessed.smi:934|AV-procd|sdf|4205|dock5
  -GOLD-   22720 2113D 1   1.00000     0.00000
 Structure written by MMmdl.
 43 44  0  0  0  0  0  0  0  0  2 V2000
  147.8112  136.5694  155.3228 C   0  0  0  0  0  0  0  0  0  0  0  0
  147.4137  137.3869  154.1467 N   0  3  0  0  0  0  0  0  0  0  0  0
  146.2106  136.8038  153.4975 C   0  0  0  0  0  0  0  0  0  0  0  0
  147.4023  138.8804  154.3788 C   0  0  0  0  0  0  0  0  0  0  0  0
  146.2200  139.2253  155.3438 C   0  0  0  0  0  0  0  0  0  0  0  0
  144.9104  139.2344  154.6906 N   0  0  0  0  0  0  0  0  0  0  0  0
  143.9249  138.3523  154.9091 C   0  0  0  0  0  0  0  0  0  0  0  0
  144.0230  137.4078  155.6908 O   0  0  0  0  0  0  0  0  0  0  0  0
  142.8371  138.6501  154.1785 N   0  0  0  0  0  0  0  0  0  0  0  0
  141.5981  137.9571  154.1078 C   0  0  0  0  0  0  0  0  0  0  0  0
  140.4914  138.6416  153.5644 C   0  0  0  0  0  0  0  0  0  0  0  0
  139.2538  137.9783  153.4650 C   0  0  0  0  0  0  0  0  0  0  0  0
  139.1721  136.6442  153.9080 C   0  0  0  0  0  0  0  0  0  0  0  0
  140.2234  135.9687  154.4174 N   0  0  0  0  0  0  0  0  0  0  0  0
  141.4075  136.6117  154.5118 C   0  0  0  0  0  0  0  0  0  0  0  0
  148.7494  139.3673  154.9962 C   0  0  0  0  0  0  0  0  0  0  0  0
  148.8575  140.9006  155.0839 C   0  0  0  0  0  0  0  0  0  0  0  0
  148.6957  141.4590  153.7867 O   0  0  0  0  0  0  0  0  0  0  0  0
  147.4241  141.1804  153.2153 C   0  0  0  0  0  0  0  0  0  0  0  0
  147.2335  139.6601  153.0456 C   0  0  0  0  0  0  0  0  0  0  0  0
  147.0418  136.5796  156.0954 H   0  0  0  0  0  0  0  0  0  0  0  0
  148.7488  136.9003  155.7655 H   0  0  0  0  0  0  0  0  0  0  0  0
  147.9614  135.5309  155.0256 H   0  0  0  0  0  0  0  0  0  0  0  0
  145.2995  137.0383  154.0480 H   0  0  0  0  0  0  0  0  0  0  0  0
  146.2904  135.7177  153.4412 H   0  0  0  0  0  0  0  0  0  0  0  0
  146.1026  137.1468  152.4691 H   0  0  0  0  0  0  0  0  0  0  0  0
  146.1935  138.5708  156.2135 H   0  0  0  0  0  0  0  0  0  0  0  0
  146.3621  140.2160  155.7737 H   0  0  0  0  0  0  0  0  0  0  0  0
  144.7302  139.9893  154.0449 H   0  0  0  0  0  0  0  0  0  0  0  0
  142.8810  139.5052  153.6438 H   0  0  0  0  0  0  0  0  0  0  0  0
  140.5856  139.6642  153.2293 H   0  0  0  0  0  0  0  0  0  0  0  0
  138.3882  138.4799  153.0580 H   0  0  0  0  0  0  0  0  0  0  0  0
  138.2391  136.1038  153.8465 H   0  0  0  0  0  0  0  0  0  0  0  0
  142.2128  136.0103  154.9029 H   0  0  0  0  0  0  0  0  0  0  0  0
  148.9202  138.9186  155.9743 H   0  0  0  0  0  0  0  0  0  0  0  0
  149.5917  139.0647  154.3755 H   0  0  0  0  0  0  0  0  0  0  0  0
  148.1387  141.3316  155.7800 H   0  0  0  0  0  0  0  0  0  0  0  0
  149.8442  141.1773  155.4554 H   0  0  0  0  0  0  0  0  0  0  0  0
  146.6337  141.6186  153.8251 H   0  0  0  0  0  0  0  0  0  0  0  0
  147.3691  141.6693  152.2427 H   0  0  0  0  0  0  0  0  0  0  0  0
  147.9600  139.3098  152.3123 H   0  0  0  0  0  0  0  0  0  0  0  0
  146.2510  139.4793  152.6091 H   0  0  0  0  0  0  0  0  0  0  0  0
  148.1512  137.2462  153.4711 H   0  0  0  0  0  0  0  0  0  0  0  0
  1  2  1  0  0  0  0
  1 21  1  0  0  0  0
  1 22  1  0  0  0  0
  1 23  1  0  0  0  0
  2  3  1  0  0  0  0
  2  4  1  0  0  0  0
  2 43  1  0  0  0  0
  3 24  1  0  0  0  0
  3 25  1  0  0  0  0
  3 26  1  0  0  0  0
  4 20  1  0  0  0  0
  4  5  1  0  0  0  0
  4 16  1  0  0  0  0
  5  6  1  0  0  0  0
  5 27  1  0  0  0  0
  5 28  1  0  0  0  0
  6  7  1  0  0  0  0
  6 29  1  0  0  0  0
  7  8  2  0  0  0  0
  7  9  1  0  0  0  0
  9 10  1  0  0  0  0
  9 30  1  0  0  0  0
 10 15  1  0  0  0  0
 10 11  2  0  0  0  0
 11 12  1  0  0  0  0
 11 31  1  0  0  0  0
 12 13  2  0  0  0  0
 12 32  1  0  0  0  0
 13 14  1  0  0  0  0
 13 33  1  0  0  0  0
 14 15  2  0  0  0  0
 15 34  1  0  0  0  0
 16 17  1  0  0  0  0
 16 35  1  0  0  0  0
 16 36  1  0  0  0  0
 17 18  1  0  0  0  0
 17 37  1  0  0  0  0
 17 38  1  0  0  0  0
 18 19  1  0  0  0  0
 19 20  1  0  0  0  0
 19 39  1  0  0  0  0
 19 40  1  0  0  0  0
 20 41  1  0  0  0  0
 20 42  1  0  0  0  0
M  CHG  1   2   1
M  END
> <s_m_source_file>
AV-unprocessed.smi

> <i_m_source_file_index>
934

> <i_lp_mmshare_version>
43012

> <i_f3d_flags>
0

> <s_epik_input>
W0NIMl0xW0NIMl1PW0NIMl1bQ0gyXUMxKE4oW0NIM10pW0NIM10pW0NIMl1bTkhdQyg9TylbTkhdYzJbY0hdW2NIXVtjSF1uW2NIXTI=

> <s_epik_cmdline>
J2VwaWtfcHl0aG9uJywgJy1waCcsICc3LjAnLCAnLXRuJywgJzgnLCAnLW1hJywgJzIwMCcsICctbWV0YWxfYmluZGluZycsICctaW1hZScsICc8aW5maWxlLm1hZT4nLCAnLW9tYWUnLCAnPG91dGZpbGUubWFlPic=

> <r_epik_Ionization_Penalty>
0.0170741

> <r_epik_Ionization_Penalty_Charging>
0.0128317

> <r_epik_Ionization_Penalty_Neutral>
0.00424236

> <r_epik_State_Penalty>
0.00995429

> <r_epik_Charging_Adjusted_Penalty>
0.022786

> <i_epik_Tot_Q>
1

> <i_epik_Tot_abs_Q>
1

> <r_epik_Metal_State_Penalty>
0.00996615

> <b_epik_Metal_Only>
0

> <s_lp_Force_Field>
OPLS_2005

> <r_lp_Energy>
34.8396

> <b_lp_Chiralities_Consistent>
1

> <s_lp_Variant>
AV-unprocessed.smi:934-1

> <Gold.Version>
5.8.1

> <Gold.Id.Protein>
6NUR|6NUR_protein|mol2

> <Gold.PLP.Fitness>
41.9405

> <Gold.PLP.PLP>
-26.0205

> <Gold.PLP.part.hbond>
-5.0000

> <Gold.PLP.part.metal>
0.0000

> <Gold.PLP.part.buried>
-2.4058

> <Gold.PLP.part.nonpolar>
-18.3176

> <Gold.PLP.part.repulsive>
0.3929

> <Gold.PLP.ligand.clash>
0.0000

> <Gold.PLP.ligand.torsion>
0.4027

> <Gold.PLP.Chemscore.Hbond>
5.5338

> <Gold.PLP.Chemscore.CHOScore>
0.0000

> <Gold.PLP.Chemscore.Metal>
0.0000

> <Gold.Chemscore.Hbonds>
donor molecule, donor type, donor heavy atom, donor atom, acceptor molecule, acceptor atom, score
      L1  H     2    43       P1  7948  1.85
      L1  H     6    29       P1 10175  0.86
      L1  H     9    30       P1 10175  1.00
      P1  H  8011  8017       L1    18  0.69
      P1  H 11000 11005       L1    14  1.00

> <Gold.PLP.Chemscore.Internal.Correction>
0.1240

> <Gold.Rescore>
     Score         DG    S(hbond)    S(metal)    S(lipo)     H(rot)  DE(clash)    DE(int)     intcor
     19.94     -23.06       4.20        0.00      62.99       1.49       0.87       2.25       ----

> <Gold.Chemscore.Fitness>
19.9428

> <Gold.Chemscore.DG>
-23.0569

> <Gold.Chemscore.ZeroCoef>
-5.4800

> <Gold.Chemscore.Hbond>
4.2016

> <Gold.Chemscore.Metal>
0.0000

> <Gold.Chemscore.Lipo>
62.9926

> <Gold.Chemscore.Internal_Hbond>
0.0000

> <Gold.Chemscore.DEClash>
0.8657

> <Gold.Chemscore.DEInternal>
2.2483

> <Gold.Chemscore.Rot>
1.4948

> <Gold.Chemscore.Internal.Correction>
   9.000000E+99

> <Gold.Chemscore.Hbonds>
donor molecule, donor type, donor heavy atom, donor atom, acceptor molecule, acceptor atom, score
      L1  H     2    43       P1  7948  0.85
      L1  H     6    29       P1 10175  0.84
      L1  H     9    30       P1 10175  0.95
      P1  H  8011  8017       L1    18  0.36
      P1  H 11000 11005       L1    14  0.70

> <Gold.Chemscore.Hbond.Weighted>
-14.0335

> <Gold.Chemscore.Metal.Weighted>
-0.0000

> <Gold.Chemscore.Lipo.Weighted>
-7.3701

> <Gold.Chemscore.Internal_Hbond.Weighted>
0.0000

> <Gold.Chemscore.DEClash.Weighted>
0.8657

> <Gold.Chemscore.DEInternal.Weighted>
2.2483

> <Gold.Chemscore.Rot.Weighted>
3.8267

> <Gold.Chemscore.Internal.Correction.Weighted>
   9.000000E+99

> <Gold.Protein.RotatedTorsions>
[ 6907 6896 6895 6894 ] final  166.87 input  -60.11 | X-H torsion
[ 7974 7965 7964 7962 ] final  -87.86 input  175.53 | X-H torsion
[ 8008 7997 7996 7995 ] final   44.92 input   59.86 | X-H torsion
[ 10167 10162 10161 10158 ] final  107.90 input  -65.29 | X-H torsion
[ 10718 10713 10712 10709 ] final  -26.71 input   66.30 | X-H torsion
[ 10763 10752 10751 10750 ] final -162.74 input  -60.55 | X-H torsion
[ 11005 11000 10999 10996 ] final   58.97 input  -57.11 | X-H torsion

> <Gold.Protein.ActiveResidues>
 VAL166  LYS551  ARG553  GLY616  TRP617  ASP618  TYR619  PRO620  LYS621  CYS622 
 ASP623  PHE694  ASN695  SER759  ASP760  ASP761  ALA762  ILE779  LEU786  VAL792 
 PHE793  MET794  SER795  GLU796  ALA797  LYS798  CYS799  TRP800  GLU811  SER814 

> <Gold.Protein.RotatedAtoms>
  151.8722  133.3478  159.3738 H   0  0  0  0  0  0  0  0  0  0  0  0  # atno 6907 bound_to 6896
  150.7149  134.5101  159.5612 H   0  0  0  0  0  0  0  0  0  0  0  0  # atno 6908 bound_to 6896
  152.2636  134.8008  160.0477 H   0  0  0  0  0  0  0  0  0  0  0  0  # atno 6909 bound_to 6896
  145.4608  140.9561  143.1970 H   0  0  0  0  0  0  0  0  0  0  0  0  # atno 7974 bound_to 7965
  155.3273  140.3400  155.4240 H   0  0  0  0  0  0  0  0  0  0  0  0  # atno 8008 bound_to 7997
  156.1879  140.1687  156.8186 H   0  0  0  0  0  0  0  0  0  0  0  0  # atno 8009 bound_to 7997
  154.5408  140.0725  156.8489 H   0  0  0  0  0  0  0  0  0  0  0  0  # atno 8010 bound_to 7997
  139.6890  144.7110  151.1382 H   0  0  0  0  0  0  0  0  0  0  0  0  # atno 10167 bound_to 10162
  156.4476  130.4477  149.7011 H   0  0  0  0  0  0  0  0  0  0  0  0  # atno 10718 bound_to 10713
  154.7187  135.3021  154.9082 H   0  0  0  0  0  0  0  0  0  0  0  0  # atno 10763 bound_to 10752
  153.9961  135.6712  153.4760 H   0  0  0  0  0  0  0  0  0  0  0  0  # atno 10764 bound_to 10752
  153.0815  135.5006  154.8429 H   0  0  0  0  0  0  0  0  0  0  0  0  # atno 10765 bound_to 10752
  140.0338  134.5973  155.9471 H   0  0  0  0  0  0  0  0  0  0  0  0  # atno 11005 bound_to 11000
  144.8004  139.6152  143.7074 LP  0  0  0  0  0  0  0  0  0  0  0  0  # atno 17320 bound_to 7965
  146.2452  139.6083  142.9464 LP  0  0  0  0  0  0  0  0  0  0  0  0  # atno 17321 bound_to 7965
  140.7676  143.5587  150.9123 LP  0  0  0  0  0  0  0  0  0  0  0  0  # atno 17342 bound_to 10162
  139.9264  143.6545  152.3086 LP  0  0  0  0  0  0  0  0  0  0  0  0  # atno 17343 bound_to 10162
  156.3850  130.7598  151.2595 LP  0  0  0  0  0  0  0  0  0  0  0  0  # atno 17370 bound_to 10713
  157.7504  131.0284  150.4049 LP  0  0  0  0  0  0  0  0  0  0  0  0  # atno 17371 bound_to 10713
  141.1846  133.6553  156.5163 LP  0  0  0  0  0  0  0  0  0  0  0  0  # atno 17394 bound_to 11000
  140.4181  134.7212  157.4874 LP  0  0  0  0  0  0  0  0  0  0  0  0  # atno 17395 bound_to 11000

$$$$
