AV-unprocessed.smi:3348|AV-procd|sdf|12915|dock6
  -GOLD-   2272019333D 1   1.00000     0.00000
 Structure written by MMmdl.
 47 48  0  0  0  0  0  0  0  0  2 V2000
  146.2260  143.1294  154.3245 C   0  0  0  0  0  0  0  0  0  0  0  0
  147.4980  142.2862  154.1620 C   0  0  2  0  0  0  0  0  0  0  0  0
  147.1454  140.8686  153.6601 C   0  0  0  0  0  0  0  0  0  0  0  0
  147.7672  139.8088  154.4332 N   0  0  0  0  0  0  0  0  0  0  0  0
  148.6307  138.8251  153.9990 C   0  0  0  0  0  0  0  0  0  0  0  0
  148.9594  138.0649  155.0844 C   0  0  0  0  0  0  0  0  0  0  0  0
  148.2470  138.6762  156.1538 C   0  0  0  0  0  0  0  0  0  0  0  0
  147.5366  139.7215  155.7611 N   0  0  0  0  0  0  0  0  0  0  0  0
  148.2166  142.2388  155.4561 N   0  3  0  0  0  0  0  0  0  0  0  0
  149.5692  141.6438  155.4091 C   0  0  0  0  0  0  0  0  0  0  0  0
  150.0176  141.2002  156.8042 C   0  0  0  0  0  0  0  0  0  0  0  0
  150.5458  142.3267  157.4883 O   0  0  0  0  0  0  0  0  0  0  0  0
  151.8044  142.1019  158.1123 C   0  0  2  0  0  0  0  0  0  0  0  0
  151.7345  140.8132  158.9597 C   0  0  0  0  0  0  0  0  0  0  0  0
  153.0219  140.5974  159.7681 C   0  0  0  0  0  0  0  0  0  0  0  0
  153.3264  141.8139  160.6527 C   0  0  0  0  0  0  0  0  0  0  0  0
  153.4088  143.0977  159.8138 C   0  0  0  0  0  0  0  0  0  0  0  0
  152.1229  143.3307  158.9948 C   0  0  1  0  0  0  0  0  0  0  0  0
  152.2398  144.6170  158.1608 C   0  0  0  0  0  0  0  0  0  0  0  0
  145.6868  143.2129  153.3804 H   0  0  0  0  0  0  0  0  0  0  0  0
  146.4641  144.1410  154.6551 H   0  0  0  0  0  0  0  0  0  0  0  0
  145.5474  142.6903  155.0569 H   0  0  0  0  0  0  0  0  0  0  0  0
  148.1224  142.7897  153.4219 H   0  0  0  0  0  0  0  0  0  0  0  0
  146.0648  140.7195  153.6695 H   0  0  0  0  0  0  0  0  0  0  0  0
  147.4629  140.7504  152.6229 H   0  0  0  0  0  0  0  0  0  0  0  0
  148.9358  138.7468  152.9657 H   0  0  0  0  0  0  0  0  0  0  0  0
  149.6139  137.2062  155.1119 H   0  0  0  0  0  0  0  0  0  0  0  0
  148.2265  138.3942  157.1964 H   0  0  0  0  0  0  0  0  0  0  0  0
  148.3284  143.1897  155.7786 H   0  0  0  0  0  0  0  0  0  0  0  0
  149.5682  140.7826  154.7424 H   0  0  0  0  0  0  0  0  0  0  0  0
  150.2774  142.3653  154.9997 H   0  0  0  0  0  0  0  0  0  0  0  0
  149.1803  140.7577  157.3442 H   0  0  0  0  0  0  0  0  0  0  0  0
  150.7897  140.4348  156.7145 H   0  0  0  0  0  0  0  0  0  0  0  0
  152.5883  142.0051  157.3582 H   0  0  0  0  0  0  0  0  0  0  0  0
  150.8848  140.8699  159.6415 H   0  0  0  0  0  0  0  0  0  0  0  0
  151.5623  139.9435  158.3265 H   0  0  0  0  0  0  0  0  0  0  0  0
  152.9292  139.7029  160.3847 H   0  0  0  0  0  0  0  0  0  0  0  0
  153.8560  140.4201  159.0881 H   0  0  0  0  0  0  0  0  0  0  0  0
  152.5500  141.9204  161.4117 H   0  0  0  0  0  0  0  0  0  0  0  0
  154.2635  141.6590  161.1880 H   0  0  0  0  0  0  0  0  0  0  0  0
  153.5922  143.9488  160.4706 H   0  0  0  0  0  0  0  0  0  0  0  0
  154.2674  143.0368  159.1435 H   0  0  0  0  0  0  0  0  0  0  0  0
  151.2997  143.4655  159.6982 H   0  0  0  0  0  0  0  0  0  0  0  0
  153.0464  144.5439  157.4306 H   0  0  0  0  0  0  0  0  0  0  0  0
  152.4450  145.4787  158.7966 H   0  0  0  0  0  0  0  0  0  0  0  0
  151.3178  144.8260  157.6179 H   0  0  0  0  0  0  0  0  0  0  0  0
  147.6506  141.7401  156.1276 H   0  0  0  0  0  0  0  0  0  0  0  0
  1  2  1  0  0  0  0
  1 20  1  0  0  0  0
  1 21  1  0  0  0  0
  1 22  1  0  0  0  0
  2  3  1  0  0  0  0
  2  9  1  0  0  0  0
  2 23  1  0  0  0  0
  3  4  1  0  0  0  0
  3 24  1  0  0  0  0
  3 25  1  0  0  0  0
  4  8  1  0  0  0  0
  4  5  1  0  0  0  0
  5  6  2  0  0  0  0
  5 26  1  0  0  0  0
  6  7  1  0  0  0  0
  6 27  1  0  0  0  0
  7  8  2  0  0  0  0
  7 28  1  0  0  0  0
  9 10  1  0  0  0  0
  9 29  1  0  0  0  0
  9 47  1  0  0  0  0
 10 11  1  0  0  0  0
 10 30  1  0  0  0  0
 10 31  1  0  0  0  0
 11 12  1  0  0  0  0
 11 32  1  0  0  0  0
 11 33  1  0  0  0  0
 12 13  1  0  0  0  0
 13 18  1  0  0  0  0
 13 14  1  0  0  0  0
 13 34  1  0  0  0  0
 14 15  1  0  0  0  0
 14 35  1  0  0  0  0
 14 36  1  0  0  0  0
 15 16  1  0  0  0  0
 15 37  1  0  0  0  0
 15 38  1  0  0  0  0
 16 17  1  0  0  0  0
 16 39  1  0  0  0  0
 16 40  1  0  0  0  0
 17 18  1  0  0  0  0
 17 41  1  0  0  0  0
 17 42  1  0  0  0  0
 18 19  1  0  0  0  0
 18 43  1  0  0  0  0
 19 44  1  0  0  0  0
 19 45  1  0  0  0  0
 19 46  1  0  0  0  0
M  CHG  1   9   1
M  END
> <s_m_source_file>
AV-unprocessed.smi

> <i_m_source_file_index>
3348

> <i_lp_mmshare_version>
43012

> <i_f3d_flags>
0

> <s_epik_input>
bjFbY0hdW2NIXVtjSF1uMVtDSDJdW0NAQEhdKFtDSDNdKVtOSF1bQ0gyXVtDSDJdT1tDQEBIXTJbQ0gyXVtDSDJdW0NIMl1bQ0gyXVtDQEhdMltDSDNd

> <s_epik_cmdline>
J2VwaWtfcHl0aG9uJywgJy1waCcsICc3LjAnLCAnLXRuJywgJzgnLCAnLW1hJywgJzIwMCcsICctbWV0YWxfYmluZGluZycsICctaW1hZScsICc8aW5maWxlLm1hZT4nLCAnLW9tYWUnLCAnPG91dGZpbGUubWFlPic=

> <r_lp_tautomer_probability>
1

> <r_epik_Ionization_Penalty>
0.00925088

> <r_epik_Ionization_Penalty_Charging>
0.00924645

> <r_epik_Ionization_Penalty_Neutral>
4.42413e-06

> <r_epik_State_Penalty>
0.0070118

> <r_epik_Charging_Adjusted_Penalty>
0.0162583

> <i_epik_Tot_Q>
1

> <i_epik_Tot_abs_Q>
1

> <r_epik_Metal_State_Penalty>
0.00701222

> <b_epik_Metal_Only>
0

> <s_lp_Force_Field>
OPLS_2005

> <r_lp_Energy>
16.8222

> <b_lp_Chiralities_Consistent>
1

> <s_lp_Variant>
AV-unprocessed.smi:3348-1

> <Gold.Version>
5.8.1

> <Gold.Id.Protein>
6NUR|6NUR_protein|mol2

> <Gold.PLP.Fitness>
49.7213

> <Gold.PLP.PLP>
-40.5680

> <Gold.PLP.part.hbond>
-1.0000

> <Gold.PLP.part.metal>
0.0000

> <Gold.PLP.part.buried>
-5.7004

> <Gold.PLP.part.nonpolar>
-34.2218

> <Gold.PLP.part.repulsive>
0.2349

> <Gold.PLP.ligand.clash>
0.0000

> <Gold.PLP.ligand.torsion>
1.3365

> <Gold.PLP.Chemscore.Hbond>
2.0000

> <Gold.PLP.Chemscore.CHOScore>
1.8671

> <Gold.PLP.Chemscore.Metal>
0.0000

> <Gold.Chemscore.Hbonds>
donor molecule, donor type, donor heavy atom, donor atom, acceptor molecule, acceptor atom, score
      L1  H     9    29       P1  8028  2.00
      L1  C     5    26       P1  7948  0.41
      L1  C     5    26       P1  7957  1.00

> <Gold.PLP.Chemscore.Internal.Correction>
0.2250

> <Gold.Rescore>
     Score         DG    S(hbond)    S(metal)    S(lipo)     H(rot)  DE(clash)    DE(int)     intcor
     14.93     -17.67       0.92        0.00     117.59       1.82       0.03       2.71       ----

> <Gold.Chemscore.Fitness>
14.9296

> <Gold.Chemscore.DG>
-17.6657

> <Gold.Chemscore.ZeroCoef>
-5.4800

> <Gold.Chemscore.Hbond>
0.9213

> <Gold.Chemscore.Metal>
0.0000

> <Gold.Chemscore.Lipo>
117.5919

> <Gold.Chemscore.Internal_Hbond>
0.0000

> <Gold.Chemscore.DEClash>
0.0288

> <Gold.Chemscore.DEInternal>
2.7072

> <Gold.Chemscore.Rot>
1.8163

> <Gold.Chemscore.Internal.Correction>
   9.000000E+99

> <Gold.Chemscore.Hbonds>
donor molecule, donor type, donor heavy atom, donor atom, acceptor molecule, acceptor atom, score
      L1  H     9    29       P1  8028  0.90

> <Gold.Chemscore.Hbond.Weighted>
-3.0771

> <Gold.Chemscore.Metal.Weighted>
-0.0000

> <Gold.Chemscore.Lipo.Weighted>
-13.7583

> <Gold.Chemscore.Internal_Hbond.Weighted>
0.0000

> <Gold.Chemscore.DEClash.Weighted>
0.0288

> <Gold.Chemscore.DEInternal.Weighted>
2.7072

> <Gold.Chemscore.Rot.Weighted>
4.6497

> <Gold.Chemscore.Internal.Correction.Weighted>
   9.000000E+99

> <Gold.Protein.RotatedTorsions>
[ 6907 6896 6895 6894 ] final   25.05 input  -60.11 | X-H torsion
[ 7974 7965 7964 7962 ] final  -70.72 input  175.53 | X-H torsion
[ 8008 7997 7996 7995 ] final   89.68 input   59.86 | X-H torsion
[ 10167 10162 10161 10158 ] final   36.58 input  -65.29 | X-H torsion
[ 10718 10713 10712 10709 ] final -120.16 input   66.30 | X-H torsion
[ 10763 10752 10751 10750 ] final  150.58 input  -60.55 | X-H torsion
[ 11005 11000 10999 10996 ] final -107.47 input  -57.11 | X-H torsion

> <Gold.Protein.ActiveResidues>
 VAL166  LYS551  ARG553  GLY616  TRP617  ASP618  TYR619  PRO620  LYS621  CYS622 
 ASP623  PHE694  ASN695  SER759  ASP760  ASP761  ALA762  ILE779  LEU786  VAL792 
 PHE793  MET794  SER795  GLU796  ALA797  LYS798  CYS799  TRP800  GLU811  SER814 

> <Gold.Protein.RotatedAtoms>
  151.9667  135.0097  160.0550 H   0  0  0  0  0  0  0  0  0  0  0  0  # atno 6907 bound_to 6896
  152.1819  133.4709  159.4971 H   0  0  0  0  0  0  0  0  0  0  0  0  # atno 6908 bound_to 6896
  150.6919  134.1739  159.4266 H   0  0  0  0  0  0  0  0  0  0  0  0  # atno 6909 bound_to 6896
  145.6873  140.9166  143.0800 H   0  0  0  0  0  0  0  0  0  0  0  0  # atno 7974 bound_to 7965
  156.0029  140.3358  155.6863 H   0  0  0  0  0  0  0  0  0  0  0  0  # atno 8008 bound_to 7997
  155.6265  140.0680  157.2680 H   0  0  0  0  0  0  0  0  0  0  0  0  # atno 8009 bound_to 7997
  154.4255  140.1767  156.1414 H   0  0  0  0  0  0  0  0  0  0  0  0  # atno 8010 bound_to 7997
  140.4114  144.1587  150.6140 H   0  0  0  0  0  0  0  0  0  0  0  0  # atno 10167 bound_to 10162
  156.1237  130.6342  150.9506 H   0  0  0  0  0  0  0  0  0  0  0  0  # atno 10718 bound_to 10713
  154.0897  135.2853  155.3274 H   0  0  0  0  0  0  0  0  0  0  0  0  # atno 10763 bound_to 10752
  154.6628  135.5328  153.8042 H   0  0  0  0  0  0  0  0  0  0  0  0  # atno 10764 bound_to 10752
  153.0418  135.6538  154.1067 H   0  0  0  0  0  0  0  0  0  0  0  0  # atno 10765 bound_to 10752
  141.0952  133.8984  157.1980 H   0  0  0  0  0  0  0  0  0  0  0  0  # atno 11005 bound_to 11000
  144.7007  139.8775  143.7445 LP  0  0  0  0  0  0  0  0  0  0  0  0  # atno 17320 bound_to 7965
  146.0912  139.3902  143.0404 LP  0  0  0  0  0  0  0  0  0  0  0  0  # atno 17321 bound_to 7965
  140.4634  143.2440  151.9189 LP  0  0  0  0  0  0  0  0  0  0  0  0  # atno 17342 bound_to 10162
  139.4782  144.5444  151.8479 LP  0  0  0  0  0  0  0  0  0  0  0  0  # atno 17343 bound_to 10162
  157.6419  131.0909  150.8233 LP  0  0  0  0  0  0  0  0  0  0  0  0  # atno 17370 bound_to 10713
  156.8326  130.5021  149.5330 LP  0  0  0  0  0  0  0  0  0  0  0  0  # atno 17371 bound_to 10713
  139.9787  135.0105  156.9695 LP  0  0  0  0  0  0  0  0  0  0  0  0  # atno 17394 bound_to 11000
  140.5157  134.0957  155.7280 LP  0  0  0  0  0  0  0  0  0  0  0  0  # atno 17395 bound_to 11000

$$$$
