AV-unprocessed.smi:2684|AV-procd|sdf|10378|dock10
  -GOLD-   2272014403D 1   1.00000     0.00000
 Structure written by MMmdl.
 45 46  0  0  0  0  0  0  0  0  2 V2000
  145.9763  131.7777  149.4467 C   0  0  0  0  0  0  0  0  0  0  0  0
  146.0101  132.7406  150.5982 C   0  0  0  0  0  0  0  0  0  0  0  0
  147.1511  133.2431  151.2861 C   0  0  0  0  0  0  0  0  0  0  0  0
  146.8366  134.0932  152.2502 N   0  0  0  0  0  0  0  0  0  0  0  0
  145.4893  134.1649  152.2108 N   0  0  0  0  0  0  0  0  0  0  0  0
  144.7849  135.0393  153.1316 C   0  0  0  0  0  0  0  0  0  0  0  0
  145.3709  136.4694  153.1894 C   0  0  2  0  0  0  0  0  0  0  0  0
  144.2453  137.5079  153.2848 C   0  0  0  0  0  0  0  0  0  0  0  0
  146.2051  136.7608  152.0001 N   0  3  0  0  0  0  0  0  0  0  0  0
  146.4966  138.1925  151.7713 C   0  0  0  0  0  0  0  0  0  0  0  0
  147.2321  138.8182  152.9641 C   0  0  0  0  0  0  0  0  0  0  0  0
  146.6753  139.6995  153.6162 O   0  0  0  0  0  0  0  0  0  0  0  0
  148.4617  138.3885  153.3022 N   0  0  0  0  0  0  0  0  0  0  0  0
  149.3191  138.8509  154.3932 C   0  0  0  0  0  0  0  0  0  0  0  0
  149.2443  140.3780  154.5711 C   0  0  0  0  0  0  0  0  0  0  0  0
  150.2586  140.8466  155.6270 C   0  0  0  0  0  0  0  0  0  0  0  0
  151.5704  140.4355  155.2582 O   0  0  0  0  0  0  0  0  0  0  0  0
  151.7112  139.0205  155.1923 C   0  0  0  0  0  0  0  0  0  0  0  0
  150.7749  138.4489  154.1146 C   0  0  0  0  0  0  0  0  0  0  0  0
  144.9637  133.3496  151.2304 C   0  0  0  0  0  0  0  0  0  0  0  0
  146.9767  131.4538  149.1594 H   0  0  0  0  0  0  0  0  0  0  0  0
  145.5181  132.2240  148.5638 H   0  0  0  0  0  0  0  0  0  0  0  0
  145.4047  130.8813  149.6880 H   0  0  0  0  0  0  0  0  0  0  0  0
  148.1933  133.0211  151.1091 H   0  0  0  0  0  0  0  0  0  0  0  0
  143.7330  135.0709  152.8440 H   0  0  0  0  0  0  0  0  0  0  0  0
  144.8197  134.5801  154.1206 H   0  0  0  0  0  0  0  0  0  0  0  0
  145.9824  136.5755  154.0874 H   0  0  0  0  0  0  0  0  0  0  0  0
  143.6317  137.3416  154.1708 H   0  0  0  0  0  0  0  0  0  0  0  0
  143.5895  137.4667  152.4142 H   0  0  0  0  0  0  0  0  0  0  0  0
  144.6477  138.5193  153.3513 H   0  0  0  0  0  0  0  0  0  0  0  0
  147.0750  136.2550  152.0851 H   0  0  0  0  0  0  0  0  0  0  0  0
  147.1223  138.2890  150.8837 H   0  0  0  0  0  0  0  0  0  0  0  0
  145.5714  138.7176  151.5587 H   0  0  0  0  0  0  0  0  0  0  0  0
  148.8376  137.6315  152.7489 H   0  0  0  0  0  0  0  0  0  0  0  0
  149.0240  138.3609  155.3201 H   0  0  0  0  0  0  0  0  0  0  0  0
  149.4570  140.8733  153.6228 H   0  0  0  0  0  0  0  0  0  0  0  0
  148.2422  140.6885  154.8659 H   0  0  0  0  0  0  0  0  0  0  0  0
  150.2402  141.9336  155.7076 H   0  0  0  0  0  0  0  0  0  0  0  0
  150.0052  140.4505  156.6118 H   0  0  0  0  0  0  0  0  0  0  0  0
  152.7475  138.7809  154.9534 H   0  0  0  0  0  0  0  0  0  0  0  0
  151.4999  138.5787  156.1671 H   0  0  0  0  0  0  0  0  0  0  0  0
  150.8680  137.3628  154.0807 H   0  0  0  0  0  0  0  0  0  0  0  0
  151.0847  138.8208  153.1367 H   0  0  0  0  0  0  0  0  0  0  0  0
  143.8999  133.2803  151.0557 H   0  0  0  0  0  0  0  0  0  0  0  0
  145.7216  136.4223  151.1803 H   0  0  0  0  0  0  0  0  0  0  0  0
  1  2  1  0  0  0  0
  1 21  1  0  0  0  0
  1 22  1  0  0  0  0
  1 23  1  0  0  0  0
  2 20  2  0  0  0  0
  2  3  1  0  0  0  0
  3  4  2  0  0  0  0
  3 24  1  0  0  0  0
  4  5  1  0  0  0  0
  5  6  1  0  0  0  0
  5 20  1  0  0  0  0
  6  7  1  0  0  0  0
  6 25  1  0  0  0  0
  6 26  1  0  0  0  0
  7  8  1  0  0  0  0
  7  9  1  0  0  0  0
  7 27  1  0  0  0  0
  8 28  1  0  0  0  0
  8 29  1  0  0  0  0
  8 30  1  0  0  0  0
  9 10  1  0  0  0  0
  9 31  1  0  0  0  0
  9 45  1  0  0  0  0
 10 11  1  0  0  0  0
 10 32  1  0  0  0  0
 10 33  1  0  0  0  0
 11 12  2  0  0  0  0
 11 13  1  0  0  0  0
 13 14  1  0  0  0  0
 13 34  1  0  0  0  0
 14 19  1  0  0  0  0
 14 15  1  0  0  0  0
 14 35  1  0  0  0  0
 15 16  1  0  0  0  0
 15 36  1  0  0  0  0
 15 37  1  0  0  0  0
 16 17  1  0  0  0  0
 16 38  1  0  0  0  0
 16 39  1  0  0  0  0
 17 18  1  0  0  0  0
 18 19  1  0  0  0  0
 18 40  1  0  0  0  0
 18 41  1  0  0  0  0
 19 42  1  0  0  0  0
 19 43  1  0  0  0  0
 20 44  1  0  0  0  0
M  CHG  1   9   1
M  END
> <s_m_source_file>
AV-unprocessed.smi

> <i_m_source_file_index>
2684

> <i_lp_mmshare_version>
43012

> <i_f3d_flags>
0

> <s_epik_input>
W0NIM11jMVtjSF1ubihbY0hdMSlbQ0gyXVtDQEhdKFtDSDNdKVtOSF1bQ0gyXUMoPU8pW05IXVtDSF0yW0NIMl1bQ0gyXU9bQ0gyXVtDSDJdMg==

> <s_epik_cmdline>
J2VwaWtfcHl0aG9uJywgJy1waCcsICc3LjAnLCAnLXRuJywgJzgnLCAnLW1hJywgJzIwMCcsICctbWV0YWxfYmluZGluZycsICctaW1hZScsICc8aW5maWxlLm1hZT4nLCAnLW9tYWUnLCAnPG91dGZpbGUubWFlPic=

> <r_lp_tautomer_probability>
1

> <r_epik_Ionization_Penalty>
0.128576

> <r_epik_Ionization_Penalty_Charging>
0.128567

> <r_epik_Ionization_Penalty_Neutral>
8.60003e-06

> <r_epik_State_Penalty>
0.117991

> <r_epik_Charging_Adjusted_Penalty>
0.246558

> <i_epik_Tot_Q>
1

> <i_epik_Tot_abs_Q>
1

> <r_epik_Metal_State_Penalty>
0.118015

> <b_epik_Metal_Only>
0

> <s_lp_Force_Field>
OPLS_2005

> <r_lp_Energy>
10.3737

> <b_lp_Chiralities_Consistent>
1

> <s_lp_Variant>
AV-unprocessed.smi:2684-1

> <Gold.Version>
5.8.1

> <Gold.Id.Protein>
6NUR|6NUR_protein|mol2

> <Gold.PLP.Fitness>
49.5106

> <Gold.PLP.PLP>
-37.3374

> <Gold.PLP.part.hbond>
-4.0000

> <Gold.PLP.part.metal>
0.0000

> <Gold.PLP.part.buried>
-2.2471

> <Gold.PLP.part.nonpolar>
-31.8038

> <Gold.PLP.part.repulsive>
1.3513

> <Gold.PLP.ligand.clash>
0.0000

> <Gold.PLP.ligand.torsion>
1.1294

> <Gold.PLP.Chemscore.Hbond>
3.8640

> <Gold.PLP.Chemscore.CHOScore>
0.9213

> <Gold.PLP.Chemscore.Metal>
0.0000

> <Gold.Chemscore.Hbonds>
donor molecule, donor type, donor heavy atom, donor atom, acceptor molecule, acceptor atom, score
      L1  H     9    31       P1  7948  1.92
      L1  H    13    34       P1  7948  1.00
      P1  H  7989  7998       L1    17  0.86
      L1  C     3    24       P1 10747  0.88

> <Gold.PLP.Chemscore.Internal.Correction>
0.0761

> <Gold.Rescore>
     Score         DG    S(hbond)    S(metal)    S(lipo)     H(rot)  DE(clash)    DE(int)     intcor
     15.42     -17.96       2.18        0.00      89.10       2.04       0.07       2.47       ----

> <Gold.Chemscore.Fitness>
15.4229

> <Gold.Chemscore.DG>
-17.9554

> <Gold.Chemscore.ZeroCoef>
-5.4800

> <Gold.Chemscore.Hbond>
2.1803

> <Gold.Chemscore.Metal>
0.0000

> <Gold.Chemscore.Lipo>
89.1036

> <Gold.Chemscore.Internal_Hbond>
0.0000

> <Gold.Chemscore.DEClash>
0.0660

> <Gold.Chemscore.DEInternal>
2.4665

> <Gold.Chemscore.Rot>
2.0437

> <Gold.Chemscore.Internal.Correction>
   9.000000E+99

> <Gold.Chemscore.Hbonds>
donor molecule, donor type, donor heavy atom, donor atom, acceptor molecule, acceptor atom, score
      L1  H     9    31       P1  7948  0.92
      L1  H    13    34       P1  7948  0.99
      P1  H  7989  7998       L1    17  0.10

> <Gold.Chemscore.Hbond.Weighted>
-7.2821

> <Gold.Chemscore.Metal.Weighted>
-0.0000

> <Gold.Chemscore.Lipo.Weighted>
-10.4251

> <Gold.Chemscore.Internal_Hbond.Weighted>
0.0000

> <Gold.Chemscore.DEClash.Weighted>
0.0660

> <Gold.Chemscore.DEInternal.Weighted>
2.4665

> <Gold.Chemscore.Rot.Weighted>
5.2318

> <Gold.Chemscore.Internal.Correction.Weighted>
   9.000000E+99

> <Gold.Protein.RotatedTorsions>
[ 6907 6896 6895 6894 ] final -111.07 input  -60.11 | X-H torsion
[ 7974 7965 7964 7962 ] final  120.76 input  175.53 | X-H torsion
[ 8008 7997 7996 7995 ] final   86.60 input   59.86 | X-H torsion
[ 10167 10162 10161 10158 ] final  -24.47 input  -65.29 | X-H torsion
[ 10718 10713 10712 10709 ] final   -0.20 input   66.30 | X-H torsion
[ 10763 10752 10751 10750 ] final    0.33 input  -60.55 | X-H torsion
[ 11005 11000 10999 10996 ] final   10.44 input  -57.11 | X-H torsion

> <Gold.Protein.ActiveResidues>
 VAL166  LYS551  ARG553  GLY616  TRP617  ASP618  TYR619  PRO620  LYS621  CYS622 
 ASP623  PHE694  ASN695  SER759  ASP760  ASP761  ALA762  ILE779  LEU786  VAL792 
 PHE793  MET794  SER795  GLU796  ALA797  LYS798  CYS799  TRP800  GLU811  SER814 

> <Gold.Protein.RotatedAtoms>
  150.7666  133.9288  159.3420 H   0  0  0  0  0  0  0  0  0  0  0  0  # atno 6907 bound_to 6896
  151.7185  135.0897  160.0289 H   0  0  0  0  0  0  0  0  0  0  0  0  # atno 6908 bound_to 6896
  152.3665  133.6325  159.6090 H   0  0  0  0  0  0  0  0  0  0  0  0  # atno 6909 bound_to 6896
  145.1273  139.3350  143.4683 H   0  0  0  0  0  0  0  0  0  0  0  0  # atno 7974 bound_to 7965
  155.9649  140.3390  155.6523 H   0  0  0  0  0  0  0  0  0  0  0  0  # atno 8008 bound_to 7997
  155.6750  140.0731  157.2524 H   0  0  0  0  0  0  0  0  0  0  0  0  # atno 8009 bound_to 7997
  154.4152  140.1684  156.1908 H   0  0  0  0  0  0  0  0  0  0  0  0  # atno 8010 bound_to 7997
  140.7288  143.4350  151.0744 H   0  0  0  0  0  0  0  0  0  0  0  0  # atno 10167 bound_to 10162
  156.8239  130.5465  149.5694 H   0  0  0  0  0  0  0  0  0  0  0  0  # atno 10718 bound_to 10713
  153.3220  135.6970  153.7022 H   0  0  0  0  0  0  0  0  0  0  0  0  # atno 10763 bound_to 10752
  153.5858  135.3489  155.2893 H   0  0  0  0  0  0  0  0  0  0  0  0  # atno 10764 bound_to 10752
  154.8600  135.4306  154.2387 H   0  0  0  0  0  0  0  0  0  0  0  0  # atno 10765 bound_to 10752
  140.5145  134.0620  155.7827 H   0  0  0  0  0  0  0  0  0  0  0  0  # atno 11005 bound_to 11000
  146.3516  140.1258  142.8599 LP  0  0  0  0  0  0  0  0  0  0  0  0  # atno 17320 bound_to 7965
  145.0673  140.9131  143.4902 LP  0  0  0  0  0  0  0  0  0  0  0  0  # atno 17321 bound_to 7965
  139.8011  143.8083  152.3163 LP  0  0  0  0  0  0  0  0  0  0  0  0  # atno 17342 bound_to 10162
  139.8099  144.7340  150.9711 LP  0  0  0  0  0  0  0  0  0  0  0  0  # atno 17343 bound_to 10162
  156.0973  130.5942  150.9835 LP  0  0  0  0  0  0  0  0  0  0  0  0  # atno 17370 bound_to 10713
  157.6442  131.0906  150.8187 LP  0  0  0  0  0  0  0  0  0  0  0  0  # atno 17371 bound_to 10713
  141.1368  133.9208  157.2416 LP  0  0  0  0  0  0  0  0  0  0  0  0  # atno 17394 bound_to 11000
  139.9640  135.0147  156.9338 LP  0  0  0  0  0  0  0  0  0  0  0  0  # atno 17395 bound_to 11000

$$$$
