AV-unprocessed.smi:1565|AV-procd|sdf|6299|dock1
  -GOLD-   22720 6493D 1   1.00000     0.00000
 Structure written by MMmdl.
 40 41  0  0  0  0  0  0  0  0  1 V2000
  146.8960  134.3095  162.2899 C   0  0  0  0  0  0  0  0  0  0  0  0
  147.4894  134.4628  160.8855 C   0  0  1  0  0  0  0  0  0  0  0  0
  148.5457  135.5809  160.8290 C   0  0  0  0  0  0  0  0  0  0  0  0
  149.1814  135.6129  159.5160 N   0  0  0  0  0  0  0  0  0  0  0  0
  149.9184  136.7800  159.2221 C   0  0  0  0  0  0  0  0  0  0  0  0
  149.5279  137.6150  158.1490 C   0  0  0  0  0  0  0  0  0  0  0  0
  150.2737  138.7775  157.8757 C   0  0  0  0  0  0  0  0  0  0  0  0
  151.3889  139.0852  158.6826 C   0  0  0  0  0  0  0  0  0  0  0  0
  152.2195  140.3051  158.4067 C   0  0  0  0  0  0  0  0  0  0  0  0
  153.4423  140.2216  158.2906 O   0  0  0  0  0  0  0  0  0  0  0  0
  151.5355  141.4485  158.2408 N   0  0  0  0  0  0  0  0  0  0  0  0
  152.1274  142.7411  157.9118 C   0  0  0  0  0  0  0  0  0  0  0  0
  151.2342  143.9128  158.3536 C   0  0  0  0  0  0  0  0  0  0  0  0
  151.2084  143.9644  159.6846 F   0  0  0  0  0  0  0  0  0  0  0  0
  151.7048  145.0714  157.8927 F   0  0  0  0  0  0  0  0  0  0  0  0
  149.9897  143.7363  157.9093 F   0  0  0  0  0  0  0  0  0  0  0  0
  151.7134  138.1821  159.7194 C   0  0  0  0  0  0  0  0  0  0  0  0
  151.0019  137.0664  159.9849 N   0  0  0  0  0  0  0  0  0  0  0  0
  149.7457  134.3248  159.1191 C   0  0  0  0  0  0  0  0  0  0  0  0
  148.6941  133.2034  159.2268 C   0  0  2  0  0  0  0  0  0  0  0  0
  147.6517  133.2301  158.0945 C   0  0  0  0  0  0  0  0  0  0  0  0
  148.0871  133.2193  160.5207 O   0  0  0  0  0  0  0  0  0  0  0  0
  146.4153  135.2322  162.6156 H   0  0  0  0  0  0  0  0  0  0  0  0
  147.6669  134.0575  163.0187 H   0  0  0  0  0  0  0  0  0  0  0  0
  146.1458  133.5185  162.3112 H   0  0  0  0  0  0  0  0  0  0  0  0
  146.6742  134.6948  160.1998 H   0  0  0  0  0  0  0  0  0  0  0  0
  148.0726  136.5312  161.0727 H   0  0  0  0  0  0  0  0  0  0  0  0
  149.3150  135.4091  161.5832 H   0  0  0  0  0  0  0  0  0  0  0  0
  148.6794  137.3710  157.5271 H   0  0  0  0  0  0  0  0  0  0  0  0
  149.9853  139.4199  157.0563 H   0  0  0  0  0  0  0  0  0  0  0  0
  150.5302  141.4179  158.3287 H   0  0  0  0  0  0  0  0  0  0  0  0
  153.0914  142.8048  158.4176 H   0  0  0  0  0  0  0  0  0  0  0  0
  152.3386  142.8059  156.8430 H   0  0  0  0  0  0  0  0  0  0  0  0
  152.5686  138.3484  160.3581 H   0  0  0  0  0  0  0  0  0  0  0  0
  150.1289  134.3707  158.0987 H   0  0  0  0  0  0  0  0  0  0  0  0
  150.5907  134.0973  159.7707 H   0  0  0  0  0  0  0  0  0  0  0  0
  149.2179  132.2503  159.1488 H   0  0  0  0  0  0  0  0  0  0  0  0
  148.1301  133.0789  157.1267 H   0  0  0  0  0  0  0  0  0  0  0  0
  147.1182  134.1790  158.0451 H   0  0  0  0  0  0  0  0  0  0  0  0
  146.9151  132.4372  158.2253 H   0  0  0  0  0  0  0  0  0  0  0  0
  1  2  1  0  0  0  0
  1 23  1  0  0  0  0
  1 24  1  0  0  0  0
  1 25  1  0  0  0  0
  2 22  1  0  0  0  0
  2  3  1  0  0  0  0
  2 26  1  0  0  0  0
  3  4  1  0  0  0  0
  3 27  1  0  0  0  0
  3 28  1  0  0  0  0
  4  5  1  0  0  0  0
  4 19  1  0  0  0  0
  5 18  1  0  0  0  0
  5  6  2  0  0  0  0
  6  7  1  0  0  0  0
  6 29  1  0  0  0  0
  7  8  2  0  0  0  0
  7 30  1  0  0  0  0
  8  9  1  0  0  0  0
  8 17  1  0  0  0  0
  9 10  2  0  0  0  0
  9 11  1  0  0  0  0
 11 12  1  0  0  0  0
 11 31  1  0  0  0  0
 12 13  1  0  0  0  0
 12 32  1  0  0  0  0
 12 33  1  0  0  0  0
 13 14  1  0  0  0  0
 13 15  1  0  0  0  0
 13 16  1  0  0  0  0
 17 18  2  0  0  0  0
 17 34  1  0  0  0  0
 19 20  1  0  0  0  0
 19 35  1  0  0  0  0
 19 36  1  0  0  0  0
 20 21  1  0  0  0  0
 20 22  1  0  0  0  0
 20 37  1  0  0  0  0
 21 38  1  0  0  0  0
 21 39  1  0  0  0  0
 21 40  1  0  0  0  0
M  END
> <s_m_source_file>
AV-unprocessed.smi

> <i_m_source_file_index>
1565

> <i_lp_mmshare_version>
43012

> <i_f3d_flags>
0

> <s_epik_input>
W0NIM11bQ0BASF0xW0NIMl1OKFtDSDJdW0NASF0oTzEpW0NIM10pYzJbY0hdW2NIXWMoW2NIXW4yKUMoPU8pW05IXVtDSDJdQyhGKShGKUY=

> <s_epik_cmdline>
J2VwaWtfcHl0aG9uJywgJy1waCcsICc3LjAnLCAnLXRuJywgJzgnLCAnLW1hJywgJzIwMCcsICctbWV0YWxfYmluZGluZycsICctaW1hZScsICc8aW5maWxlLm1hZT4nLCAnLW9tYWUnLCAnPG91dGZpbGUubWFlPic=

> <r_lp_tautomer_probability>
1

> <r_epik_Ionization_Penalty>
1.48031e-05

> <r_epik_Ionization_Penalty_Charging>
0

> <r_epik_Ionization_Penalty_Neutral>
1.48031e-05

> <r_epik_State_Penalty>
-0

> <r_epik_Charging_Adjusted_Penalty>
0

> <i_epik_Tot_Q>
0

> <i_epik_Tot_abs_Q>
0

> <r_epik_Metal_State_Penalty>
0.00620302

> <b_epik_Metal_Only>
0

> <s_lp_Force_Field>
OPLS_2005

> <r_lp_Energy>
19.4369

> <b_lp_Chiralities_Consistent>
1

> <s_lp_Variant>
AV-unprocessed.smi:1565-3

> <Gold.Version>
5.8.1

> <Gold.Id.Protein>
6NUR|6NUR_protein|mol2

> <Gold.PLP.Fitness>
39.4117

> <Gold.PLP.PLP>
-35.6470

> <Gold.PLP.part.hbond>
-2.0000

> <Gold.PLP.part.metal>
0.0000

> <Gold.PLP.part.buried>
-5.8628

> <Gold.PLP.part.nonpolar>
-28.2954

> <Gold.PLP.part.repulsive>
0.1131

> <Gold.PLP.ligand.clash>
0.0000

> <Gold.PLP.ligand.torsion>
1.2986

> <Gold.PLP.Chemscore.Hbond>
2.0000

> <Gold.PLP.Chemscore.CHOScore>
0.0000

> <Gold.PLP.Chemscore.Metal>
0.0000

> <Gold.Chemscore.Hbonds>
donor molecule, donor type, donor heavy atom, donor atom, acceptor molecule, acceptor atom, score
      P1  H  6896  6908       L1    18  0.20
      P1  H  7997  8009       L1    10  0.51

> <Gold.PLP.Chemscore.Internal.Correction>
0.3619

> <Gold.Rescore>
     Score         DG    S(hbond)    S(metal)    S(lipo)     H(rot)  DE(clash)    DE(int)     intcor
     14.91     -15.92       1.95        0.00      62.10       1.31       0.13       0.88       ----

> <Gold.Chemscore.Fitness>
14.9056

> <Gold.Chemscore.DG>
-15.9152

> <Gold.Chemscore.ZeroCoef>
-5.4800

> <Gold.Chemscore.Hbond>
1.9495

> <Gold.Chemscore.Metal>
0.0000

> <Gold.Chemscore.Lipo>
62.0980

> <Gold.Chemscore.Internal_Hbond>
0.0000

> <Gold.Chemscore.DEClash>
0.1338

> <Gold.Chemscore.DEInternal>
0.8758

> <Gold.Chemscore.Rot>
1.3052

> <Gold.Chemscore.Internal.Correction>
   9.000000E+99

> <Gold.Chemscore.Hbonds>
donor molecule, donor type, donor heavy atom, donor atom, acceptor molecule, acceptor atom, score
      P1  H  7997  8009       L1    10  0.50

> <Gold.Chemscore.Hbond.Weighted>
-6.5112

> <Gold.Chemscore.Metal.Weighted>
-0.0000

> <Gold.Chemscore.Lipo.Weighted>
-7.2655

> <Gold.Chemscore.Internal_Hbond.Weighted>
0.0000

> <Gold.Chemscore.DEClash.Weighted>
0.1338

> <Gold.Chemscore.DEInternal.Weighted>
0.8758

> <Gold.Chemscore.Rot.Weighted>
3.3414

> <Gold.Chemscore.Internal.Correction.Weighted>
   9.000000E+99

> <Gold.Protein.RotatedTorsions>
[ 6907 6896 6895 6894 ] final -136.95 input  -60.11 | X-H torsion
[ 7974 7965 7964 7962 ] final  108.65 input  175.53 | X-H torsion
[ 8008 7997 7996 7995 ] final -178.26 input   59.86 | X-H torsion
[ 10167 10162 10161 10158 ] final -106.29 input  -65.29 | X-H torsion
[ 10718 10713 10712 10709 ] final  122.57 input   66.30 | X-H torsion
[ 10763 10752 10751 10750 ] final   66.77 input  -60.55 | X-H torsion
[ 11005 11000 10999 10996 ] final   76.06 input  -57.11 | X-H torsion

> <Gold.Protein.ActiveResidues>
 VAL166  LYS551  ARG553  GLY616  TRP617  ASP618  TYR619  PRO620  LYS621  CYS622 
 ASP623  PHE694  ASN695  SER759  ASP760  ASP761  ALA762  ILE779  LEU786  VAL792 
 PHE793  MET794  SER795  GLU796  ALA797  LYS798  CYS799  TRP800  GLU811  SER814 

> <Gold.Protein.RotatedAtoms>
  151.0164  133.5917  159.2676 H   0  0  0  0  0  0  0  0  0  0  0  0  # atno 6907 bound_to 6896
  151.3049  135.0778  159.9262 H   0  0  0  0  0  0  0  0  0  0  0  0  # atno 6908 bound_to 6896
  152.5312  133.9839  159.7873 H   0  0  0  0  0  0  0  0  0  0  0  0  # atno 6909 bound_to 6896
  145.2780  139.2643  143.3931 H   0  0  0  0  0  0  0  0  0  0  0  0  # atno 7974 bound_to 7965
  156.0168  140.1252  157.0398 H   0  0  0  0  0  0  0  0  0  0  0  0  # atno 8008 bound_to 7997
  154.4296  140.1077  156.5976 H   0  0  0  0  0  0  0  0  0  0  0  0  # atno 8009 bound_to 7997
  155.6002  140.3470  155.4594 H   0  0  0  0  0  0  0  0  0  0  0  0  # atno 8010 bound_to 7997
  140.1893  143.3904  152.1219 H   0  0  0  0  0  0  0  0  0  0  0  0  # atno 10167 bound_to 10162
  157.5732  131.1081  150.8329 H   0  0  0  0  0  0  0  0  0  0  0  0  # atno 10718 bound_to 10713
  153.0155  135.5308  154.6875 H   0  0  0  0  0  0  0  0  0  0  0  0  # atno 10763 bound_to 10752
  154.6019  135.2869  155.0529 H   0  0  0  0  0  0  0  0  0  0  0  0  # atno 10764 bound_to 10752
  154.1583  135.6552  153.5032 H   0  0  0  0  0  0  0  0  0  0  0  0  # atno 10765 bound_to 10752
  139.9315  134.7569  156.1348 H   0  0  0  0  0  0  0  0  0  0  0  0  # atno 11005 bound_to 11000
  146.3225  140.3240  142.8635 LP  0  0  0  0  0  0  0  0  0  0  0  0  # atno 17320 bound_to 7965
  144.9278  140.7940  143.5708 LP  0  0  0  0  0  0  0  0  0  0  0  0  # atno 17321 bound_to 7965
  139.5262  144.7105  151.5220 LP  0  0  0  0  0  0  0  0  0  0  0  0  # atno 17342 bound_to 10162
  140.6466  143.8781  150.6744 LP  0  0  0  0  0  0  0  0  0  0  0  0  # atno 17343 bound_to 10162
  156.8795  130.5174  149.5292 LP  0  0  0  0  0  0  0  0  0  0  0  0  # atno 17370 bound_to 10713
  156.0777  130.5795  150.9504 LP  0  0  0  0  0  0  0  0  0  0  0  0  # atno 17371 bound_to 10713
  141.0906  133.6716  156.2533 LP  0  0  0  0  0  0  0  0  0  0  0  0  # atno 17394 bound_to 11000
  140.6189  134.5382  157.5544 LP  0  0  0  0  0  0  0  0  0  0  0  0  # atno 17395 bound_to 11000

$$$$
