AV-unprocessed.smi:2534|AV-procd|sdf|9974|dock5
  -GOLD-   2272014 23D 1   1.00000     0.00000
 Structure written by MMmdl.
 40 42  0  0  0  0  0  0  0  0  1 V2000
  151.9856  145.6226  159.5002 C   0  0  0  0  0  0  0  0  0  0  0  0
  152.2668  144.1681  159.0975 C   0  0  2  0  0  0  0  0  0  0  0  0
  151.3561  143.7182  157.9423 C   0  0  0  0  0  0  0  0  0  0  0  0
  151.6429  142.2642  157.5277 C   0  0  0  0  0  0  0  0  0  0  0  0
  151.5452  141.2643  158.7030 C   0  0  1  0  0  0  0  0  0  0  0  0
  150.1941  141.2096  159.1266 O   0  0  0  0  0  0  0  0  0  0  0  0
  151.9568  139.8488  158.2186 C   0  0  0  0  0  0  0  0  0  0  0  0
  151.5568  139.5358  156.8519 N   0  0  0  0  0  0  0  0  0  0  0  0
  152.4878  139.5349  155.8618 N   0  0  0  0  0  0  0  0  0  0  0  0
  151.8333  139.2188  154.7467 C   0  0  0  0  0  0  0  0  0  0  0  0
  150.4457  139.0194  154.9826 C   0  0  0  0  0  0  0  0  0  0  0  0
  149.2962  138.6732  154.1537 C   0  0  0  0  0  0  0  0  0  0  0  0
  148.1365  138.5751  154.7240 N   0  0  0  0  0  0  0  0  0  0  0  0
  147.9761  138.7967  156.0964 N   0  0  0  0  0  0  0  0  0  0  0  0
  146.5958  138.6415  156.5539 C   0  0  0  0  0  0  0  0  0  0  0  0
  148.9858  139.1344  156.9572 C   0  0  0  0  0  0  0  0  0  0  0  0
  148.8317  139.3446  158.1604 O   0  0  0  0  0  0  0  0  0  0  0  0
  150.3193  139.2357  156.3151 C   0  0  0  0  0  0  0  0  0  0  0  0
  152.4005  141.7517  159.8988 C   0  0  0  0  0  0  0  0  0  0  0  0
  152.1126  143.2118  160.2928 C   0  0  0  0  0  0  0  0  0  0  0  0
  150.9636  145.7436  159.8608 H   0  0  0  0  0  0  0  0  0  0  0  0
  152.1227  146.2970  158.6545 H   0  0  0  0  0  0  0  0  0  0  0  0
  152.6597  145.9479  160.2930 H   0  0  0  0  0  0  0  0  0  0  0  0
  153.3009  144.1157  158.7539 H   0  0  0  0  0  0  0  0  0  0  0  0
  150.3100  143.8186  158.2343 H   0  0  0  0  0  0  0  0  0  0  0  0
  151.4970  144.3735  157.0822 H   0  0  0  0  0  0  0  0  0  0  0  0
  150.9637  141.9726  156.7258 H   0  0  0  0  0  0  0  0  0  0  0  0
  152.6462  142.2190  157.1015 H   0  0  0  0  0  0  0  0  0  0  0  0
  150.1687  140.8730  160.0095 H   0  0  0  0  0  0  0  0  0  0  0  0
  153.0350  139.7135  158.3042 H   0  0  0  0  0  0  0  0  0  0  0  0
  151.5181  139.0969  158.8764 H   0  0  0  0  0  0  0  0  0  0  0  0
  152.3798  139.1499  153.8178 H   0  0  0  0  0  0  0  0  0  0  0  0
  149.4157  138.5033  153.0840 H   0  0  0  0  0  0  0  0  0  0  0  0
  146.4645  138.8018  157.6246 H   0  0  0  0  0  0  0  0  0  0  0  0
  146.2386  137.6357  156.3297 H   0  0  0  0  0  0  0  0  0  0  0  0
  145.9487  139.3501  156.0357 H   0  0  0  0  0  0  0  0  0  0  0  0
  152.2423  141.1140  160.7691 H   0  0  0  0  0  0  0  0  0  0  0  0
  153.4573  141.6600  159.6440 H   0  0  0  0  0  0  0  0  0  0  0  0
  152.7877  143.5091  161.0958 H   0  0  0  0  0  0  0  0  0  0  0  0
  151.1034  143.2890  160.7000 H   0  0  0  0  0  0  0  0  0  0  0  0
  1  2  1  0  0  0  0
  1 21  1  0  0  0  0
  1 22  1  0  0  0  0
  1 23  1  0  0  0  0
  2 20  1  0  0  0  0
  2  3  1  0  0  0  0
  2 24  1  0  0  0  0
  3  4  1  0  0  0  0
  3 25  1  0  0  0  0
  3 26  1  0  0  0  0
  4  5  1  0  0  0  0
  4 27  1  0  0  0  0
  4 28  1  0  0  0  0
  5  6  1  0  0  0  0
  5  7  1  0  0  0  0
  5 19  1  0  0  0  0
  6 29  1  0  0  0  0
  7  8  1  0  0  0  0
  7 30  1  0  0  0  0
  7 31  1  0  0  0  0
  8 18  1  0  0  0  0
  8  9  1  0  0  0  0
  9 10  2  0  0  0  0
 10 11  1  0  0  0  0
 10 32  1  0  0  0  0
 11 18  2  0  0  0  0
 11 12  1  0  0  0  0
 12 13  2  0  0  0  0
 12 33  1  0  0  0  0
 13 14  1  0  0  0  0
 14 15  1  0  0  0  0
 14 16  1  0  0  0  0
 15 34  1  0  0  0  0
 15 35  1  0  0  0  0
 15 36  1  0  0  0  0
 16 17  2  0  0  0  0
 16 18  1  0  0  0  0
 19 20  1  0  0  0  0
 19 37  1  0  0  0  0
 19 38  1  0  0  0  0
 20 39  1  0  0  0  0
 20 40  1  0  0  0  0
M  END
> <s_m_source_file>
AV-unprocessed.smi

> <i_m_source_file_index>
2534

> <i_lp_mmshare_version>
43012

> <i_f3d_flags>
0

> <s_epik_input>
W0NIMl0xW0NIMl1bQ0BIXShbQ0gzXSlbQ0gyXVtDSDJdW0NAQF0xKFtPSF0pW0NIMl1uKG5bY0hdMiljKGMyMyljKD1PKW4oW0NIM10pbltjSF0z

> <s_epik_cmdline>
J2VwaWtfcHl0aG9uJywgJy1waCcsICc3LjAnLCAnLXRuJywgJzgnLCAnLW1hJywgJzIwMCcsICctbWV0YWxfYmluZGluZycsICctaW1hZScsICc8aW5maWxlLm1hZT4nLCAnLW9tYWUnLCAnPG91dGZpbGUubWFlPic=

> <r_lp_tautomer_probability>
1

> <r_epik_Ionization_Penalty>
4.4666e-07

> <r_epik_Ionization_Penalty_Charging>
3.10141e-10

> <r_epik_Ionization_Penalty_Neutral>
4.46349e-07

> <r_epik_State_Penalty>
-0

> <r_epik_Charging_Adjusted_Penalty>
3.10141e-10

> <i_epik_Tot_Q>
0

> <i_epik_Tot_abs_Q>
0

> <r_epik_Metal_State_Penalty>
-0

> <b_epik_Metal_Only>
0

> <s_lp_Force_Field>
OPLS_2005

> <r_lp_Energy>
31.1347

> <b_lp_Chiralities_Consistent>
1

> <s_lp_Variant>
AV-unprocessed.smi:2534-1

> <Gold.Version>
5.8.1

> <Gold.Id.Protein>
6NUR|6NUR_protein|mol2

> <Gold.PLP.Fitness>
40.9629

> <Gold.PLP.PLP>
-33.2176

> <Gold.PLP.part.hbond>
-2.2644

> <Gold.PLP.part.metal>
0.0000

> <Gold.PLP.part.buried>
-0.8000

> <Gold.PLP.part.nonpolar>
-30.5788

> <Gold.PLP.part.repulsive>
0.1123

> <Gold.PLP.ligand.clash>
0.0000

> <Gold.PLP.ligand.torsion>
0.5255

> <Gold.PLP.Chemscore.Hbond>
1.0000

> <Gold.PLP.Chemscore.CHOScore>
1.9309

> <Gold.PLP.Chemscore.Metal>
0.0000

> <Gold.Chemscore.Hbonds>
donor molecule, donor type, donor heavy atom, donor atom, acceptor molecule, acceptor atom, score
      P1  H  7997  8010       L1     9  0.96
      L1  C    12    33       P1  7948  0.80
      L1  C    12    33       P1  7957  1.00

> <Gold.PLP.Chemscore.Internal.Correction>
0.0035

> <Gold.Rescore>
     Score         DG    S(hbond)    S(metal)    S(lipo)     H(rot)  DE(clash)    DE(int)     intcor
     14.32     -17.04       0.99        0.00     107.14       1.68       0.40       2.32       ----

> <Gold.Chemscore.Fitness>
14.3200

> <Gold.Chemscore.DG>
-17.0360

> <Gold.Chemscore.ZeroCoef>
-5.4800

> <Gold.Chemscore.Hbond>
0.9910

> <Gold.Chemscore.Metal>
0.0000

> <Gold.Chemscore.Lipo>
107.1448

> <Gold.Chemscore.Internal_Hbond>
0.0000

> <Gold.Chemscore.DEClash>
0.3957

> <Gold.Chemscore.DEInternal>
2.3204

> <Gold.Chemscore.Rot>
1.6758

> <Gold.Chemscore.Internal.Correction>
   9.000000E+99

> <Gold.Chemscore.Hbonds>
donor molecule, donor type, donor heavy atom, donor atom, acceptor molecule, acceptor atom, score
      P1  H  7997  8010       L1     9  0.79

> <Gold.Chemscore.Hbond.Weighted>
-3.3100

> <Gold.Chemscore.Metal.Weighted>
-0.0000

> <Gold.Chemscore.Lipo.Weighted>
-12.5359

> <Gold.Chemscore.Internal_Hbond.Weighted>
0.0000

> <Gold.Chemscore.DEClash.Weighted>
0.3957

> <Gold.Chemscore.DEInternal.Weighted>
2.3204

> <Gold.Chemscore.Rot.Weighted>
4.2899

> <Gold.Chemscore.Internal.Correction.Weighted>
   9.000000E+99

> <Gold.Protein.RotatedTorsions>
[ 6907 6896 6895 6894 ] final    8.11 input  -60.11 | X-H torsion
[ 7974 7965 7964 7962 ] final  146.67 input  175.53 | X-H torsion
[ 8008 7997 7996 7995 ] final   66.79 input   59.86 | X-H torsion
[ 10167 10162 10161 10158 ] final -117.11 input  -65.29 | X-H torsion
[ 10718 10713 10712 10709 ] final   26.68 input   66.30 | X-H torsion
[ 10763 10752 10751 10750 ] final   42.43 input  -60.55 | X-H torsion
[ 11005 11000 10999 10996 ] final  109.10 input  -57.11 | X-H torsion

> <Gold.Protein.ActiveResidues>
 VAL166  LYS551  ARG553  GLY616  TRP617  ASP618  TYR619  PRO620  LYS621  CYS622 
 ASP623  PHE694  ASN695  SER759  ASP760  ASP761  ALA762  ILE779  LEU786  VAL792 
 PHE793  MET794  SER795  GLU796  ALA797  LYS798  CYS799  TRP800  GLU811  SER814 

> <Gold.Protein.RotatedAtoms>
  151.7007  135.0930  160.0250 H   0  0  0  0  0  0  0  0  0  0  0  0  # atno 6907 bound_to 6896
  152.3722  133.6430  159.6104 H   0  0  0  0  0  0  0  0  0  0  0  0  # atno 6908 bound_to 6896
  150.7682  133.9167  159.3427 H   0  0  0  0  0  0  0  0  0  0  0  0  # atno 6909 bound_to 6896
  144.8652  139.5934  143.5912 H   0  0  0  0  0  0  0  0  0  0  0  0  # atno 7974 bound_to 7965
  155.6829  140.3496  155.4862 H   0  0  0  0  0  0  0  0  0  0  0  0  # atno 8008 bound_to 7997
  155.9591  140.1134  157.0933 H   0  0  0  0  0  0  0  0  0  0  0  0  # atno 8009 bound_to 7997
  154.4139  140.1179  156.5141 H   0  0  0  0  0  0  0  0  0  0  0  0  # atno 8010 bound_to 7997
  140.0719  143.4869  152.1975 H   0  0  0  0  0  0  0  0  0  0  0  0  # atno 10167 bound_to 10162
  157.2101  130.6930  149.6224 H   0  0  0  0  0  0  0  0  0  0  0  0  # atno 10718 bound_to 10713
  152.9883  135.6132  154.2949 H   0  0  0  0  0  0  0  0  0  0  0  0  # atno 10763 bound_to 10752
  154.2672  135.2780  155.2755 H   0  0  0  0  0  0  0  0  0  0  0  0  # atno 10764 bound_to 10752
  154.5154  135.5829  153.6695 H   0  0  0  0  0  0  0  0  0  0  0  0  # atno 10765 bound_to 10752
  139.8856  134.9449  156.6074 H   0  0  0  0  0  0  0  0  0  0  0  0  # atno 11005 bound_to 11000
  146.2890  139.7086  142.9174 LP  0  0  0  0  0  0  0  0  0  0  0  0  # atno 17320 bound_to 7965
  145.4235  141.0408  143.2951 LP  0  0  0  0  0  0  0  0  0  0  0  0  # atno 17321 bound_to 7965
  139.5831  144.7519  151.3590 LP  0  0  0  0  0  0  0  0  0  0  0  0  # atno 17342 bound_to 10162
  140.7121  143.7363  150.7586 LP  0  0  0  0  0  0  0  0  0  0  0  0  # atno 17343 bound_to 10162
  155.9691  130.4554  150.5886 LP  0  0  0  0  0  0  0  0  0  0  0  0  # atno 17370 bound_to 10713
  157.3681  131.0761  151.1581 LP  0  0  0  0  0  0  0  0  0  0  0  0  # atno 17371 bound_to 10713
  140.7838  133.8638  155.8589 LP  0  0  0  0  0  0  0  0  0  0  0  0  # atno 17394 bound_to 11000
  140.9737  134.1497  157.4554 LP  0  0  0  0  0  0  0  0  0  0  0  0  # atno 17395 bound_to 11000

$$$$
