AV-unprocessed.smi:35|AV-procd|sdf|255|dock5
  -GOLD-   2262016 13D 1   1.00000     0.00000
 Structure written by MMmdl.
 29 30  0  0  0  0  0  0  0  0  1 V2000
  150.3560  131.6595  156.0628 O   0  0  0  0  0  0  0  0  0  0  0  0
  150.3809  132.8859  155.9836 C   0  0  0  0  0  0  0  0  0  0  0  0
  151.1672  133.6339  156.8643 N   0  0  0  0  0  0  0  0  0  0  0  0
  151.2767  135.0257  156.8702 C   0  0  0  0  0  0  0  0  0  0  0  0
  152.0099  135.5833  157.6858 O   0  0  0  0  0  0  0  0  0  0  0  0
  150.5287  135.7392  155.9070 N   0  0  0  0  0  0  0  0  0  0  0  0
  150.6307  137.2539  155.8955 C   0  0  2  0  0  0  0  0  0  0  0  0
  149.3620  137.8119  155.7121 O   0  0  0  0  0  0  0  0  0  0  0  0
  149.2514  138.3612  154.4024 C   0  0  1  0  0  0  0  0  0  0  0  0
  148.1395  139.4222  154.3343 C   0  0  0  0  0  0  0  0  0  0  0  0
  147.7542  139.6316  152.9925 O   0  0  0  0  0  0  0  0  0  0  0  0
  150.6713  138.8689  154.1251 C   0  0  1  0  0  0  0  0  0  0  0  0
  150.8968  140.1238  154.7419 O   0  0  0  0  0  0  0  0  0  0  0  0
  151.5417  137.7962  154.7659 C   0  0  2  0  0  0  0  0  0  0  0  0
  151.8898  136.8261  153.7926 O   0  0  0  0  0  0  0  0  0  0  0  0
  149.7326  135.0372  155.0095 C   0  0  0  0  0  0  0  0  0  0  0  0
  149.6387  133.6866  155.0161 C   0  0  0  0  0  0  0  0  0  0  0  0
  148.4503  132.8758  153.6543 Br  0  0  0  0  0  0  0  0  0  0  0  0
  151.7019  133.1245  157.5527 H   0  0  0  0  0  0  0  0  0  0  0  0
  150.9670  137.5366  156.8948 H   0  0  0  0  0  0  0  0  0  0  0  0
  149.0411  137.5578  153.6941 H   0  0  0  0  0  0  0  0  0  0  0  0
  147.2759  139.1342  154.9346 H   0  0  0  0  0  0  0  0  0  0  0  0
  148.5042  140.3743  154.7206 H   0  0  0  0  0  0  0  0  0  0  0  0
  148.5287  139.8124  152.4818 H   0  0  0  0  0  0  0  0  0  0  0  0
  150.8615  138.9817  153.0567 H   0  0  0  0  0  0  0  0  0  0  0  0
  150.0615  140.4991  154.9750 H   0  0  0  0  0  0  0  0  0  0  0  0
  152.4605  138.2007  155.1929 H   0  0  0  0  0  0  0  0  0  0  0  0
  151.1422  136.6880  153.2311 H   0  0  0  0  0  0  0  0  0  0  0  0
  149.1559  135.5679  154.2680 H   0  0  0  0  0  0  0  0  0  0  0  0
  1  2  2  0  0  0  0
  2 17  1  0  0  0  0
  2  3  1  0  0  0  0
  3 19  1  0  0  0  0
  3  4  1  0  0  0  0
  4  5  2  0  0  0  0
  4  6  1  0  0  0  0
  6  7  1  0  0  0  0
  6 16  1  0  0  0  0
  7 14  1  0  0  0  0
  7  8  1  0  0  0  0
  7 20  1  0  0  0  0
  8  9  1  0  0  0  0
  9 10  1  0  0  0  0
  9 12  1  0  0  0  0
  9 21  1  0  0  0  0
 10 11  1  0  0  0  0
 10 22  1  0  0  0  0
 10 23  1  0  0  0  0
 11 24  1  0  0  0  0
 12 13  1  0  0  0  0
 12 14  1  0  0  0  0
 12 25  1  0  0  0  0
 13 26  1  0  0  0  0
 14 15  1  0  0  0  0
 14 27  1  0  0  0  0
 15 28  1  0  0  0  0
 16 17  2  0  0  0  0
 16 29  1  0  0  0  0
 17 18  1  0  0  0  0
M  END
> <s_m_source_file>
AV-unprocessed.smi

> <i_m_source_file_index>
35

> <i_lp_mmshare_version>
43012

> <i_f3d_flags>
0

> <s_epik_input>
Tz1jMVtuSF1jKD1PKW4oW2NIXWMxQnIpW0NAQEhdMk9bQ0BASF0oW0NIMl1bT0hdKVtDQEBIXShbT0hdKVtDQEhdMltPSF0=

> <s_epik_cmdline>
J2VwaWtfcHl0aG9uJywgJy1waCcsICc3LjAnLCAnLXRuJywgJzgnLCAnLW1hJywgJzIwMCcsICctbWV0YWxfYmluZGluZycsICctaW1hZScsICc8aW5maWxlLm1hZT4nLCAnLW9tYWUnLCAnPG91dGZpbGUubWFlPic=

> <r_lp_tautomer_probability>
0.999537

> <r_epik_Ionization_Penalty>
0.10812

> <r_epik_Ionization_Penalty_Charging>
0.108119

> <r_epik_Ionization_Penalty_Neutral>
4.93006e-07

> <r_epik_State_Penalty>
0.0979238

> <r_epik_Charging_Adjusted_Penalty>
0.206043

> <i_epik_Tot_Q>
0

> <i_epik_Tot_abs_Q>
0

> <r_epik_Metal_State_Penalty>
3.07911

> <b_epik_Metal_Only>
0

> <s_epik_Chemistry_Notes>
This compound contains an acetal/aminal-like group ( X-CH(R)-Y where X, Y are N, S, or O) that may be acid/base labile, releasing an aldehyde.

> <s_lp_Force_Field>
OPLS_2005

> <r_lp_Energy>
34.1394

> <b_lp_Chiralities_Consistent>
1

> <s_lp_Variant>
AV-unprocessed.smi:35-9

> <Gold.Version>
5.8.1

> <Gold.Id.Protein>
6NUR|6NUR_protein|mol2

> <Gold.PLP.Fitness>
39.8131

> <Gold.PLP.PLP>
-28.8450

> <Gold.PLP.part.hbond>
-4.9019

> <Gold.PLP.part.metal>
0.0000

> <Gold.PLP.part.buried>
-4.6526

> <Gold.PLP.part.nonpolar>
-20.1087

> <Gold.PLP.part.repulsive>
0.1921

> <Gold.PLP.ligand.clash>
0.0000

> <Gold.PLP.ligand.torsion>
0.6637

> <Gold.PLP.Chemscore.Hbond>
3.0760

> <Gold.PLP.Chemscore.CHOScore>
1.0000

> <Gold.PLP.Chemscore.Metal>
0.0000

> <Gold.Chemscore.Hbonds>
donor molecule, donor type, donor heavy atom, donor atom, acceptor molecule, acceptor atom, score
      L1  H    11    24       P1  7957  1.00
      L1  H    15    28       P1  7949  0.53
      P1  H  7989  7998       L1    13  0.90
      P1  H 10752 10765       L1    15  1.00
      L1  C    16    29       P1  7948  1.00

> <Gold.PLP.Chemscore.Internal.Correction>
0.0676

> <Gold.Rescore>
     Score         DG    S(hbond)    S(metal)    S(lipo)     H(rot)  DE(clash)    DE(int)     intcor
      8.77      -9.71       2.51        0.00      44.94       3.67       0.09       0.85       ----

> <Gold.Chemscore.Fitness>
8.7664

> <Gold.Chemscore.DG>
-9.7098

> <Gold.Chemscore.ZeroCoef>
-5.4800

> <Gold.Chemscore.Hbond>
2.5052

> <Gold.Chemscore.Metal>
0.0000

> <Gold.Chemscore.Lipo>
44.9401

> <Gold.Chemscore.Internal_Hbond>
0.0000

> <Gold.Chemscore.DEClash>
0.0903

> <Gold.Chemscore.DEInternal>
0.8531

> <Gold.Chemscore.Rot>
3.6701

> <Gold.Chemscore.Internal.Correction>
   9.000000E+99

> <Gold.Chemscore.Hbonds>
donor molecule, donor type, donor heavy atom, donor atom, acceptor molecule, acceptor atom, score
      L1  H    11    24       P1  7957  1.00
      L1  H    15    28       P1  7949  0.23
      P1  H  7989  7998       L1    13  0.16
      P1  H 10752 10765       L1    15  0.97

> <Gold.Chemscore.Hbond.Weighted>
-8.3672

> <Gold.Chemscore.Metal.Weighted>
-0.0000

> <Gold.Chemscore.Lipo.Weighted>
-5.2580

> <Gold.Chemscore.Internal_Hbond.Weighted>
0.0000

> <Gold.Chemscore.DEClash.Weighted>
0.0903

> <Gold.Chemscore.DEInternal.Weighted>
0.8531

> <Gold.Chemscore.Rot.Weighted>
9.3955

> <Gold.Chemscore.Internal.Correction.Weighted>
   9.000000E+99

> <Gold.Protein.RotatedTorsions>
[ 6907 6896 6895 6894 ] final  148.02 input  -60.11 | X-H torsion
[ 7974 7965 7964 7962 ] final  -76.03 input  175.53 | X-H torsion
[ 8008 7997 7996 7995 ] final  142.84 input   59.86 | X-H torsion
[ 10167 10162 10161 10158 ] final  -56.90 input  -65.29 | X-H torsion
[ 10718 10713 10712 10709 ] final  -13.71 input   66.30 | X-H torsion
[ 10763 10752 10751 10750 ] final  136.98 input  -60.55 | X-H torsion
[ 11005 11000 10999 10996 ] final   81.12 input  -57.11 | X-H torsion

> <Gold.Protein.ActiveResidues>
 VAL166  LYS551  ARG553  GLY616  TRP617  ASP618  TYR619  PRO620  LYS621  CYS622 
 ASP623  PHE694  ASN695  SER759  ASP760  ASP761  ALA762  ILE779  LEU786  VAL792 
 PHE793  MET794  SER795  GLU796  ALA797  LYS798  CYS799  TRP800  GLU811  SER814 

> <Gold.Protein.RotatedAtoms>
  152.1471  133.4499  159.4794 H   0  0  0  0  0  0  0  0  0  0  0  0  # atno 6907 bound_to 6896
  150.6891  134.2235  159.4415 H   0  0  0  0  0  0  0  0  0  0  0  0  # atno 6908 bound_to 6896
  152.0129  134.9866  160.0619 H   0  0  0  0  0  0  0  0  0  0  0  0  # atno 6909 bound_to 6896
  145.6183  140.9369  143.1152 H   0  0  0  0  0  0  0  0  0  0  0  0  # atno 7974 bound_to 7965
  156.2942  140.2278  156.4793 H   0  0  0  0  0  0  0  0  0  0  0  0  # atno 8008 bound_to 7997
  154.7867  140.0457  157.1190 H   0  0  0  0  0  0  0  0  0  0  0  0  # atno 8009 bound_to 7997
  154.9694  140.3064  155.4998 H   0  0  0  0  0  0  0  0  0  0  0  0  # atno 8010 bound_to 7997
  140.6290  143.2451  151.5290 H   0  0  0  0  0  0  0  0  0  0  0  0  # atno 10167 bound_to 10162
  156.6263  130.4889  149.6146 H   0  0  0  0  0  0  0  0  0  0  0  0  # atno 10718 bound_to 10713
  153.8655  135.3062  155.3440 H   0  0  0  0  0  0  0  0  0  0  0  0  # atno 10763 bound_to 10752
  154.7829  135.4825  153.9887 H   0  0  0  0  0  0  0  0  0  0  0  0  # atno 10764 bound_to 10752
  153.1436  135.6829  153.9083 H   0  0  0  0  0  0  0  0  0  0  0  0  # atno 10765 bound_to 10752
  139.9109  134.7973  156.2000 H   0  0  0  0  0  0  0  0  0  0  0  0  # atno 11005 bound_to 11000
  144.7241  139.7931  143.7371 LP  0  0  0  0  0  0  0  0  0  0  0  0  # atno 17320 bound_to 7965
  146.1451  139.4518  143.0084 LP  0  0  0  0  0  0  0  0  0  0  0  0  # atno 17321 bound_to 7965
  139.5506  144.2405  152.1524 LP  0  0  0  0  0  0  0  0  0  0  0  0  # atno 17342 bound_to 10162
  140.1643  144.4996  150.6615 LP  0  0  0  0  0  0  0  0  0  0  0  0  # atno 17343 bound_to 10162
  156.2271  130.6772  151.1426 LP  0  0  0  0  0  0  0  0  0  0  0  0  # atno 17370 bound_to 10713
  157.7213  131.0679  150.6123 LP  0  0  0  0  0  0  0  0  0  0  0  0  # atno 17371 bound_to 10713
  141.0531  133.6879  156.1809 LP  0  0  0  0  0  0  0  0  0  0  0  0  # atno 17394 bound_to 11000
  140.6779  134.4798  157.5588 LP  0  0  0  0  0  0  0  0  0  0  0  0  # atno 17395 bound_to 11000

$$$$
