AV-unprocessed.smi:83|AV-procd|sdf|803|dock9
  -GOLD-   2262017193D 1   1.00000     0.00000
 Structure written by MMmdl.
 56 59  0  0  0  0  0  0  0  0  1 V2000
  152.2682  144.0301  159.6731 C   0  0  0  0  0  0  0  0  0  0  0  0
  151.5644  143.7596  158.3429 C   0  0  0  0  0  0  0  0  0  0  0  0
  151.3051  144.7074  157.6011 O   0  0  0  0  0  0  0  0  0  0  0  0
  151.2446  142.4868  158.0334 N   0  0  0  0  0  0  0  0  0  0  0  0
  151.5705  141.3031  158.8256 C   0  0  0  0  0  0  0  0  0  0  0  0
  151.2626  140.1106  157.9179 C   0  0  0  0  0  0  0  0  0  0  0  0
  150.1768  140.6238  156.9772 C   0  0  2  0  0  0  0  0  0  0  0  0
  150.0688  139.8238  155.6583 C   0  0  0  0  0  0  0  0  0  0  0  0
  148.8970  140.1764  154.8535 N   0  0  0  0  0  0  0  0  0  0  0  0
  149.0555  141.2040  153.8326 C   0  0  0  0  0  0  0  0  0  0  0  0
  147.9814  139.1936  154.6543 C   0  0  0  0  0  0  0  0  0  0  0  0
  147.6984  138.3773  155.7033 N   0  0  0  0  0  0  0  0  0  0  0  0
  146.8795  137.3336  155.5490 C   0  0  0  0  0  0  0  0  0  0  0  0
  146.2576  136.9190  154.4448 N   0  0  0  0  0  0  0  0  0  0  0  0
  146.5268  137.7397  153.3902 C   0  0  0  0  0  0  0  0  0  0  0  0
  147.3504  138.9016  153.4079 C   0  0  0  0  0  0  0  0  0  0  0  0
  147.3826  139.4679  152.1371 N   0  0  0  0  0  0  0  0  0  0  0  0
  146.6369  138.6815  151.4115 C   0  0  0  0  0  0  0  0  0  0  0  0
  146.1114  137.6002  152.0793 N   0  0  0  0  0  0  0  0  0  0  0  0
  145.3221  136.5242  151.5120 C   0  0  0  0  0  0  0  0  0  0  0  0
  146.1772  135.2800  151.1842 C   0  0  1  0  0  0  0  0  0  0  0  0
  146.9044  134.9504  152.3503 O   0  0  0  0  0  0  0  0  0  0  0  0
  145.3618  134.0450  150.7365 C   0  0  2  0  0  0  0  0  0  0  0  0
  146.1971  132.7871  150.4806 C   0  0  0  0  0  0  0  0  0  0  0  0
  145.3633  131.9852  149.4905 C   0  0  0  0  0  0  0  0  0  0  0  0
  144.2919  132.9723  149.0249 C   0  0  0  0  0  0  0  0  0  0  0  0
  144.7657  134.2358  149.4614 O   0  0  0  0  0  0  0  0  0  0  0  0
  150.5426  142.1067  156.8124 C   0  0  0  0  0  0  0  0  0  0  0  0
  151.6999  143.6117  160.5040 H   0  0  0  0  0  0  0  0  0  0  0  0
  152.3699  145.1023  159.8430 H   0  0  0  0  0  0  0  0  0  0  0  0
  153.2667  143.5924  159.6751 H   0  0  0  0  0  0  0  0  0  0  0  0
  152.6125  141.2913  159.1479 H   0  0  0  0  0  0  0  0  0  0  0  0
  150.9362  141.2827  159.7130 H   0  0  0  0  0  0  0  0  0  0  0  0
  152.1549  139.8487  157.3474 H   0  0  0  0  0  0  0  0  0  0  0  0
  150.9535  139.2269  158.4767 H   0  0  0  0  0  0  0  0  0  0  0  0
  149.2293  140.5633  157.5150 H   0  0  0  0  0  0  0  0  0  0  0  0
  150.9840  139.9260  155.0741 H   0  0  0  0  0  0  0  0  0  0  0  0
  149.9948  138.7622  155.8962 H   0  0  0  0  0  0  0  0  0  0  0  0
  148.0879  141.5223  153.4430 H   0  0  0  0  0  0  0  0  0  0  0  0
  149.6657  140.8420  153.0048 H   0  0  0  0  0  0  0  0  0  0  0  0
  149.5464  142.0813  154.2544 H   0  0  0  0  0  0  0  0  0  0  0  0
  146.7133  136.7352  156.4324 H   0  0  0  0  0  0  0  0  0  0  0  0
  146.4827  138.8468  150.3551 H   0  0  0  0  0  0  0  0  0  0  0  0
  144.5365  136.2696  152.2246 H   0  0  0  0  0  0  0  0  0  0  0  0
  144.8246  136.8930  150.6139 H   0  0  0  0  0  0  0  0  0  0  0  0
  146.9008  135.5317  150.4076 H   0  0  0  0  0  0  0  0  0  0  0  0
  147.7989  135.2324  152.2345 H   0  0  0  0  0  0  0  0  0  0  0  0
  144.5780  133.8275  151.4650 H   0  0  0  0  0  0  0  0  0  0  0  0
  147.1488  133.0549  150.0194 H   0  0  0  0  0  0  0  0  0  0  0  0
  146.4119  132.2350  151.3961 H   0  0  0  0  0  0  0  0  0  0  0  0
  145.9790  131.6421  148.6587 H   0  0  0  0  0  0  0  0  0  0  0  0
  144.9086  131.1108  149.9565 H   0  0  0  0  0  0  0  0  0  0  0  0
  144.1369  132.9543  147.9463 H   0  0  0  0  0  0  0  0  0  0  0  0
  143.3371  132.7612  149.5084 H   0  0  0  0  0  0  0  0  0  0  0  0
  149.6553  142.7220  156.6572 H   0  0  0  0  0  0  0  0  0  0  0  0
  151.2138  142.2556  155.9655 H   0  0  0  0  0  0  0  0  0  0  0  0
  1  2  1  0  0  0  0
  1 29  1  0  0  0  0
  1 30  1  0  0  0  0
  1 31  1  0  0  0  0
  2  3  2  0  0  0  0
  2  4  1  0  0  0  0
  4 28  1  0  0  0  0
  4  5  1  0  0  0  0
  5  6  1  0  0  0  0
  5 32  1  0  0  0  0
  5 33  1  0  0  0  0
  6  7  1  0  0  0  0
  6 34  1  0  0  0  0
  6 35  1  0  0  0  0
  7  8  1  0  0  0  0
  7 28  1  0  0  0  0
  7 36  1  0  0  0  0
  8  9  1  0  0  0  0
  8 37  1  0  0  0  0
  8 38  1  0  0  0  0
  9 10  1  0  0  0  0
  9 11  1  0  0  0  0
 10 39  1  0  0  0  0
 10 40  1  0  0  0  0
 10 41  1  0  0  0  0
 11 16  1  0  0  0  0
 11 12  2  0  0  0  0
 12 13  1  0  0  0  0
 13 14  2  0  0  0  0
 13 42  1  0  0  0  0
 14 15  1  0  0  0  0
 15 19  1  0  0  0  0
 15 16  2  0  0  0  0
 16 17  1  0  0  0  0
 17 18  2  0  0  0  0
 18 19  1  0  0  0  0
 18 43  1  0  0  0  0
 19 20  1  0  0  0  0
 20 21  1  0  0  0  0
 20 44  1  0  0  0  0
 20 45  1  0  0  0  0
 21 22  1  0  0  0  0
 21 23  1  0  0  0  0
 21 46  1  0  0  0  0
 22 47  1  0  0  0  0
 23 27  1  0  0  0  0
 23 24  1  0  0  0  0
 23 48  1  0  0  0  0
 24 25  1  0  0  0  0
 24 49  1  0  0  0  0
 24 50  1  0  0  0  0
 25 26  1  0  0  0  0
 25 51  1  0  0  0  0
 25 52  1  0  0  0  0
 26 27  1  0  0  0  0
 26 53  1  0  0  0  0
 26 54  1  0  0  0  0
 28 55  1  0  0  0  0
 28 56  1  0  0  0  0
M  END
> <s_m_source_file>
AV-unprocessed.smi

> <i_m_source_file_index>
83

> <i_lp_mmshare_version>
43012

> <i_f3d_flags>
0

> <s_epik_input>
W0NIM11DKD1PKU4xW0NIMl1bQ0gyXVtDQEhdKFtDSDJdMSlbQ0gyXU4oW0NIM10pYyhuW2NIXW4yKWMoYzIzKW5bY0hdbjNbQ0gyXVtDQEhdKFtPSF0pW0NAQEhdNFtDSDJdW0NIMl1bQ0gyXU80

> <s_epik_cmdline>
J2VwaWtfcHl0aG9uJywgJy1waCcsICc3LjAnLCAnLXRuJywgJzgnLCAnLW1hJywgJzIwMCcsICctbWV0YWxfYmluZGluZycsICctaW1hZScsICc8aW5maWxlLm1hZT4nLCAnLW9tYWUnLCAnPG91dGZpbGUubWFlPic=

> <r_lp_tautomer_probability>
1

> <r_epik_Ionization_Penalty>
0.00109752

> <r_epik_Ionization_Penalty_Charging>
0

> <r_epik_Ionization_Penalty_Neutral>
0.00109752

> <r_epik_State_Penalty>
0.000634803

> <r_epik_Charging_Adjusted_Penalty>
0.000634803

> <i_epik_Tot_Q>
0

> <i_epik_Tot_abs_Q>
0

> <r_epik_Metal_State_Penalty>
-0

> <b_epik_Metal_Only>
0

> <s_lp_Force_Field>
OPLS_2005

> <r_lp_Energy>
52.1505

> <b_lp_Chiralities_Consistent>
1

> <s_lp_Variant>
AV-unprocessed.smi:83-4

> <Gold.Version>
5.8.1

> <Gold.Id.Protein>
6NUR|6NUR_protein|mol2

> <Gold.PLP.Fitness>
49.0605

> <Gold.PLP.PLP>
-44.3976

> <Gold.PLP.part.hbond>
-0.7615

> <Gold.PLP.part.metal>
0.0000

> <Gold.PLP.part.buried>
-4.9649

> <Gold.PLP.part.nonpolar>
-41.6934

> <Gold.PLP.part.repulsive>
3.2305

> <Gold.PLP.ligand.clash>
0.0000

> <Gold.PLP.ligand.torsion>
0.9994

> <Gold.PLP.Chemscore.Hbond>
1.0000

> <Gold.PLP.Chemscore.CHOScore>
1.0000

> <Gold.PLP.Chemscore.Metal>
0.0000

> <Gold.Chemscore.Hbonds>
donor molecule, donor type, donor heavy atom, donor atom, acceptor molecule, acceptor atom, score
      L1  H    22    47       P1  7948  1.00
      L1  C    18    43       P1 10171  0.42

> <Gold.PLP.Chemscore.Internal.Correction>
0.6617

> <Gold.Rescore>
     Score         DG    S(hbond)    S(metal)    S(lipo)     H(rot)  DE(clash)    DE(int)     intcor
     11.38     -13.67       0.97        0.00      99.46       2.62       0.08       2.21       ----

> <Gold.Chemscore.Fitness>
11.3772

> <Gold.Chemscore.DG>
-13.6703

> <Gold.Chemscore.ZeroCoef>
-5.4800

> <Gold.Chemscore.Hbond>
0.9727

> <Gold.Chemscore.Metal>
0.0000

> <Gold.Chemscore.Lipo>
99.4551

> <Gold.Chemscore.Internal_Hbond>
0.0000

> <Gold.Chemscore.DEClash>
0.0786

> <Gold.Chemscore.DEInternal>
2.2144

> <Gold.Chemscore.Rot>
2.6152

> <Gold.Chemscore.Internal.Correction>
   9.000000E+99

> <Gold.Chemscore.Hbonds>
donor molecule, donor type, donor heavy atom, donor atom, acceptor molecule, acceptor atom, score
      L1  H    22    47       P1  7948  0.90

> <Gold.Chemscore.Hbond.Weighted>
-3.2489

> <Gold.Chemscore.Metal.Weighted>
-0.0000

> <Gold.Chemscore.Lipo.Weighted>
-11.6362

> <Gold.Chemscore.Internal_Hbond.Weighted>
0.0000

> <Gold.Chemscore.DEClash.Weighted>
0.0786

> <Gold.Chemscore.DEInternal.Weighted>
2.2144

> <Gold.Chemscore.Rot.Weighted>
6.6949

> <Gold.Chemscore.Internal.Correction.Weighted>
   9.000000E+99

> <Gold.Protein.RotatedTorsions>
[ 6907 6896 6895 6894 ] final   25.81 input  -60.11 | X-H torsion
[ 7974 7965 7964 7962 ] final  -49.82 input  175.53 | X-H torsion
[ 8008 7997 7996 7995 ] final -124.04 input   59.86 | X-H torsion
[ 10167 10162 10161 10158 ] final -168.82 input  -65.29 | X-H torsion
[ 10718 10713 10712 10709 ] final -158.29 input   66.30 | X-H torsion
[ 10763 10752 10751 10750 ] final   74.99 input  -60.55 | X-H torsion
[ 11005 11000 10999 10996 ] final  139.73 input  -57.11 | X-H torsion

> <Gold.Protein.ActiveResidues>
 VAL166  LYS551  ARG553  GLY616  TRP617  ASP618  TYR619  PRO620  LYS621  CYS622 
 ASP623  PHE694  ASN695  SER759  ASP760  ASP761  ALA762  ILE779  LEU786  VAL792 
 PHE793  MET794  SER795  GLU796  ALA797  LYS798  CYS799  TRP800  GLU811  SER814 

> <Gold.Protein.RotatedAtoms>
  151.9780  135.0043  160.0555 H   0  0  0  0  0  0  0  0  0  0  0  0  # atno 6907 bound_to 6896
  152.1722  133.4646  159.4923 H   0  0  0  0  0  0  0  0  0  0  0  0  # atno 6908 bound_to 6896
  150.6903  134.1856  159.4308 H   0  0  0  0  0  0  0  0  0  0  0  0  # atno 6909 bound_to 6896
  145.9365  140.7701  142.9573 H   0  0  0  0  0  0  0  0  0  0  0  0  # atno 7974 bound_to 7965
  155.1903  140.0413  157.2899 H   0  0  0  0  0  0  0  0  0  0  0  0  # atno 8008 bound_to 7997
  154.6143  140.2484  155.7601 H   0  0  0  0  0  0  0  0  0  0  0  0  # atno 8009 bound_to 7997
  156.2397  140.2908  156.0420 H   0  0  0  0  0  0  0  0  0  0  0  0  # atno 8010 bound_to 7997
  139.5961  144.1110  152.1690 H   0  0  0  0  0  0  0  0  0  0  0  0  # atno 10167 bound_to 10162
  156.5522  130.8610  151.2783 H   0  0  0  0  0  0  0  0  0  0  0  0  # atno 10718 bound_to 10713
  153.0624  135.5005  154.8123 H   0  0  0  0  0  0  0  0  0  0  0  0  # atno 10763 bound_to 10752
  154.6902  135.2983  154.9492 H   0  0  0  0  0  0  0  0  0  0  0  0  # atno 10764 bound_to 10752
  154.0249  135.6737  153.4828 H   0  0  0  0  0  0  0  0  0  0  0  0  # atno 10765 bound_to 10752
  140.0276  134.9367  157.0598 H   0  0  0  0  0  0  0  0  0  0  0  0  # atno 11005 bound_to 11000
  144.6772  140.2211  143.7366 LP  0  0  0  0  0  0  0  0  0  0  0  0  # atno 17320 bound_to 7965
  145.8356  139.2106  143.1857 LP  0  0  0  0  0  0  0  0  0  0  0  0  # atno 17321 bound_to 7965
  140.0695  144.5791  150.7202 LP  0  0  0  0  0  0  0  0  0  0  0  0  # atno 17342 bound_to 10162
  140.7213  143.2591  151.4270 LP  0  0  0  0  0  0  0  0  0  0  0  0  # atno 17343 bound_to 10162
  157.7385  130.9815  150.2258 LP  0  0  0  0  0  0  0  0  0  0  0  0  # atno 17370 bound_to 10713
  156.2875  130.3741  149.7874 LP  0  0  0  0  0  0  0  0  0  0  0  0  # atno 17371 bound_to 10713
  140.4281  134.1810  155.7167 LP  0  0  0  0  0  0  0  0  0  0  0  0  # atno 17394 bound_to 11000
  141.1812  133.8410  157.1252 LP  0  0  0  0  0  0  0  0  0  0  0  0  # atno 17395 bound_to 11000

$$$$
