AV-unprocessed.smi:2820|AV-procd|sdf|10855|dock2
  -GOLD-   2272015303D 1   1.00000     0.00000
 Structure written by MMmdl.
 30 31  0  0  0  0  0  0  0  0  2 V2000
  147.9841  138.7714  153.6280 C   0  0  0  0  0  0  0  0  0  0  0  0
  149.3076  139.3673  153.5485 N   0  0  0  0  0  0  0  0  0  0  0  0
  149.8185  140.1223  154.6128 C   0  0  0  0  0  0  0  0  0  0  0  0
  150.7048  139.5063  155.5228 C   0  0  0  0  0  0  0  0  0  0  0  0
  151.2296  140.2486  156.6006 C   0  0  0  0  0  0  0  0  0  0  0  0
  150.8585  141.6041  156.7536 C   0  0  0  0  0  0  0  0  0  0  0  0
  151.3251  142.4215  157.7914 N   0  0  0  0  0  0  0  0  0  0  0  0
  152.2246  141.7288  158.7052 C   0  0  0  0  0  0  0  0  0  0  0  0
  152.6076  142.6566  159.8712 C   0  0  0  0  0  0  0  0  0  0  0  0
  153.1742  143.8581  159.3564 O   0  0  0  0  0  0  0  0  0  0  0  0
  152.2600  144.5686  158.5265 C   0  0  0  0  0  0  0  0  0  0  0  0
  151.8689  143.6908  157.3251 C   0  0  0  0  0  0  0  0  0  0  0  0
  150.0079  142.1585  155.8626 N   0  3  0  0  0  0  0  0  0  0  0  0
  149.4837  141.4820  154.8175 C   0  0  0  0  0  0  0  0  0  0  0  0
  147.7662  138.2279  152.7085 H   0  0  0  0  0  0  0  0  0  0  0  0
  147.2198  139.5383  153.7575 H   0  0  0  0  0  0  0  0  0  0  0  0
  147.9239  138.0684  154.4594 H   0  0  0  0  0  0  0  0  0  0  0  0
  149.8556  139.2306  152.7109 H   0  0  0  0  0  0  0  0  0  0  0  0
  150.9832  138.4697  155.3990 H   0  0  0  0  0  0  0  0  0  0  0  0
  151.9072  139.7782  157.2981 H   0  0  0  0  0  0  0  0  0  0  0  0
  151.7425  140.8279  159.0872 H   0  0  0  0  0  0  0  0  0  0  0  0
  153.1235  141.4146  158.1730 H   0  0  0  0  0  0  0  0  0  0  0  0
  151.7375  142.8872  160.4880 H   0  0  0  0  0  0  0  0  0  0  0  0
  153.3364  142.1680  160.5178 H   0  0  0  0  0  0  0  0  0  0  0  0
  151.3788  144.8577  159.1017 H   0  0  0  0  0  0  0  0  0  0  0  0
  152.7325  145.4889  158.1830 H   0  0  0  0  0  0  0  0  0  0  0  0
  152.7440  143.5122  156.6989 H   0  0  0  0  0  0  0  0  0  0  0  0
  151.1300  144.2064  156.7101 H   0  0  0  0  0  0  0  0  0  0  0  0
  148.8182  142.0539  154.1876 H   0  0  0  0  0  0  0  0  0  0  0  0
  149.7480  143.1377  155.9846 H   0  0  0  0  0  0  0  0  0  0  0  0
  1  2  1  0  0  0  0
  1 15  1  0  0  0  0
  1 16  1  0  0  0  0
  1 17  1  0  0  0  0
  2  3  1  0  0  0  0
  2 18  1  0  0  0  0
  3 14  1  0  0  0  0
  3  4  2  0  0  0  0
  4  5  1  0  0  0  0
  4 19  1  0  0  0  0
  5  6  2  0  0  0  0
  5 20  1  0  0  0  0
  6  7  1  0  0  0  0
  6 13  1  0  0  0  0
  7 12  1  0  0  0  0
  7  8  1  0  0  0  0
  8  9  1  0  0  0  0
  8 21  1  0  0  0  0
  8 22  1  0  0  0  0
  9 10  1  0  0  0  0
  9 23  1  0  0  0  0
  9 24  1  0  0  0  0
 10 11  1  0  0  0  0
 11 12  1  0  0  0  0
 11 25  1  0  0  0  0
 11 26  1  0  0  0  0
 12 27  1  0  0  0  0
 12 28  1  0  0  0  0
 13 14  2  0  0  0  0
 13 30  1  0  0  0  0
 14 29  1  0  0  0  0
M  CHG  1  13   1
M  END
> <s_m_source_file>
AV-unprocessed.smi

> <i_m_source_file_index>
2820

> <i_lp_mmshare_version>
43012

> <i_f3d_flags>
0

> <s_epik_input>
W0NIM11bTkhdYzFbY0hdW2NIXWMobltjSF0xKU4yW0NIMl1bQ0gyXU9bQ0gyXVtDSDJdMg==

> <s_epik_cmdline>
J2VwaWtfcHl0aG9uJywgJy1waCcsICc3LjAnLCAnLXRuJywgJzgnLCAnLW1hJywgJzIwMCcsICctbWV0YWxfYmluZGluZycsICctaW1hZScsICc8aW5maWxlLm1hZT4nLCAnLW9tYWUnLCAnPG91dGZpbGUubWFlPic=

> <r_lp_tautomer_probability>
0.999846

> <r_epik_Ionization_Penalty>
1.60145

> <r_epik_Ionization_Penalty_Charging>
1.60145

> <r_epik_Ionization_Penalty_Neutral>
8.44735e-08

> <r_epik_State_Penalty>
1.69965

> <r_epik_Charging_Adjusted_Penalty>
3.3011

> <i_epik_Tot_Q>
1

> <i_epik_Tot_abs_Q>
1

> <r_epik_Metal_State_Penalty>
5.75781

> <b_epik_Metal_Only>
0

> <s_lp_Force_Field>
OPLS_2005

> <r_lp_Energy>
26.3697

> <b_lp_Chiralities_Consistent>
1

> <s_lp_Variant>
AV-unprocessed.smi:2820-2

> <Gold.Version>
5.8.1

> <Gold.Id.Protein>
6NUR|6NUR_protein|mol2

> <Gold.PLP.Fitness>
38.8388

> <Gold.PLP.PLP>
-31.6153

> <Gold.PLP.part.hbond>
-1.6381

> <Gold.PLP.part.metal>
0.0000

> <Gold.PLP.part.buried>
-3.6627

> <Gold.PLP.part.nonpolar>
-27.2159

> <Gold.PLP.part.repulsive>
0.3312

> <Gold.PLP.ligand.clash>
0.0000

> <Gold.PLP.ligand.torsion>
0.8141

> <Gold.PLP.Chemscore.Hbond>
2.9188

> <Gold.PLP.Chemscore.CHOScore>
0.0000

> <Gold.PLP.Chemscore.Metal>
0.0000

> <Gold.Chemscore.Hbonds>
donor molecule, donor type, donor heavy atom, donor atom, acceptor molecule, acceptor atom, score
      L1  H     2    18       P1  7957  0.54
      L1  H    13    30       P1  8028  2.00

> <Gold.PLP.Chemscore.Internal.Correction>
0.0951

> <Gold.Rescore>
     Score         DG    S(hbond)    S(metal)    S(lipo)     H(rot)  DE(clash)    DE(int)     intcor
     17.70     -18.50       1.95        0.00      77.55       1.00       0.02       0.77       ----

> <Gold.Chemscore.Fitness>
17.7043

> <Gold.Chemscore.DG>
-18.4990

> <Gold.Chemscore.ZeroCoef>
-5.4800

> <Gold.Chemscore.Hbond>
1.9477

> <Gold.Chemscore.Metal>
0.0000

> <Gold.Chemscore.Lipo>
77.5539

> <Gold.Chemscore.Internal_Hbond>
0.0000

> <Gold.Chemscore.DEClash>
0.0221

> <Gold.Chemscore.DEInternal>
0.7726

> <Gold.Chemscore.Rot>
1.0000

> <Gold.Chemscore.Internal.Correction>
   9.000000E+99

> <Gold.Chemscore.Hbonds>
donor molecule, donor type, donor heavy atom, donor atom, acceptor molecule, acceptor atom, score
      L1  H     2    18       P1  7957  0.51
      L1  H    13    30       P1  8028  0.99

> <Gold.Chemscore.Hbond.Weighted>
-6.5052

> <Gold.Chemscore.Metal.Weighted>
-0.0000

> <Gold.Chemscore.Lipo.Weighted>
-9.0738

> <Gold.Chemscore.Internal_Hbond.Weighted>
0.0000

> <Gold.Chemscore.DEClash.Weighted>
0.0221

> <Gold.Chemscore.DEInternal.Weighted>
0.7726

> <Gold.Chemscore.Rot.Weighted>
2.5600

> <Gold.Chemscore.Internal.Correction.Weighted>
   9.000000E+99

> <Gold.Protein.RotatedTorsions>
[ 6907 6896 6895 6894 ] final   14.87 input  -60.11 | X-H torsion
[ 7974 7965 7964 7962 ] final  149.45 input  175.53 | X-H torsion
[ 8008 7997 7996 7995 ] final -172.06 input   59.86 | X-H torsion
[ 10167 10162 10161 10158 ] final -178.29 input  -65.29 | X-H torsion
[ 10718 10713 10712 10709 ] final   -9.05 input   66.30 | X-H torsion
[ 10763 10752 10751 10750 ] final -112.62 input  -60.55 | X-H torsion
[ 11005 11000 10999 10996 ] final   -9.57 input  -57.11 | X-H torsion

> <Gold.Protein.ActiveResidues>
 VAL166  LYS551  ARG553  GLY616  TRP617  ASP618  TYR619  PRO620  LYS621  CYS622 
 ASP623  PHE694  ASN695  SER759  ASP760  ASP761  ALA762  ILE779  LEU786  VAL792 
 PHE793  MET794  SER795  GLU796  ALA797  LYS798  CYS799  TRP800  GLU811  SER814 

> <Gold.Protein.RotatedAtoms>
  151.8091  135.0686  160.0410 H   0  0  0  0  0  0  0  0  0  0  0  0  # atno 6907 bound_to 6896
  152.3034  133.5674  159.5641 H   0  0  0  0  0  0  0  0  0  0  0  0  # atno 6908 bound_to 6896
  150.7284  134.0175  159.3732 H   0  0  0  0  0  0  0  0  0  0  0  0  # atno 6909 bound_to 6896
  144.8437  139.6282  143.6005 H   0  0  0  0  0  0  0  0  0  0  0  0  # atno 7974 bound_to 7965
  155.9396  140.1106  157.1066 H   0  0  0  0  0  0  0  0  0  0  0  0  # atno 8008 bound_to 7997
  154.4086  140.1221  156.4976 H   0  0  0  0  0  0  0  0  0  0  0  0  # atno 8009 bound_to 7997
  155.6978  140.3472  155.4922 H   0  0  0  0  0  0  0  0  0  0  0  0  # atno 8010 bound_to 7997
  139.5439  144.2287  152.0950 H   0  0  0  0  0  0  0  0  0  0  0  0  # atno 10167 bound_to 10162
  156.6937  130.5072  149.5936 H   0  0  0  0  0  0  0  0  0  0  0  0  # atno 10718 bound_to 10713
  154.8358  135.4484  154.1222 H   0  0  0  0  0  0  0  0  0  0  0  0  # atno 10763 bound_to 10752
  153.2455  135.6921  153.7743 H   0  0  0  0  0  0  0  0  0  0  0  0  # atno 10764 bound_to 10752
  153.7074  135.3362  155.3214 H   0  0  0  0  0  0  0  0  0  0  0  0  # atno 10765 bound_to 10752
  140.7355  133.8713  155.8926 H   0  0  0  0  0  0  0  0  0  0  0  0  # atno 11005 bound_to 11000
  146.2725  139.6671  142.9286 LP  0  0  0  0  0  0  0  0  0  0  0  0  # atno 17320 bound_to 7965
  145.4641  141.0434  143.2735 LP  0  0  0  0  0  0  0  0  0  0  0  0  # atno 17321 bound_to 7965
  140.1771  144.4880  150.6548 LP  0  0  0  0  0  0  0  0  0  0  0  0  # atno 17342 bound_to 10162
  140.6680  143.2275  151.5695 LP  0  0  0  0  0  0  0  0  0  0  0  0  # atno 17343 bound_to 10162
  156.1779  130.6479  151.0916 LP  0  0  0  0  0  0  0  0  0  0  0  0  # atno 17370 bound_to 10713
  157.6999  131.0780  150.6853 LP  0  0  0  0  0  0  0  0  0  0  0  0  # atno 17371 bound_to 10713
  140.9883  134.1313  157.4432 LP  0  0  0  0  0  0  0  0  0  0  0  0  # atno 17394 bound_to 11000
  139.8817  135.0032  156.6175 LP  0  0  0  0  0  0  0  0  0  0  0  0  # atno 17395 bound_to 11000

$$$$
