AV-unprocessed.smi:633|AV-procd|sdf|3131|dock6
  -GOLD-   22720 0 53D 1   1.00000     0.00000
 Structure written by MMmdl.
 53 56  0  0  0  0  0  0  0  0  1 V2000
  151.3525  145.2284  158.7935 C   0  0  0  0  0  0  0  0  0  0  0  0
  151.9688  143.8896  158.3747 C   0  0  2  0  0  0  0  0  0  0  0  0
  150.9638  143.0000  157.6188 C   0  0  0  0  0  0  0  0  0  0  0  0
  151.5523  141.6927  157.3360 N   0  0  0  0  0  0  0  0  0  0  0  0
  150.8734  140.8406  156.4386 C   0  0  0  0  0  0  0  0  0  0  0  0
  151.5945  139.8815  155.6902 C   0  0  0  0  0  0  0  0  0  0  0  0
  150.9028  139.0334  154.8047 C   0  0  0  0  0  0  0  0  0  0  0  0
  149.4980  139.1592  154.6902 C   0  0  0  0  0  0  0  0  0  0  0  0
  148.6765  138.3734  153.8343 N   0  0  0  0  0  0  0  0  0  0  0  0
  147.3531  138.4564  153.6111 C   0  0  0  0  0  0  0  0  0  0  0  0
  146.5907  139.2728  154.1264 O   0  0  0  0  0  0  0  0  0  0  0  0
  146.9539  137.5251  152.7328 N   0  0  0  0  0  0  0  0  0  0  0  0
  145.5824  137.3186  152.2775 C   0  0  0  0  0  0  0  0  0  0  0  0
  144.6614  136.8791  153.4035 C   0  0  0  0  0  0  0  0  0  0  0  0
  143.1867  137.2066  153.3885 C   0  0  0  0  0  0  0  0  0  0  0  0
  144.0997  137.8737  154.3919 C   0  0  0  0  0  0  0  0  0  0  0  0
  145.5178  136.3336  151.1246 C   0  0  0  0  0  0  0  0  0  0  0  0
  144.3106  135.4495  150.9237 C   0  0  0  0  0  0  0  0  0  0  0  0
  145.6285  134.8446  151.3534 C   0  0  0  0  0  0  0  0  0  0  0  0
  148.8705  140.1545  155.4661 C   0  0  0  0  0  0  0  0  0  0  0  0
  149.5302  140.9715  156.3140 N   0  0  0  0  0  0  0  0  0  0  0  0
  152.1033  141.0406  158.5207 C   0  0  0  0  0  0  0  0  0  0  0  0
  153.0712  141.9867  159.2564 C   0  0  2  0  0  0  0  0  0  0  0  0
  153.5724  141.3863  160.5743 C   0  0  0  0  0  0  0  0  0  0  0  0
  152.4014  143.2098  159.5500 O   0  0  0  0  0  0  0  0  0  0  0  0
  151.0148  145.7937  157.9247 H   0  0  0  0  0  0  0  0  0  0  0  0
  152.0793  145.8416  159.3269 H   0  0  0  0  0  0  0  0  0  0  0  0
  150.4954  145.0796  159.4509 H   0  0  0  0  0  0  0  0  0  0  0  0
  152.8330  144.0904  157.7388 H   0  0  0  0  0  0  0  0  0  0  0  0
  150.0583  142.8662  158.2124 H   0  0  0  0  0  0  0  0  0  0  0  0
  150.6746  143.4897  156.6878 H   0  0  0  0  0  0  0  0  0  0  0  0
  152.6679  139.7973  155.7730 H   0  0  0  0  0  0  0  0  0  0  0  0
  151.4712  138.3185  154.2323 H   0  0  0  0  0  0  0  0  0  0  0  0
  149.1671  137.6714  153.2996 H   0  0  0  0  0  0  0  0  0  0  0  0
  147.6517  136.9000  152.3571 H   0  0  0  0  0  0  0  0  0  0  0  0
  145.2000  138.2679  151.8966 H   0  0  0  0  0  0  0  0  0  0  0  0
  144.9182  135.9037  153.8136 H   0  0  0  0  0  0  0  0  0  0  0  0
  142.8068  137.8225  152.5760 H   0  0  0  0  0  0  0  0  0  0  0  0
  142.5005  136.4477  153.7585 H   0  0  0  0  0  0  0  0  0  0  0  0
  144.0241  137.5595  155.4309 H   0  0  0  0  0  0  0  0  0  0  0  0
  144.3263  138.9269  154.2391 H   0  0  0  0  0  0  0  0  0  0  0  0
  145.9857  136.7029  150.2137 H   0  0  0  0  0  0  0  0  0  0  0  0
  143.5159  135.5021  151.6653 H   0  0  0  0  0  0  0  0  0  0  0  0
  143.9835  135.2719  149.9013 H   0  0  0  0  0  0  0  0  0  0  0  0
  146.1797  134.2633  150.6173 H   0  0  0  0  0  0  0  0  0  0  0  0
  145.7031  134.4886  152.3790 H   0  0  0  0  0  0  0  0  0  0  0  0
  147.8015  140.3009  155.4093 H   0  0  0  0  0  0  0  0  0  0  0  0
  151.2797  140.7593  159.1785 H   0  0  0  0  0  0  0  0  0  0  0  0
  152.6299  140.1222  158.2639 H   0  0  0  0  0  0  0  0  0  0  0  0
  153.9339  142.1951  158.6211 H   0  0  0  0  0  0  0  0  0  0  0  0
  154.1055  140.4509  160.4021 H   0  0  0  0  0  0  0  0  0  0  0  0
  152.7448  141.1803  161.2536 H   0  0  0  0  0  0  0  0  0  0  0  0
  154.2551  142.0703  161.0788 H   0  0  0  0  0  0  0  0  0  0  0  0
  1  2  1  0  0  0  0
  1 26  1  0  0  0  0
  1 27  1  0  0  0  0
  1 28  1  0  0  0  0
  2 25  1  0  0  0  0
  2  3  1  0  0  0  0
  2 29  1  0  0  0  0
  3  4  1  0  0  0  0
  3 30  1  0  0  0  0
  3 31  1  0  0  0  0
  4  5  1  0  0  0  0
  4 22  1  0  0  0  0
  5 21  1  0  0  0  0
  5  6  2  0  0  0  0
  6  7  1  0  0  0  0
  6 32  1  0  0  0  0
  7  8  2  0  0  0  0
  7 33  1  0  0  0  0
  8  9  1  0  0  0  0
  8 20  1  0  0  0  0
  9 10  1  0  0  0  0
  9 34  1  0  0  0  0
 10 11  2  0  0  0  0
 10 12  1  0  0  0  0
 12 13  1  0  0  0  0
 12 35  1  0  0  0  0
 13 14  1  0  0  0  0
 13 17  1  0  0  0  0
 13 36  1  0  0  0  0
 14 16  1  0  0  0  0
 14 15  1  0  0  0  0
 14 37  1  0  0  0  0
 15 16  1  0  0  0  0
 15 38  1  0  0  0  0
 15 39  1  0  0  0  0
 16 40  1  0  0  0  0
 16 41  1  0  0  0  0
 17 19  1  0  0  0  0
 17 18  1  0  0  0  0
 17 42  1  0  0  0  0
 18 19  1  0  0  0  0
 18 43  1  0  0  0  0
 18 44  1  0  0  0  0
 19 45  1  0  0  0  0
 19 46  1  0  0  0  0
 20 21  2  0  0  0  0
 20 47  1  0  0  0  0
 22 23  1  0  0  0  0
 22 48  1  0  0  0  0
 22 49  1  0  0  0  0
 23 24  1  0  0  0  0
 23 25  1  0  0  0  0
 23 50  1  0  0  0  0
 24 51  1  0  0  0  0
 24 52  1  0  0  0  0
 24 53  1  0  0  0  0
M  END
> <s_m_source_file>
AV-unprocessed.smi

> <i_m_source_file_index>
633

> <i_lp_mmshare_version>
43012

> <i_f3d_flags>
0

> <s_epik_input>
W0NIM11bQ0BASF0xW0NIMl1OKFtDSDJdW0NASF0oTzEpW0NIM10pYzJbY0hdW2NIXWMoW2NIXW4yKVtOSF1DKD1PKVtOSF1bQ0hdKFtDSF0zW0NIMl1bQ0gyXTMpW0NIXTRbQ0gyXVtDSDJdNA==

> <s_epik_cmdline>
J2VwaWtfcHl0aG9uJywgJy1waCcsICc3LjAnLCAnLXRuJywgJzgnLCAnLW1hJywgJzIwMCcsICctbWV0YWxfYmluZGluZycsICctaW1hZScsICc8aW5maWxlLm1hZT4nLCAnLW9tYWUnLCAnPG91dGZpbGUubWFlPic=

> <r_lp_tautomer_probability>
1

> <r_epik_Ionization_Penalty>
0.00291159

> <r_epik_Ionization_Penalty_Charging>
0

> <r_epik_Ionization_Penalty_Neutral>
0.00291159

> <r_epik_State_Penalty>
0.00200877

> <r_epik_Charging_Adjusted_Penalty>
0.00200877

> <i_epik_Tot_Q>
0

> <i_epik_Tot_abs_Q>
0

> <r_epik_Metal_State_Penalty>
-0

> <b_epik_Metal_Only>
0

> <s_lp_Force_Field>
OPLS_2005

> <r_lp_Energy>
40.0006

> <b_lp_Chiralities_Consistent>
1

> <s_lp_Variant>
AV-unprocessed.smi:633-2

> <Gold.Version>
5.8.1

> <Gold.Id.Protein>
6NUR|6NUR_protein|mol2

> <Gold.PLP.Fitness>
51.3090

> <Gold.PLP.PLP>
-46.2773

> <Gold.PLP.part.hbond>
-2.1545

> <Gold.PLP.part.metal>
0.0000

> <Gold.PLP.part.buried>
-5.4556

> <Gold.PLP.part.nonpolar>
-40.4036

> <Gold.PLP.part.repulsive>
0.2954

> <Gold.PLP.ligand.clash>
0.0000

> <Gold.PLP.ligand.torsion>
1.5706

> <Gold.PLP.Chemscore.Hbond>
1.9120

> <Gold.PLP.Chemscore.CHOScore>
0.0000

> <Gold.PLP.Chemscore.Metal>
0.0000

> <Gold.Chemscore.Hbonds>
donor molecule, donor type, donor heavy atom, donor atom, acceptor molecule, acceptor atom, score
      L1  H     9    34       P1  7948  0.91
      L1  H    12    35       P1  7948  1.00

> <Gold.PLP.Chemscore.Internal.Correction>
2.4369

> <Gold.Rescore>
     Score         DG    S(hbond)    S(metal)    S(lipo)     H(rot)  DE(clash)    DE(int)     intcor
     17.39     -21.68       1.88        0.00     115.55       1.40       0.06       4.24       ----

> <Gold.Chemscore.Fitness>
17.3855

> <Gold.Chemscore.DG>
-21.6768

> <Gold.Chemscore.ZeroCoef>
-5.4800

> <Gold.Chemscore.Hbond>
1.8763

> <Gold.Chemscore.Metal>
0.0000

> <Gold.Chemscore.Lipo>
115.5536

> <Gold.Chemscore.Internal_Hbond>
0.0000

> <Gold.Chemscore.DEClash>
0.0557

> <Gold.Chemscore.DEInternal>
4.2356

> <Gold.Chemscore.Rot>
1.4022

> <Gold.Chemscore.Internal.Correction>
   9.000000E+99

> <Gold.Chemscore.Hbonds>
donor molecule, donor type, donor heavy atom, donor atom, acceptor molecule, acceptor atom, score
      L1  H     9    34       P1  7948  0.83
      L1  H    12    35       P1  7948  0.93

> <Gold.Chemscore.Hbond.Weighted>
-6.2667

> <Gold.Chemscore.Metal.Weighted>
-0.0000

> <Gold.Chemscore.Lipo.Weighted>
-13.5198

> <Gold.Chemscore.Internal_Hbond.Weighted>
0.0000

> <Gold.Chemscore.DEClash.Weighted>
0.0557

> <Gold.Chemscore.DEInternal.Weighted>
4.2356

> <Gold.Chemscore.Rot.Weighted>
3.5897

> <Gold.Chemscore.Internal.Correction.Weighted>
   9.000000E+99

> <Gold.Protein.RotatedTorsions>
[ 6907 6896 6895 6894 ] final   -7.46 input  -60.11 | X-H torsion
[ 7974 7965 7964 7962 ] final   82.56 input  175.53 | X-H torsion
[ 8008 7997 7996 7995 ] final  -79.21 input   59.86 | X-H torsion
[ 10167 10162 10161 10158 ] final   54.76 input  -65.29 | X-H torsion
[ 10718 10713 10712 10709 ] final  151.20 input   66.30 | X-H torsion
[ 10763 10752 10751 10750 ] final   95.76 input  -60.55 | X-H torsion
[ 11005 11000 10999 10996 ] final   75.66 input  -57.11 | X-H torsion

> <Gold.Protein.ActiveResidues>
 VAL166  LYS551  ARG553  GLY616  TRP617  ASP618  TYR619  PRO620  LYS621  CYS622 
 ASP623  PHE694  ASN695  SER759  ASP760  ASP761  ALA762  ILE779  LEU786  VAL792 
 PHE793  MET794  SER795  GLU796  ALA797  LYS798  CYS799  TRP800  GLU811  SER814 

> <Gold.Protein.RotatedAtoms>
  151.4492  135.1028  159.9692 H   0  0  0  0  0  0  0  0  0  0  0  0  # atno 6907 bound_to 6896
  152.4894  133.8456  159.7185 H   0  0  0  0  0  0  0  0  0  0  0  0  # atno 6908 bound_to 6896
  150.9033  133.7030  159.2900 H   0  0  0  0  0  0  0  0  0  0  0  0  # atno 6909 bound_to 6896
  145.6234  139.2390  143.2125 H   0  0  0  0  0  0  0  0  0  0  0  0  # atno 7974 bound_to 7965
  154.5763  140.0682  156.9039 H   0  0  0  0  0  0  0  0  0  0  0  0  # atno 8008 bound_to 7997
  155.2543  140.3354  155.4261 H   0  0  0  0  0  0  0  0  0  0  0  0  # atno 8009 bound_to 7997
  156.2156  140.1777  156.7581 H   0  0  0  0  0  0  0  0  0  0  0  0  # atno 8010 bound_to 7997
  140.2267  144.3731  150.6430 H   0  0  0  0  0  0  0  0  0  0  0  0  # atno 10167 bound_to 10162
  157.2738  131.0822  151.1581 H   0  0  0  0  0  0  0  0  0  0  0  0  # atno 10718 bound_to 10713
  153.2570  135.4242  155.0855 H   0  0  0  0  0  0  0  0  0  0  0  0  # atno 10763 bound_to 10752
  154.8405  135.3439  154.6432 H   0  0  0  0  0  0  0  0  0  0  0  0  # atno 10764 bound_to 10752
  153.6853  135.7036  153.5163 H   0  0  0  0  0  0  0  0  0  0  0  0  # atno 10765 bound_to 10752
  139.9333  134.7536  156.1299 H   0  0  0  0  0  0  0  0  0  0  0  0  # atno 11005 bound_to 11000
  146.1413  140.7053  142.9365 LP  0  0  0  0  0  0  0  0  0  0  0  0  # atno 17320 bound_to 7965
  144.7222  140.4410  143.7000 LP  0  0  0  0  0  0  0  0  0  0  0  0  # atno 17321 bound_to 7965
  140.6215  143.2177  151.6683 LP  0  0  0  0  0  0  0  0  0  0  0  0  # atno 17342 bound_to 10162
  139.5125  144.3475  152.0683 LP  0  0  0  0  0  0  0  0  0  0  0  0  # atno 17343 bound_to 10162
  157.3042  130.6858  149.6180 LP  0  0  0  0  0  0  0  0  0  0  0  0  # atno 17370 bound_to 10713
  155.9663  130.4383  150.5211 LP  0  0  0  0  0  0  0  0  0  0  0  0  # atno 17371 bound_to 10713
  141.0934  133.6705  156.2591 LP  0  0  0  0  0  0  0  0  0  0  0  0  # atno 17394 bound_to 11000
  140.6142  134.5427  157.5538 LP  0  0  0  0  0  0  0  0  0  0  0  0  # atno 17395 bound_to 11000

$$$$
