AV-unprocessed.smi:3224|AV-procd|sdf|12310|dock1
  -GOLD-   2272018153D 1   1.00000     0.00000
 Structure written by MMmdl.
 30 31  0  0  0  0  0  0  0  0  2 V2000
  152.6093  137.8318  157.5015 C   0  0  0  0  0  0  0  0  0  0  0  0
  151.1957  137.7847  156.8821 C   0  0  0  0  0  0  0  0  0  0  0  0
  150.4263  136.8646  157.7347 N   0  0  0  0  0  0  0  0  0  0  0  0
  149.6774  137.1030  158.8262 C   0  0  0  0  0  0  0  0  0  0  0  0
  149.5567  138.2499  159.2588 O   0  0  0  0  0  0  0  0  0  0  0  0
  149.1213  135.9732  159.3340 N   0  5  0  0  0  0  0  0  0  0  0  0
  148.3872  135.9013  160.4668 C   0  0  0  0  0  0  0  0  0  0  0  0
  148.1259  136.9013  161.3250 N   0  0  0  0  0  0  0  0  0  0  0  0
  147.3357  136.5271  162.4121 C   0  0  0  0  0  0  0  0  0  0  0  0
  146.9795  135.2063  162.3907 C   0  0  0  0  0  0  0  0  0  0  0  0
  147.6317  134.3954  160.9965 S   0  0  0  0  0  0  0  0  0  0  0  0
  150.5644  139.2006  156.8817 C   0  0  0  0  0  0  0  0  0  0  0  0
  151.2026  140.1232  155.8275 C   0  0  0  0  0  0  0  0  0  0  0  0
  151.1319  139.5214  154.5407 O   0  0  0  0  0  0  0  0  0  0  0  0
  151.8627  138.3036  154.4599 C   0  0  0  0  0  0  0  0  0  0  0  0
  151.2677  137.2616  155.4244 C   0  0  0  0  0  0  0  0  0  0  0  0
  153.2856  138.4876  156.9553 H   0  0  0  0  0  0  0  0  0  0  0  0
  153.0656  136.8412  157.5174 H   0  0  0  0  0  0  0  0  0  0  0  0
  152.5763  138.1901  158.5313 H   0  0  0  0  0  0  0  0  0  0  0  0
  150.4677  135.8961  157.4536 H   0  0  0  0  0  0  0  0  0  0  0  0
  147.0751  137.2672  163.1541 H   0  0  0  0  0  0  0  0  0  0  0  0
  146.3779  134.6634  163.1036 H   0  0  0  0  0  0  0  0  0  0  0  0
  149.4995  139.1487  156.6594 H   0  0  0  0  0  0  0  0  0  0  0  0
  150.6403  139.6530  157.8712 H   0  0  0  0  0  0  0  0  0  0  0  0
  150.6677  141.0724  155.7961 H   0  0  0  0  0  0  0  0  0  0  0  0
  152.2379  140.3592  156.0763 H   0  0  0  0  0  0  0  0  0  0  0  0
  151.8063  137.9329  153.4364 H   0  0  0  0  0  0  0  0  0  0  0  0
  152.9181  138.4836  154.6666 H   0  0  0  0  0  0  0  0  0  0  0  0
  151.8432  136.3365  155.3785 H   0  0  0  0  0  0  0  0  0  0  0  0
  150.2742  137.0127  155.0540 H   0  0  0  0  0  0  0  0  0  0  0  0
  1  2  1  0  0  0  0
  1 17  1  0  0  0  0
  1 18  1  0  0  0  0
  1 19  1  0  0  0  0
  2 16  1  0  0  0  0
  2  3  1  0  0  0  0
  2 12  1  0  0  0  0
  3  4  1  0  0  0  0
  3 20  1  0  0  0  0
  4  5  2  0  0  0  0
  4  6  1  0  0  0  0
  6  7  1  0  0  0  0
  7 11  1  0  0  0  0
  7  8  2  0  0  0  0
  8  9  1  0  0  0  0
  9 10  2  0  0  0  0
  9 21  1  0  0  0  0
 10 11  1  0  0  0  0
 10 22  1  0  0  0  0
 12 13  1  0  0  0  0
 12 23  1  0  0  0  0
 12 24  1  0  0  0  0
 13 14  1  0  0  0  0
 13 25  1  0  0  0  0
 13 26  1  0  0  0  0
 14 15  1  0  0  0  0
 15 16  1  0  0  0  0
 15 27  1  0  0  0  0
 15 28  1  0  0  0  0
 16 29  1  0  0  0  0
 16 30  1  0  0  0  0
M  CHG  1   6  -1
M  END
> <s_m_source_file>
AV-unprocessed.smi

> <i_m_source_file_index>
3224

> <i_lp_mmshare_version>
43012

> <i_f3d_flags>
0

> <s_epik_input>
W0NIMl0xW0NIMl1PW0NIMl1bQ0gyXUMxKFtDSDNdKVtOSF1DKD1PKVtOSF1jMm5bY0hdW2NIXXMy

> <s_epik_cmdline>
J2VwaWtfcHl0aG9uJywgJy1waCcsICc3LjAnLCAnLXRuJywgJzgnLCAnLW1hJywgJzIwMCcsICctbWV0YWxfYmluZGluZycsICctaW1hZScsICc8aW5maWxlLm1hZT4nLCAnLW9tYWUnLCAnPG91dGZpbGUubWFlPic=

> <r_lp_tautomer_probability>
1

> <r_epik_Ionization_Penalty>
6.86712

> <r_epik_Ionization_Penalty_Charging>
5.8001

> <r_epik_Ionization_Penalty_Neutral>
1.06702

> <r_epik_State_Penalty>
5.80007

> <r_epik_Charging_Adjusted_Penalty>
11.6002

> <i_epik_Tot_Q>
-1

> <i_epik_Tot_abs_Q>
1

> <r_epik_Metal_State_Penalty>
1.77033

> <b_epik_Metal_Only>
1

> <s_lp_Force_Field>
OPLS_2005

> <r_lp_Energy>
12.9706

> <b_lp_Chiralities_Consistent>
1

> <s_lp_Variant>
AV-unprocessed.smi:3224-2

> <Gold.Version>
5.8.1

> <Gold.Id.Protein>
6NUR|6NUR_protein|mol2

> <Gold.PLP.Fitness>
39.7807

> <Gold.PLP.PLP>
-27.8348

> <Gold.PLP.part.hbond>
-5.7633

> <Gold.PLP.part.metal>
0.0000

> <Gold.PLP.part.buried>
-3.9079

> <Gold.PLP.part.nonpolar>
-19.6236

> <Gold.PLP.part.repulsive>
0.1789

> <Gold.PLP.ligand.clash>
0.0000

> <Gold.PLP.ligand.torsion>
0.5683

> <Gold.PLP.Chemscore.Hbond>
4.3588

> <Gold.PLP.Chemscore.CHOScore>
0.0000

> <Gold.PLP.Chemscore.Metal>
0.0000

> <Gold.Chemscore.Hbonds>
donor molecule, donor type, donor heavy atom, donor atom, acceptor molecule, acceptor atom, score
      P1  H  6896  6908       L1     6  1.85
      P1  H  6931  6943       L1     8  1.00
      P1  H  6934  6947       L1     8  0.14
      P1  H  7989  7998       L1    14  1.00

> <Gold.PLP.Chemscore.Internal.Correction>
0.0062

> <Gold.Rescore>
     Score         DG    S(hbond)    S(metal)    S(lipo)     H(rot)  DE(clash)    DE(int)     intcor
     12.65     -16.01       1.95        0.00      56.31       1.00       0.00       3.35       ----

> <Gold.Chemscore.Fitness>
12.6506

> <Gold.Chemscore.DG>
-16.0070

> <Gold.Chemscore.ZeroCoef>
-5.4800

> <Gold.Chemscore.Hbond>
1.9458

> <Gold.Chemscore.Metal>
0.0000

> <Gold.Chemscore.Lipo>
56.3092

> <Gold.Chemscore.Internal_Hbond>
0.0000

> <Gold.Chemscore.DEClash>
0.0048

> <Gold.Chemscore.DEInternal>
3.3516

> <Gold.Chemscore.Rot>
1.0000

> <Gold.Chemscore.Internal.Correction>
   9.000000E+99

> <Gold.Chemscore.Hbonds>
donor molecule, donor type, donor heavy atom, donor atom, acceptor molecule, acceptor atom, score
      P1  H  6896  6908       L1     6  0.17
      P1  H  6931  6943       L1     8  0.45
      P1  H  6934  6947       L1     8  0.03
      P1  H  7989  7998       L1    14  0.33

> <Gold.Chemscore.Hbond.Weighted>
-6.4989

> <Gold.Chemscore.Metal.Weighted>
-0.0000

> <Gold.Chemscore.Lipo.Weighted>
-6.5882

> <Gold.Chemscore.Internal_Hbond.Weighted>
0.0000

> <Gold.Chemscore.DEClash.Weighted>
0.0048

> <Gold.Chemscore.DEInternal.Weighted>
3.3516

> <Gold.Chemscore.Rot.Weighted>
2.5600

> <Gold.Chemscore.Internal.Correction.Weighted>
   9.000000E+99

> <Gold.Protein.RotatedTorsions>
[ 6907 6896 6895 6894 ] final -175.55 input  -60.11 | X-H torsion
[ 7974 7965 7964 7962 ] final   70.94 input  175.53 | X-H torsion
[ 8008 7997 7996 7995 ] final -132.55 input   59.86 | X-H torsion
[ 10167 10162 10161 10158 ] final  146.69 input  -65.29 | X-H torsion
[ 10718 10713 10712 10709 ] final  -16.19 input   66.30 | X-H torsion
[ 10763 10752 10751 10750 ] final  124.92 input  -60.55 | X-H torsion
[ 11005 11000 10999 10996 ] final  103.37 input  -57.11 | X-H torsion

> <Gold.Protein.ActiveResidues>
 VAL166  LYS551  ARG553  GLY616  TRP617  ASP618  TYR619  PRO620  LYS621  CYS622 
 ASP623  PHE694  ASN695  SER759  ASP760  ASP761  ALA762  ILE779  LEU786  VAL792 
 PHE793  MET794  SER795  GLU796  ALA797  LYS798  CYS799  TRP800  GLU811  SER814 

> <Gold.Protein.RotatedAtoms>
  151.5905  133.3367  159.3026 H   0  0  0  0  0  0  0  0  0  0  0  0  # atno 6907 bound_to 6896
  150.8263  134.7499  159.6827 H   0  0  0  0  0  0  0  0  0  0  0  0  # atno 6908 bound_to 6896
  152.4352  134.5707  159.9972 H   0  0  0  0  0  0  0  0  0  0  0  0  # atno 6909 bound_to 6896
  145.7720  139.2847  143.1316 H   0  0  0  0  0  0  0  0  0  0  0  0  # atno 7974 bound_to 7965
  155.3308  140.0467  157.3042 H   0  0  0  0  0  0  0  0  0  0  0  0  # atno 8008 bound_to 7997
  154.5329  140.2263  155.8738 H   0  0  0  0  0  0  0  0  0  0  0  0  # atno 8009 bound_to 7997
  156.1806  140.3074  155.9148 H   0  0  0  0  0  0  0  0  0  0  0  0  # atno 8010 bound_to 7997
  139.4903  144.5811  151.6870 H   0  0  0  0  0  0  0  0  0  0  0  0  # atno 10167 bound_to 10162
  156.5911  130.4799  149.6279 H   0  0  0  0  0  0  0  0  0  0  0  0  # atno 10718 bound_to 10713
  153.6690  135.3333  155.3148 H   0  0  0  0  0  0  0  0  0  0  0  0  # atno 10763 bound_to 10752
  154.8495  135.4382  154.1724 H   0  0  0  0  0  0  0  0  0  0  0  0  # atno 10764 bound_to 10752
  153.2711  135.7000  153.7556 H   0  0  0  0  0  0  0  0  0  0  0  0  # atno 10765 bound_to 10752
  139.8783  134.9260  156.5200 H   0  0  0  0  0  0  0  0  0  0  0  0  # atno 11005 bound_to 11000
  146.0161  140.8391  142.9947 LP  0  0  0  0  0  0  0  0  0  0  0  0  # atno 17320 bound_to 7965
  144.6811  140.2560  143.7325 LP  0  0  0  0  0  0  0  0  0  0  0  0  # atno 17321 bound_to 7965
  140.5417  144.0568  150.6091 LP  0  0  0  0  0  0  0  0  0  0  0  0  # atno 17342 bound_to 10162
  140.3592  143.2917  152.0402 LP  0  0  0  0  0  0  0  0  0  0  0  0  # atno 17343 bound_to 10162
  156.2549  130.6929  151.1678 LP  0  0  0  0  0  0  0  0  0  0  0  0  # atno 17370 bound_to 10713
  157.7303  131.0617  150.5731 LP  0  0  0  0  0  0  0  0  0  0  0  0  # atno 17371 bound_to 10713
  140.8457  133.8170  155.9119 LP  0  0  0  0  0  0  0  0  0  0  0  0  # atno 17394 bound_to 11000
  140.9193  134.2162  157.4936 LP  0  0  0  0  0  0  0  0  0  0  0  0  # atno 17395 bound_to 11000

$$$$
