AV-unprocessed.smi:675|AV-procd|sdf|3305|dock10
  -GOLD-   22720 0263D 1   1.00000     0.00000
 Structure written by MMmdl.
 28 29  0  0  0  0  0  0  0  0  2 V2000
  147.9282  137.3268  160.3551 O   0  0  0  0  0  0  0  0  0  0  0  0
  148.7434  137.2569  159.4366 C   0  0  0  0  0  0  0  0  0  0  0  0
  149.7096  138.2001  159.2358 N   0  5  0  0  0  0  0  0  0  0  0  0
  150.6225  138.1426  158.2179 C   0  0  0  0  0  0  0  0  0  0  0  0
  151.4795  139.0115  158.0573 O   0  0  0  0  0  0  0  0  0  0  0  0
  150.5739  137.0881  157.3493 N   0  0  0  0  0  0  0  0  0  0  0  0
  151.4909  136.9439  156.2072 C   0  0  0  0  0  0  0  0  0  0  0  0
  150.7852  137.1582  154.8488 C   0  0  2  0  0  0  0  0  0  0  0  0
  151.7592  137.0508  153.8297 O   0  0  0  0  0  0  0  0  0  0  0  0
  150.0135  138.4763  154.7755 C   0  0  0  0  0  0  0  0  0  0  0  0
  148.6669  138.4588  154.3454 C   0  0  0  0  0  0  0  0  0  0  0  0
  147.9294  139.6527  154.2396 C   0  0  0  0  0  0  0  0  0  0  0  0
  148.5323  140.8811  154.5630 C   0  0  0  0  0  0  0  0  0  0  0  0
  149.8723  140.9119  154.9897 C   0  0  0  0  0  0  0  0  0  0  0  0
  150.6169  139.7201  155.0967 C   0  0  0  0  0  0  0  0  0  0  0  0
  152.2637  139.8332  155.6131 Cl  0  0  0  0  0  0  0  0  0  0  0  0
  149.6034  136.0861  157.5170 C   0  0  0  0  0  0  0  0  0  0  0  0
  148.6953  136.1272  158.5109 C   0  0  0  0  0  0  0  0  0  0  0  0
  147.5054  134.8866  158.6823 Cl  0  0  0  0  0  0  0  0  0  0  0  0
  152.3416  137.6215  156.2946 H   0  0  0  0  0  0  0  0  0  0  0  0
  151.9282  135.9445  156.2362 H   0  0  0  0  0  0  0  0  0  0  0  0
  150.1069  136.3242  154.6769 H   0  0  0  0  0  0  0  0  0  0  0  0
  151.3171  136.8922  153.0099 H   0  0  0  0  0  0  0  0  0  0  0  0
  148.1953  137.5238  154.0805 H   0  0  0  0  0  0  0  0  0  0  0  0
  146.9032  139.6258  153.9047 H   0  0  0  0  0  0  0  0  0  0  0  0
  147.9696  141.7992  154.4797 H   0  0  0  0  0  0  0  0  0  0  0  0
  150.3339  141.8578  155.2317 H   0  0  0  0  0  0  0  0  0  0  0  0
  149.6376  135.2933  156.7839 H   0  0  0  0  0  0  0  0  0  0  0  0
  1  2  2  0  0  0  0
  2 18  1  0  0  0  0
  2  3  1  0  0  0  0
  3  4  1  0  0  0  0
  4  5  2  0  0  0  0
  4  6  1  0  0  0  0
  6  7  1  0  0  0  0
  6 17  1  0  0  0  0
  7  8  1  0  0  0  0
  7 20  1  0  0  0  0
  7 21  1  0  0  0  0
  8  9  1  0  0  0  0
  8 10  1  0  0  0  0
  8 22  1  0  0  0  0
  9 23  1  0  0  0  0
 10 15  1  0  0  0  0
 10 11  2  0  0  0  0
 11 12  1  0  0  0  0
 11 24  1  0  0  0  0
 12 13  2  0  0  0  0
 12 25  1  0  0  0  0
 13 14  1  0  0  0  0
 13 26  1  0  0  0  0
 14 15  2  0  0  0  0
 14 27  1  0  0  0  0
 15 16  1  0  0  0  0
 17 18  2  0  0  0  0
 17 28  1  0  0  0  0
 18 19  1  0  0  0  0
M  CHG  1   3  -1
M  END
> <s_m_source_file>
AV-unprocessed.smi

> <i_m_source_file_index>
675

> <i_lp_mmshare_version>
43012

> <i_f3d_flags>
0

> <s_epik_input>
Tz1jMVtuSF1jKD1PKW4oW2NIXWMxQ2wpW0NIMl1bQ0BIXShbT0hdKWMyW2NIXVtjSF1bY0hdW2NIXWMyQ2w=

> <s_epik_cmdline>
J2VwaWtfcHl0aG9uJywgJy1waCcsICc3LjAnLCAnLXRuJywgJzgnLCAnLW1hJywgJzIwMCcsICctbWV0YWxfYmluZGluZycsICctaW1hZScsICc8aW5maWxlLm1hZT4nLCAnLW9tYWUnLCAnPG91dGZpbGUubWFlPic=

> <r_epik_Ionization_Penalty>
1.79791

> <r_epik_Ionization_Penalty_Charging>
3.23819e-08

> <r_epik_Ionization_Penalty_Neutral>
1.79791

> <r_epik_State_Penalty>
1.91135

> <r_epik_Charging_Adjusted_Penalty>
1.91135

> <i_epik_Tot_Q>
-1

> <i_epik_Tot_abs_Q>
1

> <r_epik_Metal_State_Penalty>
0.014155

> <b_epik_Metal_Only>
0

> <s_lp_Force_Field>
OPLS_2005

> <r_lp_Energy>
20.012

> <b_lp_Chiralities_Consistent>
1

> <s_lp_Variant>
AV-unprocessed.smi:675-3

> <Gold.Version>
5.8.1

> <Gold.Id.Protein>
6NUR|6NUR_protein|mol2

> <Gold.PLP.Fitness>
37.9659

> <Gold.PLP.PLP>
-28.5344

> <Gold.PLP.part.hbond>
-5.0000

> <Gold.PLP.part.metal>
0.0000

> <Gold.PLP.part.buried>
-2.1065

> <Gold.PLP.part.nonpolar>
-20.9962

> <Gold.PLP.part.repulsive>
0.0000

> <Gold.PLP.ligand.clash>
0.0000

> <Gold.PLP.ligand.torsion>
0.2980

> <Gold.PLP.Chemscore.Hbond>
3.3369

> <Gold.PLP.Chemscore.CHOScore>
0.0000

> <Gold.PLP.Chemscore.Metal>
0.0000

> <Gold.Chemscore.Hbonds>
donor molecule, donor type, donor heavy atom, donor atom, acceptor molecule, acceptor atom, score
      L1  H     9    23       P1  7949  1.00
      P1  H  6931  6943       L1     1  0.53
      P1  H  6934  6947       L1     1  0.77
      P1  H 10752 10763       L1     9  1.00

> <Gold.PLP.Chemscore.Internal.Correction>
0.0168

> <Gold.Rescore>
     Score         DG    S(hbond)    S(metal)    S(lipo)     H(rot)  DE(clash)    DE(int)     intcor
     14.45     -16.33       2.67        0.00      63.11       2.13       0.48       1.41       ----

> <Gold.Chemscore.Fitness>
14.4506

> <Gold.Chemscore.DG>
-16.3349

> <Gold.Chemscore.ZeroCoef>
-5.4800

> <Gold.Chemscore.Hbond>
2.6701

> <Gold.Chemscore.Metal>
0.0000

> <Gold.Chemscore.Lipo>
63.1083

> <Gold.Chemscore.Internal_Hbond>
0.0000

> <Gold.Chemscore.DEClash>
0.4757

> <Gold.Chemscore.DEInternal>
1.4086

> <Gold.Chemscore.Rot>
2.1278

> <Gold.Chemscore.Internal.Correction>
   9.000000E+99

> <Gold.Chemscore.Hbonds>
donor molecule, donor type, donor heavy atom, donor atom, acceptor molecule, acceptor atom, score
      L1  H     9    23       P1  7949  0.70
      P1  H  6931  6943       L1     1  0.18
      P1  H  6934  6947       L1     1  0.74
      P1  H 10752 10763       L1     9  0.43

> <Gold.Chemscore.Hbond.Weighted>
-8.9182

> <Gold.Chemscore.Metal.Weighted>
-0.0000

> <Gold.Chemscore.Lipo.Weighted>
-7.3837

> <Gold.Chemscore.Internal_Hbond.Weighted>
0.0000

> <Gold.Chemscore.DEClash.Weighted>
0.4757

> <Gold.Chemscore.DEInternal.Weighted>
1.4086

> <Gold.Chemscore.Rot.Weighted>
5.4470

> <Gold.Chemscore.Internal.Correction.Weighted>
   9.000000E+99

> <Gold.Protein.RotatedTorsions>
[ 6907 6896 6895 6894 ] final  126.56 input  -60.11 | X-H torsion
[ 7974 7965 7964 7962 ] final  -47.52 input  175.53 | X-H torsion
[ 8008 7997 7996 7995 ] final  -97.81 input   59.86 | X-H torsion
[ 10167 10162 10161 10158 ] final  104.31 input  -65.29 | X-H torsion
[ 10718 10713 10712 10709 ] final  -43.34 input   66.30 | X-H torsion
[ 10763 10752 10751 10750 ] final   15.81 input  -60.55 | X-H torsion
[ 11005 11000 10999 10996 ] final   16.97 input  -57.11 | X-H torsion

> <Gold.Protein.ActiveResidues>
 VAL166  LYS551  ARG553  GLY616  TRP617  ASP618  TYR619  PRO620  LYS621  CYS622 
 ASP623  PHE694  ASN695  SER759  ASP760  ASP761  ALA762  ILE779  LEU786  VAL792 
 PHE793  MET794  SER795  GLU796  ALA797  LYS798  CYS799  TRP800  GLU811  SER814 

> <Gold.Protein.RotatedAtoms>
  152.3892  133.6654  159.6223 H   0  0  0  0  0  0  0  0  0  0  0  0  # atno 6907 bound_to 6896
  150.7804  133.8983  159.3342 H   0  0  0  0  0  0  0  0  0  0  0  0  # atno 6908 bound_to 6896
  151.6773  135.0968  160.0261 H   0  0  0  0  0  0  0  0  0  0  0  0  # atno 6909 bound_to 6896
  145.9608  140.7481  142.9458 H   0  0  0  0  0  0  0  0  0  0  0  0  # atno 7974 bound_to 7965
  154.7927  140.0460  157.1213 H   0  0  0  0  0  0  0  0  0  0  0  0  # atno 8008 bound_to 7997
  154.9572  140.3073  155.5028 H   0  0  0  0  0  0  0  0  0  0  0  0  # atno 8009 bound_to 7997
  156.2952  140.2277  156.4654 H   0  0  0  0  0  0  0  0  0  0  0  0  # atno 8010 bound_to 7997
  139.7188  144.7062  151.0907 H   0  0  0  0  0  0  0  0  0  0  0  0  # atno 10167 bound_to 10162
  156.2500  130.4187  149.8661 H   0  0  0  0  0  0  0  0  0  0  0  0  # atno 10718 bound_to 10713
  153.1490  135.6775  153.8911 H   0  0  0  0  0  0  0  0  0  0  0  0  # atno 10763 bound_to 10752
  153.8344  135.3113  155.3422 H   0  0  0  0  0  0  0  0  0  0  0  0  # atno 10764 bound_to 10752
  154.7847  135.4869  154.0006 H   0  0  0  0  0  0  0  0  0  0  0  0  # atno 10765 bound_to 10752
  140.4412  134.1320  155.7690 H   0  0  0  0  0  0  0  0  0  0  0  0  # atno 11005 bound_to 11000
  144.6814  140.2587  143.7322 LP  0  0  0  0  0  0  0  0  0  0  0  0  # atno 17320 bound_to 7965
  145.8043  139.1977  143.2030 LP  0  0  0  0  0  0  0  0  0  0  0  0  # atno 17321 bound_to 7965
  140.7749  143.5194  150.9555 LP  0  0  0  0  0  0  0  0  0  0  0  0  # atno 17342 bound_to 10162
  139.8881  143.6988  152.3149 LP  0  0  0  0  0  0  0  0  0  0  0  0  # atno 17343 bound_to 10162
  156.6213  130.8627  151.3476 LP  0  0  0  0  0  0  0  0  0  0  0  0  # atno 17370 bound_to 10713
  157.7210  130.9559  150.1441 LP  0  0  0  0  0  0  0  0  0  0  0  0  # atno 17371 bound_to 10713
  141.1705  133.8618  157.1586 LP  0  0  0  0  0  0  0  0  0  0  0  0  # atno 17394 bound_to 11000
  140.0069  135.0005  157.0311 LP  0  0  0  0  0  0  0  0  0  0  0  0  # atno 17395 bound_to 11000

$$$$
