AV-unprocessed.smi:54|AV-procd|sdf|558|dock2
  -GOLD-   2262016463D 1   1.00000     0.00000
 Structure written by MMmdl.
 43 45  0  0  0  0  0  0  0  0  2 V2000
  152.5551  143.8733  159.3206 C   0  0  0  0  0  0  0  0  0  0  0  0
  152.2787  142.6311  160.1833 C   0  0  0  0  0  0  0  0  0  0  0  0
  153.0701  142.6808  161.5010 C   0  0  0  0  0  0  0  0  0  0  0  0
  152.5967  141.3471  159.4034 C   0  0  0  0  0  0  0  0  0  0  0  0
  153.4928  140.6056  159.8119 O   0  0  0  0  0  0  0  0  0  0  0  0
  151.8454  141.1442  158.2978 N   0  0  0  0  0  0  0  0  0  0  0  0
  151.8904  140.0981  157.3671 C   0  0  0  0  0  0  0  0  0  0  0  0
  150.7130  139.8088  156.8678 N   0  0  0  0  0  0  0  0  0  0  0  0
  150.7623  138.7710  155.9563 C   0  0  0  0  0  0  0  0  0  0  0  0
  151.8592  138.0617  155.5520 C   0  0  0  0  0  0  0  0  0  0  0  0
  151.5209  137.0962  154.6116 N   0  0  0  0  0  0  0  0  0  0  0  0
  150.2058  137.2724  154.4914 C   0  0  0  0  0  0  0  0  0  0  0  0
  149.6762  138.2406  155.2691 N   0  0  0  0  0  0  0  0  0  0  0  0
  148.2494  138.6921  155.3619 C   0  0  1  0  0  0  0  0  0  0  0  0
  148.2231  140.0887  155.3412 O   0  0  0  0  0  0  0  0  0  0  0  0
  147.9969  140.5386  154.0096 C   0  0  2  0  0  0  0  0  0  0  0  0
  147.5513  142.0111  153.9845 C   0  0  0  0  0  0  0  0  0  0  0  0
  148.6725  142.8551  154.1364 O   0  0  0  0  0  0  0  0  0  0  0  0
  146.9648  139.5214  153.5085 C   0  0  2  0  0  0  0  0  0  0  0  0
  145.6647  139.8704  153.9565 O   0  0  0  0  0  0  0  0  0  0  0  0
  147.4678  138.2145  154.1226 C   0  0  2  0  0  0  0  0  0  0  0  0
  146.4204  137.3149  154.4341 O   0  0  0  0  0  0  0  0  0  0  0  0
  153.1580  138.4353  156.1592 C   0  0  0  0  0  0  0  0  0  0  0  0
  154.1725  137.8255  155.8265 O   0  0  0  0  0  0  0  0  0  0  0  0
  153.1090  139.4572  157.0654 N   0  5  0  0  0  0  0  0  0  0  0  0
  147.8940  138.2977  156.3147 H   0  0  0  0  0  0  0  0  0  0  0  0
  148.9110  140.4150  153.4255 H   0  0  0  0  0  0  0  0  0  0  0  0
  146.9450  139.4694  152.4194 H   0  0  0  0  0  0  0  0  0  0  0  0
  148.1519  137.7291  153.4241 H   0  0  0  0  0  0  0  0  0  0  0  0
  151.9988  143.8363  158.3831 H   0  0  0  0  0  0  0  0  0  0  0  0
  153.6142  143.9653  159.0761 H   0  0  0  0  0  0  0  0  0  0  0  0
  152.2567  144.7833  159.8416 H   0  0  0  0  0  0  0  0  0  0  0  0
  151.2163  142.6285  160.4336 H   0  0  0  0  0  0  0  0  0  0  0  0
  152.8833  141.7951  162.1094 H   0  0  0  0  0  0  0  0  0  0  0  0
  152.7847  143.5503  162.0935 H   0  0  0  0  0  0  0  0  0  0  0  0
  154.1445  142.7421  161.3227 H   0  0  0  0  0  0  0  0  0  0  0  0
  151.1830  141.8796  158.1011 H   0  0  0  0  0  0  0  0  0  0  0  0
  149.6129  136.6741  153.8156 H   0  0  0  0  0  0  0  0  0  0  0  0
  147.0907  142.2474  153.0249 H   0  0  0  0  0  0  0  0  0  0  0  0
  146.8149  142.2201  154.7610 H   0  0  0  0  0  0  0  0  0  0  0  0
  149.3789  142.5079  153.6133 H   0  0  0  0  0  0  0  0  0  0  0  0
  145.1161  140.0007  153.1980 H   0  0  0  0  0  0  0  0  0  0  0  0
  145.8564  137.2442  153.6789 H   0  0  0  0  0  0  0  0  0  0  0  0
  1  2  1  0  0  0  0
  1 30  1  0  0  0  0
  1 31  1  0  0  0  0
  1 32  1  0  0  0  0
  2  3  1  0  0  0  0
  2  4  1  0  0  0  0
  2 33  1  0  0  0  0
  3 34  1  0  0  0  0
  3 35  1  0  0  0  0
  3 36  1  0  0  0  0
  4  5  2  0  0  0  0
  4  6  1  0  0  0  0
  6 37  1  0  0  0  0
  6  7  1  0  0  0  0
  7 25  1  0  0  0  0
  7  8  2  0  0  0  0
  8  9  1  0  0  0  0
  9 13  1  0  0  0  0
  9 10  2  0  0  0  0
 10 11  1  0  0  0  0
 10 23  1  0  0  0  0
 11 12  2  0  0  0  0
 12 13  1  0  0  0  0
 12 38  1  0  0  0  0
 13 14  1  0  0  0  0
 14 26  1  0  0  0  0
 14 21  1  0  0  0  0
 14 15  1  0  0  0  0
 15 16  1  0  0  0  0
 16 27  1  0  0  0  0
 16 17  1  0  0  0  0
 16 19  1  0  0  0  0
 17 18  1  0  0  0  0
 17 39  1  0  0  0  0
 17 40  1  0  0  0  0
 18 41  1  0  0  0  0
 19 28  1  0  0  0  0
 19 20  1  0  0  0  0
 19 21  1  0  0  0  0
 20 42  1  0  0  0  0
 21 29  1  0  0  0  0
 21 22  1  0  0  0  0
 22 43  1  0  0  0  0
 23 24  2  0  0  0  0
 23 25  1  0  0  0  0
M  CHG  1  25  -1
M  END
> <s_m_source_file>
AV-unprocessed.smi

> <i_m_source_file_index>
54

> <i_lp_mmshare_version>
43012

> <i_f3d_flags>
0

> <s_epik_input>
W0NIM11bQ0hdKFtDSDNdKUMoPU8pW05IXWMobjEpW25IXWMoPU8pYyhjMTIpbltjSF1uMltDQEBIXTNPW0NASF0oW0NIMl1bT0hdKVtDQEBIXShbT0hdKVtDQEhdM1tPSF0=

> <s_epik_cmdline>
J2VwaWtfcHl0aG9uJywgJy1waCcsICc3LjAnLCAnLXRuJywgJzgnLCAnLW1hJywgJzIwMCcsICctbWV0YWxfYmluZGluZycsICctaW1hZScsICc8aW5maWxlLm1hZT4nLCAnLW9tYWUnLCAnPG91dGZpbGUubWFlPic=

> <r_lp_tautomer_probability>
0.85571

> <r_epik_Ionization_Penalty>
1.75936

> <r_epik_Ionization_Penalty_Charging>
4.55893e-11

> <r_epik_Ionization_Penalty_Neutral>
1.75936

> <r_epik_State_Penalty>
1.72072

> <r_epik_Charging_Adjusted_Penalty>
1.72072

> <i_epik_Tot_Q>
-1

> <i_epik_Tot_abs_Q>
1

> <r_epik_Metal_State_Penalty>
0.400338

> <b_epik_Metal_Only>
1

> <s_epik_Chemistry_Notes>
This compound contains an acetal/aminal-like group ( X-CH(R)-Y where X, Y are N, S, or O) that may be acid/base labile, releasing an aldehyde.

> <s_lp_Force_Field>
OPLS_2005

> <r_lp_Energy>
63.0293

> <b_lp_Chiralities_Consistent>
1

> <s_lp_Variant>
AV-unprocessed.smi:54-30

> <Gold.Version>
5.8.1

> <Gold.Id.Protein>
6NUR|6NUR_protein|mol2

> <Gold.PLP.Fitness>
53.1853

> <Gold.PLP.PLP>
-36.8602

> <Gold.PLP.part.hbond>
-7.4382

> <Gold.PLP.part.metal>
0.0000

> <Gold.PLP.part.buried>
-1.6824

> <Gold.PLP.part.nonpolar>
-27.9238

> <Gold.PLP.part.repulsive>
0.2924

> <Gold.PLP.ligand.clash>
0.0000

> <Gold.PLP.ligand.torsion>
0.8687

> <Gold.PLP.Chemscore.Hbond>
5.0000

> <Gold.PLP.Chemscore.CHOScore>
1.0000

> <Gold.PLP.Chemscore.Metal>
0.0000

> <Gold.Chemscore.Hbonds>
donor molecule, donor type, donor heavy atom, donor atom, acceptor molecule, acceptor atom, score
      L1  H    20    42       P1 10175  1.00
      P1  H  7997  8008       L1    25  2.00
      P1  H  8022  8030       L1    18  1.00
      P1  H 10752 10765       L1    11  0.98
      L1  C    12    38       P1  7948  1.00

> <Gold.PLP.Chemscore.Internal.Correction>
0.0625

> <Gold.Rescore>
     Score         DG    S(hbond)    S(metal)    S(lipo)     H(rot)  DE(clash)    DE(int)     intcor
      9.77     -13.45       3.17        0.00      65.59       4.02       0.54       3.13       ----

> <Gold.Chemscore.Fitness>
9.7729

> <Gold.Chemscore.DG>
-13.4483

> <Gold.Chemscore.ZeroCoef>
-5.4800

> <Gold.Chemscore.Hbond>
3.1688

> <Gold.Chemscore.Metal>
0.0000

> <Gold.Chemscore.Lipo>
65.5874

> <Gold.Chemscore.Internal_Hbond>
0.0000

> <Gold.Chemscore.DEClash>
0.5424

> <Gold.Chemscore.DEInternal>
3.1330

> <Gold.Chemscore.Rot>
4.0192

> <Gold.Chemscore.Internal.Correction>
   9.000000E+99

> <Gold.Chemscore.Hbonds>
donor molecule, donor type, donor heavy atom, donor atom, acceptor molecule, acceptor atom, score
      L1  H    20    42       P1 10175  0.96
      P1  H  7997  8008       L1    25  0.27
      P1  H  8022  8030       L1    18  0.43
      P1  H 10752 10765       L1    11  0.83

> <Gold.Chemscore.Hbond.Weighted>
-10.5838

> <Gold.Chemscore.Metal.Weighted>
-0.0000

> <Gold.Chemscore.Lipo.Weighted>
-7.6737

> <Gold.Chemscore.Internal_Hbond.Weighted>
0.0000

> <Gold.Chemscore.DEClash.Weighted>
0.5424

> <Gold.Chemscore.DEInternal.Weighted>
3.1330

> <Gold.Chemscore.Rot.Weighted>
10.2893

> <Gold.Chemscore.Internal.Correction.Weighted>
   9.000000E+99

> <Gold.Protein.RotatedTorsions>
[ 6907 6896 6895 6894 ] final  136.99 input  -60.11 | X-H torsion
[ 7974 7965 7964 7962 ] final  -69.82 input  175.53 | X-H torsion
[ 8008 7997 7996 7995 ] final  -81.55 input   59.86 | X-H torsion
[ 10167 10162 10161 10158 ] final -139.87 input  -65.29 | X-H torsion
[ 10718 10713 10712 10709 ] final  150.36 input   66.30 | X-H torsion
[ 10763 10752 10751 10750 ] final  162.83 input  -60.55 | X-H torsion
[ 11005 11000 10999 10996 ] final -131.76 input  -57.11 | X-H torsion

> <Gold.Protein.ActiveResidues>
 VAL166  LYS551  ARG553  GLY616  TRP617  ASP618  TYR619  PRO620  LYS621  CYS622 
 ASP623  PHE694  ASN695  SER759  ASP760  ASP761  ALA762  ILE779  LEU786  VAL792 
 PHE793  MET794  SER795  GLU796  ALA797  LYS798  CYS799  TRP800  GLU811  SER814 

> <Gold.Protein.RotatedAtoms>
  152.2832  133.5490  159.5510 H   0  0  0  0  0  0  0  0  0  0  0  0  # atno 6907 bound_to 6896
  150.7204  134.0535  159.3815 H   0  0  0  0  0  0  0  0  0  0  0  0  # atno 6908 bound_to 6896
  151.8445  135.0579  160.0502 H   0  0  0  0  0  0  0  0  0  0  0  0  # atno 6909 bound_to 6896
  145.6989  140.9124  143.0742 H   0  0  0  0  0  0  0  0  0  0  0  0  # atno 7974 bound_to 7965
  154.5995  140.0646  156.9349 H   0  0  0  0  0  0  0  0  0  0  0  0  # atno 8008 bound_to 7997
  155.2156  140.3326  155.4304 H   0  0  0  0  0  0  0  0  0  0  0  0  # atno 8009 bound_to 7997
  156.2309  140.1840  156.7228 H   0  0  0  0  0  0  0  0  0  0  0  0  # atno 8010 bound_to 7997
  139.8338  143.7412  152.2665 H   0  0  0  0  0  0  0  0  0  0  0  0  # atno 10167 bound_to 10162
  157.2844  131.0841  151.1508 H   0  0  0  0  0  0  0  0  0  0  0  0  # atno 10718 bound_to 10713
  154.2844  135.2762  155.2683 H   0  0  0  0  0  0  0  0  0  0  0  0  # atno 10763 bound_to 10752
  154.5190  135.5761  153.6668 H   0  0  0  0  0  0  0  0  0  0  0  0  # atno 10764 bound_to 10752
  152.9924  135.6199  154.3005 H   0  0  0  0  0  0  0  0  0  0  0  0  # atno 10765 bound_to 10752
  140.9230  134.1419  157.4298 H   0  0  0  0  0  0  0  0  0  0  0  0  # atno 11005 bound_to 11000
  144.6974  139.8921  143.7453 LP  0  0  0  0  0  0  0  0  0  0  0  0  # atno 17320 bound_to 7965
  146.0815  139.3803  143.0461 LP  0  0  0  0  0  0  0  0  0  0  0  0  # atno 17321 bound_to 7965
  139.7628  144.7501  151.0339 LP  0  0  0  0  0  0  0  0  0  0  0  0  # atno 17342 bound_to 10162
  140.7804  143.4732  151.0118 LP  0  0  0  0  0  0  0  0  0  0  0  0  # atno 17343 bound_to 10162
  157.2929  130.6805  149.6123 LP  0  0  0  0  0  0  0  0  0  0  0  0  # atno 17370 bound_to 10713
  155.9665  130.4415  150.5343 LP  0  0  0  0  0  0  0  0  0  0  0  0  # atno 17371 bound_to 10713
  139.8779  134.9978  156.5867 LP  0  0  0  0  0  0  0  0  0  0  0  0  # atno 17394 bound_to 11000
  140.7963  133.8541  155.8688 LP  0  0  0  0  0  0  0  0  0  0  0  0  # atno 17395 bound_to 11000

$$$$
