#       Name:                AV-unprocessed.smi:1740
#       Creating user name   scv26
#       Creation time:       Fri Mar 27 08:22:07 2020


#       File generated by GOLD software.
#

@<TRIPOS>MOLECULE
AV-unprocessed.smi:1740
    58    60     1
SMALL
NO_CHARGES


@<TRIPOS>ATOM
      1 ****        -4.4086  -5.4522  -1.0678 N.am           1 S1                 0.0000
      2 ****        -4.5659  -4.1917  -0.6581 C.2            1 S1                 0.0000
      3 ****        -5.5987  -3.5582  -0.8681 O.2            1 S1                 0.0000
      4 ****        -3.3994  -3.5645   0.1126 C.3            1 S1                 0.0000
      5 ****        -3.4369  -2.0792   0.1171 N.4            1 S1                 1.0000
      6 ****        -2.9832  -1.4797  -1.1667 C.3            1 S1                 0.0000
      7 ****        -3.1742   0.0476  -1.1648 C.3            1 S1                 0.0000
      8 ****        -2.4667   0.7160   0.0297 C.3            1 S1                 0.0000
      9 ****        -1.0120   0.6817  -0.1177 N.am           1 S1                 0.0000
     10 ****        -0.2825   1.5591  -0.8215 C.2            1 S1                 0.0000
     11 ****        -0.7688   2.5054  -1.4398 O.2            1 S1                 0.0000
     12 ****         1.0270   1.2692  -0.7439 N.am           1 S1                 0.0000
     13 ****         2.1286   1.9990  -1.2747 C.ar           1 S1                 0.0000
     14 ****         2.0210   2.7479  -2.4726 C.ar           1 S1                 0.0000
     15 ****         3.1576   3.3956  -2.9860 C.ar           1 S1                 0.0000
     16 ****         4.3710   3.2590  -2.2919 C.ar           1 S1                 0.0000
     17 ****         4.4940   2.5385  -1.1595 N.ar           1 S1                 0.0000
     18 ****         3.4035   1.9198  -0.6435 C.ar           1 S1                 0.0000
     19 ****         3.5893   1.1902   0.5535 N.3            1 S1                 0.0000
     20 ****         2.7652   1.5449   1.7055 C.3            1 S1                 0.0000
     21 ****         3.6532   1.3767   2.9432 C.3            1 S1                 0.0000
     22 ****         4.7594   0.4385   2.4703 C.3            1 S1                 0.0000
     23 ****         4.9325   0.8507   1.0115 C.3            1 S1                 0.0000
     24 ****        -2.8922   0.0291   1.3387 C.3            1 S1                 0.0000
     25 ****        -2.7129  -1.4988   1.2767 C.3            1 S1                 0.0000
     26 ****        -5.1534  -5.9106  -1.5739 H              1 S1                 0.0000
     27 ****        -3.5527  -5.9494  -0.8678 H              1 S1                 0.0000
     28 ****        -3.4685  -3.9362   1.1358 H              1 S1                 0.0000
     29 ****        -2.4444  -3.9140  -0.2837 H              1 S1                 0.0000
     30 ****        -1.9346  -1.7284  -1.3368 H              1 S1                 0.0000
     31 ****        -3.5439  -1.9060  -1.9990 H              1 S1                 0.0000
     32 ****        -2.8200   0.4707  -2.1056 H              1 S1                 0.0000
     33 ****        -4.2409   0.2707  -1.1182 H              1 S1                 0.0000
     34 ****        -2.7791   1.7607   0.0829 H              1 S1                 0.0000
     35 ****        -0.5217  -0.0578   0.3636 H              1 S1                 0.0000
     36 ****         1.2765   0.5030  -0.1360 H              1 S1                 0.0000
     37 ****         1.0938   2.8182  -3.0197 H              1 S1                 0.0000
     38 ****         3.1030   3.9723  -3.8974 H              1 S1                 0.0000
     39 ****         5.2687   3.7345  -2.6585 H              1 S1                 0.0000
     40 ****         2.3712   2.5597   1.6332 H              1 S1                 0.0000
     41 ****         1.9211   0.8571   1.7598 H              1 S1                 0.0000
     42 ****         4.0848   2.3400   3.2181 H              1 S1                 0.0000
     43 ****         3.1087   0.9936   3.8066 H              1 S1                 0.0000
     44 ****         5.6776   0.5316   3.0507 H              1 S1                 0.0000
     45 ****         4.4217  -0.5972   2.5292 H              1 S1                 0.0000
     46 ****         5.3668   0.0501   0.4123 H              1 S1                 0.0000
     47 ****         5.5922   1.7175   0.9569 H              1 S1                 0.0000
     48 ****        -2.3331   0.4393   2.1808 H              1 S1                 0.0000
     49 ****        -3.9413   0.2550   1.5348 H              1 S1                 0.0000
     50 ****        -3.0891  -1.9370   2.2018 H              1 S1                 0.0000
     51 ****        -1.6546  -1.7567   1.2128 H              1 S1                 0.0000
     52 ****        -4.4083  -1.8261   0.2327 H              1 S1                 0.0000
     53 ****        -6.3563  -3.9862  -1.3608 LP             1 S1                 0.0000
     54 ****        -5.6810  -2.6150  -0.5460 LP             1 S1                 0.0000
     55 ****        -1.7581   2.6511  -1.4338 LP             1 S1                 0.0000
     56 ****        -0.1747   3.1288  -1.9481 LP             1 S1                 0.0000
     57 ****         5.3810   2.4610  -0.7042 LP             1 S1                 0.0000
     58 ****         3.2308   0.3510   0.1447 LP             1 S1                 0.0000
@<TRIPOS>BOND
    1    1    2 am    
    2    1   26 1     
    3    1   27 1     
    4    2    3 2     
    5    2    4 1     
    6    4    5 1     
    7    4   28 1     
    8    4   29 1     
    9    5   25 1     
   10    5    6 1     
   11    5   52 1     
   12    6    7 1     
   13    6   30 1     
   14    6   31 1     
   15    7    8 1     
   16    7   32 1     
   17    7   33 1     
   18    8    9 1     
   19    8   24 1     
   20    8   34 1     
   21    9   10 am    
   22    9   35 1     
   23   10   11 2     
   24   10   12 am    
   25   12   13 1     
   26   12   36 1     
   27   13   18 ar    
   28   13   14 ar    
   29   14   15 ar    
   30   14   37 1     
   31   15   16 ar    
   32   15   38 1     
   33   16   17 ar    
   34   16   39 1     
   35   17   18 ar    
   36   18   19 1     
   37   19   23 1     
   38   19   20 1     
   39   20   21 1     
   40   20   40 1     
   41   20   41 1     
   42   21   22 1     
   43   21   42 1     
   44   21   43 1     
   45   22   23 1     
   46   22   44 1     
   47   22   45 1     
   48   23   46 1     
   49   23   47 1     
   50   24   25 1     
   51   24   48 1     
   52   24   49 1     
   53   25   50 1     
   54   25   51 1     
   55    3   53 1     
   56    3   54 1     
   57   11   55 1     
   58   11   56 1     
   59   17   57 1     
   60   19   58 1     
@<TRIPOS>SUBSTRUCTURE
      1 S1             1
@<TRIPOS>SET
LONE_PAIRS      STATIC     ATOMS    <user>   **** ""
6 53 54 55 56 57 58
DONOR_HYDROGENS      STATIC     ATOMS    <user>   **** ""
5 26 27 52 35 36
ATOM$BLUE        STATIC     ATOMS    COLORGROUP SYSTEM
6 53 54 55 56 57 58
ATOM$RED        STATIC     ATOMS    COLORGROUP SYSTEM
5 26 27 52 35 36
