AV-unprocessed.smi:898|AV-procd|sdf|4083|dock1
  -GOLD-   22720 1573D 1   1.00000     0.00000
 Structure written by MMmdl.
 34 36  0  0  0  0  0  0  0  0  1 V2000
  149.0318  135.6399  156.3754 O   0  0  0  0  0  0  0  0  0  0  0  0
  148.8827  135.7595  155.1592 C   0  0  0  0  0  0  0  0  0  0  0  0
  149.2873  136.8111  154.4254 N   0  0  0  0  0  0  0  0  0  0  0  0
  149.9609  137.9826  154.8619 C   0  0  0  0  0  0  0  0  0  0  0  0
  150.6658  138.7831  154.0505 N   0  0  0  0  0  0  0  0  0  0  0  0
  151.2175  139.8574  154.7344 N   0  0  0  0  0  0  0  0  0  0  0  0
  150.9162  139.8390  156.0385 C   0  0  0  0  0  0  0  0  0  0  0  0
  151.3929  140.8941  156.9805 C   0  0  0  0  0  0  0  0  0  0  0  0
  151.1508  140.7690  158.4671 C   0  0  0  0  0  0  0  0  0  0  0  0
  150.4304  141.8314  157.6770 C   0  0  0  0  0  0  0  0  0  0  0  0
  149.9171  138.4804  156.5445 S   0  0  0  0  0  0  0  0  0  0  0  0
  148.2896  134.8330  154.3918 N   0  0  0  0  0  0  0  0  0  0  0  0
  147.7433  133.5648  154.8679 C   0  0  2  0  0  0  0  0  0  0  0  0
  148.7853  132.8267  155.7347 C   0  0  0  0  0  0  0  0  0  0  0  0
  148.2487  131.5051  156.3083 C   0  0  0  0  0  0  0  0  0  0  0  0
  147.8404  130.5118  155.2113 C   0  0  0  0  0  0  0  0  0  0  0  0
  146.5004  131.1784  154.1878 S   0  0  0  0  0  0  0  0  0  0  0  0
  147.3029  132.7176  153.6613 C   0  0  0  0  0  0  0  0  0  0  0  0
  149.0995  136.7642  153.4350 H   0  0  0  0  0  0  0  0  0  0  0  0
  152.3479  141.2992  156.6515 H   0  0  0  0  0  0  0  0  0  0  0  0
  150.5657  139.9196  158.8150 H   0  0  0  0  0  0  0  0  0  0  0  0
  151.9482  141.0910  159.1339 H   0  0  0  0  0  0  0  0  0  0  0  0
  150.7481  142.8626  157.8175 H   0  0  0  0  0  0  0  0  0  0  0  0
  149.3638  141.6915  157.5135 H   0  0  0  0  0  0  0  0  0  0  0  0
  148.2109  135.0162  153.4023 H   0  0  0  0  0  0  0  0  0  0  0  0
  146.8593  133.7711  155.4749 H   0  0  0  0  0  0  0  0  0  0  0  0
  149.6853  132.6324  155.1498 H   0  0  0  0  0  0  0  0  0  0  0  0
  149.0935  133.4662  156.5629 H   0  0  0  0  0  0  0  0  0  0  0  0
  149.0151  131.0500  156.9366 H   0  0  0  0  0  0  0  0  0  0  0  0
  147.3978  131.7040  156.9610 H   0  0  0  0  0  0  0  0  0  0  0  0
  148.6928  130.2771  154.5731 H   0  0  0  0  0  0  0  0  0  0  0  0
  147.5063  129.5742  155.6564 H   0  0  0  0  0  0  0  0  0  0  0  0
  146.5988  133.2739  153.0413 H   0  0  0  0  0  0  0  0  0  0  0  0
  148.1587  132.4712  153.0316 H   0  0  0  0  0  0  0  0  0  0  0  0
  1  2  2  0  0  0  0
  2  3  1  0  0  0  0
  2 12  1  0  0  0  0
  3  4  1  0  0  0  0
  3 19  1  0  0  0  0
  4 11  1  0  0  0  0
  4  5  2  0  0  0  0
  5  6  1  0  0  0  0
  6  7  2  0  0  0  0
  7  8  1  0  0  0  0
  7 11  1  0  0  0  0
  8 10  1  0  0  0  0
  8  9  1  0  0  0  0
  8 20  1  0  0  0  0
  9 10  1  0  0  0  0
  9 21  1  0  0  0  0
  9 22  1  0  0  0  0
 10 23  1  0  0  0  0
 10 24  1  0  0  0  0
 12 13  1  0  0  0  0
 12 25  1  0  0  0  0
 13 18  1  0  0  0  0
 13 14  1  0  0  0  0
 13 26  1  0  0  0  0
 14 15  1  0  0  0  0
 14 27  1  0  0  0  0
 14 28  1  0  0  0  0
 15 16  1  0  0  0  0
 15 29  1  0  0  0  0
 15 30  1  0  0  0  0
 16 17  1  0  0  0  0
 16 31  1  0  0  0  0
 16 32  1  0  0  0  0
 17 18  1  0  0  0  0
 18 33  1  0  0  0  0
 18 34  1  0  0  0  0
M  END
> <s_m_source_file>
AV-unprocessed.smi

> <i_m_source_file_index>
898

> <i_lp_mmshare_version>
43012

> <i_f3d_flags>
0

> <s_epik_input>
W0NIMl0xU1tDSDJdW0NIMl1bQ0gyXVtDQEhdMVtOSF1DKD1PKVtOSF1jMm5uYyhzMilbQ0hdM1tDSDJdW0NIMl0z

> <s_epik_cmdline>
J2VwaWtfcHl0aG9uJywgJy1waCcsICc3LjAnLCAnLXRuJywgJzgnLCAnLW1hJywgJzIwMCcsICctbWV0YWxfYmluZGluZycsICctaW1hZScsICc8aW5maWxlLm1hZT4nLCAnLW9tYWUnLCAnPG91dGZpbGUubWFlPic=

> <r_lp_tautomer_probability>
1

> <r_epik_Ionization_Penalty>
0.000291725

> <r_epik_Ionization_Penalty_Charging>
0

> <r_epik_Ionization_Penalty_Neutral>
0.000291725

> <r_epik_State_Penalty>
-0

> <r_epik_Charging_Adjusted_Penalty>
0

> <i_epik_Tot_Q>
0

> <i_epik_Tot_abs_Q>
0

> <r_epik_Metal_State_Penalty>
0.160962

> <b_epik_Metal_Only>
0

> <s_lp_Force_Field>
OPLS_2005

> <r_lp_Energy>
2.16534

> <b_lp_Chiralities_Consistent>
1

> <s_lp_Variant>
AV-unprocessed.smi:898-1

> <Gold.Version>
5.8.1

> <Gold.Id.Protein>
6NUR|6NUR_protein|mol2

> <Gold.PLP.Fitness>
36.7974

> <Gold.PLP.PLP>
-28.8112

> <Gold.PLP.part.hbond>
-3.8322

> <Gold.PLP.part.metal>
0.0000

> <Gold.PLP.part.buried>
-4.1991

> <Gold.PLP.part.nonpolar>
-21.4255

> <Gold.PLP.part.repulsive>
0.3688

> <Gold.PLP.ligand.clash>
0.0000

> <Gold.PLP.ligand.torsion>
0.2217

> <Gold.PLP.Chemscore.Hbond>
2.7620

> <Gold.PLP.Chemscore.CHOScore>
0.0000

> <Gold.PLP.Chemscore.Metal>
0.0000

> <Gold.Chemscore.Hbonds>
donor molecule, donor type, donor heavy atom, donor atom, acceptor molecule, acceptor atom, score
      L1  H     3    19       P1  7948  1.00
      L1  H    12    25       P1  7948  0.77
      P1  H  7989  7998       L1     6  1.00

> <Gold.PLP.Chemscore.Internal.Correction>
0.1435

> <Gold.Rescore>
     Score         DG    S(hbond)    S(metal)    S(lipo)     H(rot)  DE(clash)    DE(int)     intcor
     12.99     -14.64       1.71        0.00      55.89       1.20       0.00       1.64       ----

> <Gold.Chemscore.Fitness>
12.9909

> <Gold.Chemscore.DG>
-14.6365

> <Gold.Chemscore.ZeroCoef>
-5.4800

> <Gold.Chemscore.Hbond>
1.7073

> <Gold.Chemscore.Metal>
0.0000

> <Gold.Chemscore.Lipo>
55.8872

> <Gold.Chemscore.Internal_Hbond>
0.0000

> <Gold.Chemscore.DEClash>
0.0042

> <Gold.Chemscore.DEInternal>
1.6414

> <Gold.Chemscore.Rot>
1.2050

> <Gold.Chemscore.Internal.Correction>
   9.000000E+99

> <Gold.Chemscore.Hbonds>
donor molecule, donor type, donor heavy atom, donor atom, acceptor molecule, acceptor atom, score
      L1  H     3    19       P1  7948  0.99
      L1  H    12    25       P1  7948  0.70
      P1  H  7989  7998       L1     6  0.35

> <Gold.Chemscore.Hbond.Weighted>
-5.7024

> <Gold.Chemscore.Metal.Weighted>
-0.0000

> <Gold.Chemscore.Lipo.Weighted>
-6.5388

> <Gold.Chemscore.Internal_Hbond.Weighted>
0.0000

> <Gold.Chemscore.DEClash.Weighted>
0.0042

> <Gold.Chemscore.DEInternal.Weighted>
1.6414

> <Gold.Chemscore.Rot.Weighted>
3.0847

> <Gold.Chemscore.Internal.Correction.Weighted>
   9.000000E+99

> <Gold.Protein.RotatedTorsions>
[ 6907 6896 6895 6894 ] final   34.03 input  -60.11 | X-H torsion
[ 7974 7965 7964 7962 ] final  126.69 input  175.53 | X-H torsion
[ 8008 7997 7996 7995 ] final   23.58 input   59.86 | X-H torsion
[ 10167 10162 10161 10158 ] final -131.44 input  -65.29 | X-H torsion
[ 10718 10713 10712 10709 ] final   46.16 input   66.30 | X-H torsion
[ 10763 10752 10751 10750 ] final    0.71 input  -60.55 | X-H torsion
[ 11005 11000 10999 10996 ] final  110.08 input  -57.11 | X-H torsion

> <Gold.Protein.ActiveResidues>
 VAL166  LYS551  ARG553  GLY616  TRP617  ASP618  TYR619  PRO620  LYS621  CYS622 
 ASP623  PHE694  ASN695  SER759  ASP760  ASP761  ALA762  ILE779  LEU786  VAL792 
 PHE793  MET794  SER795  GLU796  ALA797  LYS798  CYS799  TRP800  GLU811  SER814 

> <Gold.Protein.RotatedAtoms>
  152.0968  134.9369  160.0570 H   0  0  0  0  0  0  0  0  0  0  0  0  # atno 6907 bound_to 6896
  152.0600  133.4053  159.4422 H   0  0  0  0  0  0  0  0  0  0  0  0  # atno 6908 bound_to 6896
  150.6838  134.3132  159.4798 H   0  0  0  0  0  0  0  0  0  0  0  0  # atno 6909 bound_to 6896
  145.0590  139.3821  143.5016 H   0  0  0  0  0  0  0  0  0  0  0  0  # atno 7974 bound_to 7965
  154.9831  140.3104  155.4938 H   0  0  0  0  0  0  0  0  0  0  0  0  # atno 8008 bound_to 7997
  156.2950  140.2263  156.4871 H   0  0  0  0  0  0  0  0  0  0  0  0  # atno 8009 bound_to 7997
  154.7771  140.0448  157.1086 H   0  0  0  0  0  0  0  0  0  0  0  0  # atno 8010 bound_to 7997
  139.9189  143.6406  152.2558 H   0  0  0  0  0  0  0  0  0  0  0  0  # atno 10167 bound_to 10162
  157.4452  130.8105  149.7733 H   0  0  0  0  0  0  0  0  0  0  0  0  # atno 10718 bound_to 10713
  153.3172  135.6967  153.7062 H   0  0  0  0  0  0  0  0  0  0  0  0  # atno 10763 bound_to 10752
  153.5916  135.3479  155.2913 H   0  0  0  0  0  0  0  0  0  0  0  0  # atno 10764 bound_to 10752
  154.8589  135.4319  154.2327 H   0  0  0  0  0  0  0  0  0  0  0  0  # atno 10765 bound_to 10752
  139.8874  134.9475  156.6224 H   0  0  0  0  0  0  0  0  0  0  0  0  # atno 11005 bound_to 11000
  146.3523  140.0278  142.8653 LP  0  0  0  0  0  0  0  0  0  0  0  0  # atno 17320 bound_to 7965
  145.1433  140.9583  143.4476 LP  0  0  0  0  0  0  0  0  0  0  0  0  # atno 17321 bound_to 7965
  139.6879  144.7650  151.1491 LP  0  0  0  0  0  0  0  0  0  0  0  0  # atno 17342 bound_to 10162
  140.7667  143.5631  150.9077 LP  0  0  0  0  0  0  0  0  0  0  0  0  # atno 17343 bound_to 10162
  155.9964  130.3906  150.2779 LP  0  0  0  0  0  0  0  0  0  0  0  0  # atno 17370 bound_to 10713
  157.0946  131.0179  151.3108 LP  0  0  0  0  0  0  0  0  0  0  0  0  # atno 17371 bound_to 10713
  140.7729  133.8724  155.8506 LP  0  0  0  0  0  0  0  0  0  0  0  0  # atno 17394 bound_to 11000
  140.9827  134.1384  157.4480 LP  0  0  0  0  0  0  0  0  0  0  0  0  # atno 17395 bound_to 11000

$$$$
