#       Name:                AV-unprocessed.smi:535
#       Creating user name   scv26
#       Creation time:       Thu Mar 26 23:35:11 2020


#       File generated by GOLD software.
#

@<TRIPOS>MOLECULE
AV-unprocessed.smi:535
    53    55     1
SMALL
NO_CHARGES


@<TRIPOS>ATOM
      1 ****        -3.9124   3.1987  -1.3122 C.3            1 S1                 0.0000
      2 ****        -3.4656   1.8756  -1.0733 O.3            1 S1                 0.0000
      3 ****        -2.0678   1.7326  -1.2571 C.3            1 S1                 0.0000
      4 ****        -1.6808   0.2723  -0.9706 C.3            1 S1                 0.0000
      5 ****        -0.2413   0.0480  -1.0659 N.pl3          1 S1                 0.0000
      6 ****         0.6841  -0.1180  -0.0747 C.2            1 S1                 0.0000
      7 ****         0.3797  -0.0726   1.2938 N.pl3          1 S1                 0.0000
      8 ****        -0.5024   0.8669   1.9911 C.3            1 S1                 0.0000
      9 ****        -1.5316   0.1428   2.8773 C.3            1 S1                 0.0000
     10 ****        -0.8227  -0.7473   3.9048 C.3            1 S1                 0.0000
     11 ****         0.1811  -1.6723   3.1974 C.3            1 S1                 0.0000
     12 ****         0.9719  -2.5199   4.2030 C.3            1 S1                 0.0000
     13 ****         1.1194  -0.8407   2.2991 C.3            1 S1                 0.0000
     14 ****         1.9198  -0.3685  -0.5212 N.2            1 S1                 0.0000
     15 ****         1.7803  -0.3481  -1.8981 C.2            1 S1                 0.0000
     16 ****         0.4914  -0.1102  -2.2455 C.2            1 S1                 0.0000
     17 ****         0.0513  -0.0730  -3.6480 C.2            1 S1                 0.0000
     18 ****        -1.1125   0.1241  -3.9902 O.2            1 S1                 0.0000
     19 ****         1.0592  -0.2855  -4.5285 N.am           1 S1                 0.0000
     20 ****         2.3751  -0.5253  -4.2440 C.2            1 S1                 0.0000
     21 ****         3.1793  -0.7066  -5.1581 O.2            1 S1                 0.0000
     22 ****         2.7457  -0.5559  -2.9242 N.am           1 S1                 0.0000
     23 ****         4.1406  -0.8127  -2.5611 C.3            1 S1                 0.0000
     24 ****         0.8094  -0.2696  -5.5065 H              1 S1                 0.0000
     25 ****        -4.9915   3.2525  -1.1685 H              1 S1                 0.0000
     26 ****        -3.6928   3.5113  -2.3338 H              1 S1                 0.0000
     27 ****        -3.4456   3.9026  -0.6220 H              1 S1                 0.0000
     28 ****        -1.8001   2.0075  -2.2775 H              1 S1                 0.0000
     29 ****        -1.5330   2.4153  -0.5970 H              1 S1                 0.0000
     30 ****        -2.0385  -0.0397   0.0071 H              1 S1                 0.0000
     31 ****        -2.1823  -0.3914  -1.6747 H              1 S1                 0.0000
     32 ****         0.1109   1.5250   2.6082 H              1 S1                 0.0000
     33 ****        -1.0082   1.5225   1.2897 H              1 S1                 0.0000
     34 ****        -2.1626   0.8706   3.3879 H              1 S1                 0.0000
     35 ****        -2.1953  -0.4658   2.2630 H              1 S1                 0.0000
     36 ****        -0.3013  -0.1201   4.6293 H              1 S1                 0.0000
     37 ****        -1.5542  -1.3311   4.4644 H              1 S1                 0.0000
     38 ****        -0.3789  -2.3563   2.5576 H              1 S1                 0.0000
     39 ****         1.5624  -1.8933   4.8721 H              1 S1                 0.0000
     40 ****         1.6563  -3.1973   3.6912 H              1 S1                 0.0000
     41 ****         0.3047  -3.1268   4.8157 H              1 S1                 0.0000
     42 ****         1.8233  -1.5119   1.8062 H              1 S1                 0.0000
     43 ****         1.7199  -0.1588   2.9028 H              1 S1                 0.0000
     44 ****         4.8041  -0.0977  -3.0492 H              1 S1                 0.0000
     45 ****         4.4346  -1.8165  -2.8698 H              1 S1                 0.0000
     46 ****         4.3159  -0.7342  -1.4885 H              1 S1                 0.0000
     47 ****        -3.9366   1.2593  -1.7045 LP             1 S1                 0.0000
     48 ****        -3.6923   1.6257  -0.1320 LP             1 S1                 0.0000
     49 ****         2.7488  -0.5320   0.0136 LP             1 S1                 0.0000
     50 ****        -1.8193   0.2702  -3.2981 LP             1 S1                 0.0000
     51 ****        -1.3527   0.1384  -4.9609 LP             1 S1                 0.0000
     52 ****         2.8704  -0.6786  -6.1088 LP             1 S1                 0.0000
     53 ****         4.1416  -0.8820  -4.9501 LP             1 S1                 0.0000
@<TRIPOS>BOND
    1    1    2 1     
    2    1   25 1     
    3    1   26 1     
    4    1   27 1     
    5    2    3 1     
    6    3    4 1     
    7    3   28 1     
    8    3   29 1     
    9    4    5 1     
   10    4   30 1     
   11    4   31 1     
   12    5   16 1     
   13    5    6 1     
   14    6    7 1     
   15    6   14 2     
   16    7   13 1     
   17    7    8 1     
   18    8    9 1     
   19    8   32 1     
   20    8   33 1     
   21    9   10 1     
   22    9   34 1     
   23    9   35 1     
   24   10   11 1     
   25   10   36 1     
   26   10   37 1     
   27   11   12 1     
   28   11   13 1     
   29   11   38 1     
   30   12   39 1     
   31   12   40 1     
   32   12   41 1     
   33   13   42 1     
   34   13   43 1     
   35   14   15 1     
   36   15   22 1     
   37   15   16 2     
   38   16   17 1     
   39   17   18 2     
   40   17   19 1     
   41   19   24 1     
   42   19   20 1     
   43   20   21 2     
   44   20   22 1     
   45   22   23 1     
   46   23   44 1     
   47   23   45 1     
   48   23   46 1     
   49    2   47 1     
   50    2   48 1     
   51   14   49 1     
   52   18   50 1     
   53   18   51 1     
   54   21   52 1     
   55   21   53 1     
@<TRIPOS>SUBSTRUCTURE
      1 S1             1
@<TRIPOS>SET
LONE_PAIRS      STATIC     ATOMS    <user>   **** ""
7 47 48 49 50 51 52 53
DONOR_HYDROGENS      STATIC     ATOMS    <user>   **** ""
1 24
ATOM$BLUE        STATIC     ATOMS    COLORGROUP SYSTEM
7 47 48 49 50 51 52 53
ATOM$RED        STATIC     ATOMS    COLORGROUP SYSTEM
1 24
