AV-unprocessed.smi:1816|AV-procd|sdf|7365|dock3
  -GOLD-   22720 9 23D 1   1.00000     0.00000
 Structure written by MMmdl.
 36 37  0  0  0  0  0  0  0  0  2 V2000
  146.5281  142.1287  154.7919 C   0  0  0  0  0  0  0  0  0  0  0  0
  147.3439  141.6377  153.5744 C   0  0  1  0  0  0  0  0  0  0  0  0
  148.7771  141.2355  153.9982 C   0  0  0  0  0  0  0  0  0  0  0  0
  149.3270  142.1442  154.9994 N   0  0  0  0  0  0  0  0  0  0  0  0
  150.2517  141.8098  155.9102 C   0  0  0  0  0  0  0  0  0  0  0  0
  150.7533  140.6880  155.9855 O   0  0  0  0  0  0  0  0  0  0  0  0
  150.5465  142.8493  156.7104 N   0  0  0  0  0  0  0  0  0  0  0  0
  151.4410  142.8816  157.8125 C   0  0  0  0  0  0  0  0  0  0  0  0
  151.7879  143.9940  158.4703 N   0  0  0  0  0  0  0  0  0  0  0  0
  152.6890  143.7315  159.5053 C   0  0  0  0  0  0  0  0  0  0  0  0
  153.0197  142.4044  159.6216 C   0  0  0  0  0  0  0  0  0  0  0  0
  152.2081  141.4256  158.4289 S   0  0  0  0  0  0  0  0  0  0  0  0
  146.6508  140.5070  152.8893 N   0  3  0  0  0  0  0  0  0  0  0  0
  147.1728  140.1652  151.5480 C   0  0  0  0  0  0  0  0  0  0  0  0
  146.6765  138.7496  151.2463 C   0  0  0  0  0  0  0  0  0  0  0  0
  146.3364  138.1363  152.6069 C   0  0  0  0  0  0  0  0  0  0  0  0
  146.6322  139.2301  153.6363 C   0  0  0  0  0  0  0  0  0  0  0  0
  147.0211  142.9549  155.3043 H   0  0  0  0  0  0  0  0  0  0  0  0
  146.3861  141.3290  155.5197 H   0  0  0  0  0  0  0  0  0  0  0  0
  145.5439  142.4976  154.5044 H   0  0  0  0  0  0  0  0  0  0  0  0
  147.4178  142.4632  152.8642 H   0  0  0  0  0  0  0  0  0  0  0  0
  148.7676  140.2111  154.3754 H   0  0  0  0  0  0  0  0  0  0  0  0
  149.4591  141.2528  153.1483 H   0  0  0  0  0  0  0  0  0  0  0  0
  148.9724  143.0895  155.0048 H   0  0  0  0  0  0  0  0  0  0  0  0
  150.0661  143.7161  156.5189 H   0  0  0  0  0  0  0  0  0  0  0  0
  153.0462  144.5512  160.1109 H   0  0  0  0  0  0  0  0  0  0  0  0
  153.6897  141.9452  160.3332 H   0  0  0  0  0  0  0  0  0  0  0  0
  146.8443  140.8757  150.7888 H   0  0  0  0  0  0  0  0  0  0  0  0
  148.2639  140.1720  151.5694 H   0  0  0  0  0  0  0  0  0  0  0  0
  145.7818  138.7870  150.6234 H   0  0  0  0  0  0  0  0  0  0  0  0
  147.4266  138.1687  150.7086 H   0  0  0  0  0  0  0  0  0  0  0  0
  145.2810  137.8621  152.6364 H   0  0  0  0  0  0  0  0  0  0  0  0
  146.9155  137.2340  152.8065 H   0  0  0  0  0  0  0  0  0  0  0  0
  147.6126  139.0544  154.0824 H   0  0  0  0  0  0  0  0  0  0  0  0
  145.8925  139.2369  154.4374 H   0  0  0  0  0  0  0  0  0  0  0  0
  145.6858  140.7762  152.7600 H   0  0  0  0  0  0  0  0  0  0  0  0
  1  2  1  0  0  0  0
  1 18  1  0  0  0  0
  1 19  1  0  0  0  0
  1 20  1  0  0  0  0
  2  3  1  0  0  0  0
  2 13  1  0  0  0  0
  2 21  1  0  0  0  0
  3  4  1  0  0  0  0
  3 22  1  0  0  0  0
  3 23  1  0  0  0  0
  4  5  1  0  0  0  0
  4 24  1  0  0  0  0
  5  6  2  0  0  0  0
  5  7  1  0  0  0  0
  7  8  1  0  0  0  0
  7 25  1  0  0  0  0
  8 12  1  0  0  0  0
  8  9  2  0  0  0  0
  9 10  1  0  0  0  0
 10 11  2  0  0  0  0
 10 26  1  0  0  0  0
 11 12  1  0  0  0  0
 11 27  1  0  0  0  0
 13 17  1  0  0  0  0
 13 14  1  0  0  0  0
 13 36  1  0  0  0  0
 14 15  1  0  0  0  0
 14 28  1  0  0  0  0
 14 29  1  0  0  0  0
 15 16  1  0  0  0  0
 15 30  1  0  0  0  0
 15 31  1  0  0  0  0
 16 17  1  0  0  0  0
 16 32  1  0  0  0  0
 16 33  1  0  0  0  0
 17 34  1  0  0  0  0
 17 35  1  0  0  0  0
M  CHG  1  13   1
M  END
> <s_m_source_file>
AV-unprocessed.smi

> <i_m_source_file_index>
1816

> <i_lp_mmshare_version>
43012

> <i_f3d_flags>
0

> <s_epik_input>
W0NIMl0xW0NIMl1bQ0gyXVtDSDJdTjFbQ0BIXShbQ0gzXSlbQ0gyXVtOSF1DKD1PKVtOSF1jMm5bY0hdW2NIXXMy

> <s_epik_cmdline>
J2VwaWtfcHl0aG9uJywgJy1waCcsICc3LjAnLCAnLXRuJywgJzgnLCAnLW1hJywgJzIwMCcsICctbWV0YWxfYmluZGluZycsICctaW1hZScsICc8aW5maWxlLm1hZT4nLCAnLW9tYWUnLCAnPG91dGZpbGUubWFlPic=

> <r_lp_tautomer_probability>
0.999

> <r_epik_Ionization_Penalty>
0.000988651

> <r_epik_Ionization_Penalty_Charging>
0.000848324

> <r_epik_Ionization_Penalty_Neutral>
0.000140327

> <r_epik_State_Penalty>
0.000546901

> <r_epik_Charging_Adjusted_Penalty>
0.00139523

> <i_epik_Tot_Q>
1

> <i_epik_Tot_abs_Q>
1

> <r_epik_Metal_State_Penalty>
0.0571994

> <b_epik_Metal_Only>
0

> <s_lp_Force_Field>
OPLS_2005

> <r_lp_Energy>
29.703

> <b_lp_Chiralities_Consistent>
1

> <s_lp_Variant>
AV-unprocessed.smi:1816-2

> <Gold.Version>
5.8.1

> <Gold.Id.Protein>
6NUR|6NUR_protein|mol2

> <Gold.PLP.Fitness>
47.8649

> <Gold.PLP.PLP>
-36.7722

> <Gold.PLP.part.hbond>
-3.0000

> <Gold.PLP.part.metal>
0.0000

> <Gold.PLP.part.buried>
-1.6999

> <Gold.PLP.part.nonpolar>
-32.4180

> <Gold.PLP.part.repulsive>
0.3778

> <Gold.PLP.ligand.clash>
0.0000

> <Gold.PLP.ligand.torsion>
0.4763

> <Gold.PLP.Chemscore.Hbond>
4.0000

> <Gold.PLP.Chemscore.CHOScore>
0.0000

> <Gold.PLP.Chemscore.Metal>
0.0000

> <Gold.Chemscore.Hbonds>
donor molecule, donor type, donor heavy atom, donor atom, acceptor molecule, acceptor atom, score
      L1  H     4    24       P1  8028  1.00
      L1  H     7    25       P1  8028  1.00
      L1  H    13    36       P1 10175  1.98

> <Gold.PLP.Chemscore.Internal.Correction>
0.0453

> <Gold.Rescore>
     Score         DG    S(hbond)    S(metal)    S(lipo)     H(rot)  DE(clash)    DE(int)     intcor
     18.12     -19.95       2.87        0.00      76.65       1.60       0.18       1.65       ----

> <Gold.Chemscore.Fitness>
18.1175

> <Gold.Chemscore.DG>
-19.9459

> <Gold.Chemscore.ZeroCoef>
-5.4800

> <Gold.Chemscore.Hbond>
2.8748

> <Gold.Chemscore.Metal>
0.0000

> <Gold.Chemscore.Lipo>
76.6471

> <Gold.Chemscore.Internal_Hbond>
0.0000

> <Gold.Chemscore.DEClash>
0.1814

> <Gold.Chemscore.DEInternal>
1.6470

> <Gold.Chemscore.Rot>
1.6029

> <Gold.Chemscore.Internal.Correction>
   9.000000E+99

> <Gold.Chemscore.Hbonds>
donor molecule, donor type, donor heavy atom, donor atom, acceptor molecule, acceptor atom, score
      L1  H     4    24       P1  8028  0.98
      L1  H     7    25       P1  8028  0.98
      L1  H    13    36       P1 10175  0.36

> <Gold.Chemscore.Hbond.Weighted>
-9.6018

> <Gold.Chemscore.Metal.Weighted>
-0.0000

> <Gold.Chemscore.Lipo.Weighted>
-8.9677

> <Gold.Chemscore.Internal_Hbond.Weighted>
0.0000

> <Gold.Chemscore.DEClash.Weighted>
0.1814

> <Gold.Chemscore.DEInternal.Weighted>
1.6470

> <Gold.Chemscore.Rot.Weighted>
4.1035

> <Gold.Chemscore.Internal.Correction.Weighted>
   9.000000E+99

> <Gold.Protein.RotatedTorsions>
[ 6907 6896 6895 6894 ] final   14.10 input  -60.11 | X-H torsion
[ 7974 7965 7964 7962 ] final  102.65 input  175.53 | X-H torsion
[ 8008 7997 7996 7995 ] final  104.07 input   59.86 | X-H torsion
[ 10167 10162 10161 10158 ] final  156.08 input  -65.29 | X-H torsion
[ 10718 10713 10712 10709 ] final    3.28 input   66.30 | X-H torsion
[ 10763 10752 10751 10750 ] final   96.54 input  -60.55 | X-H torsion
[ 11005 11000 10999 10996 ] final  146.65 input  -57.11 | X-H torsion

> <Gold.Protein.ActiveResidues>
 VAL166  LYS551  ARG553  GLY616  TRP617  ASP618  TYR619  PRO620  LYS621  CYS622 
 ASP623  PHE694  ASN695  SER759  ASP760  ASP761  ALA762  ILE779  LEU786  VAL792 
 PHE793  MET794  SER795  GLU796  ALA797  LYS798  CYS799  TRP800  GLU811  SER814 

> <Gold.Protein.RotatedAtoms>
  151.7968  135.0720  160.0394 H   0  0  0  0  0  0  0  0  0  0  0  0  # atno 6907 bound_to 6896
  152.3117  133.5755  159.5694 H   0  0  0  0  0  0  0  0  0  0  0  0  # atno 6908 bound_to 6896
  150.7323  134.0058  159.3695 H   0  0  0  0  0  0  0  0  0  0  0  0  # atno 6909 bound_to 6896
  145.3564  139.2428  143.3530 H   0  0  0  0  0  0  0  0  0  0  0  0  # atno 7974 bound_to 7965
  156.1540  140.3154  155.8695 H   0  0  0  0  0  0  0  0  0  0  0  0  # atno 8008 bound_to 7997
  155.3915  140.0494  157.3057 H   0  0  0  0  0  0  0  0  0  0  0  0  # atno 8009 bound_to 7997
  154.5084  140.2155  155.9216 H   0  0  0  0  0  0  0  0  0  0  0  0  # atno 8010 bound_to 7997
  139.4821  144.5041  151.8125 H   0  0  0  0  0  0  0  0  0  0  0  0  # atno 10167 bound_to 10162
  156.8755  130.5635  149.5655 H   0  0  0  0  0  0  0  0  0  0  0  0  # atno 10718 bound_to 10713
  153.2661  135.4215  155.0942 H   0  0  0  0  0  0  0  0  0  0  0  0  # atno 10763 bound_to 10752
  154.8439  135.3461  154.6309 H   0  0  0  0  0  0  0  0  0  0  0  0  # atno 10764 bound_to 10752
  153.6729  135.7043  153.5199 H   0  0  0  0  0  0  0  0  0  0  0  0  # atno 10765 bound_to 10752
  140.0810  134.9097  157.1501 H   0  0  0  0  0  0  0  0  0  0  0  0  # atno 11005 bound_to 11000
  146.2946  140.4189  142.8726 LP  0  0  0  0  0  0  0  0  0  0  0  0  # atno 17320 bound_to 7965
  144.8679  140.7232  143.6065 LP  0  0  0  0  0  0  0  0  0  0  0  0  # atno 17321 bound_to 7965
  140.4537  144.1820  150.5899 LP  0  0  0  0  0  0  0  0  0  0  0  0  # atno 17342 bound_to 10162
  140.4558  143.2468  151.9286 LP  0  0  0  0  0  0  0  0  0  0  0  0  # atno 17343 bound_to 10162
  156.0704  130.5738  150.9372 LP  0  0  0  0  0  0  0  0  0  0  0  0  # atno 17370 bound_to 10713
  157.6171  131.0932  150.8691 LP  0  0  0  0  0  0  0  0  0  0  0  0  # atno 17371 bound_to 10713
  140.3487  134.2622  155.7201 LP  0  0  0  0  0  0  0  0  0  0  0  0  # atno 17394 bound_to 11000
  141.2047  133.7880  157.0275 LP  0  0  0  0  0  0  0  0  0  0  0  0  # atno 17395 bound_to 11000

$$$$
