AV-unprocessed.smi:581|AV-procd|sdf|2994|dock6
  -GOLD-   2262023503D 1   1.00000     0.00000
 Structure written by MMmdl.
 34 35  0  0  0  0  0  0  0  0  3 V2000
  148.5709  141.1693  155.0223 C   0  0  0  0  0  0  0  0  0  0  0  0
  149.8378  140.9844  155.8388 C   0  0  0  0  0  0  0  0  0  0  0  0
  150.0463  141.9182  156.8650 N   0  0  0  0  0  0  0  0  0  0  0  0
  151.1011  141.8361  157.6191 C   0  0  0  0  0  0  0  0  0  0  0  0
  151.3446  142.7434  158.6542 N   0  0  0  0  0  0  0  0  0  0  0  0
  150.7002  144.0589  158.6755 C   0  0  0  0  0  0  0  0  0  0  0  0
  150.6384  144.6280  160.1026 C   0  0  0  0  0  0  0  0  0  0  0  0
  151.9461  144.6737  160.6576 O   0  0  0  0  0  0  0  0  0  0  0  0
  152.5145  143.3742  160.7462 C   0  0  0  0  0  0  0  0  0  0  0  0
  152.6369  142.7632  159.3403 C   0  0  0  0  0  0  0  0  0  0  0  0
  152.0626  140.8530  157.4469 N   0  5  0  0  0  0  0  0  0  0  0  0
  151.9221  139.9079  156.4741 C   0  0  0  0  0  0  0  0  0  0  0  0
  152.7542  139.0170  156.3075 O   0  0  0  0  0  0  0  0  0  0  0  0
  150.7283  139.9777  155.6131 C   0  0  0  0  0  0  0  0  0  0  0  0
  150.5573  138.9409  154.5037 C   0  0  0  0  0  0  0  0  0  0  0  0
  149.8969  137.6470  155.0133 C   0  0  0  0  0  0  0  0  0  0  0  0
  150.8027  136.9392  156.0210 C   0  0  0  0  0  0  0  0  0  0  0  0
  151.3863  135.9018  155.6373 O   0  0  0  0  0  0  0  0  0  0  0  0
  150.8958  137.4468  157.1604 O   0  5  0  0  0  0  0  0  0  0  0  0
  148.0054  140.2384  154.9725 H   0  0  0  0  0  0  0  0  0  0  0  0
  148.8164  141.4826  154.0073 H   0  0  0  0  0  0  0  0  0  0  0  0
  147.9246  141.9290  155.4633 H   0  0  0  0  0  0  0  0  0  0  0  0
  151.2674  144.7327  158.0323 H   0  0  0  0  0  0  0  0  0  0  0  0
  149.6894  144.0196  158.2686 H   0  0  0  0  0  0  0  0  0  0  0  0
  150.2259  145.6369  160.0858 H   0  0  0  0  0  0  0  0  0  0  0  0
  149.9817  144.0260  160.7327 H   0  0  0  0  0  0  0  0  0  0  0  0
  153.4985  143.4489  161.2089 H   0  0  0  0  0  0  0  0  0  0  0  0
  151.9056  142.7403  161.3930 H   0  0  0  0  0  0  0  0  0  0  0  0
  153.0386  141.7525  159.4271 H   0  0  0  0  0  0  0  0  0  0  0  0
  153.3459  143.3379  158.7428 H   0  0  0  0  0  0  0  0  0  0  0  0
  149.9634  139.3613  153.6921 H   0  0  0  0  0  0  0  0  0  0  0  0
  151.5282  138.7205  154.0571 H   0  0  0  0  0  0  0  0  0  0  0  0
  148.9385  137.8681  155.4847 H   0  0  0  0  0  0  0  0  0  0  0  0
  149.6890  136.9735  154.1808 H   0  0  0  0  0  0  0  0  0  0  0  0
  1  2  1  0  0  0  0
  1 20  1  0  0  0  0
  1 21  1  0  0  0  0
  1 22  1  0  0  0  0
  2 14  2  0  0  0  0
  2  3  1  0  0  0  0
  3  4  2  0  0  0  0
  4  5  1  0  0  0  0
  4 11  1  0  0  0  0
  5 10  1  0  0  0  0
  5  6  1  0  0  0  0
  6  7  1  0  0  0  0
  6 23  1  0  0  0  0
  6 24  1  0  0  0  0
  7  8  1  0  0  0  0
  7 25  1  0  0  0  0
  7 26  1  0  0  0  0
  8  9  1  0  0  0  0
  9 10  1  0  0  0  0
  9 27  1  0  0  0  0
  9 28  1  0  0  0  0
 10 29  1  0  0  0  0
 10 30  1  0  0  0  0
 11 12  1  0  0  0  0
 12 13  2  0  0  0  0
 12 14  1  0  0  0  0
 14 15  1  0  0  0  0
 15 16  1  0  0  0  0
 15 31  1  0  0  0  0
 15 32  1  0  0  0  0
 16 17  1  0  0  0  0
 16 33  1  0  0  0  0
 16 34  1  0  0  0  0
 17 18  2  0  0  0  0
 17 19  1  0  0  0  0
M  CHG  1  11  -1
M  CHG  1  19  -1
M  END
> <s_m_source_file>
AV-unprocessed.smi

> <i_m_source_file_index>
581

> <i_lp_mmshare_version>
43012

> <i_f3d_flags>
0

> <s_epik_input>
W0NIMl0xW0NIMl1PW0NIMl1bQ0gyXU4xYyhuYzJbQ0gzXSlbbkhdYyg9TyljMltDSDJdW0NIMl1DKD1PKVtPSF0=

> <s_epik_cmdline>
J2VwaWtfcHl0aG9uJywgJy1waCcsICc3LjAnLCAnLXRuJywgJzgnLCAnLW1hJywgJzIwMCcsICctbWV0YWxfYmluZGluZycsICctaW1hZScsICc8aW5maWxlLm1hZT4nLCAnLW9tYWUnLCAnPG91dGZpbGUubWFlPic=

> <r_lp_tautomer_probability>
0.878553

> <r_epik_Ionization_Penalty>
5.42566

> <r_epik_Ionization_Penalty_Charging>
0.003235

> <r_epik_Ionization_Penalty_Neutral>
5.42243

> <r_epik_State_Penalty>
3.98511

> <r_epik_Charging_Adjusted_Penalty>
3.98834

> <i_epik_Tot_Q>
-2

> <i_epik_Tot_abs_Q>
2

> <r_epik_Metal_State_Penalty>
0.64219

> <b_epik_Metal_Only>
1

> <s_lp_Force_Field>
OPLS_2005

> <r_lp_Energy>
30.9787

> <b_lp_Chiralities_Consistent>
1

> <s_lp_Variant>
AV-unprocessed.smi:581-4

> <Gold.Version>
5.8.1

> <Gold.Id.Protein>
6NUR|6NUR_protein|mol2

> <Gold.PLP.Fitness>
43.9356

> <Gold.PLP.PLP>
-37.0497

> <Gold.PLP.part.hbond>
-2.2200

> <Gold.PLP.part.metal>
0.0000

> <Gold.PLP.part.buried>
-3.2962

> <Gold.PLP.part.nonpolar>
-31.0363

> <Gold.PLP.part.repulsive>
0.3253

> <Gold.PLP.ligand.clash>
0.0000

> <Gold.PLP.ligand.torsion>
0.6304

> <Gold.PLP.Chemscore.Hbond>
2.6448

> <Gold.PLP.Chemscore.CHOScore>
0.0000

> <Gold.PLP.Chemscore.Metal>
0.0000

> <Gold.Chemscore.Hbonds>
donor molecule, donor type, donor heavy atom, donor atom, acceptor molecule, acceptor atom, score
      P1  H  7997  8009       L1    13  0.89
      P1  H 10752 10765       L1    18  2.00

> <Gold.PLP.Chemscore.Internal.Correction>
0.2123

> <Gold.Rescore>
     Score         DG    S(hbond)    S(metal)    S(lipo)     H(rot)  DE(clash)    DE(int)     intcor
     12.62     -13.64       1.09        0.00      79.44       1.86       0.18       0.84       ----

> <Gold.Chemscore.Fitness>
12.6246

> <Gold.Chemscore.DG>
-13.6431

> <Gold.Chemscore.ZeroCoef>
-5.4800

> <Gold.Chemscore.Hbond>
1.0890

> <Gold.Chemscore.Metal>
0.0000

> <Gold.Chemscore.Lipo>
79.4449

> <Gold.Chemscore.Internal_Hbond>
0.0000

> <Gold.Chemscore.DEClash>
0.1816

> <Gold.Chemscore.DEInternal>
0.8369

> <Gold.Chemscore.Rot>
1.8630

> <Gold.Chemscore.Internal.Correction>
   9.000000E+99

> <Gold.Chemscore.Hbonds>
donor molecule, donor type, donor heavy atom, donor atom, acceptor molecule, acceptor atom, score
      P1  H  7997  8009       L1    13  0.21
      P1  H 10752 10765       L1    18  1.00

> <Gold.Chemscore.Hbond.Weighted>
-3.6374

> <Gold.Chemscore.Metal.Weighted>
-0.0000

> <Gold.Chemscore.Lipo.Weighted>
-9.2951

> <Gold.Chemscore.Internal_Hbond.Weighted>
0.0000

> <Gold.Chemscore.DEClash.Weighted>
0.1816

> <Gold.Chemscore.DEInternal.Weighted>
0.8369

> <Gold.Chemscore.Rot.Weighted>
4.7694

> <Gold.Chemscore.Internal.Correction.Weighted>
   9.000000E+99

> <Gold.Protein.RotatedTorsions>
[ 6907 6896 6895 6894 ] final  -84.42 input  -60.11 | X-H torsion
[ 7974 7965 7964 7962 ] final  147.98 input  175.53 | X-H torsion
[ 8008 7997 7996 7995 ] final  169.01 input   59.86 | X-H torsion
[ 10167 10162 10161 10158 ] final  179.81 input  -65.29 | X-H torsion
[ 10718 10713 10712 10709 ] final  -99.79 input   66.30 | X-H torsion
[ 10763 10752 10751 10750 ] final -167.41 input  -60.55 | X-H torsion
[ 11005 11000 10999 10996 ] final  -49.74 input  -57.11 | X-H torsion

> <Gold.Protein.ActiveResidues>
 VAL166  LYS551  ARG553  GLY616  TRP617  ASP618  TYR619  PRO620  LYS621  CYS622 
 ASP623  PHE694  ASN695  SER759  ASP760  ASP761  ALA762  ILE779  LEU786  VAL792 
 PHE793  MET794  SER795  GLU796  ALA797  LYS798  CYS799  TRP800  GLU811  SER814 

> <Gold.Protein.RotatedAtoms>
  150.6877  134.3361  159.4847 H   0  0  0  0  0  0  0  0  0  0  0  0  # atno 6907 bound_to 6896
  152.1220  134.9196  160.0572 H   0  0  0  0  0  0  0  0  0  0  0  0  # atno 6908 bound_to 6896
  152.0398  133.3938  159.4369 H   0  0  0  0  0  0  0  0  0  0  0  0  # atno 6909 bound_to 6896
  144.8549  139.6096  143.5957 H   0  0  0  0  0  0  0  0  0  0  0  0  # atno 7974 bound_to 7965
  156.1496  140.1575  156.8792 H   0  0  0  0  0  0  0  0  0  0  0  0  # atno 8008 bound_to 7997
  154.5059  140.0813  156.7930 H   0  0  0  0  0  0  0  0  0  0  0  0  # atno 8009 bound_to 7997
  155.3922  140.3410  155.4254 H   0  0  0  0  0  0  0  0  0  0  0  0  # atno 8010 bound_to 7997
  139.5353  144.2517  152.0779 H   0  0  0  0  0  0  0  0  0  0  0  0  # atno 10167 bound_to 10162
  156.0144  130.5298  150.6722 H   0  0  0  0  0  0  0  0  0  0  0  0  # atno 10718 bound_to 10713
  154.6734  135.2943  154.9711 H   0  0  0  0  0  0  0  0  0  0  0  0  # atno 10763 bound_to 10752
  154.0730  135.6615  153.4831 H   0  0  0  0  0  0  0  0  0  0  0  0  # atno 10764 bound_to 10752
  153.0501  135.5179  154.7742 H   0  0  0  0  0  0  0  0  0  0  0  0  # atno 10765 bound_to 10752
  141.0776  133.6661  156.3629 H   0  0  0  0  0  0  0  0  0  0  0  0  # atno 11005 bound_to 11000
  146.2815  139.6890  142.9226 LP  0  0  0  0  0  0  0  0  0  0  0  0  # atno 17320 bound_to 7965
  145.4426  141.0423  143.2849 LP  0  0  0  0  0  0  0  0  0  0  0  0  # atno 17321 bound_to 7965
  140.1986  144.4680  150.6443 LP  0  0  0  0  0  0  0  0  0  0  0  0  # atno 17342 bound_to 10162
  140.6555  143.2236  151.5978 LP  0  0  0  0  0  0  0  0  0  0  0  0  # atno 17343 bound_to 10162
  157.4442  131.0865  151.0912 LP  0  0  0  0  0  0  0  0  0  0  0  0  # atno 17370 bound_to 10713
  157.1447  130.6158  149.5565 LP  0  0  0  0  0  0  0  0  0  0  0  0  # atno 17371 bound_to 10713
  140.5539  134.6000  157.5415 LP  0  0  0  0  0  0  0  0  0  0  0  0  # atno 17394 bound_to 11000
  139.9589  134.7487  156.0281 LP  0  0  0  0  0  0  0  0  0  0  0  0  # atno 17395 bound_to 11000

$$$$
