#       Name:                AV-unprocessed.smi:1770
#       Creating user name   scv26
#       Creation time:       Fri Mar 27 08:39:47 2020


#       File generated by GOLD software.
#

@<TRIPOS>MOLECULE
AV-unprocessed.smi:1770
    43    44     1
SMALL
NO_CHARGES


@<TRIPOS>ATOM
      1 ****        -4.0530  -0.1371   1.6110 C.3            1 S1                 0.0000
      2 ****        -2.6506  -0.3356   1.6032 O.3            1 S1                 0.0000
      3 ****        -2.2564  -1.4650   2.3696 C.3            1 S1                 0.0000
      4 ****        -0.7364  -1.6095   2.3022 C.2            1 S1                 0.0000
      5 ****        -0.1081  -1.9133   3.3154 O.2            1 S1                 0.0000
      6 ****        -0.1804  -1.3873   1.0982 N.am           1 S1                 0.0000
      7 ****         1.2005  -1.3617   0.7581 C.ar           1 S1                 0.0000
      8 ****         2.1445  -2.2211   1.3746 C.ar           1 S1                 0.0000
      9 ****         3.4912  -2.1885   0.9631 C.ar           1 S1                 0.0000
     10 ****         3.8707  -1.3071  -0.0656 C.ar           1 S1                 0.0000
     11 ****         2.9451  -0.5110  -0.6412 N.pl3          1 S1                 1.0000
     12 ****         1.6378  -0.4969  -0.2814 C.ar           1 S1                 0.0000
     13 ****         0.7643   0.3898  -0.9422 N.3            1 S1                 0.0000
     14 ****         1.0673   0.7118  -2.3362 C.3            1 S1                 0.0000
     15 ****        -0.1436   1.3758  -3.0147 C.3            1 S1                 0.0000
     16 ****        -0.6238   2.5980  -2.2150 C.3            1 S1                 0.0000
     17 ****        -0.8934   2.2086  -0.7522 C.3            1 S1                 0.0000
     18 ****         0.3367   1.5276  -0.1291 C.3            1 S1                 0.0000
     19 ****        -4.3018   0.7373   1.0095 H              1 S1                 0.0000
     20 ****        -4.4213   0.0340   2.6235 H              1 S1                 0.0000
     21 ****        -4.5752  -0.9967   1.1886 H              1 S1                 0.0000
     22 ****        -2.5698  -1.3462   3.4084 H              1 S1                 0.0000
     23 ****        -2.7190  -2.3735   1.9807 H              1 S1                 0.0000
     24 ****        -0.8137  -1.0691   0.3786 H              1 S1                 0.0000
     25 ****         1.8524  -2.9186   2.1449 H              1 S1                 0.0000
     26 ****         4.2205  -2.8378   1.4251 H              1 S1                 0.0000
     27 ****         4.8781  -1.2175  -0.4457 H              1 S1                 0.0000
     28 ****         1.9269   1.3826  -2.3740 H              1 S1                 0.0000
     29 ****         1.3403  -0.1951  -2.8773 H              1 S1                 0.0000
     30 ****         0.1131   1.6707  -4.0326 H              1 S1                 0.0000
     31 ****        -0.9563   0.6529  -3.0971 H              1 S1                 0.0000
     32 ****         0.1347   3.3811  -2.2522 H              1 S1                 0.0000
     33 ****        -1.5246   3.0142  -2.6670 H              1 S1                 0.0000
     34 ****        -1.1644   3.0917  -0.1729 H              1 S1                 0.0000
     35 ****        -1.7480   1.5321  -0.7032 H              1 S1                 0.0000
     36 ****         0.1075   1.2213   0.8914 H              1 S1                 0.0000
     37 ****         1.1608   2.2392  -0.0622 H              1 S1                 0.0000
     38 ****         3.2482   0.1187  -1.3844 H              1 S1                 0.0000
     39 ****        -2.2095   0.4783   1.9813 LP             1 S1                 0.0000
     40 ****        -2.3509  -0.4687   0.6585 LP             1 S1                 0.0000
     41 ****        -0.5921  -2.0643   4.1774 LP             1 S1                 0.0000
     42 ****         0.8865  -2.0092   3.2770 LP             1 S1                 0.0000
     43 ****        -0.0537  -0.1748  -1.0519 LP             1 S1                 0.0000
@<TRIPOS>BOND
    1    1    2 1     
    2    1   19 1     
    3    1   20 1     
    4    1   21 1     
    5    2    3 1     
    6    3    4 1     
    7    3   22 1     
    8    3   23 1     
    9    4    5 2     
   10    4    6 am    
   11    6    7 1     
   12    6   24 1     
   13    7   12 ar    
   14    7    8 ar    
   15    8    9 ar    
   16    8   25 1     
   17    9   10 ar    
   18    9   26 1     
   19   10   11 ar    
   20   10   27 1     
   21   11   12 ar    
   22   11   38 1     
   23   12   13 1     
   24   13   18 1     
   25   13   14 1     
   26   14   15 1     
   27   14   28 1     
   28   14   29 1     
   29   15   16 1     
   30   15   30 1     
   31   15   31 1     
   32   16   17 1     
   33   16   32 1     
   34   16   33 1     
   35   17   18 1     
   36   17   34 1     
   37   17   35 1     
   38   18   36 1     
   39   18   37 1     
   40    2   39 1     
   41    2   40 1     
   42    5   41 1     
   43    5   42 1     
   44   13   43 1     
@<TRIPOS>SUBSTRUCTURE
      1 S1             1
@<TRIPOS>SET
LONE_PAIRS      STATIC     ATOMS    <user>   **** ""
5 39 40 41 42 43
DONOR_HYDROGENS      STATIC     ATOMS    <user>   **** ""
2 24 38
ATOM$BLUE        STATIC     ATOMS    COLORGROUP SYSTEM
5 39 40 41 42 43
ATOM$RED        STATIC     ATOMS    COLORGROUP SYSTEM
2 24 38
