AV-unprocessed.smi:1180|AV-procd|sdf|4960|dock10
  -GOLD-   22720 3553D 1   1.00000     0.00000
 Structure written by MMmdl.
 38 39  0  0  0  0  0  0  0  0  1 V2000
  145.7649  137.5758  153.0658 C   0  0  0  0  0  0  0  0  0  0  0  0
  146.6767  138.7484  153.3587 C   0  0  0  0  0  0  0  0  0  0  0  0
  146.2617  139.9620  153.5172 N   0  0  0  0  0  0  0  0  0  0  0  0
  147.2019  140.9662  153.7870 C   0  0  0  0  0  0  0  0  0  0  0  0
  146.6354  142.3640  153.9656 C   0  0  0  0  0  0  0  0  0  0  0  0
  148.5359  140.6909  153.8812 C   0  0  0  0  0  0  0  0  0  0  0  0
  149.5876  141.7596  154.1787 C   0  0  0  0  0  0  0  0  0  0  0  0
  150.4622  141.5269  155.4140 C   0  0  0  0  0  0  0  0  0  0  0  0
  151.1363  140.5023  155.5248 O   0  0  0  0  0  0  0  0  0  0  0  0
  150.4413  142.4975  156.3394 N   0  0  0  0  0  0  0  0  0  0  0  0
  151.2027  142.4861  157.5835 C   0  0  0  0  0  0  0  0  0  0  0  0
  151.4097  143.9039  158.1505 C   0  0  2  0  0  0  0  0  0  0  0  0
  152.3776  143.9653  159.3264 C   0  0  0  0  0  0  0  0  0  0  0  0
  151.7644  145.0038  160.2721 C   0  0  0  0  0  0  0  0  0  0  0  0
  150.6710  145.5671  159.5608 O   0  0  0  0  0  0  0  0  0  0  0  0
  150.1492  144.5554  158.7171 C   0  0  0  0  0  0  0  0  0  0  0  0
  148.9987  139.3015  153.7002 C   0  0  0  0  0  0  0  0  0  0  0  0
  150.1733  138.9429  153.7729 O   0  0  0  0  0  0  0  0  0  0  0  0
  148.0239  138.4004  153.4443 N   0  0  0  0  0  0  0  0  0  0  0  0
  148.2896  137.4352  153.3141 H   0  0  0  0  0  0  0  0  0  0  0  0
  145.0499  137.4455  153.8786 H   0  0  0  0  0  0  0  0  0  0  0  0
  146.3259  136.6473  152.9521 H   0  0  0  0  0  0  0  0  0  0  0  0
  145.2087  137.7537  152.1451 H   0  0  0  0  0  0  0  0  0  0  0  0
  146.9915  143.0242  153.1749 H   0  0  0  0  0  0  0  0  0  0  0  0
  146.9339  142.7806  154.9278 H   0  0  0  0  0  0  0  0  0  0  0  0
  145.5452  142.3574  153.9298 H   0  0  0  0  0  0  0  0  0  0  0  0
  150.2371  141.8956  153.3128 H   0  0  0  0  0  0  0  0  0  0  0  0
  149.0883  142.7204  154.3036 H   0  0  0  0  0  0  0  0  0  0  0  0
  149.8599  143.3050  156.1671 H   0  0  0  0  0  0  0  0  0  0  0  0
  150.6614  141.8707  158.3027 H   0  0  0  0  0  0  0  0  0  0  0  0
  152.1660  141.9984  157.4248 H   0  0  0  0  0  0  0  0  0  0  0  0
  151.7990  144.5551  157.3660 H   0  0  0  0  0  0  0  0  0  0  0  0
  152.4659  143.0031  159.8327 H   0  0  0  0  0  0  0  0  0  0  0  0
  153.3743  144.2584  158.9947 H   0  0  0  0  0  0  0  0  0  0  0  0
  151.3929  144.5232  161.1783 H   0  0  0  0  0  0  0  0  0  0  0  0
  152.4772  145.7751  160.5644 H   0  0  0  0  0  0  0  0  0  0  0  0
  149.5052  144.9734  157.9428 H   0  0  0  0  0  0  0  0  0  0  0  0
  149.5656  143.8485  159.3093 H   0  0  0  0  0  0  0  0  0  0  0  0
  1  2  1  0  0  0  0
  1 21  1  0  0  0  0
  1 22  1  0  0  0  0
  1 23  1  0  0  0  0
  2 19  1  0  0  0  0
  2  3  2  0  0  0  0
  3  4  1  0  0  0  0
  4  5  1  0  0  0  0
  4  6  2  0  0  0  0
  5 24  1  0  0  0  0
  5 25  1  0  0  0  0
  5 26  1  0  0  0  0
  6  7  1  0  0  0  0
  6 17  1  0  0  0  0
  7  8  1  0  0  0  0
  7 27  1  0  0  0  0
  7 28  1  0  0  0  0
  8  9  2  0  0  0  0
  8 10  1  0  0  0  0
 10 11  1  0  0  0  0
 10 29  1  0  0  0  0
 11 12  1  0  0  0  0
 11 30  1  0  0  0  0
 11 31  1  0  0  0  0
 12 16  1  0  0  0  0
 12 13  1  0  0  0  0
 12 32  1  0  0  0  0
 13 14  1  0  0  0  0
 13 33  1  0  0  0  0
 13 34  1  0  0  0  0
 14 15  1  0  0  0  0
 14 35  1  0  0  0  0
 14 36  1  0  0  0  0
 15 16  1  0  0  0  0
 16 37  1  0  0  0  0
 16 38  1  0  0  0  0
 17 18  2  0  0  0  0
 17 19  1  0  0  0  0
 19 20  1  0  0  0  0
M  END
> <s_m_source_file>
AV-unprocessed.smi

> <i_m_source_file_index>
1180

> <i_lp_mmshare_version>
43012

> <i_f3d_flags>
0

> <s_epik_input>
W0NIM11jMW5jKFtDSDNdKWMoYyg9TylbbkhdMSlbQ0gyXUMoPU8pW05IXVtDSDJdW0NAQEhdMltDSDJdW0NIMl1PW0NIMl0y

> <s_epik_cmdline>
J2VwaWtfcHl0aG9uJywgJy1waCcsICc3LjAnLCAnLXRuJywgJzgnLCAnLW1hJywgJzIwMCcsICctbWV0YWxfYmluZGluZycsICctaW1hZScsICc8aW5maWxlLm1hZT4nLCAnLW9tYWUnLCAnPG91dGZpbGUubWFlPic=

> <r_lp_tautomer_probability>
0.839158

> <r_epik_Ionization_Penalty>
0.000395459

> <r_epik_Ionization_Penalty_Charging>
0.000363703

> <r_epik_Ionization_Penalty_Neutral>
3.17556e-05

> <r_epik_State_Penalty>
0.0471244

> <r_epik_Charging_Adjusted_Penalty>
0.0474881

> <i_epik_Tot_Q>
0

> <i_epik_Tot_abs_Q>
0

> <r_epik_Metal_State_Penalty>
0.225307

> <b_epik_Metal_Only>
0

> <s_lp_Force_Field>
OPLS_2005

> <r_lp_Energy>
20.5307

> <b_lp_Chiralities_Consistent>
1

> <s_lp_Variant>
AV-unprocessed.smi:1180-1

> <Gold.Version>
5.8.1

> <Gold.Id.Protein>
6NUR|6NUR_protein|mol2

> <Gold.PLP.Fitness>
39.7894

> <Gold.PLP.PLP>
-33.3994

> <Gold.PLP.part.hbond>
-3.4603

> <Gold.PLP.part.metal>
0.0000

> <Gold.PLP.part.buried>
-3.2618

> <Gold.PLP.part.nonpolar>
-27.2505

> <Gold.PLP.part.repulsive>
1.7029

> <Gold.PLP.ligand.clash>
0.0000

> <Gold.PLP.ligand.torsion>
0.2229

> <Gold.PLP.Chemscore.Hbond>
2.2764

> <Gold.PLP.Chemscore.CHOScore>
0.0000

> <Gold.PLP.Chemscore.Metal>
0.0000

> <Gold.Chemscore.Hbonds>
donor molecule, donor type, donor heavy atom, donor atom, acceptor molecule, acceptor atom, score
      L1  H    10    29       P1  8028  1.00
      L1  H    19    20       P1  7948  0.77
      P1  H  7989  7998       L1     9  0.15

> <Gold.PLP.Chemscore.Internal.Correction>
0.0066

> <Gold.Rescore>
     Score         DG    S(hbond)    S(metal)    S(lipo)     H(rot)  DE(clash)    DE(int)     intcor
     13.12     -15.31       1.60        0.00      77.88       1.81       0.36       1.82       ----

> <Gold.Chemscore.Fitness>
13.1242

> <Gold.Chemscore.DG>
-15.3051

> <Gold.Chemscore.ZeroCoef>
-5.4800

> <Gold.Chemscore.Hbond>
1.5983

> <Gold.Chemscore.Metal>
0.0000

> <Gold.Chemscore.Lipo>
77.8754

> <Gold.Chemscore.Internal_Hbond>
0.0000

> <Gold.Chemscore.DEClash>
0.3625

> <Gold.Chemscore.DEInternal>
1.8183

> <Gold.Chemscore.Rot>
1.8065

> <Gold.Chemscore.Internal.Correction>
   9.000000E+99

> <Gold.Chemscore.Hbonds>
donor molecule, donor type, donor heavy atom, donor atom, acceptor molecule, acceptor atom, score
      L1  H    10    29       P1  8028  1.00
      L1  H    19    20       P1  7948  0.75
      P1  H  7989  7998       L1    18  0.06

> <Gold.Chemscore.Hbond.Weighted>
-5.3382

> <Gold.Chemscore.Metal.Weighted>
-0.0000

> <Gold.Chemscore.Lipo.Weighted>
-9.1114

> <Gold.Chemscore.Internal_Hbond.Weighted>
0.0000

> <Gold.Chemscore.DEClash.Weighted>
0.3625

> <Gold.Chemscore.DEInternal.Weighted>
1.8183

> <Gold.Chemscore.Rot.Weighted>
4.6246

> <Gold.Chemscore.Internal.Correction.Weighted>
   9.000000E+99

> <Gold.Protein.RotatedTorsions>
[ 6907 6896 6895 6894 ] final -176.25 input  -60.11 | X-H torsion
[ 7974 7965 7964 7962 ] final   68.56 input  175.53 | X-H torsion
[ 8008 7997 7996 7995 ] final  -90.82 input   59.86 | X-H torsion
[ 10167 10162 10161 10158 ] final   53.51 input  -65.29 | X-H torsion
[ 10718 10713 10712 10709 ] final  -65.06 input   66.30 | X-H torsion
[ 10763 10752 10751 10750 ] final -141.56 input  -60.55 | X-H torsion
[ 11005 11000 10999 10996 ] final -149.97 input  -57.11 | X-H torsion

> <Gold.Protein.ActiveResidues>
 VAL166  LYS551  ARG553  GLY616  TRP617  ASP618  TYR619  PRO620  LYS621  CYS622 
 ASP623  PHE694  ASN695  SER759  ASP760  ASP761  ALA762  ILE779  LEU786  VAL792 
 PHE793  MET794  SER795  GLU796  ALA797  LYS798  CYS799  TRP800  GLU811  SER814 

> <Gold.Protein.RotatedAtoms>
  151.6018  133.3355  159.3048 H   0  0  0  0  0  0  0  0  0  0  0  0  # atno 6907 bound_to 6896
  150.8204  134.7411  159.6778 H   0  0  0  0  0  0  0  0  0  0  0  0  # atno 6908 bound_to 6896
  152.4297  134.5806  159.9998 H   0  0  0  0  0  0  0  0  0  0  0  0  # atno 6909 bound_to 6896
  145.8010  139.2982  143.1154 H   0  0  0  0  0  0  0  0  0  0  0  0  # atno 7974 bound_to 7965
  154.7032  140.0526  157.0478 H   0  0  0  0  0  0  0  0  0  0  0  0  # atno 8008 bound_to 7997
  155.0656  140.3194  155.4627 H   0  0  0  0  0  0  0  0  0  0  0  0  # atno 8009 bound_to 7997
  156.2766  140.2091  156.5784 H   0  0  0  0  0  0  0  0  0  0  0  0  # atno 8010 bound_to 7997
  140.2400  144.3594  150.6383 H   0  0  0  0  0  0  0  0  0  0  0  0  # atno 10167 bound_to 10162
  156.0692  130.4242  150.1510 H   0  0  0  0  0  0  0  0  0  0  0  0  # atno 10718 bound_to 10713
  154.8541  135.3521  154.5887 H   0  0  0  0  0  0  0  0  0  0  0  0  # atno 10763 bound_to 10752
  153.6497  135.6994  153.5218 H   0  0  0  0  0  0  0  0  0  0  0  0  # atno 10764 bound_to 10752
  153.2904  135.4236  155.1120 H   0  0  0  0  0  0  0  0  0  0  0  0  # atno 10765 bound_to 10752
  140.7452  134.3469  157.5139 H   0  0  0  0  0  0  0  0  0  0  0  0  # atno 11005 bound_to 11000
  145.9877  140.8629  143.0082 LP  0  0  0  0  0  0  0  0  0  0  0  0  # atno 17320 bound_to 7965
  144.6769  140.2171  143.7370 LP  0  0  0  0  0  0  0  0  0  0  0  0  # atno 17321 bound_to 7965
  140.6121  143.2170  151.6866 LP  0  0  0  0  0  0  0  0  0  0  0  0  # atno 17342 bound_to 10162
  139.5080  144.3625  152.0549 LP  0  0  0  0  0  0  0  0  0  0  0  0  # atno 17343 bound_to 10162
  156.9564  130.9791  151.3488 LP  0  0  0  0  0  0  0  0  0  0  0  0  # atno 17370 bound_to 10713
  157.5752  130.8338  149.8446 LP  0  0  0  0  0  0  0  0  0  0  0  0  # atno 17371 bound_to 10713
  139.8798  134.9106  156.3018 LP  0  0  0  0  0  0  0  0  0  0  0  0  # atno 17394 bound_to 11000
  140.9801  133.7273  156.0659 LP  0  0  0  0  0  0  0  0  0  0  0  0  # atno 17395 bound_to 11000

$$$$
