AV-unprocessed.smi:1767|AV-procd|sdf|7141|dock6
  -GOLD-   22720 8383D 1   1.00000     0.00000
 Structure written by MMmdl.
 33 35  0  0  0  0  0  0  0  0  2 V2000
  152.7736  139.5072  156.8851 O   0  0  0  0  0  0  0  0  0  0  0  0
  151.6336  140.2978  157.1513 C   0  0  2  0  0  0  0  0  0  0  0  0
  151.1967  140.9704  155.8339 C   0  0  0  0  0  0  0  0  0  0  0  0
  150.4065  140.0726  154.9791 N   0  0  0  0  0  0  0  0  0  0  0  0
  150.6699  138.7961  154.5881 C   0  0  0  0  0  0  0  0  0  0  0  0
  149.6291  138.3784  153.8160 N   0  3  0  0  0  0  0  0  0  0  0  0
  148.6866  139.4031  153.7096 C   0  0  0  0  0  0  0  0  0  0  0  0
  147.4680  139.4522  153.0395 C   0  0  0  0  0  0  0  0  0  0  0  0
  146.7408  140.6568  153.1354 C   0  0  0  0  0  0  0  0  0  0  0  0
  147.2310  141.7537  153.8731 C   0  0  0  0  0  0  0  0  0  0  0  0
  148.4688  141.6934  154.5459 C   0  0  0  0  0  0  0  0  0  0  0  0
  149.1814  140.4979  154.4499 C   0  0  0  0  0  0  0  0  0  0  0  0
  151.8752  141.3046  158.2683 C   0  0  0  0  0  0  0  0  0  0  0  0
  152.3697  140.8645  159.5151 C   0  0  0  0  0  0  0  0  0  0  0  0
  152.5657  141.7813  160.5659 C   0  0  0  0  0  0  0  0  0  0  0  0
  152.2706  143.1447  160.3757 C   0  0  0  0  0  0  0  0  0  0  0  0
  152.4546  144.0249  161.3877 F   0  0  0  0  0  0  0  0  0  0  0  0
  151.7814  143.5913  159.1332 C   0  0  0  0  0  0  0  0  0  0  0  0
  151.5837  142.6745  158.0824 C   0  0  0  0  0  0  0  0  0  0  0  0
  152.5425  138.8538  156.2422 H   0  0  0  0  0  0  0  0  0  0  0  0
  150.8512  139.6078  157.4708 H   0  0  0  0  0  0  0  0  0  0  0  0
  150.6417  141.8910  156.0158 H   0  0  0  0  0  0  0  0  0  0  0  0
  152.0766  141.2553  155.2549 H   0  0  0  0  0  0  0  0  0  0  0  0
  151.5439  138.2167  154.8493 H   0  0  0  0  0  0  0  0  0  0  0  0
  147.0898  138.6130  152.4742 H   0  0  0  0  0  0  0  0  0  0  0  0
  145.7878  140.7409  152.6333 H   0  0  0  0  0  0  0  0  0  0  0  0
  146.6453  142.6602  153.9253 H   0  0  0  0  0  0  0  0  0  0  0  0
  148.8300  142.5399  155.1104 H   0  0  0  0  0  0  0  0  0  0  0  0
  152.5900  139.8189  159.6736 H   0  0  0  0  0  0  0  0  0  0  0  0
  152.9400  141.4378  161.5191 H   0  0  0  0  0  0  0  0  0  0  0  0
  151.5542  144.6370  158.9869 H   0  0  0  0  0  0  0  0  0  0  0  0
  151.1974  143.0256  157.1368 H   0  0  0  0  0  0  0  0  0  0  0  0
  149.5684  137.4599  153.3950 H   0  0  0  0  0  0  0  0  0  0  0  0
  1  2  1  0  0  0  0
  1 20  1  0  0  0  0
  2  3  1  0  0  0  0
  2 13  1  0  0  0  0
  2 21  1  0  0  0  0
  3  4  1  0  0  0  0
  3 22  1  0  0  0  0
  3 23  1  0  0  0  0
  4 12  1  0  0  0  0
  4  5  1  0  0  0  0
  5  6  2  0  0  0  0
  5 24  1  0  0  0  0
  6  7  1  0  0  0  0
  6 33  1  0  0  0  0
  7 12  2  0  0  0  0
  7  8  1  0  0  0  0
  8  9  2  0  0  0  0
  8 25  1  0  0  0  0
  9 10  1  0  0  0  0
  9 26  1  0  0  0  0
 10 11  2  0  0  0  0
 10 27  1  0  0  0  0
 11 12  1  0  0  0  0
 11 28  1  0  0  0  0
 13 19  1  0  0  0  0
 13 14  2  0  0  0  0
 14 15  1  0  0  0  0
 14 29  1  0  0  0  0
 15 16  2  0  0  0  0
 15 30  1  0  0  0  0
 16 17  1  0  0  0  0
 16 18  1  0  0  0  0
 18 19  2  0  0  0  0
 18 31  1  0  0  0  0
 19 32  1  0  0  0  0
M  CHG  1   6   1
M  END
> <s_m_source_file>
AV-unprocessed.smi

> <i_m_source_file_index>
1767

> <i_lp_mmshare_version>
43012

> <i_f3d_flags>
0

> <s_epik_input>
W2NIXTFbY0hdYyhGKVtjSF1bY0hdYzFbQ0BIXShbT0hdKVtDSDJdbihbY0hdbjIpYyhjMjMpW2NIXVtjSF1bY0hdW2NIXTM=

> <s_epik_cmdline>
J2VwaWtfcHl0aG9uJywgJy1waCcsICc3LjAnLCAnLXRuJywgJzgnLCAnLW1hJywgJzIwMCcsICctbWV0YWxfYmluZGluZycsICctaW1hZScsICc8aW5maWxlLm1hZT4nLCAnLW9tYWUnLCAnPG91dGZpbGUubWFlPic=

> <r_epik_Ionization_Penalty>
1.3029

> <r_epik_Ionization_Penalty_Charging>
1.3029

> <r_epik_Ionization_Penalty_Neutral>
1.79538e-06

> <r_epik_State_Penalty>
1.377

> <r_epik_Charging_Adjusted_Penalty>
2.6799

> <i_epik_Tot_Q>
1

> <i_epik_Tot_abs_Q>
1

> <r_epik_Metal_State_Penalty>
5.40879

> <b_epik_Metal_Only>
0

> <s_lp_Force_Field>
OPLS_2005

> <r_lp_Energy>
17.7516

> <b_lp_Chiralities_Consistent>
1

> <s_lp_Variant>
AV-unprocessed.smi:1767-3

> <Gold.Version>
5.8.1

> <Gold.Id.Protein>
6NUR|6NUR_protein|mol2

> <Gold.PLP.Fitness>
51.8844

> <Gold.PLP.PLP>
-43.7129

> <Gold.PLP.part.hbond>
-2.6881

> <Gold.PLP.part.metal>
0.0000

> <Gold.PLP.part.buried>
2.8071

> <Gold.PLP.part.nonpolar>
-42.7379

> <Gold.PLP.part.repulsive>
0.0545

> <Gold.PLP.ligand.clash>
0.0000

> <Gold.PLP.ligand.torsion>
0.4217

> <Gold.PLP.Chemscore.Hbond>
3.0000

> <Gold.PLP.Chemscore.CHOScore>
0.0000

> <Gold.PLP.Chemscore.Metal>
0.0000

> <Gold.Chemscore.Hbonds>
donor molecule, donor type, donor heavy atom, donor atom, acceptor molecule, acceptor atom, score
      L1  H     6    33       P1  7948  2.00
      P1  H  7997  8010       L1     1  1.00

> <Gold.PLP.Chemscore.Internal.Correction>
0.0148

> <Gold.Rescore>
     Score         DG    S(hbond)    S(metal)    S(lipo)     H(rot)  DE(clash)    DE(int)     intcor
     18.18     -19.10       1.77        0.00     109.04       1.97       0.48       0.44       ----

> <Gold.Chemscore.Fitness>
18.1806

> <Gold.Chemscore.DG>
-19.1017

> <Gold.Chemscore.ZeroCoef>
-5.4800

> <Gold.Chemscore.Hbond>
1.7669

> <Gold.Chemscore.Metal>
0.0000

> <Gold.Chemscore.Lipo>
109.0390

> <Gold.Chemscore.Internal_Hbond>
0.0000

> <Gold.Chemscore.DEClash>
0.4844

> <Gold.Chemscore.DEInternal>
0.4367

> <Gold.Chemscore.Rot>
1.9677

> <Gold.Chemscore.Internal.Correction>
   9.000000E+99

> <Gold.Chemscore.Hbonds>
donor molecule, donor type, donor heavy atom, donor atom, acceptor molecule, acceptor atom, score
      L1  H     6    33       P1  7948  0.75
      P1  H  7997  8010       L1     1  0.85

> <Gold.Chemscore.Hbond.Weighted>
-5.9014

> <Gold.Chemscore.Metal.Weighted>
-0.0000

> <Gold.Chemscore.Lipo.Weighted>
-12.7576

> <Gold.Chemscore.Internal_Hbond.Weighted>
0.0000

> <Gold.Chemscore.DEClash.Weighted>
0.4844

> <Gold.Chemscore.DEInternal.Weighted>
0.4367

> <Gold.Chemscore.Rot.Weighted>
5.0372

> <Gold.Chemscore.Internal.Correction.Weighted>
   9.000000E+99

> <Gold.Protein.RotatedTorsions>
[ 6907 6896 6895 6894 ] final  -30.80 input  -60.11 | X-H torsion
[ 7974 7965 7964 7962 ] final  164.99 input  175.53 | X-H torsion
[ 8008 7997 7996 7995 ] final   52.14 input   59.86 | X-H torsion
[ 10167 10162 10161 10158 ] final   73.24 input  -65.29 | X-H torsion
[ 10718 10713 10712 10709 ] final -153.77 input   66.30 | X-H torsion
[ 10763 10752 10751 10750 ] final -179.37 input  -60.55 | X-H torsion
[ 11005 11000 10999 10996 ] final  150.33 input  -57.11 | X-H torsion

> <Gold.Protein.ActiveResidues>
 VAL166  LYS551  ARG553  GLY616  TRP617  ASP618  TYR619  PRO620  LYS621  CYS622 
 ASP623  PHE694  ASN695  SER759  ASP760  ASP761  ALA762  ILE779  LEU786  VAL792 
 PHE793  MET794  SER795  GLU796  ALA797  LYS798  CYS799  TRP800  GLU811  SER814 

> <Gold.Protein.RotatedAtoms>
  151.1006  134.9970  159.8446 H   0  0  0  0  0  0  0  0  0  0  0  0  # atno 6907 bound_to 6896
  152.5436  134.1954  159.8701 H   0  0  0  0  0  0  0  0  0  0  0  0  # atno 6908 bound_to 6896
  151.1997  133.4574  159.2629 H   0  0  0  0  0  0  0  0  0  0  0  0  # atno 6909 bound_to 6896
  144.7521  139.8406  143.6362 H   0  0  0  0  0  0  0  0  0  0  0  0  # atno 7974 bound_to 7965
  155.4469  140.3456  155.4296 H   0  0  0  0  0  0  0  0  0  0  0  0  # atno 8008 bound_to 7997
  156.1244  140.1496  156.9187 H   0  0  0  0  0  0  0  0  0  0  0  0  # atno 8009 bound_to 7997
  154.4847  140.0859  156.7439 H   0  0  0  0  0  0  0  0  0  0  0  0  # atno 8010 bound_to 7997
  140.0266  144.5498  150.7539 H   0  0  0  0  0  0  0  0  0  0  0  0  # atno 10167 bound_to 10162
  156.4903  130.8344  151.2567 H   0  0  0  0  0  0  0  0  0  0  0  0  # atno 10718 bound_to 10713
  154.5359  135.2803  155.1138 H   0  0  0  0  0  0  0  0  0  0  0  0  # atno 10763 bound_to 10752
  154.2640  135.6316  153.5289 H   0  0  0  0  0  0  0  0  0  0  0  0  # atno 10764 bound_to 10752
  152.9967  135.5612  154.5886 H   0  0  0  0  0  0  0  0  0  0  0  0  # atno 10765 bound_to 10752
  140.1122  134.8917  157.1952 H   0  0  0  0  0  0  0  0  0  0  0  0  # atno 11005 bound_to 11000
  146.1485  139.4561  143.0063 LP  0  0  0  0  0  0  0  0  0  0  0  0  # atno 17320 bound_to 7965
  145.6907  141.0165  143.1557 LP  0  0  0  0  0  0  0  0  0  0  0  0  # atno 17321 bound_to 7965
  140.7320  143.2700  151.3918 LP  0  0  0  0  0  0  0  0  0  0  0  0  # atno 17342 bound_to 10162
  139.6104  144.1111  152.2292 LP  0  0  0  0  0  0  0  0  0  0  0  0  # atno 17343 bound_to 10162
  157.7474  131.0016  150.2968 LP  0  0  0  0  0  0  0  0  0  0  0  0  # atno 17370 bound_to 10713
  156.3433  130.3819  149.7390 LP  0  0  0  0  0  0  0  0  0  0  0  0  # atno 17371 bound_to 10713
  140.3076  134.3060  155.7274 LP  0  0  0  0  0  0  0  0  0  0  0  0  # atno 17394 bound_to 11000
  141.2133  133.7630  156.9731 LP  0  0  0  0  0  0  0  0  0  0  0  0  # atno 17395 bound_to 11000

$$$$
