AV-unprocessed.smi:1816|AV-procd|sdf|7364|dock8
  -GOLD-   22720 9 23D 1   1.00000     0.00000
 Structure written by MMmdl.
 36 37  0  0  0  0  0  0  0  0  2 V2000
  146.1672  140.1226  154.3409 C   0  0  0  0  0  0  0  0  0  0  0  0
  147.4679  139.3277  154.0870 C   0  0  2  0  0  0  0  0  0  0  0  0
  148.6170  140.2765  153.6563 C   0  0  0  0  0  0  0  0  0  0  0  0
  148.9311  141.2860  154.6628 N   0  0  0  0  0  0  0  0  0  0  0  0
  150.0237  141.2787  155.4393 C   0  0  0  0  0  0  0  0  0  0  0  0
  150.8875  140.4037  155.3808 O   0  0  0  0  0  0  0  0  0  0  0  0
  150.0380  142.3332  156.2700 N   0  0  0  0  0  0  0  0  0  0  0  0
  151.0155  142.6583  157.2428 C   0  0  0  0  0  0  0  0  0  0  0  0
  151.3967  143.9301  157.3723 N   0  0  0  0  0  0  0  0  0  0  0  0
  152.3626  144.0894  158.3703 C   0  0  0  0  0  0  0  0  0  0  0  0
  152.7070  142.9175  158.9971 C   0  0  0  0  0  0  0  0  0  0  0  0
  151.8285  141.5551  158.3559 S   0  0  0  0  0  0  0  0  0  0  0  0
  147.2638  138.2582  153.0676 N   0  3  0  0  0  0  0  0  0  0  0  0
  146.2797  137.2100  153.4417 C   0  0  0  0  0  0  0  0  0  0  0  0
  145.5028  136.8385  152.1711 C   0  0  0  0  0  0  0  0  0  0  0  0
  146.2715  137.5040  151.0360 C   0  0  0  0  0  0  0  0  0  0  0  0
  146.8922  138.7205  151.7122 C   0  0  0  0  0  0  0  0  0  0  0  0
  146.3149  140.9104  155.0796 H   0  0  0  0  0  0  0  0  0  0  0  0
  145.3701  139.4896  154.7302 H   0  0  0  0  0  0  0  0  0  0  0  0
  145.8054  140.5926  153.4261 H   0  0  0  0  0  0  0  0  0  0  0  0
  147.7455  138.8373  155.0214 H   0  0  0  0  0  0  0  0  0  0  0  0
  149.5300  139.7239  153.4306 H   0  0  0  0  0  0  0  0  0  0  0  0
  148.3425  140.7955  152.7374 H   0  0  0  0  0  0  0  0  0  0  0  0
  148.2721  142.0432  154.7728 H   0  0  0  0  0  0  0  0  0  0  0  0
  149.2619  142.9751  156.2039 H   0  0  0  0  0  0  0  0  0  0  0  0
  152.7525  145.0767  158.5698 H   0  0  0  0  0  0  0  0  0  0  0  0
  153.4217  142.7741  159.7937 H   0  0  0  0  0  0  0  0  0  0  0  0
  146.8115  136.3487  153.8474 H   0  0  0  0  0  0  0  0  0  0  0  0
  145.5851  137.5617  154.2063 H   0  0  0  0  0  0  0  0  0  0  0  0
  145.4100  135.7606  152.0353 H   0  0  0  0  0  0  0  0  0  0  0  0
  144.4950  137.2532  152.2234 H   0  0  0  0  0  0  0  0  0  0  0  0
  147.0569  136.8370  150.6775 H   0  0  0  0  0  0  0  0  0  0  0  0
  145.6376  137.7660  150.1884 H   0  0  0  0  0  0  0  0  0  0  0  0
  146.1515  139.5188  151.7837 H   0  0  0  0  0  0  0  0  0  0  0  0
  147.7525  139.0987  151.1591 H   0  0  0  0  0  0  0  0  0  0  0  0
  148.1477  137.7818  152.9590 H   0  0  0  0  0  0  0  0  0  0  0  0
  1  2  1  0  0  0  0
  1 18  1  0  0  0  0
  1 19  1  0  0  0  0
  1 20  1  0  0  0  0
  2  3  1  0  0  0  0
  2 13  1  0  0  0  0
  2 21  1  0  0  0  0
  3  4  1  0  0  0  0
  3 22  1  0  0  0  0
  3 23  1  0  0  0  0
  4  5  1  0  0  0  0
  4 24  1  0  0  0  0
  5  6  2  0  0  0  0
  5  7  1  0  0  0  0
  7  8  1  0  0  0  0
  7 25  1  0  0  0  0
  8 12  1  0  0  0  0
  8  9  2  0  0  0  0
  9 10  1  0  0  0  0
 10 11  2  0  0  0  0
 10 26  1  0  0  0  0
 11 12  1  0  0  0  0
 11 27  1  0  0  0  0
 13 17  1  0  0  0  0
 13 14  1  0  0  0  0
 13 36  1  0  0  0  0
 14 15  1  0  0  0  0
 14 28  1  0  0  0  0
 14 29  1  0  0  0  0
 15 16  1  0  0  0  0
 15 30  1  0  0  0  0
 15 31  1  0  0  0  0
 16 17  1  0  0  0  0
 16 32  1  0  0  0  0
 16 33  1  0  0  0  0
 17 34  1  0  0  0  0
 17 35  1  0  0  0  0
M  CHG  1  13   1
M  END
> <s_m_source_file>
AV-unprocessed.smi

> <i_m_source_file_index>
1816

> <i_lp_mmshare_version>
43012

> <i_f3d_flags>
0

> <s_epik_input>
W0NIMl0xW0NIMl1bQ0gyXVtDSDJdTjFbQ0BIXShbQ0gzXSlbQ0gyXVtOSF1DKD1PKVtOSF1jMm5bY0hdW2NIXXMy

> <s_epik_cmdline>
J2VwaWtfcHl0aG9uJywgJy1waCcsICc3LjAnLCAnLXRuJywgJzgnLCAnLW1hJywgJzIwMCcsICctbWV0YWxfYmluZGluZycsICctaW1hZScsICc8aW5maWxlLm1hZT4nLCAnLW9tYWUnLCAnPG91dGZpbGUubWFlPic=

> <r_lp_tautomer_probability>
0.999

> <r_epik_Ionization_Penalty>
0.000988651

> <r_epik_Ionization_Penalty_Charging>
0.000848324

> <r_epik_Ionization_Penalty_Neutral>
0.000140327

> <r_epik_State_Penalty>
0.000546901

> <r_epik_Charging_Adjusted_Penalty>
0.00139523

> <i_epik_Tot_Q>
1

> <i_epik_Tot_abs_Q>
1

> <r_epik_Metal_State_Penalty>
0.0571994

> <b_epik_Metal_Only>
0

> <s_lp_Force_Field>
OPLS_2005

> <r_lp_Energy>
26.1685

> <b_lp_Chiralities_Consistent>
1

> <s_lp_Variant>
AV-unprocessed.smi:1816-1

> <Gold.Version>
5.8.1

> <Gold.Id.Protein>
6NUR|6NUR_protein|mol2

> <Gold.PLP.Fitness>
38.4339

> <Gold.PLP.PLP>
-29.5834

> <Gold.PLP.part.hbond>
-3.0000

> <Gold.PLP.part.metal>
0.0000

> <Gold.PLP.part.buried>
4.3164

> <Gold.PLP.part.nonpolar>
-31.3906

> <Gold.PLP.part.repulsive>
0.4801

> <Gold.PLP.ligand.clash>
0.0000

> <Gold.PLP.ligand.torsion>
0.4296

> <Gold.PLP.Chemscore.Hbond>
3.2262

> <Gold.PLP.Chemscore.CHOScore>
0.0000

> <Gold.PLP.Chemscore.Metal>
0.0000

> <Gold.Chemscore.Hbonds>
donor molecule, donor type, donor heavy atom, donor atom, acceptor molecule, acceptor atom, score
      L1  H     7    25       P1  8028  0.82
      L1  H    13    36       P1  7948  1.48
      P1  H  7989  7998       L1     6  0.80

> <Gold.PLP.Chemscore.Internal.Correction>
0.0312

> <Gold.Rescore>
     Score         DG    S(hbond)    S(metal)    S(lipo)     H(rot)  DE(clash)    DE(int)     intcor
     14.06     -17.35       1.94        0.00      81.25       1.60       2.89       0.40       ----

> <Gold.Chemscore.Fitness>
14.0601

> <Gold.Chemscore.DG>
-17.3464

> <Gold.Chemscore.ZeroCoef>
-5.4800

> <Gold.Chemscore.Hbond>
1.9351

> <Gold.Chemscore.Metal>
0.0000

> <Gold.Chemscore.Lipo>
81.2548

> <Gold.Chemscore.Internal_Hbond>
0.0000

> <Gold.Chemscore.DEClash>
2.8868

> <Gold.Chemscore.DEInternal>
0.3995

> <Gold.Chemscore.Rot>
1.6029

> <Gold.Chemscore.Internal.Correction>
   9.000000E+99

> <Gold.Chemscore.Hbonds>
donor molecule, donor type, donor heavy atom, donor atom, acceptor molecule, acceptor atom, score
      L1  H     7    25       P1  8028  0.81
      L1  H    13    36       P1  7948  0.70
      P1  H  7989  7998       L1     6  0.15

> <Gold.Chemscore.Hbond.Weighted>
-6.4632

> <Gold.Chemscore.Metal.Weighted>
-0.0000

> <Gold.Chemscore.Lipo.Weighted>
-9.5068

> <Gold.Chemscore.Internal_Hbond.Weighted>
0.0000

> <Gold.Chemscore.DEClash.Weighted>
2.8868

> <Gold.Chemscore.DEInternal.Weighted>
0.3995

> <Gold.Chemscore.Rot.Weighted>
4.1035

> <Gold.Chemscore.Internal.Correction.Weighted>
   9.000000E+99

> <Gold.Protein.RotatedTorsions>
[ 6907 6896 6895 6894 ] final   -5.84 input  -60.11 | X-H torsion
[ 7974 7965 7964 7962 ] final  -92.91 input  175.53 | X-H torsion
[ 8008 7997 7996 7995 ] final   87.37 input   59.86 | X-H torsion
[ 10167 10162 10161 10158 ] final   82.47 input  -65.29 | X-H torsion
[ 10718 10713 10712 10709 ] final   28.83 input   66.30 | X-H torsion
[ 10763 10752 10751 10750 ] final   44.44 input  -60.55 | X-H torsion
[ 11005 11000 10999 10996 ] final  -69.29 input  -57.11 | X-H torsion

> <Gold.Protein.ActiveResidues>
 VAL166  LYS551  ARG553  GLY616  TRP617  ASP618  TYR619  PRO620  LYS621  CYS622 
 ASP623  PHE694  ASN695  SER759  ASP760  ASP761  ALA762  ILE779  LEU786  VAL792 
 PHE793  MET794  SER795  GLU796  ALA797  LYS798  CYS799  TRP800  GLU811  SER814 

> <Gold.Protein.RotatedAtoms>
  151.4751  135.1048  159.9761 H   0  0  0  0  0  0  0  0  0  0  0  0  # atno 6907 bound_to 6896
  152.4801  133.8230  159.7074 H   0  0  0  0  0  0  0  0  0  0  0  0  # atno 6908 bound_to 6896
  150.8867  133.7237  159.2943 H   0  0  0  0  0  0  0  0  0  0  0  0  # atno 6909 bound_to 6896
  145.3936  140.9530  143.2327 H   0  0  0  0  0  0  0  0  0  0  0  0  # atno 7974 bound_to 7965
  155.9745  140.3383  155.6606 H   0  0  0  0  0  0  0  0  0  0  0  0  # atno 8008 bound_to 7997
  155.6631  140.0718  157.2565 H   0  0  0  0  0  0  0  0  0  0  0  0  # atno 8009 bound_to 7997
  154.4175  140.1705  156.1785 H   0  0  0  0  0  0  0  0  0  0  0  0  # atno 8010 bound_to 7997
  139.9284  144.6167  150.8369 H   0  0  0  0  0  0  0  0  0  0  0  0  # atno 10167 bound_to 10162
  157.2385  130.7058  149.6347 H   0  0  0  0  0  0  0  0  0  0  0  0  # atno 10718 bound_to 10713
  152.9841  135.6071  154.3274 H   0  0  0  0  0  0  0  0  0  0  0  0  # atno 10763 bound_to 10752
  154.2979  135.2773  155.2626 H   0  0  0  0  0  0  0  0  0  0  0  0  # atno 10764 bound_to 10752
  154.4892  135.5897  153.6503 H   0  0  0  0  0  0  0  0  0  0  0  0  # atno 10765 bound_to 10752
  141.1551  133.6761  156.6576 H   0  0  0  0  0  0  0  0  0  0  0  0  # atno 11005 bound_to 11000
  144.8423  139.5452  143.6894 LP  0  0  0  0  0  0  0  0  0  0  0  0  # atno 17320 bound_to 7965
  146.2786  139.6817  142.9245 LP  0  0  0  0  0  0  0  0  0  0  0  0  # atno 17321 bound_to 7965
  140.7644  143.3247  151.2542 LP  0  0  0  0  0  0  0  0  0  0  0  0  # atno 17342 bound_to 10162
  139.6802  143.9867  152.2804 LP  0  0  0  0  0  0  0  0  0  0  0  0  # atno 17343 bound_to 10162
  155.9671  130.4465  150.5545 LP  0  0  0  0  0  0  0  0  0  0  0  0  # atno 17370 bound_to 10713
  157.3403  131.0715  151.1793 LP  0  0  0  0  0  0  0  0  0  0  0  0  # atno 17371 bound_to 10713
  140.3272  134.7959  157.4298 LP  0  0  0  0  0  0  0  0  0  0  0  0  # atno 17394 bound_to 11000
  140.1047  134.5425  155.8320 LP  0  0  0  0  0  0  0  0  0  0  0  0  # atno 17395 bound_to 11000

$$$$
