AV-unprocessed.smi:2030|AV-procd|sdf|8226|dock10
  -GOLD-   2272010493D 1   1.00000     0.00000
 Structure written by MMmdl.
 34 35  0  0  0  0  0  0  0  0  2 V2000
  148.8493  137.1069  159.2000 C   0  0  0  0  0  0  0  0  0  0  0  0
  149.6116  137.1045  157.9534 N   0  0  0  0  0  0  0  0  0  0  0  0
  149.9534  138.3552  157.4839 N   0  0  0  0  0  0  0  0  0  0  0  0
  150.4294  138.5438  156.2923 C   0  0  0  0  0  0  0  0  0  0  0  0
  150.7568  139.9294  155.8398 C   0  0  0  0  0  0  0  0  0  0  0  0
  151.0290  140.0430  154.6382 O   0  0  0  0  0  0  0  0  0  0  0  0
  150.7267  140.9400  156.7587 N   0  5  0  0  0  0  0  0  0  0  0  0
  151.2712  140.8664  158.1148 C   0  0  0  0  0  0  0  0  0  0  0  0
  152.3933  141.9132  158.3115 C   0  0  0  0  0  0  0  0  0  0  0  0
  152.4396  142.5724  159.6889 C   0  0  0  0  0  0  0  0  0  0  0  0
  152.9298  141.8632  160.8095 C   0  0  0  0  0  0  0  0  0  0  0  0
  152.9616  142.5121  162.0586 C   0  0  0  0  0  0  0  0  0  0  0  0
  152.5097  143.8427  162.1441 C   0  0  0  0  0  0  0  0  0  0  0  0
  152.0467  144.4688  160.9701 C   0  0  0  0  0  0  0  0  0  0  0  0
  152.0162  143.8579  159.7671 N   0  0  0  0  0  0  0  0  0  0  0  0
  150.6176  137.3676  155.3500 C   0  0  0  0  0  0  0  0  0  0  0  0
  150.8335  136.0423  156.1072 C   0  0  0  0  0  0  0  0  0  0  0  0
  149.9556  135.9369  157.3568 C   0  0  0  0  0  0  0  0  0  0  0  0
  149.6242  134.8287  157.7787 O   0  0  0  0  0  0  0  0  0  0  0  0
  147.8701  136.6504  159.0505 H   0  0  0  0  0  0  0  0  0  0  0  0
  148.6877  138.1175  159.5786 H   0  0  0  0  0  0  0  0  0  0  0  0
  149.3747  136.5466  159.9746 H   0  0  0  0  0  0  0  0  0  0  0  0
  150.5031  141.0186  158.8745 H   0  0  0  0  0  0  0  0  0  0  0  0
  151.6883  139.8780  158.3119 H   0  0  0  0  0  0  0  0  0  0  0  0
  153.3561  141.4311  158.1398 H   0  0  0  0  0  0  0  0  0  0  0  0
  152.3145  142.6877  157.5469 H   0  0  0  0  0  0  0  0  0  0  0  0
  153.2672  140.8417  160.7136 H   0  0  0  0  0  0  0  0  0  0  0  0
  153.3262  141.9981  162.9355 H   0  0  0  0  0  0  0  0  0  0  0  0
  152.5180  144.3709  163.0858 H   0  0  0  0  0  0  0  0  0  0  0  0
  151.6945  145.4894  160.9975 H   0  0  0  0  0  0  0  0  0  0  0  0
  149.7466  137.2874  154.6990 H   0  0  0  0  0  0  0  0  0  0  0  0
  151.4767  137.5261  154.6972 H   0  0  0  0  0  0  0  0  0  0  0  0
  150.6512  135.1939  155.4467 H   0  0  0  0  0  0  0  0  0  0  0  0
  151.8724  135.9711  156.4314 H   0  0  0  0  0  0  0  0  0  0  0  0
  1  2  1  0  0  0  0
  1 20  1  0  0  0  0
  1 21  1  0  0  0  0
  1 22  1  0  0  0  0
  2 18  1  0  0  0  0
  2  3  1  0  0  0  0
  3  4  2  0  0  0  0
  4  5  1  0  0  0  0
  4 16  1  0  0  0  0
  5  6  2  0  0  0  0
  5  7  1  0  0  0  0
  7  8  1  0  0  0  0
  8  9  1  0  0  0  0
  8 23  1  0  0  0  0
  8 24  1  0  0  0  0
  9 10  1  0  0  0  0
  9 25  1  0  0  0  0
  9 26  1  0  0  0  0
 10 15  1  0  0  0  0
 10 11  2  0  0  0  0
 11 12  1  0  0  0  0
 11 27  1  0  0  0  0
 12 13  2  0  0  0  0
 12 28  1  0  0  0  0
 13 14  1  0  0  0  0
 13 29  1  0  0  0  0
 14 15  2  0  0  0  0
 14 30  1  0  0  0  0
 16 17  1  0  0  0  0
 16 31  1  0  0  0  0
 16 32  1  0  0  0  0
 17 18  1  0  0  0  0
 17 33  1  0  0  0  0
 17 34  1  0  0  0  0
 18 19  2  0  0  0  0
M  CHG  1   7  -1
M  END
> <s_m_source_file>
AV-unprocessed.smi

> <i_m_source_file_index>
2030

> <i_lp_mmshare_version>
43012

> <i_f3d_flags>
0

> <s_epik_input>
Tz1DMVtDSDJdW0NIMl1DKD1OTjFbQ0gzXSlDKD1PKVtOSF1bQ0gyXVtDSDJdYzJbY0hdW2NIXVtjSF1bY0hdbjI=

> <s_epik_cmdline>
J2VwaWtfcHl0aG9uJywgJy1waCcsICc3LjAnLCAnLXRuJywgJzgnLCAnLW1hJywgJzIwMCcsICctbWV0YWxfYmluZGluZycsICctaW1hZScsICc8aW5maWxlLm1hZT4nLCAnLW9tYWUnLCAnPG91dGZpbGUubWFlPic=

> <r_epik_Ionization_Penalty>
5.44594

> <r_epik_Ionization_Penalty_Charging>
5.3715

> <r_epik_Ionization_Penalty_Neutral>
0.0744438

> <r_epik_State_Penalty>
5.38529

> <r_epik_Charging_Adjusted_Penalty>
10.7568

> <i_epik_Tot_Q>
-1

> <i_epik_Tot_abs_Q>
1

> <r_epik_Metal_State_Penalty>
1.42988

> <b_epik_Metal_Only>
1

> <s_epik_Chemistry_Notes>
This compound has an imine and may undergo hydrolysis.

> <s_lp_Force_Field>
OPLS_2005

> <r_lp_Energy>
26.3213

> <b_lp_Chiralities_Consistent>
1

> <s_lp_Variant>
AV-unprocessed.smi:2030-3

> <Gold.Version>
5.8.1

> <Gold.Id.Protein>
6NUR|6NUR_protein|mol2

> <Gold.PLP.Fitness>
38.6748

> <Gold.PLP.PLP>
-34.3412

> <Gold.PLP.part.hbond>
-2.0000

> <Gold.PLP.part.metal>
0.0000

> <Gold.PLP.part.buried>
-6.8235

> <Gold.PLP.part.nonpolar>
-26.2595

> <Gold.PLP.part.repulsive>
0.1321

> <Gold.PLP.ligand.clash>
0.0000

> <Gold.PLP.ligand.torsion>
0.8124

> <Gold.PLP.Chemscore.Hbond>
1.9760

> <Gold.PLP.Chemscore.CHOScore>
0.0000

> <Gold.PLP.Chemscore.Metal>
0.0000

> <Gold.Chemscore.Hbonds>
donor molecule, donor type, donor heavy atom, donor atom, acceptor molecule, acceptor atom, score
      P1  H  6896  6908       L1    19  0.98
      P1  H  7989  7998       L1     6  1.00

> <Gold.PLP.Chemscore.Internal.Correction>
0.0304

> <Gold.Rescore>
     Score         DG    S(hbond)    S(metal)    S(lipo)     H(rot)  DE(clash)    DE(int)     intcor
     16.54     -18.63       1.92        0.00      88.66       1.42       0.08       2.02       ----

> <Gold.Chemscore.Fitness>
16.5407

> <Gold.Chemscore.DG>
-18.6323

> <Gold.Chemscore.ZeroCoef>
-5.4800

> <Gold.Chemscore.Hbond>
1.9189

> <Gold.Chemscore.Metal>
0.0000

> <Gold.Chemscore.Lipo>
88.6567

> <Gold.Chemscore.Internal_Hbond>
0.0000

> <Gold.Chemscore.DEClash>
0.0756

> <Gold.Chemscore.DEInternal>
2.0160

> <Gold.Chemscore.Rot>
1.4178

> <Gold.Chemscore.Internal.Correction>
   9.000000E+99

> <Gold.Chemscore.Hbonds>
donor molecule, donor type, donor heavy atom, donor atom, acceptor molecule, acceptor atom, score
      P1  H  6896  6908       L1    19  0.83
      P1  H  7989  7998       L1     6  0.93

> <Gold.Chemscore.Hbond.Weighted>
-6.4090

> <Gold.Chemscore.Metal.Weighted>
-0.0000

> <Gold.Chemscore.Lipo.Weighted>
-10.3728

> <Gold.Chemscore.Internal_Hbond.Weighted>
0.0000

> <Gold.Chemscore.DEClash.Weighted>
0.0756

> <Gold.Chemscore.DEInternal.Weighted>
2.0160

> <Gold.Chemscore.Rot.Weighted>
3.6295

> <Gold.Chemscore.Internal.Correction.Weighted>
   9.000000E+99

> <Gold.Protein.RotatedTorsions>
[ 6907 6896 6895 6894 ] final  136.76 input  -60.11 | X-H torsion
[ 7974 7965 7964 7962 ] final   62.78 input  175.53 | X-H torsion
[ 8008 7997 7996 7995 ] final  -81.93 input   59.86 | X-H torsion
[ 10167 10162 10161 10158 ] final  126.09 input  -65.29 | X-H torsion
[ 10718 10713 10712 10709 ] final  -15.15 input   66.30 | X-H torsion
[ 10763 10752 10751 10750 ] final    0.60 input  -60.55 | X-H torsion
[ 11005 11000 10999 10996 ] final  137.70 input  -57.11 | X-H torsion

> <Gold.Protein.ActiveResidues>
 VAL166  LYS551  ARG553  GLY616  TRP617  ASP618  TYR619  PRO620  LYS621  CYS622 
 ASP623  PHE694  ASN695  SER759  ASP760  ASP761  ALA762  ILE779  LEU786  VAL792 
 PHE793  MET794  SER795  GLU796  ALA797  LYS798  CYS799  TRP800  GLU811  SER814 

> <Gold.Protein.RotatedAtoms>
  152.2857  133.5513  159.5525 H   0  0  0  0  0  0  0  0  0  0  0  0  # atno 6907 bound_to 6896
  150.7214  134.0501  159.3804 H   0  0  0  0  0  0  0  0  0  0  0  0  # atno 6908 bound_to 6896
  151.8409  135.0590  160.0499 H   0  0  0  0  0  0  0  0  0  0  0  0  # atno 6909 bound_to 6896
  145.8695  139.3368  143.0771 H   0  0  0  0  0  0  0  0  0  0  0  0  # atno 7974 bound_to 7965
  154.6034  140.0640  156.9398 H   0  0  0  0  0  0  0  0  0  0  0  0  # atno 8008 bound_to 7997
  155.2095  140.3321  155.4313 H   0  0  0  0  0  0  0  0  0  0  0  0  # atno 8009 bound_to 7997
  156.2332  140.1850  156.7172 H   0  0  0  0  0  0  0  0  0  0  0  0  # atno 8010 bound_to 7997
  139.5650  144.6905  151.3937 H   0  0  0  0  0  0  0  0  0  0  0  0  # atno 10167 bound_to 10162
  156.6058  130.4836  149.6221 H   0  0  0  0  0  0  0  0  0  0  0  0  # atno 10718 bound_to 10713
  153.3187  135.6967  153.7050 H   0  0  0  0  0  0  0  0  0  0  0  0  # atno 10763 bound_to 10752
  153.5899  135.3482  155.2907 H   0  0  0  0  0  0  0  0  0  0  0  0  # atno 10764 bound_to 10752
  154.8592  135.4315  154.2345 H   0  0  0  0  0  0  0  0  0  0  0  0  # atno 10765 bound_to 10752
  140.0132  134.9430  157.0322 H   0  0  0  0  0  0  0  0  0  0  0  0  # atno 11005 bound_to 11000
  145.9154  140.9152  143.0432 LP  0  0  0  0  0  0  0  0  0  0  0  0  # atno 17320 bound_to 7965
  144.6726  140.1217  143.7449 LP  0  0  0  0  0  0  0  0  0  0  0  0  # atno 17321 bound_to 7965
  140.6932  143.7811  150.7287 LP  0  0  0  0  0  0  0  0  0  0  0  0  # atno 17342 bound_to 10162
  140.1299  143.4535  152.2261 LP  0  0  0  0  0  0  0  0  0  0  0  0  # atno 17343 bound_to 10162
  156.2431  130.6863  151.1574 LP  0  0  0  0  0  0  0  0  0  0  0  0  # atno 17370 bound_to 10713
  157.7267  131.0644  150.5896 LP  0  0  0  0  0  0  0  0  0  0  0  0  # atno 17371 bound_to 10713
  140.4517  134.1575  155.7182 LP  0  0  0  0  0  0  0  0  0  0  0  0  # atno 17394 bound_to 11000
  141.1725  133.8580  157.1525 LP  0  0  0  0  0  0  0  0  0  0  0  0  # atno 17395 bound_to 11000

$$$$
