AV-unprocessed.smi:1982|AV-procd|sdf|8020|dock5
  -GOLD-   2272010213D 1   1.00000     0.00000
 Structure written by MMmdl.
 36 37  0  0  0  0  0  0  0  0  1 V2000
  143.5692  135.5652  162.6363 C   0  0  0  0  0  0  0  0  0  0  0  0
  144.9056  135.0576  162.0657 C   0  0  2  0  0  0  0  0  0  0  0  0
  145.1561  133.6093  162.5349 C   0  0  0  0  0  0  0  0  0  0  0  0
  146.4703  133.0407  161.9831 C   0  0  0  0  0  0  0  0  0  0  0  0
  147.6581  133.9361  162.3632 C   0  0  0  0  0  0  0  0  0  0  0  0
  147.4466  135.3918  161.9056 C   0  0  1  0  0  0  0  0  0  0  0  0
  147.5140  135.4906  160.4484 N   0  0  0  0  0  0  0  0  0  0  0  0
  148.4175  136.1881  159.7431 C   0  0  0  0  0  0  0  0  0  0  0  0
  149.3605  136.7927  160.2522 O   0  0  0  0  0  0  0  0  0  0  0  0
  148.2216  136.2110  158.2262 C   0  0  0  0  0  0  0  0  0  0  0  0
  149.3944  135.6974  157.5414 N   0  0  0  0  0  0  0  0  0  0  0  0
  150.1984  136.2609  156.6373 C   0  0  0  0  0  0  0  0  0  0  0  0
  151.1481  135.4273  156.2412 N   0  0  0  0  0  0  0  0  0  0  0  0
  150.8844  134.2795  156.9705 N   0  0  0  0  0  0  0  0  0  0  0  0
  149.8454  134.4338  157.7443 N   0  0  0  0  0  0  0  0  0  0  0  0
  146.1083  135.9711  162.4341 C   0  0  1  0  0  0  0  0  0  0  0  0
  145.9161  137.4329  161.9787 C   0  0  0  0  0  0  0  0  0  0  0  0
  143.6164  135.6760  163.7201 H   0  0  0  0  0  0  0  0  0  0  0  0
  142.7592  134.8713  162.4100 H   0  0  0  0  0  0  0  0  0  0  0  0
  143.2872  136.5281  162.2113 H   0  0  0  0  0  0  0  0  0  0  0  0
  144.8071  135.0415  160.9793 H   0  0  0  0  0  0  0  0  0  0  0  0
  145.1780  133.5744  163.6251 H   0  0  0  0  0  0  0  0  0  0  0  0
  144.3297  132.9688  162.2247 H   0  0  0  0  0  0  0  0  0  0  0  0
  146.6286  132.0331  162.3684 H   0  0  0  0  0  0  0  0  0  0  0  0
  146.4053  132.9481  160.8984 H   0  0  0  0  0  0  0  0  0  0  0  0
  147.7876  133.9164  163.4459 H   0  0  0  0  0  0  0  0  0  0  0  0
  148.5802  133.5343  161.9414 H   0  0  0  0  0  0  0  0  0  0  0  0
  148.2530  135.9938  162.3285 H   0  0  0  0  0  0  0  0  0  0  0  0
  146.7811  135.0226  159.9346 H   0  0  0  0  0  0  0  0  0  0  0  0
  147.3606  135.6020  157.9482 H   0  0  0  0  0  0  0  0  0  0  0  0
  148.0207  137.2304  157.8933 H   0  0  0  0  0  0  0  0  0  0  0  0
  150.0836  137.2694  156.2675 H   0  0  0  0  0  0  0  0  0  0  0  0
  146.1817  135.9887  163.5227 H   0  0  0  0  0  0  0  0  0  0  0  0
  145.7023  137.4991  160.9113 H   0  0  0  0  0  0  0  0  0  0  0  0
  146.8118  138.0235  162.1736 H   0  0  0  0  0  0  0  0  0  0  0  0
  145.0977  137.9160  162.5116 H   0  0  0  0  0  0  0  0  0  0  0  0
  1  2  1  0  0  0  0
  1 18  1  0  0  0  0
  1 19  1  0  0  0  0
  1 20  1  0  0  0  0
  2 16  1  0  0  0  0
  2  3  1  0  0  0  0
  2 21  1  0  0  0  0
  3  4  1  0  0  0  0
  3 22  1  0  0  0  0
  3 23  1  0  0  0  0
  4  5  1  0  0  0  0
  4 24  1  0  0  0  0
  4 25  1  0  0  0  0
  5  6  1  0  0  0  0
  5 26  1  0  0  0  0
  5 27  1  0  0  0  0
  6  7  1  0  0  0  0
  6 16  1  0  0  0  0
  6 28  1  0  0  0  0
  7  8  1  0  0  0  0
  7 29  1  0  0  0  0
  8  9  2  0  0  0  0
  8 10  1  0  0  0  0
 10 11  1  0  0  0  0
 10 30  1  0  0  0  0
 10 31  1  0  0  0  0
 11 15  1  0  0  0  0
 11 12  1  0  0  0  0
 12 13  2  0  0  0  0
 12 32  1  0  0  0  0
 13 14  1  0  0  0  0
 14 15  2  0  0  0  0
 16 17  1  0  0  0  0
 16 33  1  0  0  0  0
 17 34  1  0  0  0  0
 17 35  1  0  0  0  0
 17 36  1  0  0  0  0
M  END
> <s_m_source_file>
AV-unprocessed.smi

> <i_m_source_file_index>
1982

> <i_lp_mmshare_version>
43012

> <i_f3d_flags>
0

> <s_epik_input>
W0NIM11bQ0BASF0xW0NIMl1bQ0gyXVtDSDJdW0NASF0oW0NASF0xW0NIM10pW05IXUMoPU8pW0NIMl1uMltjSF1ubm4y

> <s_epik_cmdline>
J2VwaWtfcHl0aG9uJywgJy1waCcsICc3LjAnLCAnLXRuJywgJzgnLCAnLW1hJywgJzIwMCcsICctbWV0YWxfYmluZGluZycsICctaW1hZScsICc8aW5maWxlLm1hZT4nLCAnLW9tYWUnLCAnPG91dGZpbGUubWFlPic=

> <r_lp_tautomer_probability>
1

> <r_epik_Ionization_Penalty>
5.03816e-07

> <r_epik_Ionization_Penalty_Charging>
0

> <r_epik_Ionization_Penalty_Neutral>
5.03816e-07

> <r_epik_State_Penalty>
-0

> <r_epik_Charging_Adjusted_Penalty>
0

> <i_epik_Tot_Q>
0

> <i_epik_Tot_abs_Q>
0

> <r_epik_Metal_State_Penalty>
-0

> <b_epik_Metal_Only>
0

> <s_lp_Force_Field>
OPLS_2005

> <r_lp_Energy>
12.4205

> <b_lp_Chiralities_Consistent>
1

> <s_lp_Variant>
AV-unprocessed.smi:1982-1

> <Gold.Version>
5.8.1

> <Gold.Id.Protein>
6NUR|6NUR_protein|mol2

> <Gold.PLP.Fitness>
33.6587

> <Gold.PLP.PLP>
-28.3297

> <Gold.PLP.part.hbond>
-3.0286

> <Gold.PLP.part.metal>
0.0000

> <Gold.PLP.part.buried>
-3.9490

> <Gold.PLP.part.nonpolar>
-20.4626

> <Gold.PLP.part.repulsive>
0.1041

> <Gold.PLP.ligand.clash>
0.0000

> <Gold.PLP.ligand.torsion>
0.0118

> <Gold.PLP.Chemscore.Hbond>
1.7803

> <Gold.PLP.Chemscore.CHOScore>
0.0000

> <Gold.PLP.Chemscore.Metal>
0.0000

> <Gold.Chemscore.Hbonds>
donor molecule, donor type, donor heavy atom, donor atom, acceptor molecule, acceptor atom, score
      P1  H  6896  6909       L1    15  0.93
      P1  H  6931  6943       L1     9  0.34
      P1  H 10752 10764       L1    13  0.31

> <Gold.PLP.Chemscore.Internal.Correction>
0.0118

> <Gold.Rescore>
     Score         DG    S(hbond)    S(metal)    S(lipo)     H(rot)  DE(clash)    DE(int)     intcor
     12.25     -12.41       1.30        0.00      63.88       1.91       0.03       0.13       ----

> <Gold.Chemscore.Fitness>
12.2512

> <Gold.Chemscore.DG>
-12.4073

> <Gold.Chemscore.ZeroCoef>
-5.4800

> <Gold.Chemscore.Hbond>
1.2971

> <Gold.Chemscore.Metal>
0.0000

> <Gold.Chemscore.Lipo>
63.8783

> <Gold.Chemscore.Internal_Hbond>
0.0000

> <Gold.Chemscore.DEClash>
0.0310

> <Gold.Chemscore.DEInternal>
0.1251

> <Gold.Chemscore.Rot>
1.9058

> <Gold.Chemscore.Internal.Correction>
   9.000000E+99

> <Gold.Chemscore.Hbonds>
donor molecule, donor type, donor heavy atom, donor atom, acceptor molecule, acceptor atom, score
      P1  H  6896  6909       L1    15  0.18
      P1  H  6931  6943       L1     9  0.32
      P1  H 10752 10764       L1    13  0.30

> <Gold.Chemscore.Hbond.Weighted>
-4.3324

> <Gold.Chemscore.Metal.Weighted>
-0.0000

> <Gold.Chemscore.Lipo.Weighted>
-7.4738

> <Gold.Chemscore.Internal_Hbond.Weighted>
0.0000

> <Gold.Chemscore.DEClash.Weighted>
0.0310

> <Gold.Chemscore.DEInternal.Weighted>
0.1251

> <Gold.Chemscore.Rot.Weighted>
4.8788

> <Gold.Chemscore.Internal.Correction.Weighted>
   9.000000E+99

> <Gold.Protein.RotatedTorsions>
[ 6907 6896 6895 6894 ] final   31.43 input  -60.11 | X-H torsion
[ 7974 7965 7964 7962 ] final -128.11 input  175.53 | X-H torsion
[ 8008 7997 7996 7995 ] final  128.18 input   59.86 | X-H torsion
[ 10167 10162 10161 10158 ] final   62.29 input  -65.29 | X-H torsion
[ 10718 10713 10712 10709 ] final   94.33 input   66.30 | X-H torsion
[ 10763 10752 10751 10750 ] final  -35.93 input  -60.55 | X-H torsion
[ 11005 11000 10999 10996 ] final  154.16 input  -57.11 | X-H torsion

> <Gold.Protein.ActiveResidues>
 VAL166  LYS551  ARG553  GLY616  TRP617  ASP618  TYR619  PRO620  LYS621  CYS622 
 ASP623  PHE694  ASN695  SER759  ASP760  ASP761  ALA762  ILE779  LEU786  VAL792 
 PHE793  MET794  SER795  GLU796  ALA797  LYS798  CYS799  TRP800  GLU811  SER814 

> <Gold.Protein.RotatedAtoms>
  152.0601  134.9599  160.0574 H   0  0  0  0  0  0  0  0  0  0  0  0  # atno 6907 bound_to 6896
  152.0966  133.4223  159.4576 H   0  0  0  0  0  0  0  0  0  0  0  0  # atno 6908 bound_to 6896
  150.6838  134.2729  159.4639 H   0  0  0  0  0  0  0  0  0  0  0  0  # atno 6909 bound_to 6896
  144.9704  140.7539  143.4674 H   0  0  0  0  0  0  0  0  0  0  0  0  # atno 7974 bound_to 7965
  156.2909  140.2651  156.2395 H   0  0  0  0  0  0  0  0  0  0  0  0  # atno 8008 bound_to 7997
  154.9992  140.0388  157.2371 H   0  0  0  0  0  0  0  0  0  0  0  0  # atno 8009 bound_to 7997
  154.7617  140.2762  155.6214 H   0  0  0  0  0  0  0  0  0  0  0  0  # atno 8010 bound_to 7997
  140.1455  144.4512  150.6787 H   0  0  0  0  0  0  0  0  0  0  0  0  # atno 10167 bound_to 10162
  157.6948  131.0509  150.4170 H   0  0  0  0  0  0  0  0  0  0  0  0  # atno 10718 bound_to 10713
  153.8714  135.6830  153.4774 H   0  0  0  0  0  0  0  0  0  0  0  0  # atno 10763 bound_to 10752
  153.1285  135.4708  154.9309 H   0  0  0  0  0  0  0  0  0  0  0  0  # atno 10764 bound_to 10752
  154.7712  135.3239  154.8136 H   0  0  0  0  0  0  0  0  0  0  0  0  # atno 10765 bound_to 10752
  140.1464  134.8704  157.2398 H   0  0  0  0  0  0  0  0  0  0  0  0  # atno 11005 bound_to 11000
  145.2568  139.2009  143.4913 LP  0  0  0  0  0  0  0  0  0  0  0  0  # atno 17320 bound_to 7965
  146.3380  140.2491  142.8598 LP  0  0  0  0  0  0  0  0  0  0  0  0  # atno 17321 bound_to 7965
  140.6734  143.2295  151.5568 LP  0  0  0  0  0  0  0  0  0  0  0  0  # atno 17342 bound_to 10162
  139.5451  144.2543  152.1426 LP  0  0  0  0  0  0  0  0  0  0  0  0  # atno 17343 bound_to 10162
  156.4549  130.4019  149.6612 LP  0  0  0  0  0  0  0  0  0  0  0  0  # atno 17370 bound_to 10713
  156.3748  130.7549  151.2536 LP  0  0  0  0  0  0  0  0  0  0  0  0  # atno 17371 bound_to 10713
  140.2658  134.3517  155.7390 LP  0  0  0  0  0  0  0  0  0  0  0  0  # atno 17394 bound_to 11000
  141.2193  133.7395  156.9149 LP  0  0  0  0  0  0  0  0  0  0  0  0  # atno 17395 bound_to 11000

$$$$
