AV-unprocessed.smi:249|AV-procd|sdf|1899|dock7
  -GOLD-   2262020573D 1   1.00000     0.00000
 Structure written by MMmdl.
 64 67  0  0  0  0  0  0  0  0  2 V2000
  144.6790  132.0535  151.5757 C   0  0  0  0  0  0  0  0  0  0  0  0
  145.0766  133.2868  152.4009 C   0  0  0  0  0  0  0  0  0  0  0  0
  145.1727  133.0094  153.8652 N   0  3  1  0  0  0  0  0  0  0  0  0
  146.2852  132.0927  154.2420 C   0  0  0  0  0  0  0  0  0  0  0  0
  147.6587  132.7780  154.1150 C   0  0  0  0  0  0  0  0  0  0  0  0
  147.7205  134.0693  154.9620 C   0  0  1  0  0  0  0  0  0  0  0  0
  149.0177  134.7580  154.8936 N   0  0  0  0  0  0  0  0  0  0  0  0
  150.2199  133.9333  154.8850 C   0  0  0  0  0  0  0  0  0  0  0  0
  149.1427  135.9055  155.6015 C   0  0  0  0  0  0  0  0  0  0  0  0
  148.1981  136.1671  156.5393 N   0  0  0  0  0  0  0  0  0  0  0  0
  148.2926  137.2628  157.2982 C   0  0  0  0  0  0  0  0  0  0  0  0
  149.2390  138.2034  157.2905 N   0  0  0  0  0  0  0  0  0  0  0  0
  150.1837  137.9500  156.3402 C   0  0  0  0  0  0  0  0  0  0  0  0
  150.2023  136.8441  155.4450 C   0  0  0  0  0  0  0  0  0  0  0  0
  151.3114  136.9295  154.6109 N   0  0  0  0  0  0  0  0  0  0  0  0
  151.9232  138.0130  155.0025 C   0  0  0  0  0  0  0  0  0  0  0  0
  151.3347  138.6661  156.0619 N   0  0  0  0  0  0  0  0  0  0  0  0
  151.8204  139.8676  156.7146 C   0  0  0  0  0  0  0  0  0  0  0  0
  150.7215  140.9107  157.0674 C   0  0  2  0  0  0  0  0  0  0  0  0
  150.2584  141.6090  155.7651 C   0  0  0  0  0  0  0  0  0  0  0  0
  149.0122  142.2516  155.9390 O   0  0  0  0  0  0  0  0  0  0  0  0
  151.1624  141.9498  158.1456 C   0  0  2  0  0  0  0  0  0  0  0  0
  151.5607  143.3288  157.6311 C   0  0  0  0  0  0  0  0  0  0  0  0
  152.3888  143.9070  158.7739 C   0  0  0  0  0  0  0  0  0  0  0  0
  152.9492  142.7938  159.4550 O   0  0  0  0  0  0  0  0  0  0  0  0
  152.4528  141.5865  158.8927 C   0  0  0  0  0  0  0  0  0  0  0  0
  146.5208  134.9826  154.6195 C   0  0  0  0  0  0  0  0  0  0  0  0
  145.1853  134.2207  154.7402 C   0  0  1  0  0  0  0  0  0  0  0  0
  143.9646  135.1370  154.5407 C   0  0  0  0  0  0  0  0  0  0  0  0
  144.4745  132.3368  150.5430 H   0  0  0  0  0  0  0  0  0  0  0  0
  143.7777  131.5853  151.9720 H   0  0  0  0  0  0  0  0  0  0  0  0
  145.4694  131.3043  151.5470 H   0  0  0  0  0  0  0  0  0  0  0  0
  146.0064  133.7068  152.0181 H   0  0  0  0  0  0  0  0  0  0  0  0
  144.3094  134.0370  152.2187 H   0  0  0  0  0  0  0  0  0  0  0  0
  146.1364  131.7764  155.2753 H   0  0  0  0  0  0  0  0  0  0  0  0
  146.2603  131.1761  153.6551 H   0  0  0  0  0  0  0  0  0  0  0  0
  148.4405  132.0892  154.4372 H   0  0  0  0  0  0  0  0  0  0  0  0
  147.8540  132.9881  153.0640 H   0  0  0  0  0  0  0  0  0  0  0  0
  147.6043  133.7658  156.0034 H   0  0  0  0  0  0  0  0  0  0  0  0
  151.1142  134.5470  154.7678 H   0  0  0  0  0  0  0  0  0  0  0  0
  150.1869  133.2332  154.0498 H   0  0  0  0  0  0  0  0  0  0  0  0
  150.3190  133.3565  155.8043 H   0  0  0  0  0  0  0  0  0  0  0  0
  147.5031  137.4003  158.0223 H   0  0  0  0  0  0  0  0  0  0  0  0
  152.8411  138.3521  154.5442 H   0  0  0  0  0  0  0  0  0  0  0  0
  152.3541  139.5755  157.6200 H   0  0  0  0  0  0  0  0  0  0  0  0
  152.5661  140.3057  156.0507 H   0  0  0  0  0  0  0  0  0  0  0  0
  149.8557  140.3790  157.4635 H   0  0  0  0  0  0  0  0  0  0  0  0
  150.9586  142.3820  155.4521 H   0  0  0  0  0  0  0  0  0  0  0  0
  150.1845  140.8929  154.9463 H   0  0  0  0  0  0  0  0  0  0  0  0
  149.0797  143.1339  155.6070 H   0  0  0  0  0  0  0  0  0  0  0  0
  150.3648  142.0664  158.8808 H   0  0  0  0  0  0  0  0  0  0  0  0
  152.1761  143.2386  156.7347 H   0  0  0  0  0  0  0  0  0  0  0  0
  150.7176  143.9767  157.4014 H   0  0  0  0  0  0  0  0  0  0  0  0
  153.1644  144.5854  158.4192 H   0  0  0  0  0  0  0  0  0  0  0  0
  151.7523  144.4548  159.4697 H   0  0  0  0  0  0  0  0  0  0  0  0
  152.2928  140.8421  159.6730 H   0  0  0  0  0  0  0  0  0  0  0  0
  153.2018  141.1974  158.2016 H   0  0  0  0  0  0  0  0  0  0  0  0
  146.5054  135.8431  155.2886 H   0  0  0  0  0  0  0  0  0  0  0  0
  146.6168  135.3813  153.6102 H   0  0  0  0  0  0  0  0  0  0  0  0
  145.1126  133.8529  155.7651 H   0  0  0  0  0  0  0  0  0  0  0  0
  143.9119  135.8818  155.3353 H   0  0  0  0  0  0  0  0  0  0  0  0
  143.0341  134.5691  154.5643 H   0  0  0  0  0  0  0  0  0  0  0  0
  144.0077  135.6845  153.5992 H   0  0  0  0  0  0  0  0  0  0  0  0
  144.3206  132.5181  154.0954 H   0  0  0  0  0  0  0  0  0  0  0  0
  1  2  1  0  0  0  0
  1 30  1  0  0  0  0
  1 31  1  0  0  0  0
  1 32  1  0  0  0  0
  2  3  1  0  0  0  0
  2 33  1  0  0  0  0
  2 34  1  0  0  0  0
  3 28  1  0  0  0  0
  3  4  1  0  0  0  0
  3 64  1  0  0  0  0
  4  5  1  0  0  0  0
  4 35  1  0  0  0  0
  4 36  1  0  0  0  0
  5  6  1  0  0  0  0
  5 37  1  0  0  0  0
  5 38  1  0  0  0  0
  6  7  1  0  0  0  0
  6 27  1  0  0  0  0
  6 39  1  0  0  0  0
  7  8  1  0  0  0  0
  7  9  1  0  0  0  0
  8 40  1  0  0  0  0
  8 41  1  0  0  0  0
  8 42  1  0  0  0  0
  9 14  1  0  0  0  0
  9 10  2  0  0  0  0
 10 11  1  0  0  0  0
 11 12  2  0  0  0  0
 11 43  1  0  0  0  0
 12 13  1  0  0  0  0
 13 17  1  0  0  0  0
 13 14  2  0  0  0  0
 14 15  1  0  0  0  0
 15 16  2  0  0  0  0
 16 17  1  0  0  0  0
 16 44  1  0  0  0  0
 17 18  1  0  0  0  0
 18 19  1  0  0  0  0
 18 45  1  0  0  0  0
 18 46  1  0  0  0  0
 19 20  1  0  0  0  0
 19 22  1  0  0  0  0
 19 47  1  0  0  0  0
 20 21  1  0  0  0  0
 20 48  1  0  0  0  0
 20 49  1  0  0  0  0
 21 50  1  0  0  0  0
 22 26  1  0  0  0  0
 22 23  1  0  0  0  0
 22 51  1  0  0  0  0
 23 24  1  0  0  0  0
 23 52  1  0  0  0  0
 23 53  1  0  0  0  0
 24 25  1  0  0  0  0
 24 54  1  0  0  0  0
 24 55  1  0  0  0  0
 25 26  1  0  0  0  0
 26 56  1  0  0  0  0
 26 57  1  0  0  0  0
 27 28  1  0  0  0  0
 27 58  1  0  0  0  0
 27 59  1  0  0  0  0
 28 29  1  0  0  0  0
 28 60  1  0  0  0  0
 29 61  1  0  0  0  0
 29 62  1  0  0  0  0
 29 63  1  0  0  0  0
M  CHG  1   3   1
M  END
> <s_m_source_file>
AV-unprocessed.smi

> <i_m_source_file_index>
249

> <i_lp_mmshare_version>
43012

> <i_f3d_flags>
0

> <s_epik_input>
W0NIM11bQ0gyXU4xW0NIMl1bQ0gyXVtDQEhdKFtDSDJdW0NASF0xW0NIM10pTihbQ0gzXSljKG5bY0hdbjIpYyhjMjMpbltjSF1uM1tDSDJdW0NASF0oW0NIMl1bT0hdKVtDQEBIXTRbQ0gyXVtDSDJdT1tDSDJdNA==

> <s_epik_cmdline>
J2VwaWtfcHl0aG9uJywgJy1waCcsICc3LjAnLCAnLXRuJywgJzgnLCAnLW1hJywgJzIwMCcsICctbWV0YWxfYmluZGluZycsICctaW1hZScsICc8aW5maWxlLm1hZT4nLCAnLW9tYWUnLCAnPG91dGZpbGUubWFlPic=

> <r_lp_tautomer_probability>
1

> <r_epik_Ionization_Penalty>
0.00294688

> <r_epik_Ionization_Penalty_Charging>
0.00169971

> <r_epik_Ionization_Penalty_Neutral>
0.00124717

> <r_epik_State_Penalty>
-0

> <r_epik_Charging_Adjusted_Penalty>
0.00169971

> <i_epik_Tot_Q>
1

> <i_epik_Tot_abs_Q>
1

> <r_epik_Metal_State_Penalty>
-0

> <b_epik_Metal_Only>
0

> <s_lp_Force_Field>
OPLS_2005

> <r_lp_Energy>
54.564

> <b_lp_Chiralities_Consistent>
1

> <s_lp_Variant>
AV-unprocessed.smi:249-2

> <Gold.Version>
5.8.1

> <Gold.Id.Protein>
6NUR|6NUR_protein|mol2

> <Gold.PLP.Fitness>
46.4178

> <Gold.PLP.PLP>
-38.1240

> <Gold.PLP.part.hbond>
-2.6174

> <Gold.PLP.part.metal>
0.0000

> <Gold.PLP.part.buried>
-8.4969

> <Gold.PLP.part.nonpolar>
-27.1673

> <Gold.PLP.part.repulsive>
0.5357

> <Gold.PLP.ligand.clash>
0.0000

> <Gold.PLP.ligand.torsion>
2.1804

> <Gold.PLP.Chemscore.Hbond>
3.9088

> <Gold.PLP.Chemscore.CHOScore>
0.0000

> <Gold.PLP.Chemscore.Metal>
0.0000

> <Gold.Chemscore.Hbonds>
donor molecule, donor type, donor heavy atom, donor atom, acceptor molecule, acceptor atom, score
      L1  H     3    64       P1 10957  2.00
      L1  H    21    50       P1  8028  1.00
      P1  H 10752 10763       L1    15  0.88

> <Gold.PLP.Chemscore.Internal.Correction>
0.9284

> <Gold.Rescore>
     Score         DG    S(hbond)    S(metal)    S(lipo)     H(rot)  DE(clash)    DE(int)     intcor
     13.00     -16.56       2.20        0.00      95.32       2.90       0.06       3.50       ----

> <Gold.Chemscore.Fitness>
13.0048

> <Gold.Chemscore.DG>
-16.5609

> <Gold.Chemscore.ZeroCoef>
-5.4800

> <Gold.Chemscore.Hbond>
2.2018

> <Gold.Chemscore.Metal>
0.0000

> <Gold.Chemscore.Lipo>
95.3194

> <Gold.Chemscore.Internal_Hbond>
0.0000

> <Gold.Chemscore.DEClash>
0.0605

> <Gold.Chemscore.DEInternal>
3.4956

> <Gold.Chemscore.Rot>
2.9006

> <Gold.Chemscore.Internal.Correction>
   9.000000E+99

> <Gold.Chemscore.Hbonds>
donor molecule, donor type, donor heavy atom, donor atom, acceptor molecule, acceptor atom, score
      L1  H     3    64       P1 10957  0.65
      L1  H    21    50       P1  8028  0.96
      P1  H 10752 10763       L1    15  0.26

> <Gold.Chemscore.Hbond.Weighted>
-7.3542

> <Gold.Chemscore.Metal.Weighted>
-0.0000

> <Gold.Chemscore.Lipo.Weighted>
-11.1524

> <Gold.Chemscore.Internal_Hbond.Weighted>
0.0000

> <Gold.Chemscore.DEClash.Weighted>
0.0605

> <Gold.Chemscore.DEInternal.Weighted>
3.4956

> <Gold.Chemscore.Rot.Weighted>
7.4256

> <Gold.Chemscore.Internal.Correction.Weighted>
   9.000000E+99

> <Gold.Protein.RotatedTorsions>
[ 6907 6896 6895 6894 ] final -147.03 input  -60.11 | X-H torsion
[ 7974 7965 7964 7962 ] final    8.42 input  175.53 | X-H torsion
[ 8008 7997 7996 7995 ] final -101.58 input   59.86 | X-H torsion
[ 10167 10162 10161 10158 ] final -103.63 input  -65.29 | X-H torsion
[ 10718 10713 10712 10709 ] final  -73.16 input   66.30 | X-H torsion
[ 10763 10752 10751 10750 ] final   44.07 input  -60.55 | X-H torsion
[ 11005 11000 10999 10996 ] final -107.92 input  -57.11 | X-H torsion

> <Gold.Protein.ActiveResidues>
 VAL166  LYS551  ARG553  GLY616  TRP617  ASP618  TYR619  PRO620  LYS621  CYS622 
 ASP623  PHE694  ASN695  SER759  ASP760  ASP761  ALA762  ILE779  LEU786  VAL792 
 PHE793  MET794  SER795  GLU796  ALA797  LYS798  CYS799  TRP800  GLU811  SER814 

> <Gold.Protein.RotatedAtoms>
  151.1499  133.4914  159.2595 H   0  0  0  0  0  0  0  0  0  0  0  0  # atno 6907 bound_to 6896
  151.1564  135.0252  159.8701 H   0  0  0  0  0  0  0  0  0  0  0  0  # atno 6908 bound_to 6896
  152.5463  134.1378  159.8519 H   0  0  0  0  0  0  0  0  0  0  0  0  # atno 6909 bound_to 6896
  146.2416  139.9935  142.8423 H   0  0  0  0  0  0  0  0  0  0  0  0  # atno 7974 bound_to 7965
  154.8445  140.0433  157.1563 H   0  0  0  0  0  0  0  0  0  0  0  0  # atno 8008 bound_to 7997
  154.9010  140.3000  155.5297 H   0  0  0  0  0  0  0  0  0  0  0  0  # atno 8009 bound_to 7997
  156.2994  140.2376  156.4038 H   0  0  0  0  0  0  0  0  0  0  0  0  # atno 8010 bound_to 7997
  140.2179  143.3698  152.0995 H   0  0  0  0  0  0  0  0  0  0  0  0  # atno 10167 bound_to 10162
  156.0291  130.4388  150.2701 H   0  0  0  0  0  0  0  0  0  0  0  0  # atno 10718 bound_to 10713
  152.9848  135.6082  154.3214 H   0  0  0  0  0  0  0  0  0  0  0  0  # atno 10763 bound_to 10752
  154.2923  135.2774  155.2651 H   0  0  0  0  0  0  0  0  0  0  0  0  # atno 10764 bound_to 10752
  154.4940  135.5884  153.6537 H   0  0  0  0  0  0  0  0  0  0  0  0  # atno 10765 bound_to 10752
  141.0929  133.9023  157.2033 H   0  0  0  0  0  0  0  0  0  0  0  0  # atno 11005 bound_to 11000
  145.1481  140.9608  143.4449 LP  0  0  0  0  0  0  0  0  0  0  0  0  # atno 17320 bound_to 7965
  145.0231  139.3406  143.6062 LP  0  0  0  0  0  0  0  0  0  0  0  0  # atno 17321 bound_to 7965
  139.5155  144.6964  151.5619 LP  0  0  0  0  0  0  0  0  0  0  0  0  # atno 17342 bound_to 10162
  140.6276  143.9138  150.6578 LP  0  0  0  0  0  0  0  0  0  0  0  0  # atno 17343 bound_to 10162
  157.0804  131.0141  151.3159 LP  0  0  0  0  0  0  0  0  0  0  0  0  # atno 17370 bound_to 10713
  157.4932  130.7834  149.7528 LP  0  0  0  0  0  0  0  0  0  0  0  0  # atno 17371 bound_to 10713
  139.9758  135.0114  156.9628 LP  0  0  0  0  0  0  0  0  0  0  0  0  # atno 17394 bound_to 11000
  140.5210  134.0907  155.7292 LP  0  0  0  0  0  0  0  0  0  0  0  0  # atno 17395 bound_to 11000

$$$$
