AV-unprocessed.smi:2647|AV-procd|sdf|10284|dock7
  -GOLD-   2272014293D 1   1.00000     0.00000
 Structure written by MMmdl.
 31 32  0  0  0  0  0  0  0  0  2 V2000
  150.3010  135.0653  156.3470 O   0  0  0  0  0  0  0  0  0  0  0  0
  149.8805  135.2333  155.1999 C   0  0  0  0  0  0  0  0  0  0  0  0
  150.0166  136.4273  154.6054 N   0  0  0  0  0  0  0  0  0  0  0  0
  150.6302  137.6127  155.1944 C   0  0  0  0  0  0  0  0  0  0  0  0
  151.8618  138.0678  154.3955 C   0  0  0  0  0  0  0  0  0  0  0  0
  152.6417  139.1865  155.1068 C   0  0  0  0  0  0  0  0  0  0  0  0
  151.7491  140.0500  155.8866 N   0  0  0  0  0  0  0  0  0  0  0  0
  151.9611  140.3877  157.1665 C   0  0  0  0  0  0  0  0  0  0  0  0
  152.9016  140.0223  157.8713 O   0  0  0  0  0  0  0  0  0  0  0  0
  150.8680  141.3178  157.6749 C   0  0  0  0  0  0  0  0  0  0  0  0
  149.9531  141.4752  156.4564 C   0  0  0  0  0  0  0  0  0  0  0  0
  150.6405  140.6239  155.3974 C   0  0  0  0  0  0  0  0  0  0  0  0
  150.2025  140.5085  154.2533 O   0  0  0  0  0  0  0  0  0  0  0  0
  149.2617  134.3092  154.4301 N   0  5  0  0  0  0  0  0  0  0  0  0
  149.5110  133.0026  154.6176 C   0  0  0  0  0  0  0  0  0  0  0  0
  150.4160  132.5641  155.5074 N   0  0  0  0  0  0  0  0  0  0  0  0
  150.5232  131.1803  155.5408 N   0  0  0  0  0  0  0  0  0  0  0  0
  149.6983  130.6079  154.6642 C   0  0  0  0  0  0  0  0  0  0  0  0
  148.7177  131.7068  153.7175 S   0  0  0  0  0  0  0  0  0  0  0  0
  149.6592  136.5187  153.6658 H   0  0  0  0  0  0  0  0  0  0  0  0
  149.8987  138.4194  155.2660 H   0  0  0  0  0  0  0  0  0  0  0  0
  150.9212  137.3663  156.2157 H   0  0  0  0  0  0  0  0  0  0  0  0
  152.5192  137.2134  154.2279 H   0  0  0  0  0  0  0  0  0  0  0  0
  151.5502  138.4151  153.4096 H   0  0  0  0  0  0  0  0  0  0  0  0
  153.4036  138.7508  155.7554 H   0  0  0  0  0  0  0  0  0  0  0  0
  153.1871  139.7833  154.3736 H   0  0  0  0  0  0  0  0  0  0  0  0
  150.3462  140.8700  158.5212 H   0  0  0  0  0  0  0  0  0  0  0  0
  151.2946  142.2713  157.9878 H   0  0  0  0  0  0  0  0  0  0  0  0
  148.9473  141.1020  156.6521 H   0  0  0  0  0  0  0  0  0  0  0  0
  149.8865  142.5133  156.1288 H   0  0  0  0  0  0  0  0  0  0  0  0
  149.6686  129.5325  154.5727 H   0  0  0  0  0  0  0  0  0  0  0  0
  1  2  2  0  0  0  0
  2  3  1  0  0  0  0
  2 14  1  0  0  0  0
  3  4  1  0  0  0  0
  3 20  1  0  0  0  0
  4  5  1  0  0  0  0
  4 21  1  0  0  0  0
  4 22  1  0  0  0  0
  5  6  1  0  0  0  0
  5 23  1  0  0  0  0
  5 24  1  0  0  0  0
  6  7  1  0  0  0  0
  6 25  1  0  0  0  0
  6 26  1  0  0  0  0
  7 12  1  0  0  0  0
  7  8  1  0  0  0  0
  8  9  2  0  0  0  0
  8 10  1  0  0  0  0
 10 11  1  0  0  0  0
 10 27  1  0  0  0  0
 10 28  1  0  0  0  0
 11 12  1  0  0  0  0
 11 29  1  0  0  0  0
 11 30  1  0  0  0  0
 12 13  2  0  0  0  0
 14 15  1  0  0  0  0
 15 19  1  0  0  0  0
 15 16  2  0  0  0  0
 16 17  1  0  0  0  0
 17 18  2  0  0  0  0
 18 19  1  0  0  0  0
 18 31  1  0  0  0  0
M  CHG  1  14  -1
M  END
> <s_m_source_file>
AV-unprocessed.smi

> <i_m_source_file_index>
2647

> <i_lp_mmshare_version>
43012

> <i_f3d_flags>
0

> <s_epik_input>
czFbY0hdbm5jMVtOSF1DKD1PKVtOSF1bQ0gyXVtDSDJdW0NIMl1OMkMoPU8pW0NIMl1bQ0gyXUMyPU8=

> <s_epik_cmdline>
J2VwaWtfcHl0aG9uJywgJy1waCcsICc3LjAnLCAnLXRuJywgJzgnLCAnLW1hJywgJzIwMCcsICctbWV0YWxfYmluZGluZycsICctaW1hZScsICc8aW5maWxlLm1hZT4nLCAnLW9tYWUnLCAnPG91dGZpbGUubWFlPic=

> <r_lp_tautomer_probability>
1

> <r_epik_Ionization_Penalty>
3.50019

> <r_epik_Ionization_Penalty_Charging>
3.45871

> <r_epik_Ionization_Penalty_Neutral>
0.0414811

> <r_epik_State_Penalty>
3.45698

> <r_epik_Charging_Adjusted_Penalty>
6.91569

> <i_epik_Tot_Q>
-1

> <i_epik_Tot_abs_Q>
1

> <r_epik_Metal_State_Penalty>
0.503209

> <b_epik_Metal_Only>
1

> <s_lp_Force_Field>
OPLS_2005

> <r_lp_Energy>
9.35786

> <b_lp_Chiralities_Consistent>
1

> <s_lp_Variant>
AV-unprocessed.smi:2647-2

> <Gold.Version>
5.8.1

> <Gold.Id.Protein>
6NUR|6NUR_protein|mol2

> <Gold.PLP.Fitness>
41.5603

> <Gold.PLP.PLP>
-33.6263

> <Gold.PLP.part.hbond>
-3.1051

> <Gold.PLP.part.metal>
0.0000

> <Gold.PLP.part.buried>
-4.3852

> <Gold.PLP.part.nonpolar>
-27.0441

> <Gold.PLP.part.repulsive>
0.4738

> <Gold.PLP.ligand.clash>
0.0000

> <Gold.PLP.ligand.torsion>
0.4273

> <Gold.PLP.Chemscore.Hbond>
2.8960

> <Gold.PLP.Chemscore.CHOScore>
0.0000

> <Gold.PLP.Chemscore.Metal>
0.0000

> <Gold.Chemscore.Hbonds>
donor molecule, donor type, donor heavy atom, donor atom, acceptor molecule, acceptor atom, score
      L1  H     3    20       P1  7948  1.00
      P1  H  7989  7998       L1    13  0.69
      P1  H  7997  8008       L1     9  1.00

> <Gold.PLP.Chemscore.Internal.Correction>
0.1005

> <Gold.Rescore>
     Score         DG    S(hbond)    S(metal)    S(lipo)     H(rot)  DE(clash)    DE(int)     intcor
      8.01     -11.07       1.86        0.00      45.35       2.32       0.02       3.04       ----

> <Gold.Chemscore.Fitness>
8.0137

> <Gold.Chemscore.DG>
-11.0702

> <Gold.Chemscore.ZeroCoef>
-5.4800

> <Gold.Chemscore.Hbond>
1.8647

> <Gold.Chemscore.Metal>
0.0000

> <Gold.Chemscore.Lipo>
45.3514

> <Gold.Chemscore.Internal_Hbond>
0.0000

> <Gold.Chemscore.DEClash>
0.0181

> <Gold.Chemscore.DEInternal>
3.0384

> <Gold.Chemscore.Rot>
2.3219

> <Gold.Chemscore.Internal.Correction>
   9.000000E+99

> <Gold.Chemscore.Hbonds>
donor molecule, donor type, donor heavy atom, donor atom, acceptor molecule, acceptor atom, score
      L1  H     3    20       P1  7948  0.55
      P1  H  7989  7998       L1    13  0.10
      P1  H  7997  8008       L1     9  0.64

> <Gold.Chemscore.Hbond.Weighted>
-6.2282

> <Gold.Chemscore.Metal.Weighted>
-0.0000

> <Gold.Chemscore.Lipo.Weighted>
-5.3061

> <Gold.Chemscore.Internal_Hbond.Weighted>
0.0000

> <Gold.Chemscore.DEClash.Weighted>
0.0181

> <Gold.Chemscore.DEInternal.Weighted>
3.0384

> <Gold.Chemscore.Rot.Weighted>
5.9441

> <Gold.Chemscore.Internal.Correction.Weighted>
   9.000000E+99

> <Gold.Protein.RotatedTorsions>
[ 6907 6896 6895 6894 ] final   10.35 input  -60.11 | X-H torsion
[ 7974 7965 7964 7962 ] final -146.71 input  175.53 | X-H torsion
[ 8008 7997 7996 7995 ] final  -71.47 input   59.86 | X-H torsion
[ 10167 10162 10161 10158 ] final   66.37 input  -65.29 | X-H torsion
[ 10718 10713 10712 10709 ] final  -84.85 input   66.30 | X-H torsion
[ 10763 10752 10751 10750 ] final  145.82 input  -60.55 | X-H torsion
[ 11005 11000 10999 10996 ] final  153.19 input  -57.11 | X-H torsion

> <Gold.Protein.ActiveResidues>
 VAL166  LYS551  ARG553  GLY616  TRP617  ASP618  TYR619  PRO620  LYS621  CYS622 
 ASP623  PHE694  ASN695  SER759  ASP760  ASP761  ALA762  ILE779  LEU786  VAL792 
 PHE793  MET794  SER795  GLU796  ALA797  LYS798  CYS799  TRP800  GLU811  SER814 

> <Gold.Protein.RotatedAtoms>
  151.7368  135.0863  160.0308 H   0  0  0  0  0  0  0  0  0  0  0  0  # atno 6907 bound_to 6896
  152.3505  133.6170  159.5950 H   0  0  0  0  0  0  0  0  0  0  0  0  # atno 6908 bound_to 6896
  150.7537  133.9497  159.3523 H   0  0  0  0  0  0  0  0  0  0  0  0  # atno 6909 bound_to 6896
  144.8141  140.5421  143.5622 H   0  0  0  0  0  0  0  0  0  0  0  0  # atno 7974 bound_to 7965
  154.5090  140.0815  156.7952 H   0  0  0  0  0  0  0  0  0  0  0  0  # atno 8008 bound_to 7997
  155.3828  140.3428  155.4229 H   0  0  0  0  0  0  0  0  0  0  0  0  # atno 8009 bound_to 7997
  156.1550  140.1570  156.8694 H   0  0  0  0  0  0  0  0  0  0  0  0  # atno 8010 bound_to 7997
  140.1012  144.4902  150.7036 H   0  0  0  0  0  0  0  0  0  0  0  0  # atno 10167 bound_to 10162
  156.0002  130.4711  150.4473 H   0  0  0  0  0  0  0  0  0  0  0  0  # atno 10718 bound_to 10713
  154.0117  135.2914  155.3391 H   0  0  0  0  0  0  0  0  0  0  0  0  # atno 10763 bound_to 10752
  154.7099  135.5153  153.8654 H   0  0  0  0  0  0  0  0  0  0  0  0  # atno 10764 bound_to 10752
  153.0720  135.6651  154.0348 H   0  0  0  0  0  0  0  0  0  0  0  0  # atno 10765 bound_to 10752
  140.1376  134.8761  157.2288 H   0  0  0  0  0  0  0  0  0  0  0  0  # atno 11005 bound_to 11000
  145.5254  139.1476  143.3529 LP  0  0  0  0  0  0  0  0  0  0  0  0  # atno 17320 bound_to 7965
  146.2443  140.5395  142.8920 LP  0  0  0  0  0  0  0  0  0  0  0  0  # atno 17321 bound_to 7965
  140.6977  143.2414  151.4955 LP  0  0  0  0  0  0  0  0  0  0  0  0  # atno 17342 bound_to 10162
  139.5670  144.2018  152.1780 LP  0  0  0  0  0  0  0  0  0  0  0  0  # atno 17343 bound_to 10162
  157.2509  131.0546  151.2380 LP  0  0  0  0  0  0  0  0  0  0  0  0  # atno 17370 bound_to 10713
  157.3529  130.7091  149.6452 LP  0  0  0  0  0  0  0  0  0  0  0  0  # atno 17371 bound_to 10713
  140.2763  134.3402  155.7357 LP  0  0  0  0  0  0  0  0  0  0  0  0  # atno 17394 bound_to 11000
  141.2181  133.7452  156.9298 LP  0  0  0  0  0  0  0  0  0  0  0  0  # atno 17395 bound_to 11000

$$$$
