AV-unprocessed.smi:1641|AV-procd|sdf|6568|dock7
  -GOLD-   22720 7253D 1   1.00000     0.00000
 Structure written by MMmdl.
 41 42  0  0  0  0  0  0  0  0  3 V2000
  151.3862  141.8005  155.3777 C   0  0  0  0  0  0  0  0  0  0  0  0
  151.6870  140.3853  155.0200 C   0  0  0  0  0  0  0  0  0  0  0  0
  152.8383  140.0096  154.4575 N   0  0  0  0  0  0  0  0  0  0  0  0
  152.8817  138.6437  154.2172 N   0  0  0  0  0  0  0  0  0  0  0  0
  151.7610  138.0088  154.5895 C   0  0  0  0  0  0  0  0  0  0  0  0
  151.5980  136.6837  154.4425 N   0  5  0  0  0  0  0  0  0  0  0  0
  150.5467  136.0648  155.0246 C   0  0  0  0  0  0  0  0  0  0  0  0
  150.5424  135.5092  156.1255 O   0  0  0  0  0  0  0  0  0  0  0  0
  149.4311  136.0828  154.2814 N   0  0  0  0  0  0  0  0  0  0  0  0
  148.1556  135.4789  154.6476 C   0  0  0  0  0  0  0  0  0  0  0  0
  147.9369  134.1397  153.9173 C   0  0  0  0  0  0  0  0  0  0  0  0
  147.1775  134.3002  152.6530 N   0  3  1  0  0  0  0  0  0  0  0  0
  146.8509  132.9997  152.0239 C   0  0  0  0  0  0  0  0  0  0  0  0
  146.1582  133.2148  150.6664 C   0  0  1  0  0  0  0  0  0  0  0  0
  145.7211  131.8915  150.0287 C   0  0  0  0  0  0  0  0  0  0  0  0
  144.9948  134.0178  150.8474 O   0  0  0  0  0  0  0  0  0  0  0  0
  145.2326  135.2924  151.4448 C   0  0  2  0  0  0  0  0  0  0  0  0
  145.9499  136.2606  150.4869 C   0  0  0  0  0  0  0  0  0  0  0  0
  145.9501  135.1215  152.7981 C   0  0  0  0  0  0  0  0  0  0  0  0
  150.5515  139.0765  155.3010 S   0  0  0  0  0  0  0  0  0  0  0  0
  150.9793  142.3241  154.5126 H   0  0  0  0  0  0  0  0  0  0  0  0
  152.2928  142.3108  155.7042 H   0  0  0  0  0  0  0  0  0  0  0  0
  150.6556  141.8381  156.1859 H   0  0  0  0  0  0  0  0  0  0  0  0
  149.4777  136.5527  153.3889 H   0  0  0  0  0  0  0  0  0  0  0  0
  148.1186  135.3595  155.7305 H   0  0  0  0  0  0  0  0  0  0  0  0
  147.3624  136.1792  154.3848 H   0  0  0  0  0  0  0  0  0  0  0  0
  148.9163  133.7141  153.6942 H   0  0  0  0  0  0  0  0  0  0  0  0
  147.4271  133.4180  154.5574 H   0  0  0  0  0  0  0  0  0  0  0  0
  147.7639  132.4208  151.8791 H   0  0  0  0  0  0  0  0  0  0  0  0
  146.2088  132.4235  152.6926 H   0  0  0  0  0  0  0  0  0  0  0  0
  146.8446  133.7099  149.9791 H   0  0  0  0  0  0  0  0  0  0  0  0
  146.5749  131.2351  149.8588 H   0  0  0  0  0  0  0  0  0  0  0  0
  145.2390  132.0640  149.0662 H   0  0  0  0  0  0  0  0  0  0  0  0
  145.0122  131.3610  150.6650 H   0  0  0  0  0  0  0  0  0  0  0  0
  144.2492  135.7194  151.6436 H   0  0  0  0  0  0  0  0  0  0  0  0
  145.9974  137.2623  150.9149 H   0  0  0  0  0  0  0  0  0  0  0  0
  145.4181  136.3338  149.5380 H   0  0  0  0  0  0  0  0  0  0  0  0
  146.9733  135.9522  150.2746 H   0  0  0  0  0  0  0  0  0  0  0  0
  145.2794  134.6346  153.5080 H   0  0  0  0  0  0  0  0  0  0  0  0
  146.1827  136.1022  153.2114 H   0  0  0  0  0  0  0  0  0  0  0  0
  147.7874  134.7842  152.0098 H   0  0  0  0  0  0  0  0  0  0  0  0
  1  2  1  0  0  0  0
  1 21  1  0  0  0  0
  1 22  1  0  0  0  0
  1 23  1  0  0  0  0
  2 20  1  0  0  0  0
  2  3  2  0  0  0  0
  3  4  1  0  0  0  0
  4  5  2  0  0  0  0
  5  6  1  0  0  0  0
  5 20  1  0  0  0  0
  6  7  1  0  0  0  0
  7  8  2  0  0  0  0
  7  9  1  0  0  0  0
  9 10  1  0  0  0  0
  9 24  1  0  0  0  0
 10 11  1  0  0  0  0
 10 25  1  0  0  0  0
 10 26  1  0  0  0  0
 11 12  1  0  0  0  0
 11 27  1  0  0  0  0
 11 28  1  0  0  0  0
 12 19  1  0  0  0  0
 12 13  1  0  0  0  0
 12 41  1  0  0  0  0
 13 14  1  0  0  0  0
 13 29  1  0  0  0  0
 13 30  1  0  0  0  0
 14 15  1  0  0  0  0
 14 16  1  0  0  0  0
 14 31  1  0  0  0  0
 15 32  1  0  0  0  0
 15 33  1  0  0  0  0
 15 34  1  0  0  0  0
 16 17  1  0  0  0  0
 17 18  1  0  0  0  0
 17 19  1  0  0  0  0
 17 35  1  0  0  0  0
 18 36  1  0  0  0  0
 18 37  1  0  0  0  0
 18 38  1  0  0  0  0
 19 39  1  0  0  0  0
 19 40  1  0  0  0  0
M  CHG  1   6  -1
M  CHG  1  12   1
M  END
> <s_m_source_file>
AV-unprocessed.smi

> <i_m_source_file_index>
1641

> <i_lp_mmshare_version>
43012

> <i_f3d_flags>
0

> <s_epik_input>
W0NIM11jMW5uYyhzMSlbTkhdQyg9TylbTkhdW0NIMl1bQ0gyXU4yW0NIMl1bQ0BASF0oW0NIM10pT1tDQEBIXShbQ0gzXSlbQ0gyXTI=

> <s_epik_cmdline>
J2VwaWtfcHl0aG9uJywgJy1waCcsICc3LjAnLCAnLXRuJywgJzgnLCAnLW1hJywgJzIwMCcsICctbWV0YWxfYmluZGluZycsICctaW1hZScsICc8aW5maWxlLm1hZT4nLCAnLW9tYWUnLCAnPG91dGZpbGUubWFlPic=

> <r_lp_tautomer_probability>
1

> <r_epik_Ionization_Penalty>
3.5343

> <r_epik_Ionization_Penalty_Charging>
3.42778

> <r_epik_Ionization_Penalty_Neutral>
0.106519

> <r_epik_State_Penalty>
3.62118

> <r_epik_Charging_Adjusted_Penalty>
7.04896

> <i_epik_Tot_Q>
0

> <i_epik_Tot_abs_Q>
2

> <r_epik_Metal_State_Penalty>
1.13984

> <b_epik_Metal_Only>
1

> <s_lp_Force_Field>
OPLS_2005

> <r_lp_Energy>
9.90371

> <b_lp_Chiralities_Consistent>
1

> <s_lp_Variant>
AV-unprocessed.smi:1641-13

> <Gold.Version>
5.8.1

> <Gold.Id.Protein>
6NUR|6NUR_protein|mol2

> <Gold.PLP.Fitness>
48.1565

> <Gold.PLP.PLP>
-33.3262

> <Gold.PLP.part.hbond>
-5.0000

> <Gold.PLP.part.metal>
0.0000

> <Gold.PLP.part.buried>
-2.5733

> <Gold.PLP.part.nonpolar>
-25.3378

> <Gold.PLP.part.repulsive>
0.3781

> <Gold.PLP.ligand.clash>
0.0000

> <Gold.PLP.ligand.torsion>
1.1549

> <Gold.PLP.Chemscore.Hbond>
5.6926

> <Gold.PLP.Chemscore.CHOScore>
0.0000

> <Gold.PLP.Chemscore.Metal>
0.0000

> <Gold.Chemscore.Hbonds>
donor molecule, donor type, donor heavy atom, donor atom, acceptor molecule, acceptor atom, score
      L1  H     9    24       P1  7948  0.72
      L1  H    12    41       P1  7948  1.79
      P1  H  7997  8008       L1     3  0.07
      P1  H 10752 10764       L1     6  2.00

> <Gold.PLP.Chemscore.Internal.Correction>
0.0624

> <Gold.Rescore>
     Score         DG    S(hbond)    S(metal)    S(lipo)     H(rot)  DE(clash)    DE(int)     intcor
     17.28     -18.91       3.07        0.00      62.15       1.61       0.41       1.22       ----

> <Gold.Chemscore.Fitness>
17.2770

> <Gold.Chemscore.DG>
-18.9054

> <Gold.Chemscore.ZeroCoef>
-5.4800

> <Gold.Chemscore.Hbond>
3.0741

> <Gold.Chemscore.Metal>
0.0000

> <Gold.Chemscore.Lipo>
62.1534

> <Gold.Chemscore.Internal_Hbond>
0.0000

> <Gold.Chemscore.DEClash>
0.4070

> <Gold.Chemscore.DEInternal>
1.2215

> <Gold.Chemscore.Rot>
1.6070

> <Gold.Chemscore.Internal.Correction>
   9.000000E+99

> <Gold.Chemscore.Hbonds>
donor molecule, donor type, donor heavy atom, donor atom, acceptor molecule, acceptor atom, score
      L1  H     9    24       P1  7948  0.53
      L1  H    12    41       P1  7948  0.49
      P1  H  7997  8008       L1     3  0.01
      P1  H 10752 10764       L1     6  0.77

> <Gold.Chemscore.Hbond.Weighted>
-10.2673

> <Gold.Chemscore.Metal.Weighted>
-0.0000

> <Gold.Chemscore.Lipo.Weighted>
-7.2720

> <Gold.Chemscore.Internal_Hbond.Weighted>
0.0000

> <Gold.Chemscore.DEClash.Weighted>
0.4070

> <Gold.Chemscore.DEInternal.Weighted>
1.2215

> <Gold.Chemscore.Rot.Weighted>
4.1139

> <Gold.Chemscore.Internal.Correction.Weighted>
   9.000000E+99

> <Gold.Protein.RotatedTorsions>
[ 6907 6896 6895 6894 ] final -172.00 input  -60.11 | X-H torsion
[ 7974 7965 7964 7962 ] final -117.74 input  175.53 | X-H torsion
[ 8008 7997 7996 7995 ] final  -43.20 input   59.86 | X-H torsion
[ 10167 10162 10161 10158 ] final   88.40 input  -65.29 | X-H torsion
[ 10718 10713 10712 10709 ] final -146.76 input   66.30 | X-H torsion
[ 10763 10752 10751 10750 ] final  -74.47 input  -60.55 | X-H torsion
[ 11005 11000 10999 10996 ] final  -83.46 input  -57.11 | X-H torsion

> <Gold.Protein.ActiveResidues>
 VAL166  LYS551  ARG553  GLY616  TRP617  ASP618  TYR619  PRO620  LYS621  CYS622 
 ASP623  PHE694  ASN695  SER759  ASP760  ASP761  ALA762  ILE779  LEU786  VAL792 
 PHE793  MET794  SER795  GLU796  ALA797  LYS798  CYS799  TRP800  GLU811  SER814 

> <Gold.Protein.RotatedAtoms>
  151.5329  133.3446  159.2921 H   0  0  0  0  0  0  0  0  0  0  0  0  # atno 6907 bound_to 6896
  150.8582  134.7929  159.7073 H   0  0  0  0  0  0  0  0  0  0  0  0  # atno 6908 bound_to 6896
  152.4609  134.5194  159.9829 H   0  0  0  0  0  0  0  0  0  0  0  0  # atno 6909 bound_to 6896
  145.0818  140.8430  143.4034 H   0  0  0  0  0  0  0  0  0  0  0  0  # atno 7974 bound_to 7965
  154.3997  140.1454  156.3479 H   0  0  0  0  0  0  0  0  0  0  0  0  # atno 8008 bound_to 7997
  155.8296  140.3466  155.5543 H   0  0  0  0  0  0  0  0  0  0  0  0  # atno 8009 bound_to 7997
  155.8202  140.0897  157.1844 H   0  0  0  0  0  0  0  0  0  0  0  0  # atno 8010 bound_to 7997
  139.8677  144.6510  150.8985 H   0  0  0  0  0  0  0  0  0  0  0  0  # atno 10167 bound_to 10162
  156.3990  130.7924  151.2133 H   0  0  0  0  0  0  0  0  0  0  0  0  # atno 10718 bound_to 10713
  154.4736  135.5863  153.6339 H   0  0  0  0  0  0  0  0  0  0  0  0  # atno 10763 bound_to 10752
  152.9838  135.6072  154.3336 H   0  0  0  0  0  0  0  0  0  0  0  0  # atno 10764 bound_to 10752
  154.3220  135.2843  155.2494 H   0  0  0  0  0  0  0  0  0  0  0  0  # atno 10765 bound_to 10752
  141.1657  133.7295  156.8723 H   0  0  0  0  0  0  0  0  0  0  0  0  # atno 11005 bound_to 11000
  145.1169  139.2719  143.5608 LP  0  0  0  0  0  0  0  0  0  0  0  0  # atno 17320 bound_to 7965
  146.3531  140.0782  142.8619 LP  0  0  0  0  0  0  0  0  0  0  0  0  # atno 17321 bound_to 7965
  140.7765  143.3690  151.1684 LP  0  0  0  0  0  0  0  0  0  0  0  0  # atno 17342 bound_to 10162
  139.7313  143.9068  152.3020 LP  0  0  0  0  0  0  0  0  0  0  0  0  # atno 17343 bound_to 10162
  157.7503  131.0292  150.4085 LP  0  0  0  0  0  0  0  0  0  0  0  0  # atno 17370 bound_to 10713
  156.4361  130.3982  149.6728 LP  0  0  0  0  0  0  0  0  0  0  0  0  # atno 17371 bound_to 10713
  140.1773  134.9058  157.2906 LP  0  0  0  0  0  0  0  0  0  0  0  0  # atno 17394 bound_to 11000
  140.2435  134.3768  155.7471 LP  0  0  0  0  0  0  0  0  0  0  0  0  # atno 17395 bound_to 11000

$$$$
