#       Name:                AV-unprocessed.smi:2269
#       Creating user name   scv26
#       Creation time:       Fri Mar 27 12:36:09 2020


#       File generated by GOLD software.
#

@<TRIPOS>MOLECULE
AV-unprocessed.smi:2269
    48    49     1
SMALL
NO_CHARGES


@<TRIPOS>ATOM
      1 ****        -2.1328   5.6426  -0.2631 C.3            1 S1                 0.0000
      2 ****        -1.5371   4.2615  -0.0536 C.2            1 S1                 0.0000
      3 ****        -1.0601   3.9987   1.2341 N.2            1 S1                 0.0000
      4 ****        -0.5379   2.8475   1.5055 C.2            1 S1                 0.0000
      5 ****        -0.4346   1.8378   0.5355 N.am           1 S1                 0.0000
      6 ****         0.1842   0.5761   0.9714 C.3            1 S1                 0.0000
      7 ****         1.6769   0.4948   0.5760 C.3            1 S1                 0.0000
      8 ****         2.4608   0.9832   1.6458 O.3            1 S1                 0.0000
      9 ****         2.1213  -0.9498   0.3061 C.3            1 S1                 0.0000
     10 ****         1.5352  -1.3765  -0.9150 O.3            1 S1                 0.0000
     11 ****         1.7605  -2.7444  -1.2211 C.3            1 S1                 0.0000
     12 ****         0.9661  -3.6931  -0.3352 C.ar           1 S1                 0.0000
     13 ****         1.6536  -4.6333   0.4623 C.ar           1 S1                 0.0000
     14 ****         0.9414  -5.5228   1.2893 C.ar           1 S1                 0.0000
     15 ****        -0.4647  -5.4795   1.3220 C.ar           1 S1                 0.0000
     16 ****        -1.1572  -4.5480   0.5254 C.ar           1 S1                 0.0000
     17 ****        -0.4490  -3.6557  -0.3046 C.ar           1 S1                 0.0000
     18 ****        -1.3390  -2.5327  -1.2725 Cl             1 S1                 0.0000
     19 ****        -0.8659   2.0134  -0.7472 C.2            1 S1                 0.0000
     20 ****        -0.7547   1.1254  -1.5947 O.2            1 S1                 0.0000
     21 ****        -1.4610   3.3272  -1.0405 C.2            1 S1                 0.0000
     22 ****        -1.9619   3.5577  -2.4610 C.3            1 S1                 0.0000
     23 ****        -1.5808   6.1842  -1.0317 H              1 S1                 0.0000
     24 ****        -2.0971   6.2338   0.6528 H              1 S1                 0.0000
     25 ****        -3.1762   5.5660  -0.5700 H              1 S1                 0.0000
     26 ****        -0.1465   2.5933   2.4922 H              1 S1                 0.0000
     27 ****         0.0568   0.3999   2.0419 H              1 S1                 0.0000
     28 ****        -0.3642  -0.2462   0.5088 H              1 S1                 0.0000
     29 ****         1.8881   1.0974  -0.3085 H              1 S1                 0.0000
     30 ****         2.2591   1.8976   1.7732 H              1 S1                 0.0000
     31 ****         3.2071  -1.0052   0.2129 H              1 S1                 0.0000
     32 ****         1.8302  -1.5936   1.1376 H              1 S1                 0.0000
     33 ****         1.4584  -2.9137  -2.2548 H              1 S1                 0.0000
     34 ****         2.8274  -2.9681  -1.1752 H              1 S1                 0.0000
     35 ****         2.7328  -4.6744   0.4457 H              1 S1                 0.0000
     36 ****         1.4743  -6.2381   1.8984 H              1 S1                 0.0000
     37 ****        -1.0121  -6.1614   1.9560 H              1 S1                 0.0000
     38 ****        -2.2365  -4.5197   0.5508 H              1 S1                 0.0000
     39 ****        -2.7333   2.8284  -2.7102 H              1 S1                 0.0000
     40 ****        -1.1434   3.4401  -3.1717 H              1 S1                 0.0000
     41 ****        -2.3866   4.5488  -2.6117 H              1 S1                 0.0000
     42 ****        -1.1228   4.7001   1.9441 LP             1 S1                 0.0000
     43 ****         3.4311   0.8792   1.4276 LP             1 S1                 0.0000
     44 ****         2.2498   0.4722   2.4790 LP             1 S1                 0.0000
     45 ****         1.9151  -0.8225  -1.6558 LP             1 S1                 0.0000
     46 ****         0.5482  -1.2260  -0.8587 LP             1 S1                 0.0000
     47 ****        -0.3398   0.2493  -1.3494 LP             1 S1                 0.0000
     48 ****        -1.0795   1.2811  -2.5276 LP             1 S1                 0.0000
@<TRIPOS>BOND
    1    1    2 1     
    2    1   23 1     
    3    1   24 1     
    4    1   25 1     
    5    2   21 2     
    6    2    3 1     
    7    3    4 2     
    8    4    5 1     
    9    4   26 1     
   10    5    6 1     
   11    5   19 am    
   12    6    7 1     
   13    6   27 1     
   14    6   28 1     
   15    7    8 1     
   16    7    9 1     
   17    7   29 1     
   18    8   30 1     
   19    9   10 1     
   20    9   31 1     
   21    9   32 1     
   22   10   11 1     
   23   11   12 1     
   24   11   33 1     
   25   11   34 1     
   26   12   17 ar    
   27   12   13 ar    
   28   13   14 ar    
   29   13   35 1     
   30   14   15 ar    
   31   14   36 1     
   32   15   16 ar    
   33   15   37 1     
   34   16   17 ar    
   35   16   38 1     
   36   17   18 1     
   37   19   20 2     
   38   19   21 1     
   39   21   22 1     
   40   22   39 1     
   41   22   40 1     
   42   22   41 1     
   43    3   42 1     
   44    8   43 1     
   45    8   44 1     
   46   10   45 1     
   47   10   46 1     
   48   20   47 1     
   49   20   48 1     
@<TRIPOS>SUBSTRUCTURE
      1 S1             1
@<TRIPOS>SET
LONE_PAIRS      STATIC     ATOMS    <user>   **** ""
7 42 43 44 45 46 47 48
DONOR_HYDROGENS      STATIC     ATOMS    <user>   **** ""
1 30
ATOM$BLUE        STATIC     ATOMS    COLORGROUP SYSTEM
7 42 43 44 45 46 47 48
ATOM$RED        STATIC     ATOMS    COLORGROUP SYSTEM
1 30
