AV-unprocessed.smi:2237|AV-procd|sdf|9053|dock3
  -GOLD-   2272012253D 1   1.00000     0.00000
 Structure written by MMmdl.
 54 56  0  0  0  0  0  0  0  0  2 V2000
  153.4897  141.7764  161.0139 C   0  0  0  0  0  0  0  0  0  0  0  0
  152.5493  142.7848  160.3881 C   0  0  0  0  0  0  0  0  0  0  0  0
  152.2578  144.0025  161.0335 C   0  0  0  0  0  0  0  0  0  0  0  0
  151.3791  144.8963  160.3958 C   0  0  0  0  0  0  0  0  0  0  0  0
  150.8323  144.5388  159.1480 C   0  0  0  0  0  0  0  0  0  0  0  0
  151.1724  143.2946  158.5712 C   0  0  0  0  0  0  0  0  0  0  0  0
  150.5751  143.0300  157.3099 N   0  0  0  0  0  0  0  0  0  0  0  0
  150.4005  141.8392  156.7099 C   0  0  0  0  0  0  0  0  0  0  0  0
  150.6799  140.7460  157.2031 O   0  0  0  0  0  0  0  0  0  0  0  0
  149.8592  141.9816  155.4909 N   0  0  0  0  0  0  0  0  0  0  0  0
  149.5184  140.8832  154.5909 C   0  0  2  0  0  0  0  0  0  0  0  0
  148.1579  140.2816  154.9841 C   0  0  0  0  0  0  0  0  0  0  0  0
  147.8436  139.0401  154.1283 C   0  0  0  0  0  0  0  0  0  0  0  0
  148.9013  137.9975  154.2612 N   0  3  2  0  0  0  0  0  0  0  0  0
  148.9449  137.2802  155.5806 C   0  0  0  0  0  0  0  0  0  0  0  0
  149.9755  136.1260  155.5723 C   0  0  0  0  0  0  0  0  0  0  0  0
  149.9512  135.3160  156.8798 C   0  0  0  0  0  0  0  0  0  0  0  0
  148.6202  134.7577  157.0987 N   0  0  0  0  0  0  0  0  0  0  0  0
  148.6332  133.9354  158.3003 C   0  0  0  0  0  0  0  0  0  0  0  0
  147.6596  135.8437  157.2686 C   0  0  0  0  0  0  0  0  0  0  0  0
  147.5750  136.6804  155.9810 C   0  0  0  0  0  0  0  0  0  0  0  0
  150.2061  138.5600  153.8070 C   0  0  0  0  0  0  0  0  0  0  0  0
  150.6169  139.8028  154.6220 C   0  0  0  0  0  0  0  0  0  0  0  0
  152.0213  142.4393  159.1940 N   0  0  0  0  0  0  0  0  0  0  0  0
  154.0126  142.2022  161.8706 H   0  0  0  0  0  0  0  0  0  0  0  0
  154.2365  141.4502  160.2892 H   0  0  0  0  0  0  0  0  0  0  0  0
  152.9337  140.9017  161.3519 H   0  0  0  0  0  0  0  0  0  0  0  0
  152.6949  144.2478  161.9905 H   0  0  0  0  0  0  0  0  0  0  0  0
  151.1281  145.8411  160.8547 H   0  0  0  0  0  0  0  0  0  0  0  0
  150.1567  145.2153  158.6450 H   0  0  0  0  0  0  0  0  0  0  0  0
  150.2505  143.8416  156.8054 H   0  0  0  0  0  0  0  0  0  0  0  0
  149.6610  142.9168  155.1660 H   0  0  0  0  0  0  0  0  0  0  0  0
  149.4295  141.2590  153.5695 H   0  0  0  0  0  0  0  0  0  0  0  0
  148.1498  140.0178  156.0423 H   0  0  0  0  0  0  0  0  0  0  0  0
  147.3727  141.0265  154.8496 H   0  0  0  0  0  0  0  0  0  0  0  0
  146.8511  138.6512  154.3467 H   0  0  0  0  0  0  0  0  0  0  0  0
  147.7928  139.3388  153.0803 H   0  0  0  0  0  0  0  0  0  0  0  0
  149.2327  137.9875  156.3584 H   0  0  0  0  0  0  0  0  0  0  0  0
  149.7833  135.4610  154.7288 H   0  0  0  0  0  0  0  0  0  0  0  0
  150.9886  136.5038  155.4469 H   0  0  0  0  0  0  0  0  0  0  0  0
  150.6791  134.5059  156.8168 H   0  0  0  0  0  0  0  0  0  0  0  0
  150.2439  135.9441  157.7230 H   0  0  0  0  0  0  0  0  0  0  0  0
  147.6495  133.4979  158.4745 H   0  0  0  0  0  0  0  0  0  0  0  0
  148.9093  134.5177  159.1807 H   0  0  0  0  0  0  0  0  0  0  0  0
  149.3452  133.1159  158.1955 H   0  0  0  0  0  0  0  0  0  0  0  0
  146.6770  135.4281  157.4953 H   0  0  0  0  0  0  0  0  0  0  0  0
  147.9433  136.4734  158.1138 H   0  0  0  0  0  0  0  0  0  0  0  0
  146.8436  137.4675  156.1605 H   0  0  0  0  0  0  0  0  0  0  0  0
  147.1843  136.0631  155.1706 H   0  0  0  0  0  0  0  0  0  0  0  0
  150.9997  137.8160  153.8148 H   0  0  0  0  0  0  0  0  0  0  0  0
  150.1043  138.8452  152.7589 H   0  0  0  0  0  0  0  0  0  0  0  0
  151.5454  140.2102  154.2200 H   0  0  0  0  0  0  0  0  0  0  0  0
  150.8358  139.5177  155.6516 H   0  0  0  0  0  0  0  0  0  0  0  0
  148.6601  137.2839  153.5880 H   0  0  0  0  0  0  0  0  0  0  0  0
  1  2  1  0  0  0  0
  1 25  1  0  0  0  0
  1 26  1  0  0  0  0
  1 27  1  0  0  0  0
  2 24  1  0  0  0  0
  2  3  2  0  0  0  0
  3  4  1  0  0  0  0
  3 28  1  0  0  0  0
  4  5  2  0  0  0  0
  4 29  1  0  0  0  0
  5  6  1  0  0  0  0
  5 30  1  0  0  0  0
  6  7  1  0  0  0  0
  6 24  2  0  0  0  0
  7  8  1  0  0  0  0
  7 31  1  0  0  0  0
  8  9  2  0  0  0  0
  8 10  1  0  0  0  0
 10 11  1  0  0  0  0
 10 32  1  0  0  0  0
 11 23  1  0  0  0  0
 11 12  1  0  0  0  0
 11 33  1  0  0  0  0
 12 13  1  0  0  0  0
 12 34  1  0  0  0  0
 12 35  1  0  0  0  0
 13 14  1  0  0  0  0
 13 36  1  0  0  0  0
 13 37  1  0  0  0  0
 14 15  1  0  0  0  0
 14 22  1  0  0  0  0
 14 54  1  0  0  0  0
 15 21  1  0  0  0  0
 15 16  1  0  0  0  0
 15 38  1  0  0  0  0
 16 17  1  0  0  0  0
 16 39  1  0  0  0  0
 16 40  1  0  0  0  0
 17 18  1  0  0  0  0
 17 41  1  0  0  0  0
 17 42  1  0  0  0  0
 18 19  1  0  0  0  0
 18 20  1  0  0  0  0
 19 43  1  0  0  0  0
 19 44  1  0  0  0  0
 19 45  1  0  0  0  0
 20 21  1  0  0  0  0
 20 46  1  0  0  0  0
 20 47  1  0  0  0  0
 21 48  1  0  0  0  0
 21 49  1  0  0  0  0
 22 23  1  0  0  0  0
 22 50  1  0  0  0  0
 22 51  1  0  0  0  0
 23 52  1  0  0  0  0
 23 53  1  0  0  0  0
M  CHG  1  14   1
M  END
> <s_m_source_file>
AV-unprocessed.smi

> <i_m_source_file_index>
2237

> <i_lp_mmshare_version>
43012

> <i_f3d_flags>
0

> <s_epik_input>
W0NIM11jMVtjSF1bY0hdW2NIXWMobjEpW05IXUMoPU8pW05IXVtDSF0yW0NIMl1bQ0gyXU4oW0NIMl1bQ0gyXTIpW0NIXTNbQ0gyXVtDSDJdTihbQ0gzXSlbQ0gyXVtDSDJdMw==

> <s_epik_cmdline>
J2VwaWtfcHl0aG9uJywgJy1waCcsICc3LjAnLCAnLXRuJywgJzgnLCAnLW1hJywgJzIwMCcsICctbWV0YWxfYmluZGluZycsICctaW1hZScsICc8aW5maWxlLm1hZT4nLCAnLW9tYWUnLCAnPG91dGZpbGUubWFlPic=

> <r_epik_Ionization_Penalty>
1.37251

> <r_epik_Ionization_Penalty_Charging>
0.00081195

> <r_epik_Ionization_Penalty_Neutral>
1.3717

> <r_epik_State_Penalty>
1.55149

> <r_epik_Charging_Adjusted_Penalty>
1.5523

> <i_epik_Tot_Q>
1

> <i_epik_Tot_abs_Q>
1

> <r_epik_Metal_State_Penalty>
1.55149

> <b_epik_Metal_Only>
0

> <s_lp_Force_Field>
OPLS_2005

> <r_lp_Energy>
34.5276

> <b_lp_Chiralities_Consistent>
1

> <s_lp_Variant>
AV-unprocessed.smi:2237-8

> <Gold.Version>
5.8.1

> <Gold.Id.Protein>
6NUR|6NUR_protein|mol2

> <Gold.PLP.Fitness>
49.1415

> <Gold.PLP.PLP>
-38.1680

> <Gold.PLP.part.hbond>
-3.0000

> <Gold.PLP.part.metal>
0.0000

> <Gold.PLP.part.buried>
-2.1586

> <Gold.PLP.part.nonpolar>
-33.4687

> <Gold.PLP.part.repulsive>
0.1945

> <Gold.PLP.ligand.clash>
0.0458

> <Gold.PLP.ligand.torsion>
0.4049

> <Gold.PLP.Chemscore.Hbond>
3.9280

> <Gold.PLP.Chemscore.CHOScore>
0.0000

> <Gold.PLP.Chemscore.Metal>
0.0000

> <Gold.Chemscore.Hbonds>
donor molecule, donor type, donor heavy atom, donor atom, acceptor molecule, acceptor atom, score
      L1  H     7    31       P1  8028  1.00
      L1  H    10    32       P1  8028  0.93
      L1  H    14    54       P1  7948  1.98

> <Gold.PLP.Chemscore.Internal.Correction>
0.0450

> <Gold.Rescore>
     Score         DG    S(hbond)    S(metal)    S(lipo)     H(rot)  DE(clash)    DE(int)     intcor
     19.58     -23.00       2.77        0.00      97.08       1.21       0.39       3.03       ----

> <Gold.Chemscore.Fitness>
19.5809

> <Gold.Chemscore.DG>
-22.9971

> <Gold.Chemscore.ZeroCoef>
-5.4800

> <Gold.Chemscore.Hbond>
2.7723

> <Gold.Chemscore.Metal>
0.0000

> <Gold.Chemscore.Lipo>
97.0801

> <Gold.Chemscore.Internal_Hbond>
0.0000

> <Gold.Chemscore.DEClash>
0.3878

> <Gold.Chemscore.DEInternal>
3.0284

> <Gold.Chemscore.Rot>
1.2113

> <Gold.Chemscore.Internal.Correction>
   9.000000E+99

> <Gold.Chemscore.Hbonds>
donor molecule, donor type, donor heavy atom, donor atom, acceptor molecule, acceptor atom, score
      L1  H     7    31       P1  8028  0.94
      L1  H    10    32       P1  8028  0.85
      L1  H    14    54       P1  7948  0.89

> <Gold.Chemscore.Hbond.Weighted>
-9.2596

> <Gold.Chemscore.Metal.Weighted>
-0.0000

> <Gold.Chemscore.Lipo.Weighted>
-11.3584

> <Gold.Chemscore.Internal_Hbond.Weighted>
0.0000

> <Gold.Chemscore.DEClash.Weighted>
0.3878

> <Gold.Chemscore.DEInternal.Weighted>
3.0284

> <Gold.Chemscore.Rot.Weighted>
3.1009

> <Gold.Chemscore.Internal.Correction.Weighted>
   9.000000E+99

> <Gold.Protein.RotatedTorsions>
[ 6907 6896 6895 6894 ] final   -9.02 input  -60.11 | X-H torsion
[ 7974 7965 7964 7962 ] final  172.83 input  175.53 | X-H torsion
[ 8008 7997 7996 7995 ] final   24.27 input   59.86 | X-H torsion
[ 10167 10162 10161 10158 ] final  107.16 input  -65.29 | X-H torsion
[ 10718 10713 10712 10709 ] final   -9.78 input   66.30 | X-H torsion
[ 10763 10752 10751 10750 ] final  127.50 input  -60.55 | X-H torsion
[ 11005 11000 10999 10996 ] final -126.31 input  -57.11 | X-H torsion

> <Gold.Protein.ActiveResidues>
 VAL166  LYS551  ARG553  GLY616  TRP617  ASP618  TYR619  PRO620  LYS621  CYS622 
 ASP623  PHE694  ASN695  SER759  ASP760  ASP761  ALA762  ILE779  LEU786  VAL792 
 PHE793  MET794  SER795  GLU796  ALA797  LYS798  CYS799  TRP800  GLU811  SER814 

> <Gold.Protein.RotatedAtoms>
  151.4244  135.1002  159.9623 H   0  0  0  0  0  0  0  0  0  0  0  0  # atno 6907 bound_to 6896
  152.4977  133.8677  159.7293 H   0  0  0  0  0  0  0  0  0  0  0  0  # atno 6908 bound_to 6896
  150.9200  133.6834  159.2862 H   0  0  0  0  0  0  0  0  0  0  0  0  # atno 6909 bound_to 6896
  144.7258  139.9557  143.6433 H   0  0  0  0  0  0  0  0  0  0  0  0  # atno 7974 bound_to 7965
  154.9937  140.3117  155.4896 H   0  0  0  0  0  0  0  0  0  0  0  0  # atno 8008 bound_to 7997
  156.2936  140.2244  156.4983 H   0  0  0  0  0  0  0  0  0  0  0  0  # atno 8009 bound_to 7997
  154.7680  140.0454  157.1016 H   0  0  0  0  0  0  0  0  0  0  0  0  # atno 8010 bound_to 7997
  139.6950  144.7103  151.1283 H   0  0  0  0  0  0  0  0  0  0  0  0  # atno 10167 bound_to 10162
  156.6831  130.5043  149.5965 H   0  0  0  0  0  0  0  0  0  0  0  0  # atno 10718 bound_to 10713
  153.7105  135.3269  155.3245 H   0  0  0  0  0  0  0  0  0  0  0  0  # atno 10763 bound_to 10752
  154.8386  135.4475  154.1319 H   0  0  0  0  0  0  0  0  0  0  0  0  # atno 10764 bound_to 10752
  153.2411  135.6971  153.7861 H   0  0  0  0  0  0  0  0  0  0  0  0  # atno 10765 bound_to 10752
  140.9692  134.0829  157.3888 H   0  0  0  0  0  0  0  0  0  0  0  0  # atno 11005 bound_to 11000
  146.0677  139.3667  143.0542 LP  0  0  0  0  0  0  0  0  0  0  0  0  # atno 17320 bound_to 7965
  145.8009  140.9771  143.0999 LP  0  0  0  0  0  0  0  0  0  0  0  0  # atno 17321 bound_to 7965
  140.7694  143.5505  150.9210 LP  0  0  0  0  0  0  0  0  0  0  0  0  # atno 17342 bound_to 10162
  139.9184  143.6635  152.3101 LP  0  0  0  0  0  0  0  0  0  0  0  0  # atno 17343 bound_to 10162
  156.1853  130.6525  151.0999 LP  0  0  0  0  0  0  0  0  0  0  0  0  # atno 17370 bound_to 10713
  157.7036  131.0766  150.6739 LP  0  0  0  0  0  0  0  0  0  0  0  0  # atno 17371 bound_to 10713
  139.8906  135.0113  156.6743 LP  0  0  0  0  0  0  0  0  0  0  0  0  # atno 17394 bound_to 11000
  140.7354  133.9023  155.8240 LP  0  0  0  0  0  0  0  0  0  0  0  0  # atno 17395 bound_to 11000

$$$$
